WARNING: physical memory size is smaller than virtual memory size.

*** ChampSim Multicore Out-of-Order Simulator ***
Warmup Instructions: 50000000
Simulation Instructions: 600000000
Number of CPUs: 1
Page size: 4096

Off-chip DRAM Size: 4 GiB Channels: 1 Width: 64-bit Data Race: 3200 MT/s
Heartbeat CPU 0 instructions: 10000001 cycles: 2500318 heartbeat IPC: 3.999 cumulative IPC: 3.999 (Simulation time: 00 hr 00 min 37 sec)
Heartbeat CPU 0 instructions: 20000002 cycles: 5037122 heartbeat IPC: 3.942 cumulative IPC: 3.971 (Simulation time: 00 hr 01 min 14 sec)
Heartbeat CPU 0 instructions: 30000002 cycles: 7537122 heartbeat IPC: 4 cumulative IPC: 3.98 (Simulation time: 00 hr 01 min 49 sec)
Heartbeat CPU 0 instructions: 40000002 cycles: 10037122 heartbeat IPC: 4 cumulative IPC: 3.985 (Simulation time: 00 hr 02 min 22 sec)
Heartbeat CPU 0 instructions: 50000002 cycles: 12537122 heartbeat IPC: 4 cumulative IPC: 3.988 (Simulation time: 00 hr 02 min 56 sec)
Warmup finished CPU 0 instructions: 50000002 cycles: 12537123 cumulative IPC: 3.988 (Simulation time: 00 hr 02 min 56 sec)
Warmup complete CPU 0 instructions: 50000002 cycles: 12537123 cumulative IPC: 3.988 (Simulation time: 00 hr 02 min 56 sec)
Heartbeat CPU 0 instructions: 60000000 cycles: 17137655 heartbeat IPC: 2.174 cumulative IPC: 2.174 (Simulation time: 00 hr 03 min 44 sec)
Heartbeat CPU 0 instructions: 70000004 cycles: 21401441 heartbeat IPC: 2.345 cumulative IPC: 2.256 (Simulation time: 00 hr 04 min 32 sec)
Heartbeat CPU 0 instructions: 80000001 cycles: 25987112 heartbeat IPC: 2.181 cumulative IPC: 2.23 (Simulation time: 00 hr 05 min 20 sec)
Heartbeat CPU 0 instructions: 90000001 cycles: 30106950 heartbeat IPC: 2.427 cumulative IPC: 2.277 (Simulation time: 00 hr 06 min 07 sec)
Heartbeat CPU 0 instructions: 100000000 cycles: 34155240 heartbeat IPC: 2.47 cumulative IPC: 2.313 (Simulation time: 00 hr 06 min 53 sec)
Heartbeat CPU 0 instructions: 110000000 cycles: 38387600 heartbeat IPC: 2.363 cumulative IPC: 2.321 (Simulation time: 00 hr 07 min 38 sec)
Heartbeat CPU 0 instructions: 120000001 cycles: 42390422 heartbeat IPC: 2.498 cumulative IPC: 2.345 (Simulation time: 00 hr 08 min 26 sec)
Heartbeat CPU 0 instructions: 130000001 cycles: 46119269 heartbeat IPC: 2.682 cumulative IPC: 2.382 (Simulation time: 00 hr 09 min 10 sec)
Heartbeat CPU 0 instructions: 140000001 cycles: 50270943 heartbeat IPC: 2.409 cumulative IPC: 2.385 (Simulation time: 00 hr 09 min 58 sec)
Heartbeat CPU 0 instructions: 150000001 cycles: 54466954 heartbeat IPC: 2.383 cumulative IPC: 2.385 (Simulation time: 00 hr 10 min 45 sec)
Heartbeat CPU 0 instructions: 160000004 cycles: 58874720 heartbeat IPC: 2.269 cumulative IPC: 2.374 (Simulation time: 00 hr 11 min 32 sec)
Heartbeat CPU 0 instructions: 170000000 cycles: 67809768 heartbeat IPC: 1.119 cumulative IPC: 2.171 (Simulation time: 00 hr 12 min 48 sec)
Heartbeat CPU 0 instructions: 180000004 cycles: 77058233 heartbeat IPC: 1.081 cumulative IPC: 2.015 (Simulation time: 00 hr 14 min 04 sec)
Heartbeat CPU 0 instructions: 190000001 cycles: 87256182 heartbeat IPC: 0.9806 cumulative IPC: 1.874 (Simulation time: 00 hr 15 min 19 sec)
Heartbeat CPU 0 instructions: 200000004 cycles: 91018673 heartbeat IPC: 2.658 cumulative IPC: 1.911 (Simulation time: 00 hr 16 min 02 sec)
Heartbeat CPU 0 instructions: 210000001 cycles: 94918148 heartbeat IPC: 2.564 cumulative IPC: 1.942 (Simulation time: 00 hr 16 min 46 sec)
Heartbeat CPU 0 instructions: 220000000 cycles: 98866284 heartbeat IPC: 2.533 cumulative IPC: 1.969 (Simulation time: 00 hr 17 min 30 sec)
Heartbeat CPU 0 instructions: 230000002 cycles: 103505354 heartbeat IPC: 2.156 cumulative IPC: 1.979 (Simulation time: 00 hr 18 min 16 sec)
Heartbeat CPU 0 instructions: 240000000 cycles: 107679010 heartbeat IPC: 2.396 cumulative IPC: 1.997 (Simulation time: 00 hr 19 min 03 sec)
Heartbeat CPU 0 instructions: 250000000 cycles: 111972670 heartbeat IPC: 2.329 cumulative IPC: 2.011 (Simulation time: 00 hr 19 min 52 sec)
Heartbeat CPU 0 instructions: 260000000 cycles: 116128361 heartbeat IPC: 2.406 cumulative IPC: 2.027 (Simulation time: 00 hr 20 min 39 sec)
Heartbeat CPU 0 instructions: 270000002 cycles: 119963257 heartbeat IPC: 2.608 cumulative IPC: 2.048 (Simulation time: 00 hr 21 min 25 sec)
Heartbeat CPU 0 instructions: 280000002 cycles: 124114193 heartbeat IPC: 2.409 cumulative IPC: 2.061 (Simulation time: 00 hr 22 min 11 sec)
Heartbeat CPU 0 instructions: 290000001 cycles: 127997566 heartbeat IPC: 2.575 cumulative IPC: 2.079 (Simulation time: 00 hr 22 min 57 sec)
Heartbeat CPU 0 instructions: 300000003 cycles: 131802559 heartbeat IPC: 2.628 cumulative IPC: 2.096 (Simulation time: 00 hr 23 min 44 sec)
Heartbeat CPU 0 instructions: 310000001 cycles: 135909216 heartbeat IPC: 2.435 cumulative IPC: 2.107 (Simulation time: 00 hr 24 min 31 sec)
Heartbeat CPU 0 instructions: 320000003 cycles: 139971880 heartbeat IPC: 2.461 cumulative IPC: 2.119 (Simulation time: 00 hr 25 min 18 sec)
Heartbeat CPU 0 instructions: 330000003 cycles: 144357942 heartbeat IPC: 2.28 cumulative IPC: 2.124 (Simulation time: 00 hr 26 min 06 sec)
Heartbeat CPU 0 instructions: 340000000 cycles: 153722986 heartbeat IPC: 1.068 cumulative IPC: 2.054 (Simulation time: 00 hr 27 min 24 sec)
Heartbeat CPU 0 instructions: 350000000 cycles: 163775776 heartbeat IPC: 0.9947 cumulative IPC: 1.984 (Simulation time: 00 hr 28 min 46 sec)
Heartbeat CPU 0 instructions: 360000004 cycles: 174182189 heartbeat IPC: 0.9609 cumulative IPC: 1.918 (Simulation time: 00 hr 30 min 10 sec)
Heartbeat CPU 0 instructions: 370000000 cycles: 177617038 heartbeat IPC: 2.911 cumulative IPC: 1.938 (Simulation time: 00 hr 30 min 53 sec)
Heartbeat CPU 0 instructions: 380000001 cycles: 181022920 heartbeat IPC: 2.936 cumulative IPC: 1.959 (Simulation time: 00 hr 31 min 36 sec)
Heartbeat CPU 0 instructions: 390000004 cycles: 184761958 heartbeat IPC: 2.674 cumulative IPC: 1.974 (Simulation time: 00 hr 32 min 20 sec)
Heartbeat CPU 0 instructions: 400000004 cycles: 188567239 heartbeat IPC: 2.628 cumulative IPC: 1.988 (Simulation time: 00 hr 33 min 04 sec)
Heartbeat CPU 0 instructions: 410000001 cycles: 192213728 heartbeat IPC: 2.742 cumulative IPC: 2.004 (Simulation time: 00 hr 33 min 48 sec)
Heartbeat CPU 0 instructions: 420000003 cycles: 196261535 heartbeat IPC: 2.47 cumulative IPC: 2.014 (Simulation time: 00 hr 34 min 33 sec)
Heartbeat CPU 0 instructions: 430000001 cycles: 199925160 heartbeat IPC: 2.73 cumulative IPC: 2.028 (Simulation time: 00 hr 35 min 17 sec)
Heartbeat CPU 0 instructions: 440000004 cycles: 204000364 heartbeat IPC: 2.454 cumulative IPC: 2.037 (Simulation time: 00 hr 36 min 03 sec)
Heartbeat CPU 0 instructions: 450000002 cycles: 207717201 heartbeat IPC: 2.69 cumulative IPC: 2.049 (Simulation time: 00 hr 36 min 47 sec)
Heartbeat CPU 0 instructions: 460000000 cycles: 211377661 heartbeat IPC: 2.732 cumulative IPC: 2.062 (Simulation time: 00 hr 37 min 29 sec)
Heartbeat CPU 0 instructions: 470000000 cycles: 214836778 heartbeat IPC: 2.891 cumulative IPC: 2.076 (Simulation time: 00 hr 38 min 10 sec)
Heartbeat CPU 0 instructions: 480000003 cycles: 218684759 heartbeat IPC: 2.599 cumulative IPC: 2.086 (Simulation time: 00 hr 38 min 53 sec)
Heartbeat CPU 0 instructions: 490000000 cycles: 222317944 heartbeat IPC: 2.752 cumulative IPC: 2.097 (Simulation time: 00 hr 39 min 37 sec)
Heartbeat CPU 0 instructions: 500000000 cycles: 226015201 heartbeat IPC: 2.705 cumulative IPC: 2.108 (Simulation time: 00 hr 40 min 21 sec)
Heartbeat CPU 0 instructions: 510000003 cycles: 229708044 heartbeat IPC: 2.708 cumulative IPC: 2.118 (Simulation time: 00 hr 41 min 04 sec)
Heartbeat CPU 0 instructions: 520000001 cycles: 233107564 heartbeat IPC: 2.942 cumulative IPC: 2.131 (Simulation time: 00 hr 41 min 45 sec)
Heartbeat CPU 0 instructions: 530000002 cycles: 236799950 heartbeat IPC: 2.708 cumulative IPC: 2.14 (Simulation time: 00 hr 42 min 27 sec)
Heartbeat CPU 0 instructions: 540000000 cycles: 240321285 heartbeat IPC: 2.84 cumulative IPC: 2.151 (Simulation time: 00 hr 43 min 09 sec)
Heartbeat CPU 0 instructions: 550000001 cycles: 244013949 heartbeat IPC: 2.708 cumulative IPC: 2.16 (Simulation time: 00 hr 43 min 51 sec)
Heartbeat CPU 0 instructions: 560000000 cycles: 248030443 heartbeat IPC: 2.49 cumulative IPC: 2.166 (Simulation time: 00 hr 44 min 34 sec)
Heartbeat CPU 0 instructions: 570000004 cycles: 254385540 heartbeat IPC: 1.574 cumulative IPC: 2.15 (Simulation time: 00 hr 45 min 29 sec)
Heartbeat CPU 0 instructions: 580000003 cycles: 265200552 heartbeat IPC: 0.9246 cumulative IPC: 2.098 (Simulation time: 00 hr 46 min 49 sec)
Heartbeat CPU 0 instructions: 590000002 cycles: 278019462 heartbeat IPC: 0.7801 cumulative IPC: 2.034 (Simulation time: 00 hr 48 min 19 sec)
Heartbeat CPU 0 instructions: 600000000 cycles: 281793593 heartbeat IPC: 2.65 cumulative IPC: 2.043 (Simulation time: 00 hr 49 min 01 sec)
Heartbeat CPU 0 instructions: 610000000 cycles: 285642833 heartbeat IPC: 2.598 cumulative IPC: 2.05 (Simulation time: 00 hr 49 min 43 sec)
Heartbeat CPU 0 instructions: 620000001 cycles: 289066947 heartbeat IPC: 2.92 cumulative IPC: 2.061 (Simulation time: 00 hr 50 min 24 sec)
Heartbeat CPU 0 instructions: 630000002 cycles: 293333657 heartbeat IPC: 2.344 cumulative IPC: 2.066 (Simulation time: 00 hr 51 min 08 sec)
Heartbeat CPU 0 instructions: 640000001 cycles: 297227450 heartbeat IPC: 2.568 cumulative IPC: 2.072 (Simulation time: 00 hr 51 min 51 sec)
Heartbeat CPU 0 instructions: 650000000 cycles: 300981338 heartbeat IPC: 2.664 cumulative IPC: 2.08 (Simulation time: 00 hr 52 min 36 sec)
Simulation finished CPU 0 instructions: 600000001 cycles: 288444217 cumulative IPC: 2.08 (Simulation time: 00 hr 52 min 36 sec)
Simulation complete CPU 0 instructions: 600000001 cycles: 288444217 cumulative IPC: 2.08 (Simulation time: 00 hr 52 min 36 sec)

ChampSim completed all CPUs

=== Simulation ===
CPU 0 runs traces/400.perlbench-41B.champsimtrace.xz
Region of Interest Statistics

CPU 0 cumulative IPC: 2.08 instructions: 600000001 cycles: 288444217
CPU 0 Branch Prediction Accuracy: 96.56% MPKI: 7.112 Average ROB Occupancy at Mispredict: 47.3
Branch type MPKI
BRANCH_DIRECT_JUMP: 0.0123
BRANCH_INDIRECT: 0.323
BRANCH_CONDITIONAL: 6.56
BRANCH_DIRECT_CALL: 0.0043
BRANCH_INDIRECT_CALL: 0.2
BRANCH_RETURN: 0.00828

LLC TOTAL        ACCESS:     593477 HIT:     353933 MISS:     239544
LLC LOAD         ACCESS:     403181 HIT:     205157 MISS:     198024
LLC RFO          ACCESS:      32495 HIT:      25311 MISS:       7184
LLC PREFETCH     ACCESS:      53172 HIT:      41504 MISS:      11668
LLC WRITE        ACCESS:      85555 HIT:      76115 MISS:       9440
LLC TRANSLATION  ACCESS:      19074 HIT:       5846 MISS:      13228
LLC PREFETCH REQUESTED:      53172 ISSUED:      53172 USEFUL:       4571 USELESS:       6015
LLC AVERAGE MISS LATENCY: 507.2 cycles
cpu0_DTLB TOTAL        ACCESS:  141923635 HIT:  141235882 MISS:     687753
cpu0_DTLB LOAD         ACCESS:  141923635 HIT:  141235882 MISS:     687753
cpu0_DTLB RFO          ACCESS:          0 HIT:          0 MISS:          0
cpu0_DTLB PREFETCH     ACCESS:          0 HIT:          0 MISS:          0
cpu0_DTLB WRITE        ACCESS:          0 HIT:          0 MISS:          0
cpu0_DTLB TRANSLATION  ACCESS:          0 HIT:          0 MISS:          0
cpu0_DTLB PREFETCH REQUESTED:          0 ISSUED:          0 USEFUL:          0 USELESS:          0
cpu0_DTLB AVERAGE MISS LATENCY: 16.74 cycles
cpu0_ITLB TOTAL        ACCESS:    4863763 HIT:    4810646 MISS:      53117
cpu0_ITLB LOAD         ACCESS:    4863763 HIT:    4810646 MISS:      53117
cpu0_ITLB RFO          ACCESS:          0 HIT:          0 MISS:          0
cpu0_ITLB PREFETCH     ACCESS:          0 HIT:          0 MISS:          0
cpu0_ITLB WRITE        ACCESS:          0 HIT:          0 MISS:          0
cpu0_ITLB TRANSLATION  ACCESS:          0 HIT:          0 MISS:          0
cpu0_ITLB PREFETCH REQUESTED:          0 ISSUED:          0 USEFUL:          0 USELESS:          0
cpu0_ITLB AVERAGE MISS LATENCY: 8.06 cycles
cpu0_L1D TOTAL        ACCESS:  188575355 HIT:  186870076 MISS:    1705279
cpu0_L1D LOAD         ACCESS:  105207614 HIT:  103868390 MISS:    1339224
cpu0_L1D RFO          ACCESS:          0 HIT:          0 MISS:          0
cpu0_L1D PREFETCH     ACCESS:          0 HIT:          0 MISS:          0
cpu0_L1D WRITE        ACCESS:   83343278 HIT:   83000627 MISS:     342651
cpu0_L1D TRANSLATION  ACCESS:      24463 HIT:       1059 MISS:      23404
cpu0_L1D PREFETCH REQUESTED:          0 ISSUED:          0 USEFUL:          0 USELESS:          0
cpu0_L1D AVERAGE MISS LATENCY: 71.99 cycles
cpu0_L1I TOTAL        ACCESS:    5601311 HIT:    4857775 MISS:     743536
cpu0_L1I LOAD         ACCESS:    5601311 HIT:    4857775 MISS:     743536
cpu0_L1I RFO          ACCESS:          0 HIT:          0 MISS:          0
cpu0_L1I PREFETCH     ACCESS:          0 HIT:          0 MISS:          0
cpu0_L1I WRITE        ACCESS:          0 HIT:          0 MISS:          0
cpu0_L1I TRANSLATION  ACCESS:          0 HIT:          0 MISS:          0
cpu0_L1I PREFETCH REQUESTED:          0 ISSUED:          0 USEFUL:          0 USELESS:          0
cpu0_L1I AVERAGE MISS LATENCY: 14.57 cycles
cpu0_L2C TOTAL        ACCESS:    1666015 HIT:    1209438 MISS:     456577
cpu0_L2C LOAD         ACCESS:    1315966 HIT:     912785 MISS:     403181
cpu0_L2C RFO          ACCESS:      88334 HIT:      55839 MISS:      32495
cpu0_L2C PREFETCH     ACCESS:          0 HIT:          0 MISS:          0
cpu0_L2C WRITE        ACCESS:     238380 HIT:     236553 MISS:       1827
cpu0_L2C TRANSLATION  ACCESS:      23335 HIT:       4261 MISS:      19074
cpu0_L2C PREFETCH REQUESTED:          0 ISSUED:          0 USEFUL:          0 USELESS:          0
cpu0_L2C AVERAGE MISS LATENCY: 270.9 cycles
cpu0_STLB TOTAL        ACCESS:     507444 HIT:     484649 MISS:      22795
cpu0_STLB LOAD         ACCESS:     507444 HIT:     484649 MISS:      22795
cpu0_STLB RFO          ACCESS:          0 HIT:          0 MISS:          0
cpu0_STLB PREFETCH     ACCESS:          0 HIT:          0 MISS:          0
cpu0_STLB WRITE        ACCESS:          0 HIT:          0 MISS:          0
cpu0_STLB TRANSLATION  ACCESS:          0 HIT:          0 MISS:          0
cpu0_STLB PREFETCH REQUESTED:          0 ISSUED:          0 USEFUL:          0 USELESS:          0
cpu0_STLB AVERAGE MISS LATENCY: 388.4 cycles

DRAM Statistics

Channel 0 RQ ROW_BUFFER_HIT:      47916
  ROW_BUFFER_MISS:     180735
 AVG DBUS CONGESTED CYCLE: 3.74
WQ ROW_BUFFER_HIT: Channel 0 
  ROW_BUFFER_MISS:       5365
  FULL:       8429
