WARNING: physical memory size is smaller than virtual memory size.

*** ChampSim Multicore Out-of-Order Simulator ***
Warmup Instructions: 50000000
Simulation Instructions: 600000000
Number of CPUs: 1
Page size: 4096

Off-chip DRAM Size: 4 GiB Channels: 1 Width: 64-bit Data Race: 3200 MT/s
Heartbeat CPU 0 instructions: 10000001 cycles: 2500318 heartbeat IPC: 3.999 cumulative IPC: 3.999 (Simulation time: 00 hr 00 min 57 sec)
Heartbeat CPU 0 instructions: 20000002 cycles: 5037136 heartbeat IPC: 3.942 cumulative IPC: 3.971 (Simulation time: 00 hr 01 min 46 sec)
Heartbeat CPU 0 instructions: 30000002 cycles: 7537136 heartbeat IPC: 4 cumulative IPC: 3.98 (Simulation time: 00 hr 02 min 30 sec)
Heartbeat CPU 0 instructions: 40000002 cycles: 10037136 heartbeat IPC: 4 cumulative IPC: 3.985 (Simulation time: 00 hr 03 min 16 sec)
Heartbeat CPU 0 instructions: 50000002 cycles: 12537136 heartbeat IPC: 4 cumulative IPC: 3.988 (Simulation time: 00 hr 04 min 00 sec)
Warmup finished CPU 0 instructions: 50000002 cycles: 12537137 cumulative IPC: 3.988 (Simulation time: 00 hr 04 min 00 sec)
Warmup complete CPU 0 instructions: 50000002 cycles: 12537137 cumulative IPC: 3.988 (Simulation time: 00 hr 04 min 00 sec)
Heartbeat CPU 0 instructions: 60000000 cycles: 17160691 heartbeat IPC: 2.163 cumulative IPC: 2.163 (Simulation time: 00 hr 05 min 06 sec)
Heartbeat CPU 0 instructions: 70000004 cycles: 21446583 heartbeat IPC: 2.333 cumulative IPC: 2.245 (Simulation time: 00 hr 06 min 09 sec)
Heartbeat CPU 0 instructions: 80000001 cycles: 26053735 heartbeat IPC: 2.171 cumulative IPC: 2.219 (Simulation time: 00 hr 07 min 15 sec)
Heartbeat CPU 0 instructions: 90000001 cycles: 30189585 heartbeat IPC: 2.418 cumulative IPC: 2.266 (Simulation time: 00 hr 08 min 18 sec)
Heartbeat CPU 0 instructions: 100000000 cycles: 34251937 heartbeat IPC: 2.462 cumulative IPC: 2.303 (Simulation time: 00 hr 09 min 21 sec)
Heartbeat CPU 0 instructions: 110000000 cycles: 38491730 heartbeat IPC: 2.359 cumulative IPC: 2.312 (Simulation time: 00 hr 10 min 24 sec)
Heartbeat CPU 0 instructions: 120000001 cycles: 42509335 heartbeat IPC: 2.489 cumulative IPC: 2.335 (Simulation time: 00 hr 11 min 27 sec)
Heartbeat CPU 0 instructions: 130000001 cycles: 46254471 heartbeat IPC: 2.67 cumulative IPC: 2.373 (Simulation time: 00 hr 12 min 30 sec)
Heartbeat CPU 0 instructions: 140000001 cycles: 50434246 heartbeat IPC: 2.392 cumulative IPC: 2.375 (Simulation time: 00 hr 13 min 35 sec)
Heartbeat CPU 0 instructions: 150000001 cycles: 54645404 heartbeat IPC: 2.375 cumulative IPC: 2.375 (Simulation time: 00 hr 14 min 39 sec)
Heartbeat CPU 0 instructions: 160000004 cycles: 59076640 heartbeat IPC: 2.257 cumulative IPC: 2.364 (Simulation time: 00 hr 15 min 44 sec)
Heartbeat CPU 0 instructions: 170000004 cycles: 69494918 heartbeat IPC: 0.9599 cumulative IPC: 2.107 (Simulation time: 00 hr 17 min 39 sec)
Heartbeat CPU 0 instructions: 180000004 cycles: 81579227 heartbeat IPC: 0.8275 cumulative IPC: 1.883 (Simulation time: 00 hr 19 min 48 sec)
Heartbeat CPU 0 instructions: 190000001 cycles: 92644337 heartbeat IPC: 0.9037 cumulative IPC: 1.748 (Simulation time: 00 hr 21 min 51 sec)
Heartbeat CPU 0 instructions: 200000004 cycles: 96423803 heartbeat IPC: 2.646 cumulative IPC: 1.788 (Simulation time: 00 hr 22 min 51 sec)
Heartbeat CPU 0 instructions: 210000001 cycles: 100342020 heartbeat IPC: 2.552 cumulative IPC: 1.822 (Simulation time: 00 hr 23 min 52 sec)
Heartbeat CPU 0 instructions: 220000000 cycles: 104300209 heartbeat IPC: 2.526 cumulative IPC: 1.853 (Simulation time: 00 hr 24 min 53 sec)
Heartbeat CPU 0 instructions: 230000002 cycles: 108974568 heartbeat IPC: 2.139 cumulative IPC: 1.866 (Simulation time: 00 hr 25 min 59 sec)
Heartbeat CPU 0 instructions: 240000000 cycles: 113174356 heartbeat IPC: 2.381 cumulative IPC: 1.888 (Simulation time: 00 hr 27 min 02 sec)
Heartbeat CPU 0 instructions: 250000000 cycles: 117497450 heartbeat IPC: 2.313 cumulative IPC: 1.905 (Simulation time: 00 hr 28 min 06 sec)
Heartbeat CPU 0 instructions: 260000000 cycles: 121682301 heartbeat IPC: 2.39 cumulative IPC: 1.924 (Simulation time: 00 hr 29 min 09 sec)
Heartbeat CPU 0 instructions: 270000002 cycles: 125535309 heartbeat IPC: 2.595 cumulative IPC: 1.947 (Simulation time: 00 hr 30 min 09 sec)
Heartbeat CPU 0 instructions: 280000002 cycles: 129706180 heartbeat IPC: 2.398 cumulative IPC: 1.963 (Simulation time: 00 hr 31 min 12 sec)
Heartbeat CPU 0 instructions: 290000001 cycles: 133611513 heartbeat IPC: 2.561 cumulative IPC: 1.982 (Simulation time: 00 hr 32 min 14 sec)
Heartbeat CPU 0 instructions: 300000003 cycles: 137439529 heartbeat IPC: 2.612 cumulative IPC: 2.002 (Simulation time: 00 hr 33 min 15 sec)
Heartbeat CPU 0 instructions: 310000001 cycles: 141579519 heartbeat IPC: 2.415 cumulative IPC: 2.015 (Simulation time: 00 hr 34 min 21 sec)
Heartbeat CPU 0 instructions: 320000003 cycles: 145670025 heartbeat IPC: 2.445 cumulative IPC: 2.028 (Simulation time: 00 hr 35 min 24 sec)
Heartbeat CPU 0 instructions: 330000003 cycles: 150086682 heartbeat IPC: 2.264 cumulative IPC: 2.036 (Simulation time: 00 hr 36 min 29 sec)
Heartbeat CPU 0 instructions: 340000000 cycles: 160825164 heartbeat IPC: 0.9312 cumulative IPC: 1.956 (Simulation time: 00 hr 38 min 27 sec)
Heartbeat CPU 0 instructions: 350000000 cycles: 173356383 heartbeat IPC: 0.798 cumulative IPC: 1.865 (Simulation time: 00 hr 40 min 42 sec)
Heartbeat CPU 0 instructions: 360000004 cycles: 184537206 heartbeat IPC: 0.8944 cumulative IPC: 1.802 (Simulation time: 00 hr 42 min 44 sec)
Heartbeat CPU 0 instructions: 370000000 cycles: 187983176 heartbeat IPC: 2.902 cumulative IPC: 1.824 (Simulation time: 00 hr 43 min 41 sec)
Heartbeat CPU 0 instructions: 380000001 cycles: 191403991 heartbeat IPC: 2.923 cumulative IPC: 1.845 (Simulation time: 00 hr 44 min 40 sec)
Heartbeat CPU 0 instructions: 390000004 cycles: 195151993 heartbeat IPC: 2.668 cumulative IPC: 1.862 (Simulation time: 00 hr 45 min 40 sec)
Heartbeat CPU 0 instructions: 400000004 cycles: 198963174 heartbeat IPC: 2.624 cumulative IPC: 1.877 (Simulation time: 00 hr 46 min 41 sec)
Heartbeat CPU 0 instructions: 410000001 cycles: 202630373 heartbeat IPC: 2.727 cumulative IPC: 1.894 (Simulation time: 00 hr 47 min 41 sec)
Heartbeat CPU 0 instructions: 420000003 cycles: 206777140 heartbeat IPC: 2.412 cumulative IPC: 1.905 (Simulation time: 00 hr 48 min 44 sec)
Heartbeat CPU 0 instructions: 430000001 cycles: 210446837 heartbeat IPC: 2.725 cumulative IPC: 1.92 (Simulation time: 00 hr 49 min 44 sec)
Heartbeat CPU 0 instructions: 440000004 cycles: 214538826 heartbeat IPC: 2.444 cumulative IPC: 1.931 (Simulation time: 00 hr 50 min 46 sec)
Heartbeat CPU 0 instructions: 450000002 cycles: 218276769 heartbeat IPC: 2.675 cumulative IPC: 1.944 (Simulation time: 00 hr 51 min 46 sec)
Heartbeat CPU 0 instructions: 460000000 cycles: 221956151 heartbeat IPC: 2.718 cumulative IPC: 1.958 (Simulation time: 00 hr 52 min 45 sec)
Heartbeat CPU 0 instructions: 470000000 cycles: 225421502 heartbeat IPC: 2.886 cumulative IPC: 1.973 (Simulation time: 00 hr 53 min 43 sec)
Heartbeat CPU 0 instructions: 480000003 cycles: 229281047 heartbeat IPC: 2.591 cumulative IPC: 1.984 (Simulation time: 00 hr 54 min 44 sec)
Heartbeat CPU 0 instructions: 490000000 cycles: 232919384 heartbeat IPC: 2.749 cumulative IPC: 1.997 (Simulation time: 00 hr 55 min 42 sec)
Heartbeat CPU 0 instructions: 500000000 cycles: 236618789 heartbeat IPC: 2.703 cumulative IPC: 2.008 (Simulation time: 00 hr 56 min 42 sec)
Heartbeat CPU 0 instructions: 510000003 cycles: 240348230 heartbeat IPC: 2.681 cumulative IPC: 2.019 (Simulation time: 00 hr 57 min 44 sec)
Heartbeat CPU 0 instructions: 520000001 cycles: 243766954 heartbeat IPC: 2.925 cumulative IPC: 2.033 (Simulation time: 00 hr 58 min 43 sec)
Heartbeat CPU 0 instructions: 530000002 cycles: 247466152 heartbeat IPC: 2.703 cumulative IPC: 2.043 (Simulation time: 00 hr 59 min 43 sec)
Heartbeat CPU 0 instructions: 540000000 cycles: 251004685 heartbeat IPC: 2.826 cumulative IPC: 2.055 (Simulation time: 01 hr 00 min 41 sec)
Heartbeat CPU 0 instructions: 550000001 cycles: 254707306 heartbeat IPC: 2.701 cumulative IPC: 2.065 (Simulation time: 01 hr 01 min 40 sec)
Heartbeat CPU 0 instructions: 560000000 cycles: 258750801 heartbeat IPC: 2.473 cumulative IPC: 2.071 (Simulation time: 01 hr 02 min 42 sec)
Heartbeat CPU 0 instructions: 570000004 cycles: 265590820 heartbeat IPC: 1.462 cumulative IPC: 2.055 (Simulation time: 01 hr 04 min 09 sec)
Heartbeat CPU 0 instructions: 580000003 cycles: 278319975 heartbeat IPC: 0.7856 cumulative IPC: 1.994 (Simulation time: 01 hr 06 min 27 sec)
Heartbeat CPU 0 instructions: 590000002 cycles: 293059257 heartbeat IPC: 0.6785 cumulative IPC: 1.925 (Simulation time: 01 hr 09 min 00 sec)
Heartbeat CPU 0 instructions: 600000000 cycles: 296871525 heartbeat IPC: 2.623 cumulative IPC: 1.934 (Simulation time: 01 hr 10 min 00 sec)
Heartbeat CPU 0 instructions: 610000000 cycles: 300734204 heartbeat IPC: 2.589 cumulative IPC: 1.943 (Simulation time: 01 hr 11 min 01 sec)
Heartbeat CPU 0 instructions: 620000001 cycles: 304170980 heartbeat IPC: 2.91 cumulative IPC: 1.955 (Simulation time: 01 hr 12 min 00 sec)
Heartbeat CPU 0 instructions: 630000002 cycles: 308456502 heartbeat IPC: 2.333 cumulative IPC: 1.96 (Simulation time: 01 hr 12 min 55 sec)
Heartbeat CPU 0 instructions: 640000001 cycles: 312353885 heartbeat IPC: 2.566 cumulative IPC: 1.968 (Simulation time: 01 hr 13 min 43 sec)
Heartbeat CPU 0 instructions: 650000000 cycles: 316110575 heartbeat IPC: 2.662 cumulative IPC: 1.976 (Simulation time: 01 hr 14 min 28 sec)
Simulation finished CPU 0 instructions: 600000001 cycles: 303573440 cumulative IPC: 1.976 (Simulation time: 01 hr 14 min 28 sec)
Simulation complete CPU 0 instructions: 600000001 cycles: 303573440 cumulative IPC: 1.976 (Simulation time: 01 hr 14 min 28 sec)

ChampSim completed all CPUs

=== Simulation ===
CPU 0 runs traces/400.perlbench-41B.champsimtrace.xz
Region of Interest Statistics

CPU 0 cumulative IPC: 1.976 instructions: 600000001 cycles: 303573440
CPU 0 Branch Prediction Accuracy: 96.56% MPKI: 7.112 Average ROB Occupancy at Mispredict: 47.58
Branch type MPKI
BRANCH_DIRECT_JUMP: 0.0123
BRANCH_INDIRECT: 0.323
BRANCH_CONDITIONAL: 6.56
BRANCH_DIRECT_CALL: 0.0043
BRANCH_INDIRECT_CALL: 0.2
BRANCH_RETURN: 0.00828

LLC TOTAL        ACCESS:     539768 HIT:     253300 MISS:     286468
LLC LOAD         ACCESS:     402976 HIT:     151978 MISS:     250998
LLC RFO          ACCESS:      32543 HIT:      14792 MISS:      17751
LLC PREFETCH     ACCESS:          0 HIT:          0 MISS:          0
LLC WRITE        ACCESS:      85191 HIT:      79198 MISS:       5993
LLC TRANSLATION  ACCESS:      19058 HIT:       7332 MISS:      11726
LLC PREFETCH REQUESTED:          0 ISSUED:          0 USEFUL:          0 USELESS:          0
LLC AVERAGE MISS LATENCY: 565.7 cycles
cpu0_DTLB TOTAL        ACCESS:  141895215 HIT:  141207472 MISS:     687743
cpu0_DTLB LOAD         ACCESS:  141895215 HIT:  141207472 MISS:     687743
cpu0_DTLB RFO          ACCESS:          0 HIT:          0 MISS:          0
cpu0_DTLB PREFETCH     ACCESS:          0 HIT:          0 MISS:          0
cpu0_DTLB WRITE        ACCESS:          0 HIT:          0 MISS:          0
cpu0_DTLB TRANSLATION  ACCESS:          0 HIT:          0 MISS:          0
cpu0_DTLB PREFETCH REQUESTED:          0 ISSUED:          0 USEFUL:          0 USELESS:          0
cpu0_DTLB AVERAGE MISS LATENCY: 16.87 cycles
cpu0_ITLB TOTAL        ACCESS:    4858572 HIT:    4805460 MISS:      53112
cpu0_ITLB LOAD         ACCESS:    4858572 HIT:    4805460 MISS:      53112
cpu0_ITLB RFO          ACCESS:          0 HIT:          0 MISS:          0
cpu0_ITLB PREFETCH     ACCESS:          0 HIT:          0 MISS:          0
cpu0_ITLB WRITE        ACCESS:          0 HIT:          0 MISS:          0
cpu0_ITLB TRANSLATION  ACCESS:          0 HIT:          0 MISS:          0
cpu0_ITLB PREFETCH REQUESTED:          0 ISSUED:          0 USEFUL:          0 USELESS:          0
cpu0_ITLB AVERAGE MISS LATENCY: 8.473 cycles
cpu0_L1D TOTAL        ACCESS:  188541413 HIT:  186795423 MISS:    1745990
cpu0_L1D LOAD         ACCESS:  105174095 HIT:  103808708 MISS:    1365387
cpu0_L1D RFO          ACCESS:          0 HIT:          0 MISS:          0
cpu0_L1D PREFETCH     ACCESS:          0 HIT:          0 MISS:          0
cpu0_L1D WRITE        ACCESS:   83342858 HIT:   82985651 MISS:     357207
cpu0_L1D TRANSLATION  ACCESS:      24460 HIT:       1064 MISS:      23396
cpu0_L1D PREFETCH REQUESTED:          0 ISSUED:          0 USEFUL:          0 USELESS:          0
cpu0_L1D AVERAGE MISS LATENCY: 94.99 cycles
cpu0_L1I TOTAL        ACCESS:    5596199 HIT:    4852693 MISS:     743506
cpu0_L1I LOAD         ACCESS:    5596199 HIT:    4852693 MISS:     743506
cpu0_L1I RFO          ACCESS:          0 HIT:          0 MISS:          0
cpu0_L1I PREFETCH     ACCESS:          0 HIT:          0 MISS:          0
cpu0_L1I WRITE        ACCESS:          0 HIT:          0 MISS:          0
cpu0_L1I TRANSLATION  ACCESS:          0 HIT:          0 MISS:          0
cpu0_L1I PREFETCH REQUESTED:          0 ISSUED:          0 USEFUL:          0 USELESS:          0
cpu0_L1I AVERAGE MISS LATENCY: 18.22 cycles
cpu0_L2C TOTAL        ACCESS:    1665615 HIT:    1209235 MISS:     456380
cpu0_L2C LOAD         ACCESS:    1315902 HIT:     912926 MISS:     402976
cpu0_L2C RFO          ACCESS:      88372 HIT:      55828 MISS:      32544
cpu0_L2C PREFETCH     ACCESS:          0 HIT:          0 MISS:          0
cpu0_L2C WRITE        ACCESS:     238017 HIT:     236215 MISS:       1802
cpu0_L2C TRANSLATION  ACCESS:      23324 HIT:       4266 MISS:      19058
cpu0_L2C PREFETCH REQUESTED:          0 ISSUED:          0 USEFUL:          0 USELESS:          0
cpu0_L2C AVERAGE MISS LATENCY: 375.6 cycles
cpu0_STLB TOTAL        ACCESS:     507466 HIT:     484673 MISS:      22793
cpu0_STLB LOAD         ACCESS:     507466 HIT:     484673 MISS:      22793
cpu0_STLB RFO          ACCESS:          0 HIT:          0 MISS:          0
cpu0_STLB PREFETCH     ACCESS:          0 HIT:          0 MISS:          0
cpu0_STLB WRITE        ACCESS:          0 HIT:          0 MISS:          0
cpu0_STLB TRANSLATION  ACCESS:          0 HIT:          0 MISS:          0
cpu0_STLB PREFETCH REQUESTED:          0 ISSUED:          0 USEFUL:          0 USELESS:          0
cpu0_STLB AVERAGE MISS LATENCY: 395.1 cycles

DRAM Statistics

Channel 0 RQ ROW_BUFFER_HIT:      39751
  ROW_BUFFER_MISS:     240656
 AVG DBUS CONGESTED CYCLE: 3.823
WQ ROW_BUFFER_HIT: Channel 0 
  ROW_BUFFER_MISS:       8193
  FULL:      40202
