WARNING: physical memory size is smaller than virtual memory size.

*** ChampSim Multicore Out-of-Order Simulator ***
Warmup Instructions: 50000000
Simulation Instructions: 600000000
Number of CPUs: 1
Page size: 4096

Off-chip DRAM Size: 4 GiB Channels: 1 Width: 64-bit Data Race: 3200 MT/s
Heartbeat CPU 0 instructions: 10000000 cycles: 2500061 heartbeat IPC: 4 cumulative IPC: 4 (Simulation time: 00 hr 00 min 27 sec)
Heartbeat CPU 0 instructions: 20000000 cycles: 5000061 heartbeat IPC: 4 cumulative IPC: 4 (Simulation time: 00 hr 00 min 56 sec)
Heartbeat CPU 0 instructions: 30000000 cycles: 7500061 heartbeat IPC: 4 cumulative IPC: 4 (Simulation time: 00 hr 01 min 27 sec)
Heartbeat CPU 0 instructions: 40000000 cycles: 10000061 heartbeat IPC: 4 cumulative IPC: 4 (Simulation time: 00 hr 01 min 59 sec)
Heartbeat CPU 0 instructions: 50000000 cycles: 12500061 heartbeat IPC: 4 cumulative IPC: 4 (Simulation time: 00 hr 02 min 32 sec)
Warmup finished CPU 0 instructions: 50000000 cycles: 12500062 cumulative IPC: 4 (Simulation time: 00 hr 02 min 32 sec)
Warmup complete CPU 0 instructions: 50000000 cycles: 12500062 cumulative IPC: 4 (Simulation time: 00 hr 02 min 32 sec)
Heartbeat CPU 0 instructions: 60000002 cycles: 16435783 heartbeat IPC: 2.541 cumulative IPC: 2.541 (Simulation time: 00 hr 03 min 17 sec)
Heartbeat CPU 0 instructions: 70000003 cycles: 20749204 heartbeat IPC: 2.318 cumulative IPC: 2.424 (Simulation time: 00 hr 04 min 01 sec)
Heartbeat CPU 0 instructions: 80000003 cycles: 25212938 heartbeat IPC: 2.24 cumulative IPC: 2.36 (Simulation time: 00 hr 04 min 47 sec)
Heartbeat CPU 0 instructions: 90000000 cycles: 28902625 heartbeat IPC: 2.71 cumulative IPC: 2.439 (Simulation time: 00 hr 05 min 30 sec)
Heartbeat CPU 0 instructions: 100000003 cycles: 32797283 heartbeat IPC: 2.568 cumulative IPC: 2.463 (Simulation time: 00 hr 06 min 14 sec)
Heartbeat CPU 0 instructions: 110000002 cycles: 36888882 heartbeat IPC: 2.444 cumulative IPC: 2.46 (Simulation time: 00 hr 06 min 57 sec)
Heartbeat CPU 0 instructions: 120000001 cycles: 40602045 heartbeat IPC: 2.693 cumulative IPC: 2.491 (Simulation time: 00 hr 07 min 40 sec)
Heartbeat CPU 0 instructions: 130000003 cycles: 44366187 heartbeat IPC: 2.657 cumulative IPC: 2.511 (Simulation time: 00 hr 08 min 23 sec)
Heartbeat CPU 0 instructions: 140000002 cycles: 48491614 heartbeat IPC: 2.424 cumulative IPC: 2.501 (Simulation time: 00 hr 09 min 09 sec)
Heartbeat CPU 0 instructions: 150000001 cycles: 52535644 heartbeat IPC: 2.473 cumulative IPC: 2.498 (Simulation time: 00 hr 09 min 58 sec)
Heartbeat CPU 0 instructions: 160000000 cycles: 56184366 heartbeat IPC: 2.741 cumulative IPC: 2.518 (Simulation time: 00 hr 10 min 47 sec)
Heartbeat CPU 0 instructions: 170000001 cycles: 60350038 heartbeat IPC: 2.401 cumulative IPC: 2.508 (Simulation time: 00 hr 11 min 37 sec)
Heartbeat CPU 0 instructions: 180000001 cycles: 63805525 heartbeat IPC: 2.894 cumulative IPC: 2.534 (Simulation time: 00 hr 12 min 20 sec)
Heartbeat CPU 0 instructions: 190000002 cycles: 67382662 heartbeat IPC: 2.796 cumulative IPC: 2.551 (Simulation time: 00 hr 13 min 04 sec)
Heartbeat CPU 0 instructions: 200000002 cycles: 71153986 heartbeat IPC: 2.652 cumulative IPC: 2.557 (Simulation time: 00 hr 13 min 58 sec)
Heartbeat CPU 0 instructions: 210000000 cycles: 74790234 heartbeat IPC: 2.75 cumulative IPC: 2.569 (Simulation time: 00 hr 14 min 58 sec)
Heartbeat CPU 0 instructions: 220000001 cycles: 78659764 heartbeat IPC: 2.584 cumulative IPC: 2.57 (Simulation time: 00 hr 16 min 01 sec)
Heartbeat CPU 0 instructions: 230000002 cycles: 82497472 heartbeat IPC: 2.606 cumulative IPC: 2.572 (Simulation time: 00 hr 16 min 57 sec)
Heartbeat CPU 0 instructions: 240000001 cycles: 86700983 heartbeat IPC: 2.379 cumulative IPC: 2.561 (Simulation time: 00 hr 17 min 55 sec)
Heartbeat CPU 0 instructions: 250000003 cycles: 91268140 heartbeat IPC: 2.19 cumulative IPC: 2.539 (Simulation time: 00 hr 18 min 59 sec)
Heartbeat CPU 0 instructions: 260000000 cycles: 95065561 heartbeat IPC: 2.633 cumulative IPC: 2.543 (Simulation time: 00 hr 20 min 05 sec)
Heartbeat CPU 0 instructions: 270000003 cycles: 101883634 heartbeat IPC: 1.467 cumulative IPC: 2.461 (Simulation time: 00 hr 21 min 35 sec)
Heartbeat CPU 0 instructions: 280000000 cycles: 112544435 heartbeat IPC: 0.938 cumulative IPC: 2.299 (Simulation time: 00 hr 23 min 38 sec)
Heartbeat CPU 0 instructions: 290000000 cycles: 122025765 heartbeat IPC: 1.055 cumulative IPC: 2.191 (Simulation time: 00 hr 25 min 24 sec)
Heartbeat CPU 0 instructions: 300000003 cycles: 129408414 heartbeat IPC: 1.355 cumulative IPC: 2.138 (Simulation time: 00 hr 26 min 53 sec)
Heartbeat CPU 0 instructions: 310000004 cycles: 140645647 heartbeat IPC: 0.8899 cumulative IPC: 2.029 (Simulation time: 00 hr 28 min 53 sec)
Heartbeat CPU 0 instructions: 320000004 cycles: 145723299 heartbeat IPC: 1.969 cumulative IPC: 2.027 (Simulation time: 00 hr 30 min 07 sec)
Heartbeat CPU 0 instructions: 330000000 cycles: 149793788 heartbeat IPC: 2.457 cumulative IPC: 2.039 (Simulation time: 00 hr 31 min 10 sec)
Heartbeat CPU 0 instructions: 340000001 cycles: 154086771 heartbeat IPC: 2.329 cumulative IPC: 2.048 (Simulation time: 00 hr 32 min 17 sec)
Heartbeat CPU 0 instructions: 350000004 cycles: 158510824 heartbeat IPC: 2.26 cumulative IPC: 2.055 (Simulation time: 00 hr 33 min 25 sec)
Heartbeat CPU 0 instructions: 360000003 cycles: 162636672 heartbeat IPC: 2.424 cumulative IPC: 2.065 (Simulation time: 00 hr 34 min 29 sec)
Heartbeat CPU 0 instructions: 370000001 cycles: 166670501 heartbeat IPC: 2.479 cumulative IPC: 2.076 (Simulation time: 00 hr 35 min 31 sec)
Heartbeat CPU 0 instructions: 380000004 cycles: 170563012 heartbeat IPC: 2.569 cumulative IPC: 2.088 (Simulation time: 00 hr 36 min 33 sec)
Heartbeat CPU 0 instructions: 390000002 cycles: 174631693 heartbeat IPC: 2.458 cumulative IPC: 2.097 (Simulation time: 00 hr 37 min 38 sec)
Heartbeat CPU 0 instructions: 400000000 cycles: 178989073 heartbeat IPC: 2.295 cumulative IPC: 2.102 (Simulation time: 00 hr 38 min 47 sec)
Heartbeat CPU 0 instructions: 410000000 cycles: 186560711 heartbeat IPC: 1.321 cumulative IPC: 2.068 (Simulation time: 00 hr 40 min 19 sec)
Heartbeat CPU 0 instructions: 420000003 cycles: 197416706 heartbeat IPC: 0.9212 cumulative IPC: 2.001 (Simulation time: 00 hr 42 min 16 sec)
Heartbeat CPU 0 instructions: 430000000 cycles: 205100310 heartbeat IPC: 1.301 cumulative IPC: 1.973 (Simulation time: 00 hr 43 min 53 sec)
Heartbeat CPU 0 instructions: 440000004 cycles: 211767272 heartbeat IPC: 1.5 cumulative IPC: 1.957 (Simulation time: 00 hr 45 min 24 sec)
Heartbeat CPU 0 instructions: 450000001 cycles: 218464590 heartbeat IPC: 1.493 cumulative IPC: 1.942 (Simulation time: 00 hr 46 min 51 sec)
Heartbeat CPU 0 instructions: 460000002 cycles: 229419058 heartbeat IPC: 0.9129 cumulative IPC: 1.89 (Simulation time: 00 hr 48 min 53 sec)
Heartbeat CPU 0 instructions: 470000003 cycles: 239237804 heartbeat IPC: 1.018 cumulative IPC: 1.852 (Simulation time: 00 hr 50 min 35 sec)
Heartbeat CPU 0 instructions: 480000003 cycles: 243509112 heartbeat IPC: 2.341 cumulative IPC: 1.861 (Simulation time: 00 hr 51 min 35 sec)
Heartbeat CPU 0 instructions: 490000001 cycles: 248200034 heartbeat IPC: 2.132 cumulative IPC: 1.867 (Simulation time: 00 hr 52 min 39 sec)
Heartbeat CPU 0 instructions: 500000002 cycles: 252607452 heartbeat IPC: 2.269 cumulative IPC: 1.874 (Simulation time: 00 hr 53 min 41 sec)
Heartbeat CPU 0 instructions: 510000000 cycles: 256867975 heartbeat IPC: 2.347 cumulative IPC: 1.882 (Simulation time: 00 hr 54 min 41 sec)
Heartbeat CPU 0 instructions: 520000000 cycles: 261298960 heartbeat IPC: 2.257 cumulative IPC: 1.889 (Simulation time: 00 hr 55 min 43 sec)
Heartbeat CPU 0 instructions: 530000001 cycles: 272507410 heartbeat IPC: 0.8922 cumulative IPC: 1.846 (Simulation time: 00 hr 57 min 39 sec)
Heartbeat CPU 0 instructions: 540000000 cycles: 283540281 heartbeat IPC: 0.9064 cumulative IPC: 1.808 (Simulation time: 00 hr 59 min 52 sec)
Heartbeat CPU 0 instructions: 550000004 cycles: 295862290 heartbeat IPC: 0.8116 cumulative IPC: 1.765 (Simulation time: 01 hr 02 min 44 sec)
Heartbeat CPU 0 instructions: 560000004 cycles: 300245008 heartbeat IPC: 2.282 cumulative IPC: 1.772 (Simulation time: 01 hr 04 min 01 sec)
Heartbeat CPU 0 instructions: 570000001 cycles: 303375450 heartbeat IPC: 3.194 cumulative IPC: 1.788 (Simulation time: 01 hr 05 min 05 sec)
Heartbeat CPU 0 instructions: 580000003 cycles: 306924370 heartbeat IPC: 2.818 cumulative IPC: 1.8 (Simulation time: 01 hr 06 min 09 sec)
Heartbeat CPU 0 instructions: 590000002 cycles: 310552169 heartbeat IPC: 2.756 cumulative IPC: 1.812 (Simulation time: 01 hr 07 min 11 sec)
Heartbeat CPU 0 instructions: 600000003 cycles: 313620469 heartbeat IPC: 3.259 cumulative IPC: 1.827 (Simulation time: 01 hr 08 min 09 sec)
Heartbeat CPU 0 instructions: 610000001 cycles: 317130843 heartbeat IPC: 2.849 cumulative IPC: 1.838 (Simulation time: 01 hr 09 min 12 sec)
Heartbeat CPU 0 instructions: 620000000 cycles: 321149284 heartbeat IPC: 2.489 cumulative IPC: 1.847 (Simulation time: 01 hr 10 min 17 sec)
Heartbeat CPU 0 instructions: 630000002 cycles: 324512032 heartbeat IPC: 2.974 cumulative IPC: 1.859 (Simulation time: 01 hr 11 min 18 sec)
Heartbeat CPU 0 instructions: 640000004 cycles: 328521322 heartbeat IPC: 2.494 cumulative IPC: 1.867 (Simulation time: 01 hr 12 min 23 sec)
Heartbeat CPU 0 instructions: 650000001 cycles: 332342901 heartbeat IPC: 2.617 cumulative IPC: 1.876 (Simulation time: 01 hr 13 min 28 sec)
Simulation finished CPU 0 instructions: 600000001 cycles: 319842840 cumulative IPC: 1.876 (Simulation time: 01 hr 13 min 28 sec)
Simulation complete CPU 0 instructions: 600000001 cycles: 319842840 cumulative IPC: 1.876 (Simulation time: 01 hr 13 min 28 sec)

ChampSim completed all CPUs

=== Simulation ===
CPU 0 runs traces/400.perlbench-50B.champsimtrace.xz
Region of Interest Statistics

CPU 0 cumulative IPC: 1.876 instructions: 600000001 cycles: 319842840
CPU 0 Branch Prediction Accuracy: 96.2% MPKI: 7.839 Average ROB Occupancy at Mispredict: 43.51
Branch type MPKI
BRANCH_DIRECT_JUMP: 0.0176
BRANCH_INDIRECT: 0.38
BRANCH_CONDITIONAL: 6.99
BRANCH_DIRECT_CALL: 0.0067
BRANCH_INDIRECT_CALL: 0.431
BRANCH_RETURN: 0.0161

LLC TOTAL        ACCESS:    1379617 HIT:     897207 MISS:     482410
LLC LOAD         ACCESS:     590868 HIT:     374603 MISS:     216265
LLC RFO          ACCESS:      47585 HIT:      27210 MISS:      20375
LLC PREFETCH     ACCESS:     590868 HIT:     358067 MISS:     232801
LLC WRITE        ACCESS:     128206 HIT:     127744 MISS:        462
LLC TRANSLATION  ACCESS:      22090 HIT:       9583 MISS:      12507
LLC PREFETCH REQUESTED:     590868 ISSUED:     590868 USEFUL:      91943 USELESS:      82868
LLC AVERAGE MISS LATENCY: 558 cycles
cpu0_DTLB TOTAL        ACCESS:  146509666 HIT:  145204012 MISS:    1305654
cpu0_DTLB LOAD         ACCESS:  146509666 HIT:  145204012 MISS:    1305654
cpu0_DTLB RFO          ACCESS:          0 HIT:          0 MISS:          0
cpu0_DTLB PREFETCH     ACCESS:          0 HIT:          0 MISS:          0
cpu0_DTLB WRITE        ACCESS:          0 HIT:          0 MISS:          0
cpu0_DTLB TRANSLATION  ACCESS:          0 HIT:          0 MISS:          0
cpu0_DTLB PREFETCH REQUESTED:          0 ISSUED:          0 USEFUL:          0 USELESS:          0
cpu0_DTLB AVERAGE MISS LATENCY: 12.7 cycles
cpu0_ITLB TOTAL        ACCESS:    8986590 HIT:    8801994 MISS:     184596
cpu0_ITLB LOAD         ACCESS:    8986590 HIT:    8801994 MISS:     184596
cpu0_ITLB RFO          ACCESS:          0 HIT:          0 MISS:          0
cpu0_ITLB PREFETCH     ACCESS:          0 HIT:          0 MISS:          0
cpu0_ITLB WRITE        ACCESS:          0 HIT:          0 MISS:          0
cpu0_ITLB TRANSLATION  ACCESS:          0 HIT:          0 MISS:          0
cpu0_ITLB PREFETCH REQUESTED:          0 ISSUED:          0 USEFUL:          0 USELESS:          0
cpu0_ITLB AVERAGE MISS LATENCY: 3.878 cycles
cpu0_L1D TOTAL        ACCESS:  193291912 HIT:  189628126 MISS:    3663786
cpu0_L1D LOAD         ACCESS:  107446865 HIT:  104435840 MISS:    3011025
cpu0_L1D RFO          ACCESS:          0 HIT:          0 MISS:          0
cpu0_L1D PREFETCH     ACCESS:          0 HIT:          0 MISS:          0
cpu0_L1D WRITE        ACCESS:   85816518 HIT:   85190862 MISS:     625656
cpu0_L1D TRANSLATION  ACCESS:      28529 HIT:       1424 MISS:      27105
cpu0_L1D PREFETCH REQUESTED:          0 ISSUED:          0 USEFUL:          0 USELESS:          0
cpu0_L1D AVERAGE MISS LATENCY: 46.48 cycles
cpu0_L1I TOTAL        ACCESS:   10421271 HIT:    8659508 MISS:    1761763
cpu0_L1I LOAD         ACCESS:   10421271 HIT:    8659508 MISS:    1761763
cpu0_L1I RFO          ACCESS:          0 HIT:          0 MISS:          0
cpu0_L1I PREFETCH     ACCESS:          0 HIT:          0 MISS:          0
cpu0_L1I WRITE        ACCESS:          0 HIT:          0 MISS:          0
cpu0_L1I TRANSLATION  ACCESS:          0 HIT:          0 MISS:          0
cpu0_L1I PREFETCH REQUESTED:          0 ISSUED:          0 USEFUL:          0 USELESS:          0
cpu0_L1I AVERAGE MISS LATENCY: 11.22 cycles
cpu0_L2C TOTAL        ACCESS:    3834590 HIT:    3170984 MISS:     663606
cpu0_L2C LOAD         ACCESS:    3104891 HIT:    2514023 MISS:     590868
cpu0_L2C RFO          ACCESS:     191572 HIT:     143987 MISS:      47585
cpu0_L2C PREFETCH     ACCESS:          0 HIT:          0 MISS:          0
cpu0_L2C WRITE        ACCESS:     511088 HIT:     508025 MISS:       3063
cpu0_L2C TRANSLATION  ACCESS:      27039 HIT:       4949 MISS:      22090
cpu0_L2C PREFETCH REQUESTED:          0 ISSUED:          0 USEFUL:          0 USELESS:          0
cpu0_L2C AVERAGE MISS LATENCY: 247.9 cycles
cpu0_STLB TOTAL        ACCESS:    1008876 HIT:     982181 MISS:      26695
cpu0_STLB LOAD         ACCESS:    1008876 HIT:     982181 MISS:      26695
cpu0_STLB RFO          ACCESS:          0 HIT:          0 MISS:          0
cpu0_STLB PREFETCH     ACCESS:          0 HIT:          0 MISS:          0
cpu0_STLB WRITE        ACCESS:          0 HIT:          0 MISS:          0
cpu0_STLB TRANSLATION  ACCESS:          0 HIT:          0 MISS:          0
cpu0_STLB PREFETCH REQUESTED:          0 ISSUED:          0 USEFUL:          0 USELESS:          0
cpu0_STLB AVERAGE MISS LATENCY: 405.8 cycles

DRAM Statistics

Channel 0 RQ ROW_BUFFER_HIT:      81016
  ROW_BUFFER_MISS:     331305
 AVG DBUS CONGESTED CYCLE: 3.875
WQ ROW_BUFFER_HIT: Channel 0 
  ROW_BUFFER_MISS:       6511
  FULL:      47179
