WARNING: physical memory size is smaller than virtual memory size.

*** ChampSim Multicore Out-of-Order Simulator ***
Warmup Instructions: 50000000
Simulation Instructions: 600000000
Number of CPUs: 1
Page size: 4096

CPU 0 Tage branch predictor
Off-chip DRAM Size: 4 GiB Channels: 1 Width: 64-bit Data Race: 3200 MT/s
Heartbeat CPU 0 instructions: 10000000 cycles: 2500061 heartbeat IPC: 4 cumulative IPC: 4 (Simulation time: 00 hr 00 min 39 sec)
Heartbeat CPU 0 instructions: 20000000 cycles: 5000061 heartbeat IPC: 4 cumulative IPC: 4 (Simulation time: 00 hr 01 min 19 sec)
Heartbeat CPU 0 instructions: 30000000 cycles: 7500061 heartbeat IPC: 4 cumulative IPC: 4 (Simulation time: 00 hr 01 min 59 sec)
Heartbeat CPU 0 instructions: 40000000 cycles: 10000061 heartbeat IPC: 4 cumulative IPC: 4 (Simulation time: 00 hr 02 min 39 sec)
Heartbeat CPU 0 instructions: 50000000 cycles: 12500061 heartbeat IPC: 4 cumulative IPC: 4 (Simulation time: 00 hr 03 min 19 sec)
Warmup finished CPU 0 instructions: 50000000 cycles: 12500062 cumulative IPC: 4 (Simulation time: 00 hr 03 min 19 sec)
Warmup complete CPU 0 instructions: 50000000 cycles: 12500062 cumulative IPC: 4 (Simulation time: 00 hr 03 min 19 sec)
Heartbeat CPU 0 instructions: 60000004 cycles: 15504574 heartbeat IPC: 3.328 cumulative IPC: 3.328 (Simulation time: 00 hr 04 min 10 sec)
Heartbeat CPU 0 instructions: 70000003 cycles: 18375027 heartbeat IPC: 3.484 cumulative IPC: 3.404 (Simulation time: 00 hr 04 min 59 sec)
Heartbeat CPU 0 instructions: 80000002 cycles: 21385455 heartbeat IPC: 3.322 cumulative IPC: 3.376 (Simulation time: 00 hr 05 min 45 sec)
Heartbeat CPU 0 instructions: 90000000 cycles: 24106445 heartbeat IPC: 3.675 cumulative IPC: 3.446 (Simulation time: 00 hr 06 min 31 sec)
Heartbeat CPU 0 instructions: 100000003 cycles: 26861573 heartbeat IPC: 3.63 cumulative IPC: 3.482 (Simulation time: 00 hr 07 min 18 sec)
Heartbeat CPU 0 instructions: 110000001 cycles: 29760716 heartbeat IPC: 3.449 cumulative IPC: 3.476 (Simulation time: 00 hr 08 min 07 sec)
Heartbeat CPU 0 instructions: 120000001 cycles: 32476957 heartbeat IPC: 3.682 cumulative IPC: 3.504 (Simulation time: 00 hr 08 min 54 sec)
Heartbeat CPU 0 instructions: 130000003 cycles: 35373828 heartbeat IPC: 3.452 cumulative IPC: 3.497 (Simulation time: 00 hr 09 min 47 sec)
Heartbeat CPU 0 instructions: 140000002 cycles: 38209923 heartbeat IPC: 3.526 cumulative IPC: 3.501 (Simulation time: 00 hr 10 min 35 sec)
Heartbeat CPU 0 instructions: 150000001 cycles: 40979169 heartbeat IPC: 3.611 cumulative IPC: 3.511 (Simulation time: 00 hr 11 min 22 sec)
Heartbeat CPU 0 instructions: 160000000 cycles: 43896422 heartbeat IPC: 3.428 cumulative IPC: 3.504 (Simulation time: 00 hr 12 min 08 sec)
Heartbeat CPU 0 instructions: 170000001 cycles: 46819705 heartbeat IPC: 3.421 cumulative IPC: 3.497 (Simulation time: 00 hr 12 min 56 sec)
Heartbeat CPU 0 instructions: 180000000 cycles: 49612091 heartbeat IPC: 3.581 cumulative IPC: 3.503 (Simulation time: 00 hr 13 min 44 sec)
Heartbeat CPU 0 instructions: 190000002 cycles: 52318430 heartbeat IPC: 3.695 cumulative IPC: 3.516 (Simulation time: 00 hr 14 min 33 sec)
Heartbeat CPU 0 instructions: 200000002 cycles: 55141199 heartbeat IPC: 3.543 cumulative IPC: 3.518 (Simulation time: 00 hr 15 min 18 sec)
Heartbeat CPU 0 instructions: 210000000 cycles: 58032005 heartbeat IPC: 3.459 cumulative IPC: 3.514 (Simulation time: 00 hr 16 min 05 sec)
Heartbeat CPU 0 instructions: 220000001 cycles: 60781438 heartbeat IPC: 3.637 cumulative IPC: 3.521 (Simulation time: 00 hr 16 min 53 sec)
Heartbeat CPU 0 instructions: 230000002 cycles: 63669189 heartbeat IPC: 3.463 cumulative IPC: 3.518 (Simulation time: 00 hr 17 min 39 sec)
Heartbeat CPU 0 instructions: 240000004 cycles: 66619801 heartbeat IPC: 3.389 cumulative IPC: 3.511 (Simulation time: 00 hr 18 min 26 sec)
Heartbeat CPU 0 instructions: 250000003 cycles: 69510571 heartbeat IPC: 3.459 cumulative IPC: 3.508 (Simulation time: 00 hr 19 min 12 sec)
Heartbeat CPU 0 instructions: 260000001 cycles: 72294038 heartbeat IPC: 3.593 cumulative IPC: 3.512 (Simulation time: 00 hr 20 min 02 sec)
Heartbeat CPU 0 instructions: 270000002 cycles: 78124723 heartbeat IPC: 1.715 cumulative IPC: 3.352 (Simulation time: 00 hr 21 min 06 sec)
Heartbeat CPU 0 instructions: 280000000 cycles: 87715612 heartbeat IPC: 1.043 cumulative IPC: 3.058 (Simulation time: 00 hr 22 min 34 sec)
Heartbeat CPU 0 instructions: 290000000 cycles: 95736917 heartbeat IPC: 1.247 cumulative IPC: 2.883 (Simulation time: 00 hr 23 min 54 sec)
Heartbeat CPU 0 instructions: 300000003 cycles: 101008947 heartbeat IPC: 1.897 cumulative IPC: 2.825 (Simulation time: 00 hr 25 min 01 sec)
Heartbeat CPU 0 instructions: 310000001 cycles: 109552542 heartbeat IPC: 1.17 cumulative IPC: 2.679 (Simulation time: 00 hr 26 min 24 sec)
Heartbeat CPU 0 instructions: 320000004 cycles: 113381610 heartbeat IPC: 2.612 cumulative IPC: 2.676 (Simulation time: 00 hr 27 min 15 sec)
Heartbeat CPU 0 instructions: 330000000 cycles: 116530345 heartbeat IPC: 3.176 cumulative IPC: 2.692 (Simulation time: 00 hr 28 min 02 sec)
Heartbeat CPU 0 instructions: 340000001 cycles: 119650143 heartbeat IPC: 3.205 cumulative IPC: 2.706 (Simulation time: 00 hr 28 min 48 sec)
Heartbeat CPU 0 instructions: 350000000 cycles: 122977343 heartbeat IPC: 3.006 cumulative IPC: 2.715 (Simulation time: 00 hr 29 min 36 sec)
Heartbeat CPU 0 instructions: 360000004 cycles: 126101717 heartbeat IPC: 3.201 cumulative IPC: 2.729 (Simulation time: 00 hr 30 min 24 sec)
Heartbeat CPU 0 instructions: 370000001 cycles: 129178925 heartbeat IPC: 3.25 cumulative IPC: 2.743 (Simulation time: 00 hr 31 min 12 sec)
Heartbeat CPU 0 instructions: 380000004 cycles: 132281676 heartbeat IPC: 3.223 cumulative IPC: 2.755 (Simulation time: 00 hr 32 min 00 sec)
Heartbeat CPU 0 instructions: 390000002 cycles: 135499130 heartbeat IPC: 3.108 cumulative IPC: 2.764 (Simulation time: 00 hr 32 min 49 sec)
Heartbeat CPU 0 instructions: 400000000 cycles: 138788389 heartbeat IPC: 3.04 cumulative IPC: 2.771 (Simulation time: 00 hr 33 min 37 sec)
Heartbeat CPU 0 instructions: 410000000 cycles: 145007077 heartbeat IPC: 1.608 cumulative IPC: 2.717 (Simulation time: 00 hr 34 min 42 sec)
Heartbeat CPU 0 instructions: 420000003 cycles: 153833835 heartbeat IPC: 1.133 cumulative IPC: 2.618 (Simulation time: 00 hr 36 min 06 sec)
Heartbeat CPU 0 instructions: 430000000 cycles: 159282585 heartbeat IPC: 1.835 cumulative IPC: 2.589 (Simulation time: 00 hr 37 min 14 sec)
Heartbeat CPU 0 instructions: 440000004 cycles: 164412801 heartbeat IPC: 1.949 cumulative IPC: 2.567 (Simulation time: 00 hr 38 min 19 sec)
Heartbeat CPU 0 instructions: 450000001 cycles: 169255468 heartbeat IPC: 2.065 cumulative IPC: 2.552 (Simulation time: 00 hr 39 min 22 sec)
Heartbeat CPU 0 instructions: 460000002 cycles: 177555679 heartbeat IPC: 1.205 cumulative IPC: 2.484 (Simulation time: 00 hr 40 min 45 sec)
Heartbeat CPU 0 instructions: 470000003 cycles: 185090951 heartbeat IPC: 1.327 cumulative IPC: 2.434 (Simulation time: 00 hr 42 min 03 sec)
Heartbeat CPU 0 instructions: 480000000 cycles: 188471694 heartbeat IPC: 2.958 cumulative IPC: 2.444 (Simulation time: 00 hr 42 min 53 sec)
Heartbeat CPU 0 instructions: 490000001 cycles: 192078848 heartbeat IPC: 2.772 cumulative IPC: 2.45 (Simulation time: 00 hr 43 min 45 sec)
Heartbeat CPU 0 instructions: 500000002 cycles: 195545468 heartbeat IPC: 2.885 cumulative IPC: 2.458 (Simulation time: 00 hr 44 min 36 sec)
Heartbeat CPU 0 instructions: 510000000 cycles: 198983313 heartbeat IPC: 2.909 cumulative IPC: 2.467 (Simulation time: 00 hr 45 min 27 sec)
Heartbeat CPU 0 instructions: 520000000 cycles: 202447090 heartbeat IPC: 2.887 cumulative IPC: 2.474 (Simulation time: 00 hr 46 min 18 sec)
Heartbeat CPU 0 instructions: 530000001 cycles: 211562143 heartbeat IPC: 1.097 cumulative IPC: 2.411 (Simulation time: 00 hr 47 min 44 sec)
Heartbeat CPU 0 instructions: 540000000 cycles: 220045927 heartbeat IPC: 1.179 cumulative IPC: 2.361 (Simulation time: 00 hr 49 min 10 sec)
Heartbeat CPU 0 instructions: 550000004 cycles: 229926584 heartbeat IPC: 1.012 cumulative IPC: 2.3 (Simulation time: 00 hr 50 min 37 sec)
Heartbeat CPU 0 instructions: 560000004 cycles: 233496806 heartbeat IPC: 2.801 cumulative IPC: 2.308 (Simulation time: 00 hr 51 min 26 sec)
Heartbeat CPU 0 instructions: 570000002 cycles: 236317625 heartbeat IPC: 3.545 cumulative IPC: 2.323 (Simulation time: 00 hr 52 min 13 sec)
Heartbeat CPU 0 instructions: 580000000 cycles: 239243616 heartbeat IPC: 3.418 cumulative IPC: 2.337 (Simulation time: 00 hr 52 min 59 sec)
Heartbeat CPU 0 instructions: 590000001 cycles: 242167689 heartbeat IPC: 3.42 cumulative IPC: 2.351 (Simulation time: 00 hr 53 min 47 sec)
Heartbeat CPU 0 instructions: 600000003 cycles: 244859823 heartbeat IPC: 3.715 cumulative IPC: 2.367 (Simulation time: 00 hr 54 min 33 sec)
Heartbeat CPU 0 instructions: 610000001 cycles: 247724626 heartbeat IPC: 3.491 cumulative IPC: 2.381 (Simulation time: 00 hr 55 min 21 sec)
Heartbeat CPU 0 instructions: 620000004 cycles: 250675801 heartbeat IPC: 3.388 cumulative IPC: 2.393 (Simulation time: 00 hr 56 min 08 sec)
Heartbeat CPU 0 instructions: 630000002 cycles: 253485157 heartbeat IPC: 3.56 cumulative IPC: 2.407 (Simulation time: 00 hr 56 min 54 sec)
Heartbeat CPU 0 instructions: 640000004 cycles: 256532408 heartbeat IPC: 3.282 cumulative IPC: 2.418 (Simulation time: 00 hr 57 min 42 sec)
Heartbeat CPU 0 instructions: 650000001 cycles: 259244460 heartbeat IPC: 3.687 cumulative IPC: 2.432 (Simulation time: 00 hr 58 min 31 sec)
Simulation finished CPU 0 instructions: 600000001 cycles: 246744399 cumulative IPC: 2.432 (Simulation time: 00 hr 58 min 31 sec)
Simulation complete CPU 0 instructions: 600000001 cycles: 246744399 cumulative IPC: 2.432 (Simulation time: 00 hr 58 min 31 sec)

ChampSim completed all CPUs

=== Simulation ===
CPU 0 runs traces/400.perlbench-50B.champsimtrace.xz
Region of Interest Statistics

CPU 0 cumulative IPC: 2.432 instructions: 600000001 cycles: 246744399
CPU 0 Branch Prediction Accuracy: 99.01% MPKI: 2.04 Average ROB Occupancy at Mispredict: 95.07
Branch type MPKI
BRANCH_DIRECT_JUMP: 0.0176
BRANCH_INDIRECT: 0.38
BRANCH_CONDITIONAL: 1.19
BRANCH_DIRECT_CALL: 0.0067
BRANCH_INDIRECT_CALL: 0.431
BRANCH_RETURN: 0.0161

LLC TOTAL        ACCESS:     835441 HIT:     509159 MISS:     326282
LLC LOAD         ACCESS:     574905 HIT:     314133 MISS:     260772
LLC RFO          ACCESS:      46907 HIT:      25959 MISS:      20948
LLC PREFETCH     ACCESS:      64976 HIT:      36057 MISS:      28919
LLC WRITE        ACCESS:     126536 HIT:     123340 MISS:       3196
LLC TRANSLATION  ACCESS:      22117 HIT:       9670 MISS:      12447
LLC PREFETCH REQUESTED:      64976 ISSUED:      64976 USEFUL:      16995 USELESS:       7957
LLC AVERAGE MISS LATENCY: 605.3 cycles
cpu0_DTLB TOTAL        ACCESS:  133225164 HIT:  131870933 MISS:    1354231
cpu0_DTLB LOAD         ACCESS:  133225164 HIT:  131870933 MISS:    1354231
cpu0_DTLB RFO          ACCESS:          0 HIT:          0 MISS:          0
cpu0_DTLB PREFETCH     ACCESS:          0 HIT:          0 MISS:          0
cpu0_DTLB WRITE        ACCESS:          0 HIT:          0 MISS:          0
cpu0_DTLB TRANSLATION  ACCESS:          0 HIT:          0 MISS:          0
cpu0_DTLB PREFETCH REQUESTED:          0 ISSUED:          0 USEFUL:          0 USELESS:          0
cpu0_DTLB AVERAGE MISS LATENCY: 12.06 cycles
cpu0_ITLB TOTAL        ACCESS:    9001210 HIT:    8791765 MISS:     209445
cpu0_ITLB LOAD         ACCESS:    9001210 HIT:    8791765 MISS:     209445
cpu0_ITLB RFO          ACCESS:          0 HIT:          0 MISS:          0
cpu0_ITLB PREFETCH     ACCESS:          0 HIT:          0 MISS:          0
cpu0_ITLB WRITE        ACCESS:          0 HIT:          0 MISS:          0
cpu0_ITLB TRANSLATION  ACCESS:          0 HIT:          0 MISS:          0
cpu0_ITLB PREFETCH REQUESTED:          0 ISSUED:          0 USEFUL:          0 USELESS:          0
cpu0_ITLB AVERAGE MISS LATENCY: 3.064 cycles
cpu0_L1D TOTAL        ACCESS:  178248302 HIT:  174455570 MISS:    3792732
cpu0_L1D LOAD         ACCESS:   92729233 HIT:   89620314 MISS:    3108919
cpu0_L1D RFO          ACCESS:          0 HIT:          0 MISS:          0
cpu0_L1D PREFETCH     ACCESS:          0 HIT:          0 MISS:          0
cpu0_L1D WRITE        ACCESS:   85490538 HIT:   84833839 MISS:     656699
cpu0_L1D TRANSLATION  ACCESS:      28531 HIT:       1417 MISS:      27114
cpu0_L1D PREFETCH REQUESTED:          0 ISSUED:          0 USEFUL:          0 USELESS:          0
cpu0_L1D AVERAGE MISS LATENCY: 50.33 cycles
cpu0_L1I TOTAL        ACCESS:   10520691 HIT:    8621743 MISS:    1898948
cpu0_L1I LOAD         ACCESS:   10520691 HIT:    8621743 MISS:    1898948
cpu0_L1I RFO          ACCESS:          0 HIT:          0 MISS:          0
cpu0_L1I PREFETCH     ACCESS:          0 HIT:          0 MISS:          0
cpu0_L1I WRITE        ACCESS:          0 HIT:          0 MISS:          0
cpu0_L1I TRANSLATION  ACCESS:          0 HIT:          0 MISS:          0
cpu0_L1I PREFETCH REQUESTED:          0 ISSUED:          0 USEFUL:          0 USELESS:          0
cpu0_L1I AVERAGE MISS LATENCY: 10.69 cycles
cpu0_L2C TOTAL        ACCESS:    3840276 HIT:    3193207 MISS:     647069
cpu0_L2C LOAD         ACCESS:    3103783 HIT:    2528877 MISS:     574906
cpu0_L2C RFO          ACCESS:     194851 HIT:     147944 MISS:      46907
cpu0_L2C PREFETCH     ACCESS:          0 HIT:          0 MISS:          0
cpu0_L2C WRITE        ACCESS:     514606 HIT:     511467 MISS:       3139
cpu0_L2C TRANSLATION  ACCESS:      27036 HIT:       4919 MISS:      22117
cpu0_L2C PREFETCH REQUESTED:          0 ISSUED:          0 USEFUL:          0 USELESS:          0
cpu0_L2C AVERAGE MISS LATENCY: 297.3 cycles
cpu0_STLB TOTAL        ACCESS:    1009898 HIT:     983206 MISS:      26692
cpu0_STLB LOAD         ACCESS:    1009898 HIT:     983206 MISS:      26692
cpu0_STLB RFO          ACCESS:          0 HIT:          0 MISS:          0
cpu0_STLB PREFETCH     ACCESS:          0 HIT:          0 MISS:          0
cpu0_STLB WRITE        ACCESS:          0 HIT:          0 MISS:          0
cpu0_STLB TRANSLATION  ACCESS:          0 HIT:          0 MISS:          0
cpu0_STLB PREFETCH REQUESTED:          0 ISSUED:          0 USEFUL:          0 USELESS:          0
cpu0_STLB AVERAGE MISS LATENCY: 411.6 cycles

DRAM Statistics

Channel 0 RQ ROW_BUFFER_HIT:      66738
  ROW_BUFFER_MISS:     250286
 AVG DBUS CONGESTED CYCLE: 3.845
WQ ROW_BUFFER_HIT: Channel 0 
  ROW_BUFFER_MISS:       6445
  FULL:      40377
