WARNING: physical memory size is smaller than virtual memory size.

*** ChampSim Multicore Out-of-Order Simulator ***
Warmup Instructions: 50000000
Simulation Instructions: 600000000
Number of CPUs: 1
Page size: 4096

Off-chip DRAM Size: 4 GiB Channels: 1 Width: 64-bit Data Race: 3200 MT/s
Heartbeat CPU 0 instructions: 10000001 cycles: 2500318 heartbeat IPC: 3.999 cumulative IPC: 3.999 (Simulation time: 00 hr 01 min 18 sec)
Heartbeat CPU 0 instructions: 20000002 cycles: 5037114 heartbeat IPC: 3.942 cumulative IPC: 3.971 (Simulation time: 00 hr 02 min 50 sec)
Heartbeat CPU 0 instructions: 30000002 cycles: 7537114 heartbeat IPC: 4 cumulative IPC: 3.98 (Simulation time: 00 hr 04 min 20 sec)
Heartbeat CPU 0 instructions: 40000002 cycles: 10037114 heartbeat IPC: 4 cumulative IPC: 3.985 (Simulation time: 00 hr 05 min 50 sec)
Heartbeat CPU 0 instructions: 50000002 cycles: 12537114 heartbeat IPC: 4 cumulative IPC: 3.988 (Simulation time: 00 hr 06 min 26 sec)
Warmup finished CPU 0 instructions: 50000002 cycles: 12537115 cumulative IPC: 3.988 (Simulation time: 00 hr 06 min 26 sec)
Warmup complete CPU 0 instructions: 50000002 cycles: 12537115 cumulative IPC: 3.988 (Simulation time: 00 hr 06 min 26 sec)
Heartbeat CPU 0 instructions: 60000000 cycles: 17715585 heartbeat IPC: 1.931 cumulative IPC: 1.931 (Simulation time: 00 hr 07 min 18 sec)
Heartbeat CPU 0 instructions: 70000002 cycles: 22611973 heartbeat IPC: 2.042 cumulative IPC: 1.985 (Simulation time: 00 hr 08 min 09 sec)
Heartbeat CPU 0 instructions: 80000001 cycles: 27972859 heartbeat IPC: 1.865 cumulative IPC: 1.944 (Simulation time: 00 hr 09 min 04 sec)
Heartbeat CPU 0 instructions: 90000001 cycles: 32841250 heartbeat IPC: 2.054 cumulative IPC: 1.97 (Simulation time: 00 hr 09 min 58 sec)
Heartbeat CPU 0 instructions: 100000000 cycles: 37954827 heartbeat IPC: 1.956 cumulative IPC: 1.967 (Simulation time: 00 hr 10 min 53 sec)
Heartbeat CPU 0 instructions: 110000000 cycles: 42831981 heartbeat IPC: 2.05 cumulative IPC: 1.981 (Simulation time: 00 hr 11 min 47 sec)
Heartbeat CPU 0 instructions: 120000001 cycles: 48023623 heartbeat IPC: 1.926 cumulative IPC: 1.973 (Simulation time: 00 hr 12 min 44 sec)
Heartbeat CPU 0 instructions: 130000001 cycles: 53179484 heartbeat IPC: 1.94 cumulative IPC: 1.968 (Simulation time: 00 hr 13 min 40 sec)
Heartbeat CPU 0 instructions: 140000001 cycles: 58498093 heartbeat IPC: 1.88 cumulative IPC: 1.958 (Simulation time: 00 hr 14 min 37 sec)
Heartbeat CPU 0 instructions: 150000001 cycles: 63816665 heartbeat IPC: 1.88 cumulative IPC: 1.95 (Simulation time: 00 hr 15 min 33 sec)
Heartbeat CPU 0 instructions: 160000004 cycles: 69031863 heartbeat IPC: 1.917 cumulative IPC: 1.947 (Simulation time: 00 hr 16 min 27 sec)
Heartbeat CPU 0 instructions: 170000000 cycles: 79166331 heartbeat IPC: 0.9867 cumulative IPC: 1.801 (Simulation time: 00 hr 17 min 52 sec)
Heartbeat CPU 0 instructions: 180000004 cycles: 89728560 heartbeat IPC: 0.9468 cumulative IPC: 1.684 (Simulation time: 00 hr 19 min 21 sec)
Heartbeat CPU 0 instructions: 190000001 cycles: 100389992 heartbeat IPC: 0.938 cumulative IPC: 1.594 (Simulation time: 00 hr 20 min 51 sec)
Heartbeat CPU 0 instructions: 200000003 cycles: 105174215 heartbeat IPC: 2.09 cumulative IPC: 1.619 (Simulation time: 00 hr 21 min 41 sec)
Heartbeat CPU 0 instructions: 210000001 cycles: 110095646 heartbeat IPC: 2.032 cumulative IPC: 1.64 (Simulation time: 00 hr 22 min 33 sec)
Heartbeat CPU 0 instructions: 220000000 cycles: 114926367 heartbeat IPC: 2.07 cumulative IPC: 1.66 (Simulation time: 00 hr 23 min 23 sec)
Heartbeat CPU 0 instructions: 230000002 cycles: 120246471 heartbeat IPC: 1.88 cumulative IPC: 1.671 (Simulation time: 00 hr 24 min 16 sec)
Heartbeat CPU 0 instructions: 240000000 cycles: 125092660 heartbeat IPC: 2.063 cumulative IPC: 1.688 (Simulation time: 00 hr 25 min 06 sec)
Heartbeat CPU 0 instructions: 250000000 cycles: 130240726 heartbeat IPC: 1.942 cumulative IPC: 1.699 (Simulation time: 00 hr 25 min 59 sec)
Heartbeat CPU 0 instructions: 260000000 cycles: 135256849 heartbeat IPC: 1.994 cumulative IPC: 1.711 (Simulation time: 00 hr 26 min 51 sec)
Heartbeat CPU 0 instructions: 270000002 cycles: 140144267 heartbeat IPC: 2.046 cumulative IPC: 1.724 (Simulation time: 00 hr 27 min 43 sec)
Heartbeat CPU 0 instructions: 280000002 cycles: 145048804 heartbeat IPC: 2.039 cumulative IPC: 1.736 (Simulation time: 00 hr 28 min 34 sec)
Heartbeat CPU 0 instructions: 290000001 cycles: 150419929 heartbeat IPC: 1.862 cumulative IPC: 1.741 (Simulation time: 00 hr 29 min 27 sec)
Heartbeat CPU 0 instructions: 300000003 cycles: 155479580 heartbeat IPC: 1.976 cumulative IPC: 1.749 (Simulation time: 00 hr 30 min 18 sec)
Heartbeat CPU 0 instructions: 310000001 cycles: 160786697 heartbeat IPC: 1.884 cumulative IPC: 1.754 (Simulation time: 00 hr 31 min 11 sec)
Heartbeat CPU 0 instructions: 320000003 cycles: 165994874 heartbeat IPC: 1.92 cumulative IPC: 1.759 (Simulation time: 00 hr 32 min 04 sec)
Heartbeat CPU 0 instructions: 330000003 cycles: 171290251 heartbeat IPC: 1.888 cumulative IPC: 1.764 (Simulation time: 00 hr 32 min 57 sec)
Heartbeat CPU 0 instructions: 340000000 cycles: 181543409 heartbeat IPC: 0.9753 cumulative IPC: 1.716 (Simulation time: 00 hr 34 min 18 sec)
Heartbeat CPU 0 instructions: 350000000 cycles: 192594465 heartbeat IPC: 0.9049 cumulative IPC: 1.666 (Simulation time: 00 hr 35 min 47 sec)
Heartbeat CPU 0 instructions: 360000004 cycles: 203352071 heartbeat IPC: 0.9296 cumulative IPC: 1.625 (Simulation time: 00 hr 37 min 14 sec)
Heartbeat CPU 0 instructions: 370000000 cycles: 207761722 heartbeat IPC: 2.268 cumulative IPC: 1.639 (Simulation time: 00 hr 38 min 03 sec)
Heartbeat CPU 0 instructions: 380000001 cycles: 212695886 heartbeat IPC: 2.027 cumulative IPC: 1.649 (Simulation time: 00 hr 38 min 54 sec)
Heartbeat CPU 0 instructions: 390000002 cycles: 217521291 heartbeat IPC: 2.072 cumulative IPC: 1.659 (Simulation time: 00 hr 39 min 45 sec)
Heartbeat CPU 0 instructions: 400000004 cycles: 222453871 heartbeat IPC: 2.027 cumulative IPC: 1.667 (Simulation time: 00 hr 40 min 36 sec)
Heartbeat CPU 0 instructions: 410000000 cycles: 227180608 heartbeat IPC: 2.116 cumulative IPC: 1.677 (Simulation time: 00 hr 41 min 25 sec)
Heartbeat CPU 0 instructions: 420000000 cycles: 232335312 heartbeat IPC: 1.94 cumulative IPC: 1.683 (Simulation time: 00 hr 42 min 18 sec)
Heartbeat CPU 0 instructions: 430000001 cycles: 236797303 heartbeat IPC: 2.241 cumulative IPC: 1.694 (Simulation time: 00 hr 43 min 07 sec)
Heartbeat CPU 0 instructions: 440000000 cycles: 242134816 heartbeat IPC: 1.874 cumulative IPC: 1.699 (Simulation time: 00 hr 43 min 59 sec)
Heartbeat CPU 0 instructions: 450000002 cycles: 246796017 heartbeat IPC: 2.145 cumulative IPC: 1.708 (Simulation time: 00 hr 44 min 49 sec)
Heartbeat CPU 0 instructions: 460000000 cycles: 251581375 heartbeat IPC: 2.09 cumulative IPC: 1.715 (Simulation time: 00 hr 45 min 39 sec)
Heartbeat CPU 0 instructions: 470000000 cycles: 256553050 heartbeat IPC: 2.011 cumulative IPC: 1.721 (Simulation time: 00 hr 46 min 30 sec)
Heartbeat CPU 0 instructions: 480000003 cycles: 261327787 heartbeat IPC: 2.094 cumulative IPC: 1.728 (Simulation time: 00 hr 47 min 19 sec)
Heartbeat CPU 0 instructions: 490000000 cycles: 265927250 heartbeat IPC: 2.174 cumulative IPC: 1.736 (Simulation time: 00 hr 48 min 08 sec)
Heartbeat CPU 0 instructions: 500000000 cycles: 270942067 heartbeat IPC: 1.994 cumulative IPC: 1.741 (Simulation time: 00 hr 48 min 59 sec)
Heartbeat CPU 0 instructions: 510000003 cycles: 276561710 heartbeat IPC: 1.779 cumulative IPC: 1.742 (Simulation time: 00 hr 49 min 54 sec)
Heartbeat CPU 0 instructions: 520000001 cycles: 281239657 heartbeat IPC: 2.138 cumulative IPC: 1.749 (Simulation time: 00 hr 50 min 45 sec)
Heartbeat CPU 0 instructions: 530000002 cycles: 286378696 heartbeat IPC: 1.946 cumulative IPC: 1.753 (Simulation time: 00 hr 51 min 36 sec)
Heartbeat CPU 0 instructions: 540000000 cycles: 291490265 heartbeat IPC: 1.956 cumulative IPC: 1.757 (Simulation time: 00 hr 52 min 28 sec)
Heartbeat CPU 0 instructions: 550000001 cycles: 296293005 heartbeat IPC: 2.082 cumulative IPC: 1.762 (Simulation time: 00 hr 53 min 18 sec)
Heartbeat CPU 0 instructions: 560000000 cycles: 301501662 heartbeat IPC: 1.92 cumulative IPC: 1.765 (Simulation time: 00 hr 54 min 12 sec)
Heartbeat CPU 0 instructions: 570000004 cycles: 308721655 heartbeat IPC: 1.385 cumulative IPC: 1.756 (Simulation time: 00 hr 55 min 19 sec)
Heartbeat CPU 0 instructions: 580000003 cycles: 320261264 heartbeat IPC: 0.8666 cumulative IPC: 1.722 (Simulation time: 00 hr 56 min 48 sec)
Heartbeat CPU 0 instructions: 590000002 cycles: 333434668 heartbeat IPC: 0.7591 cumulative IPC: 1.683 (Simulation time: 00 hr 58 min 32 sec)
Heartbeat CPU 0 instructions: 600000000 cycles: 338054255 heartbeat IPC: 2.165 cumulative IPC: 1.69 (Simulation time: 00 hr 59 min 27 sec)
Heartbeat CPU 0 instructions: 610000002 cycles: 342547596 heartbeat IPC: 2.226 cumulative IPC: 1.697 (Simulation time: 01 hr 00 min 18 sec)
Heartbeat CPU 0 instructions: 620000000 cycles: 347357072 heartbeat IPC: 2.079 cumulative IPC: 1.702 (Simulation time: 01 hr 01 min 11 sec)
Heartbeat CPU 0 instructions: 630000002 cycles: 352444483 heartbeat IPC: 1.966 cumulative IPC: 1.706 (Simulation time: 01 hr 02 min 06 sec)
Heartbeat CPU 0 instructions: 640000001 cycles: 357294280 heartbeat IPC: 2.062 cumulative IPC: 1.711 (Simulation time: 01 hr 03 min 01 sec)
Heartbeat CPU 0 instructions: 650000000 cycles: 361847083 heartbeat IPC: 2.196 cumulative IPC: 1.718 (Simulation time: 01 hr 03 min 55 sec)
Simulation finished CPU 0 instructions: 600000001 cycles: 349309970 cumulative IPC: 1.718 (Simulation time: 01 hr 03 min 55 sec)
Simulation complete CPU 0 instructions: 600000001 cycles: 349309970 cumulative IPC: 1.718 (Simulation time: 01 hr 03 min 55 sec)

ChampSim completed all CPUs

=== Simulation ===
CPU 0 runs traces/400.perlbench-41B.champsimtrace.xz
Region of Interest Statistics

CPU 0 cumulative IPC: 1.718 instructions: 600000001 cycles: 349309970
CPU 0 Branch Prediction Accuracy: 93.95% MPKI: 12.5 Average ROB Occupancy at Mispredict: 29.58
Branch type MPKI
BRANCH_DIRECT_JUMP: 0.0123
BRANCH_INDIRECT: 0.323
BRANCH_CONDITIONAL: 12
BRANCH_DIRECT_CALL: 0.0043
BRANCH_INDIRECT_CALL: 0.2
BRANCH_RETURN: 0.00828

LLC TOTAL        ACCESS:     939160 HIT:     508830 MISS:     430330
LLC LOAD         ACCESS:     401023 HIT:     207159 MISS:     193864
LLC RFO          ACCESS:      32809 HIT:      15778 MISS:      17031
LLC PREFETCH     ACCESS:     401023 HIT:     193387 MISS:     207636
LLC WRITE        ACCESS:      85297 HIT:      84606 MISS:        691
LLC TRANSLATION  ACCESS:      19008 HIT:       7900 MISS:      11108
LLC PREFETCH REQUESTED:     401023 ISSUED:     401023 USEFUL:      76144 USELESS:      80486
LLC AVERAGE MISS LATENCY: 580.3 cycles
cpu0_DTLB TOTAL        ACCESS:  153676757 HIT:  152999454 MISS:     677303
cpu0_DTLB LOAD         ACCESS:  153676757 HIT:  152999454 MISS:     677303
cpu0_DTLB RFO          ACCESS:          0 HIT:          0 MISS:          0
cpu0_DTLB PREFETCH     ACCESS:          0 HIT:          0 MISS:          0
cpu0_DTLB WRITE        ACCESS:          0 HIT:          0 MISS:          0
cpu0_DTLB TRANSLATION  ACCESS:          0 HIT:          0 MISS:          0
cpu0_DTLB PREFETCH REQUESTED:          0 ISSUED:          0 USEFUL:          0 USELESS:          0
cpu0_DTLB AVERAGE MISS LATENCY: 17.81 cycles
cpu0_ITLB TOTAL        ACCESS:    4835450 HIT:    4777555 MISS:      57895
cpu0_ITLB LOAD         ACCESS:    4835450 HIT:    4777555 MISS:      57895
cpu0_ITLB RFO          ACCESS:          0 HIT:          0 MISS:          0
cpu0_ITLB PREFETCH     ACCESS:          0 HIT:          0 MISS:          0
cpu0_ITLB WRITE        ACCESS:          0 HIT:          0 MISS:          0
cpu0_ITLB TRANSLATION  ACCESS:          0 HIT:          0 MISS:          0
cpu0_ITLB PREFETCH REQUESTED:          0 ISSUED:          0 USEFUL:          0 USELESS:          0
cpu0_ITLB AVERAGE MISS LATENCY: 8.086 cycles
cpu0_L1D TOTAL        ACCESS:  200292188 HIT:  198557108 MISS:    1735080
cpu0_L1D LOAD         ACCESS:  117049797 HIT:  115699489 MISS:    1350308
cpu0_L1D RFO          ACCESS:          0 HIT:          0 MISS:          0
cpu0_L1D PREFETCH     ACCESS:          0 HIT:          0 MISS:          0
cpu0_L1D WRITE        ACCESS:   83217930 HIT:   82856587 MISS:     361343
cpu0_L1D TRANSLATION  ACCESS:      24461 HIT:       1032 MISS:      23429
cpu0_L1D PREFETCH REQUESTED:          0 ISSUED:          0 USEFUL:          0 USELESS:          0
cpu0_L1D AVERAGE MISS LATENCY: 84.93 cycles
cpu0_L1I TOTAL        ACCESS:    5577776 HIT:    4816222 MISS:     761554
cpu0_L1I LOAD         ACCESS:    5577776 HIT:    4816222 MISS:     761554
cpu0_L1I RFO          ACCESS:          0 HIT:          0 MISS:          0
cpu0_L1I PREFETCH     ACCESS:          0 HIT:          0 MISS:          0
cpu0_L1I WRITE        ACCESS:          0 HIT:          0 MISS:          0
cpu0_L1I TRANSLATION  ACCESS:          0 HIT:          0 MISS:          0
cpu0_L1I PREFETCH REQUESTED:          0 ISSUED:          0 USEFUL:          0 USELESS:          0
cpu0_L1I AVERAGE MISS LATENCY: 14.14 cycles
cpu0_L2C TOTAL        ACCESS:    1667866 HIT:    1213222 MISS:     454644
cpu0_L2C LOAD         ACCESS:    1317052 HIT:     916029 MISS:     401023
cpu0_L2C RFO          ACCESS:      88631 HIT:      55822 MISS:      32809
cpu0_L2C PREFETCH     ACCESS:          0 HIT:          0 MISS:          0
cpu0_L2C WRITE        ACCESS:     238838 HIT:     237034 MISS:       1804
cpu0_L2C TRANSLATION  ACCESS:      23345 HIT:       4337 MISS:      19008
cpu0_L2C PREFETCH REQUESTED:          0 ISSUED:          0 USEFUL:          0 USELESS:          0
cpu0_L2C AVERAGE MISS LATENCY: 326.8 cycles
cpu0_STLB TOTAL        ACCESS:     505221 HIT:     482431 MISS:      22790
cpu0_STLB LOAD         ACCESS:     505221 HIT:     482431 MISS:      22790
cpu0_STLB RFO          ACCESS:          0 HIT:          0 MISS:          0
cpu0_STLB PREFETCH     ACCESS:          0 HIT:          0 MISS:          0
cpu0_STLB WRITE        ACCESS:          0 HIT:          0 MISS:          0
cpu0_STLB TRANSLATION  ACCESS:          0 HIT:          0 MISS:          0
cpu0_STLB PREFETCH REQUESTED:          0 ISSUED:          0 USEFUL:          0 USELESS:          0
cpu0_STLB AVERAGE MISS LATENCY: 411.7 cycles

DRAM Statistics

Channel 0 RQ ROW_BUFFER_HIT:      63514
  ROW_BUFFER_MISS:     301529
 AVG DBUS CONGESTED CYCLE: 3.874
WQ ROW_BUFFER_HIT: Channel 0 
  ROW_BUFFER_MISS:       5522
  FULL:      42718
