WARNING: physical memory size is smaller than virtual memory size.

*** ChampSim Multicore Out-of-Order Simulator ***
Warmup Instructions: 50000000
Simulation Instructions: 600000000
Number of CPUs: 1
Page size: 4096

CPU 0 Tage branch predictor
Off-chip DRAM Size: 4 GiB Channels: 1 Width: 64-bit Data Race: 3200 MT/s
Heartbeat CPU 0 instructions: 10000000 cycles: 2500061 heartbeat IPC: 4 cumulative IPC: 4 (Simulation time: 00 hr 00 min 39 sec)
Heartbeat CPU 0 instructions: 20000000 cycles: 5000061 heartbeat IPC: 4 cumulative IPC: 4 (Simulation time: 00 hr 01 min 19 sec)
Heartbeat CPU 0 instructions: 30000000 cycles: 7500061 heartbeat IPC: 4 cumulative IPC: 4 (Simulation time: 00 hr 01 min 58 sec)
Heartbeat CPU 0 instructions: 40000000 cycles: 10000061 heartbeat IPC: 4 cumulative IPC: 4 (Simulation time: 00 hr 02 min 37 sec)
Heartbeat CPU 0 instructions: 50000000 cycles: 12500061 heartbeat IPC: 4 cumulative IPC: 4 (Simulation time: 00 hr 03 min 16 sec)
Warmup finished CPU 0 instructions: 50000000 cycles: 12500062 cumulative IPC: 4 (Simulation time: 00 hr 03 min 16 sec)
Warmup complete CPU 0 instructions: 50000000 cycles: 12500062 cumulative IPC: 4 (Simulation time: 00 hr 03 min 16 sec)
Heartbeat CPU 0 instructions: 60000004 cycles: 15504489 heartbeat IPC: 3.328 cumulative IPC: 3.328 (Simulation time: 00 hr 04 min 05 sec)
Heartbeat CPU 0 instructions: 70000003 cycles: 18370762 heartbeat IPC: 3.489 cumulative IPC: 3.407 (Simulation time: 00 hr 04 min 52 sec)
Heartbeat CPU 0 instructions: 80000002 cycles: 21382300 heartbeat IPC: 3.321 cumulative IPC: 3.378 (Simulation time: 00 hr 05 min 42 sec)
Heartbeat CPU 0 instructions: 90000000 cycles: 24100329 heartbeat IPC: 3.679 cumulative IPC: 3.448 (Simulation time: 00 hr 06 min 28 sec)
Heartbeat CPU 0 instructions: 100000003 cycles: 26857493 heartbeat IPC: 3.627 cumulative IPC: 3.483 (Simulation time: 00 hr 07 min 18 sec)
Heartbeat CPU 0 instructions: 110000001 cycles: 29755202 heartbeat IPC: 3.451 cumulative IPC: 3.477 (Simulation time: 00 hr 08 min 06 sec)
Heartbeat CPU 0 instructions: 120000001 cycles: 32471687 heartbeat IPC: 3.681 cumulative IPC: 3.505 (Simulation time: 00 hr 08 min 54 sec)
Heartbeat CPU 0 instructions: 130000003 cycles: 35371153 heartbeat IPC: 3.449 cumulative IPC: 3.498 (Simulation time: 00 hr 09 min 42 sec)
Heartbeat CPU 0 instructions: 140000002 cycles: 38204957 heartbeat IPC: 3.529 cumulative IPC: 3.501 (Simulation time: 00 hr 10 min 29 sec)
Heartbeat CPU 0 instructions: 150000001 cycles: 40975005 heartbeat IPC: 3.61 cumulative IPC: 3.512 (Simulation time: 00 hr 11 min 16 sec)
Heartbeat CPU 0 instructions: 160000000 cycles: 43892634 heartbeat IPC: 3.427 cumulative IPC: 3.504 (Simulation time: 00 hr 12 min 04 sec)
Heartbeat CPU 0 instructions: 170000001 cycles: 46821114 heartbeat IPC: 3.415 cumulative IPC: 3.496 (Simulation time: 00 hr 12 min 52 sec)
Heartbeat CPU 0 instructions: 180000000 cycles: 49612148 heartbeat IPC: 3.583 cumulative IPC: 3.503 (Simulation time: 00 hr 13 min 38 sec)
Heartbeat CPU 0 instructions: 190000002 cycles: 52319155 heartbeat IPC: 3.694 cumulative IPC: 3.516 (Simulation time: 00 hr 14 min 26 sec)
Heartbeat CPU 0 instructions: 200000002 cycles: 55139904 heartbeat IPC: 3.545 cumulative IPC: 3.518 (Simulation time: 00 hr 15 min 16 sec)
Heartbeat CPU 0 instructions: 210000000 cycles: 58032602 heartbeat IPC: 3.457 cumulative IPC: 3.514 (Simulation time: 00 hr 16 min 05 sec)
Heartbeat CPU 0 instructions: 220000001 cycles: 60784611 heartbeat IPC: 3.634 cumulative IPC: 3.521 (Simulation time: 00 hr 16 min 52 sec)
Heartbeat CPU 0 instructions: 230000002 cycles: 63673784 heartbeat IPC: 3.461 cumulative IPC: 3.517 (Simulation time: 00 hr 17 min 41 sec)
Heartbeat CPU 0 instructions: 240000004 cycles: 66625216 heartbeat IPC: 3.388 cumulative IPC: 3.51 (Simulation time: 00 hr 18 min 29 sec)
Heartbeat CPU 0 instructions: 250000003 cycles: 69516076 heartbeat IPC: 3.459 cumulative IPC: 3.508 (Simulation time: 00 hr 19 min 16 sec)
Heartbeat CPU 0 instructions: 260000001 cycles: 72300518 heartbeat IPC: 3.591 cumulative IPC: 3.512 (Simulation time: 00 hr 20 min 02 sec)
Heartbeat CPU 0 instructions: 270000002 cycles: 78109898 heartbeat IPC: 1.721 cumulative IPC: 3.353 (Simulation time: 00 hr 21 min 04 sec)
Heartbeat CPU 0 instructions: 280000000 cycles: 86666822 heartbeat IPC: 1.169 cumulative IPC: 3.101 (Simulation time: 00 hr 22 min 23 sec)
Heartbeat CPU 0 instructions: 290000000 cycles: 94085250 heartbeat IPC: 1.348 cumulative IPC: 2.942 (Simulation time: 00 hr 23 min 40 sec)
Heartbeat CPU 0 instructions: 300000003 cycles: 99932826 heartbeat IPC: 1.71 cumulative IPC: 2.859 (Simulation time: 00 hr 24 min 49 sec)
Heartbeat CPU 0 instructions: 310000001 cycles: 108804313 heartbeat IPC: 1.127 cumulative IPC: 2.7 (Simulation time: 00 hr 26 min 16 sec)
Heartbeat CPU 0 instructions: 320000004 cycles: 112954493 heartbeat IPC: 2.41 cumulative IPC: 2.688 (Simulation time: 00 hr 27 min 13 sec)
Heartbeat CPU 0 instructions: 330000000 cycles: 116103178 heartbeat IPC: 3.176 cumulative IPC: 2.703 (Simulation time: 00 hr 28 min 01 sec)
Heartbeat CPU 0 instructions: 340000001 cycles: 119280281 heartbeat IPC: 3.148 cumulative IPC: 2.716 (Simulation time: 00 hr 28 min 51 sec)
Heartbeat CPU 0 instructions: 350000000 cycles: 122630683 heartbeat IPC: 2.985 cumulative IPC: 2.724 (Simulation time: 00 hr 29 min 41 sec)
Heartbeat CPU 0 instructions: 360000004 cycles: 125774143 heartbeat IPC: 3.181 cumulative IPC: 2.737 (Simulation time: 00 hr 30 min 31 sec)
Heartbeat CPU 0 instructions: 370000001 cycles: 128841267 heartbeat IPC: 3.26 cumulative IPC: 2.751 (Simulation time: 00 hr 31 min 19 sec)
Heartbeat CPU 0 instructions: 380000004 cycles: 131916896 heartbeat IPC: 3.251 cumulative IPC: 2.763 (Simulation time: 00 hr 32 min 08 sec)
Heartbeat CPU 0 instructions: 390000002 cycles: 135164050 heartbeat IPC: 3.08 cumulative IPC: 2.772 (Simulation time: 00 hr 32 min 59 sec)
Heartbeat CPU 0 instructions: 400000000 cycles: 138494313 heartbeat IPC: 3.003 cumulative IPC: 2.778 (Simulation time: 00 hr 33 min 50 sec)
Heartbeat CPU 0 instructions: 410000000 cycles: 144637036 heartbeat IPC: 1.628 cumulative IPC: 2.724 (Simulation time: 00 hr 34 min 57 sec)
Heartbeat CPU 0 instructions: 420000003 cycles: 152808538 heartbeat IPC: 1.224 cumulative IPC: 2.637 (Simulation time: 00 hr 36 min 19 sec)
Heartbeat CPU 0 instructions: 430000000 cycles: 158811944 heartbeat IPC: 1.666 cumulative IPC: 2.597 (Simulation time: 00 hr 37 min 30 sec)
Heartbeat CPU 0 instructions: 440000004 cycles: 164503147 heartbeat IPC: 1.757 cumulative IPC: 2.566 (Simulation time: 00 hr 38 min 35 sec)
Heartbeat CPU 0 instructions: 450000001 cycles: 169835979 heartbeat IPC: 1.875 cumulative IPC: 2.542 (Simulation time: 00 hr 39 min 36 sec)
Heartbeat CPU 0 instructions: 460000002 cycles: 178742565 heartbeat IPC: 1.123 cumulative IPC: 2.466 (Simulation time: 00 hr 40 min 57 sec)
Heartbeat CPU 0 instructions: 470000003 cycles: 186640829 heartbeat IPC: 1.266 cumulative IPC: 2.412 (Simulation time: 00 hr 42 min 17 sec)
Heartbeat CPU 0 instructions: 480000000 cycles: 190043346 heartbeat IPC: 2.939 cumulative IPC: 2.422 (Simulation time: 00 hr 43 min 07 sec)
Heartbeat CPU 0 instructions: 490000001 cycles: 193583164 heartbeat IPC: 2.825 cumulative IPC: 2.43 (Simulation time: 00 hr 44 min 00 sec)
Heartbeat CPU 0 instructions: 500000002 cycles: 197014839 heartbeat IPC: 2.914 cumulative IPC: 2.439 (Simulation time: 00 hr 44 min 50 sec)
Heartbeat CPU 0 instructions: 510000000 cycles: 200394134 heartbeat IPC: 2.959 cumulative IPC: 2.448 (Simulation time: 00 hr 45 min 42 sec)
Heartbeat CPU 0 instructions: 520000000 cycles: 203806273 heartbeat IPC: 2.931 cumulative IPC: 2.457 (Simulation time: 00 hr 46 min 30 sec)
Heartbeat CPU 0 instructions: 530000001 cycles: 212786242 heartbeat IPC: 1.114 cumulative IPC: 2.397 (Simulation time: 00 hr 47 min 49 sec)
Heartbeat CPU 0 instructions: 540000000 cycles: 221241215 heartbeat IPC: 1.183 cumulative IPC: 2.347 (Simulation time: 00 hr 49 min 08 sec)
Heartbeat CPU 0 instructions: 550000004 cycles: 231761569 heartbeat IPC: 0.9505 cumulative IPC: 2.28 (Simulation time: 00 hr 50 min 44 sec)
Heartbeat CPU 0 instructions: 560000004 cycles: 235435101 heartbeat IPC: 2.722 cumulative IPC: 2.288 (Simulation time: 00 hr 51 min 36 sec)
Heartbeat CPU 0 instructions: 570000002 cycles: 238256962 heartbeat IPC: 3.544 cumulative IPC: 2.303 (Simulation time: 00 hr 52 min 25 sec)
Heartbeat CPU 0 instructions: 580000000 cycles: 241181189 heartbeat IPC: 3.42 cumulative IPC: 2.318 (Simulation time: 00 hr 53 min 14 sec)
Heartbeat CPU 0 instructions: 590000001 cycles: 244107561 heartbeat IPC: 3.417 cumulative IPC: 2.332 (Simulation time: 00 hr 54 min 06 sec)
Heartbeat CPU 0 instructions: 600000003 cycles: 246801239 heartbeat IPC: 3.712 cumulative IPC: 2.347 (Simulation time: 00 hr 54 min 50 sec)
Heartbeat CPU 0 instructions: 610000001 cycles: 249665972 heartbeat IPC: 3.491 cumulative IPC: 2.361 (Simulation time: 00 hr 55 min 39 sec)
Heartbeat CPU 0 instructions: 620000004 cycles: 252618836 heartbeat IPC: 3.387 cumulative IPC: 2.374 (Simulation time: 00 hr 56 min 25 sec)
Heartbeat CPU 0 instructions: 630000002 cycles: 255431229 heartbeat IPC: 3.556 cumulative IPC: 2.388 (Simulation time: 00 hr 57 min 14 sec)
Heartbeat CPU 0 instructions: 640000004 cycles: 258477553 heartbeat IPC: 3.283 cumulative IPC: 2.399 (Simulation time: 00 hr 58 min 03 sec)
Heartbeat CPU 0 instructions: 650000001 cycles: 261186850 heartbeat IPC: 3.691 cumulative IPC: 2.413 (Simulation time: 00 hr 58 min 54 sec)
Simulation finished CPU 0 instructions: 600000001 cycles: 248686789 cumulative IPC: 2.413 (Simulation time: 00 hr 58 min 54 sec)
Simulation complete CPU 0 instructions: 600000001 cycles: 248686789 cumulative IPC: 2.413 (Simulation time: 00 hr 58 min 54 sec)

ChampSim completed all CPUs

=== Simulation ===
CPU 0 runs traces/400.perlbench-50B.champsimtrace.xz
Region of Interest Statistics

CPU 0 cumulative IPC: 2.413 instructions: 600000001 cycles: 248686789
CPU 0 Branch Prediction Accuracy: 99.01% MPKI: 2.04 Average ROB Occupancy at Mispredict: 95.33
Branch type MPKI
BRANCH_DIRECT_JUMP: 0.0176
BRANCH_INDIRECT: 0.38
BRANCH_CONDITIONAL: 1.19
BRANCH_DIRECT_CALL: 0.0067
BRANCH_INDIRECT_CALL: 0.431
BRANCH_RETURN: 0.0161

LLC TOTAL        ACCESS:     784650 HIT:     468096 MISS:     316554
LLC LOAD         ACCESS:     587137 HIT:     313565 MISS:     273572
LLC RFO          ACCESS:      47335 HIT:      33701 MISS:      13634
LLC PREFETCH     ACCESS:          0 HIT:          0 MISS:          0
LLC WRITE        ACCESS:     128232 HIT:     114727 MISS:      13505
LLC TRANSLATION  ACCESS:      21946 HIT:       6103 MISS:      15843
LLC PREFETCH REQUESTED:          0 ISSUED:          0 USEFUL:          0 USELESS:          0
LLC AVERAGE MISS LATENCY: 524.2 cycles
cpu0_DTLB TOTAL        ACCESS:  133227078 HIT:  131871489 MISS:    1355589
cpu0_DTLB LOAD         ACCESS:  133227078 HIT:  131871489 MISS:    1355589
cpu0_DTLB RFO          ACCESS:          0 HIT:          0 MISS:          0
cpu0_DTLB PREFETCH     ACCESS:          0 HIT:          0 MISS:          0
cpu0_DTLB WRITE        ACCESS:          0 HIT:          0 MISS:          0
cpu0_DTLB TRANSLATION  ACCESS:          0 HIT:          0 MISS:          0
cpu0_DTLB PREFETCH REQUESTED:          0 ISSUED:          0 USEFUL:          0 USELESS:          0
cpu0_DTLB AVERAGE MISS LATENCY: 13.02 cycles
cpu0_ITLB TOTAL        ACCESS:    9002346 HIT:    8792957 MISS:     209389
cpu0_ITLB LOAD         ACCESS:    9002346 HIT:    8792957 MISS:     209389
cpu0_ITLB RFO          ACCESS:          0 HIT:          0 MISS:          0
cpu0_ITLB PREFETCH     ACCESS:          0 HIT:          0 MISS:          0
cpu0_ITLB WRITE        ACCESS:          0 HIT:          0 MISS:          0
cpu0_ITLB TRANSLATION  ACCESS:          0 HIT:          0 MISS:          0
cpu0_ITLB PREFETCH REQUESTED:          0 ISSUED:          0 USEFUL:          0 USELESS:          0
cpu0_ITLB AVERAGE MISS LATENCY: 3.067 cycles
cpu0_L1D TOTAL        ACCESS:  178244149 HIT:  174461959 MISS:    3782190
cpu0_L1D LOAD         ACCESS:   92725905 HIT:   89611675 MISS:    3114230
cpu0_L1D RFO          ACCESS:          0 HIT:          0 MISS:          0
cpu0_L1D PREFETCH     ACCESS:          0 HIT:          0 MISS:          0
cpu0_L1D WRITE        ACCESS:   85489713 HIT:   84848876 MISS:     640837
cpu0_L1D TRANSLATION  ACCESS:      28531 HIT:       1408 MISS:      27123
cpu0_L1D PREFETCH REQUESTED:          0 ISSUED:          0 USEFUL:          0 USELESS:          0
cpu0_L1D AVERAGE MISS LATENCY: 46.02 cycles
cpu0_L1I TOTAL        ACCESS:   10521455 HIT:    8623975 MISS:    1897480
cpu0_L1I LOAD         ACCESS:   10521455 HIT:    8623975 MISS:    1897480
cpu0_L1I RFO          ACCESS:          0 HIT:          0 MISS:          0
cpu0_L1I PREFETCH     ACCESS:          0 HIT:          0 MISS:          0
cpu0_L1I WRITE        ACCESS:          0 HIT:          0 MISS:          0
cpu0_L1I TRANSLATION  ACCESS:          0 HIT:          0 MISS:          0
cpu0_L1I PREFETCH REQUESTED:          0 ISSUED:          0 USEFUL:          0 USELESS:          0
cpu0_L1I AVERAGE MISS LATENCY: 12.71 cycles
cpu0_L2C TOTAL        ACCESS:    3840390 HIT:    3180614 MISS:     659776
cpu0_L2C LOAD         ACCESS:    3103646 HIT:    2516509 MISS:     587137
cpu0_L2C RFO          ACCESS:     194975 HIT:     147640 MISS:      47335
cpu0_L2C PREFETCH     ACCESS:          0 HIT:          0 MISS:          0
cpu0_L2C WRITE        ACCESS:     514728 HIT:     511370 MISS:       3358
cpu0_L2C TRANSLATION  ACCESS:      27041 HIT:       5095 MISS:      21946
cpu0_L2C PREFETCH REQUESTED:          0 ISSUED:          0 USEFUL:          0 USELESS:          0
cpu0_L2C AVERAGE MISS LATENCY: 271.9 cycles
cpu0_STLB TOTAL        ACCESS:    1009957 HIT:     983265 MISS:      26692
cpu0_STLB LOAD         ACCESS:    1009957 HIT:     983265 MISS:      26692
cpu0_STLB RFO          ACCESS:          0 HIT:          0 MISS:          0
cpu0_STLB PREFETCH     ACCESS:          0 HIT:          0 MISS:          0
cpu0_STLB WRITE        ACCESS:          0 HIT:          0 MISS:          0
cpu0_STLB TRANSLATION  ACCESS:          0 HIT:          0 MISS:          0
cpu0_STLB PREFETCH REQUESTED:          0 ISSUED:          0 USEFUL:          0 USELESS:          0
cpu0_STLB AVERAGE MISS LATENCY: 463.3 cycles

DRAM Statistics

Channel 0 RQ ROW_BUFFER_HIT:      71926
  ROW_BUFFER_MISS:     231018
 AVG DBUS CONGESTED CYCLE: 3.765
WQ ROW_BUFFER_HIT: Channel 0 
  ROW_BUFFER_MISS:       5895
  FULL:      12242
