WARNING: physical memory size is smaller than virtual memory size.

*** ChampSim Multicore Out-of-Order Simulator ***
Warmup Instructions: 50000000
Simulation Instructions: 600000000
Number of CPUs: 1
Page size: 4096

Off-chip DRAM Size: 4 GiB Channels: 1 Width: 64-bit Data Race: 3200 MT/s
Heartbeat CPU 0 instructions: 10000000 cycles: 2500061 heartbeat IPC: 4 cumulative IPC: 4 (Simulation time: 00 hr 00 min 58 sec)
Heartbeat CPU 0 instructions: 20000000 cycles: 5000061 heartbeat IPC: 4 cumulative IPC: 4 (Simulation time: 00 hr 01 min 50 sec)
Heartbeat CPU 0 instructions: 30000000 cycles: 7500061 heartbeat IPC: 4 cumulative IPC: 4 (Simulation time: 00 hr 02 min 45 sec)
Heartbeat CPU 0 instructions: 40000000 cycles: 10000061 heartbeat IPC: 4 cumulative IPC: 4 (Simulation time: 00 hr 03 min 33 sec)
Heartbeat CPU 0 instructions: 50000000 cycles: 12500061 heartbeat IPC: 4 cumulative IPC: 4 (Simulation time: 00 hr 04 min 20 sec)
Warmup finished CPU 0 instructions: 50000000 cycles: 12500062 cumulative IPC: 4 (Simulation time: 00 hr 04 min 20 sec)
Warmup complete CPU 0 instructions: 50000000 cycles: 12500062 cumulative IPC: 4 (Simulation time: 00 hr 04 min 20 sec)
Heartbeat CPU 0 instructions: 60000002 cycles: 16444688 heartbeat IPC: 2.535 cumulative IPC: 2.535 (Simulation time: 00 hr 05 min 24 sec)
Heartbeat CPU 0 instructions: 70000003 cycles: 20760893 heartbeat IPC: 2.317 cumulative IPC: 2.421 (Simulation time: 00 hr 06 min 26 sec)
Heartbeat CPU 0 instructions: 80000003 cycles: 25229157 heartbeat IPC: 2.238 cumulative IPC: 2.357 (Simulation time: 00 hr 07 min 33 sec)
Heartbeat CPU 0 instructions: 90000000 cycles: 28920814 heartbeat IPC: 2.709 cumulative IPC: 2.436 (Simulation time: 00 hr 08 min 33 sec)
Heartbeat CPU 0 instructions: 100000003 cycles: 32818788 heartbeat IPC: 2.565 cumulative IPC: 2.461 (Simulation time: 00 hr 09 min 34 sec)
Heartbeat CPU 0 instructions: 110000002 cycles: 36920325 heartbeat IPC: 2.438 cumulative IPC: 2.457 (Simulation time: 00 hr 10 min 34 sec)
Heartbeat CPU 0 instructions: 120000001 cycles: 40635683 heartbeat IPC: 2.692 cumulative IPC: 2.488 (Simulation time: 00 hr 11 min 33 sec)
Heartbeat CPU 0 instructions: 130000003 cycles: 44404658 heartbeat IPC: 2.653 cumulative IPC: 2.507 (Simulation time: 00 hr 12 min 32 sec)
Heartbeat CPU 0 instructions: 140000002 cycles: 48538024 heartbeat IPC: 2.419 cumulative IPC: 2.497 (Simulation time: 00 hr 13 min 31 sec)
Heartbeat CPU 0 instructions: 150000001 cycles: 52589949 heartbeat IPC: 2.468 cumulative IPC: 2.494 (Simulation time: 00 hr 14 min 40 sec)
Heartbeat CPU 0 instructions: 160000000 cycles: 56247531 heartbeat IPC: 2.734 cumulative IPC: 2.514 (Simulation time: 00 hr 15 min 47 sec)
Heartbeat CPU 0 instructions: 170000001 cycles: 60421737 heartbeat IPC: 2.396 cumulative IPC: 2.504 (Simulation time: 00 hr 16 min 54 sec)
Heartbeat CPU 0 instructions: 180000001 cycles: 63882371 heartbeat IPC: 2.89 cumulative IPC: 2.53 (Simulation time: 00 hr 17 min 55 sec)
Heartbeat CPU 0 instructions: 190000002 cycles: 67465761 heartbeat IPC: 2.791 cumulative IPC: 2.547 (Simulation time: 00 hr 18 min 57 sec)
Heartbeat CPU 0 instructions: 200000002 cycles: 71249161 heartbeat IPC: 2.643 cumulative IPC: 2.553 (Simulation time: 00 hr 19 min 58 sec)
Heartbeat CPU 0 instructions: 210000000 cycles: 74888079 heartbeat IPC: 2.748 cumulative IPC: 2.565 (Simulation time: 00 hr 20 min 56 sec)
Heartbeat CPU 0 instructions: 220000001 cycles: 78754029 heartbeat IPC: 2.587 cumulative IPC: 2.566 (Simulation time: 00 hr 21 min 57 sec)
Heartbeat CPU 0 instructions: 230000002 cycles: 82594747 heartbeat IPC: 2.604 cumulative IPC: 2.568 (Simulation time: 00 hr 23 min 00 sec)
Heartbeat CPU 0 instructions: 240000001 cycles: 86801493 heartbeat IPC: 2.377 cumulative IPC: 2.557 (Simulation time: 00 hr 24 min 03 sec)
Heartbeat CPU 0 instructions: 250000003 cycles: 91366755 heartbeat IPC: 2.19 cumulative IPC: 2.536 (Simulation time: 00 hr 25 min 07 sec)
Heartbeat CPU 0 instructions: 260000000 cycles: 95163414 heartbeat IPC: 2.634 cumulative IPC: 2.54 (Simulation time: 00 hr 26 min 08 sec)
Heartbeat CPU 0 instructions: 270000003 cycles: 102298243 heartbeat IPC: 1.402 cumulative IPC: 2.45 (Simulation time: 00 hr 27 min 36 sec)
Heartbeat CPU 0 instructions: 280000000 cycles: 113685474 heartbeat IPC: 0.8782 cumulative IPC: 2.273 (Simulation time: 00 hr 29 min 57 sec)
Heartbeat CPU 0 instructions: 290000000 cycles: 123826253 heartbeat IPC: 0.9861 cumulative IPC: 2.156 (Simulation time: 00 hr 32 min 00 sec)
Heartbeat CPU 0 instructions: 300000003 cycles: 131314812 heartbeat IPC: 1.335 cumulative IPC: 2.104 (Simulation time: 00 hr 33 min 41 sec)
Heartbeat CPU 0 instructions: 310000004 cycles: 142218715 heartbeat IPC: 0.9171 cumulative IPC: 2.004 (Simulation time: 00 hr 35 min 40 sec)
Heartbeat CPU 0 instructions: 320000004 cycles: 147285611 heartbeat IPC: 1.974 cumulative IPC: 2.003 (Simulation time: 00 hr 36 min 54 sec)
Heartbeat CPU 0 instructions: 330000000 cycles: 151362016 heartbeat IPC: 2.453 cumulative IPC: 2.016 (Simulation time: 00 hr 37 min 56 sec)
Heartbeat CPU 0 instructions: 340000001 cycles: 155685322 heartbeat IPC: 2.313 cumulative IPC: 2.025 (Simulation time: 00 hr 38 min 57 sec)
Heartbeat CPU 0 instructions: 350000004 cycles: 160151799 heartbeat IPC: 2.239 cumulative IPC: 2.032 (Simulation time: 00 hr 39 min 59 sec)
Heartbeat CPU 0 instructions: 360000003 cycles: 164315451 heartbeat IPC: 2.402 cumulative IPC: 2.042 (Simulation time: 00 hr 40 min 59 sec)
Heartbeat CPU 0 instructions: 370000001 cycles: 168363220 heartbeat IPC: 2.47 cumulative IPC: 2.053 (Simulation time: 00 hr 42 min 01 sec)
Heartbeat CPU 0 instructions: 380000004 cycles: 172262130 heartbeat IPC: 2.565 cumulative IPC: 2.066 (Simulation time: 00 hr 43 min 03 sec)
Heartbeat CPU 0 instructions: 390000002 cycles: 176344483 heartbeat IPC: 2.45 cumulative IPC: 2.075 (Simulation time: 00 hr 44 min 09 sec)
Heartbeat CPU 0 instructions: 400000000 cycles: 180724857 heartbeat IPC: 2.283 cumulative IPC: 2.081 (Simulation time: 00 hr 45 min 29 sec)
Heartbeat CPU 0 instructions: 410000000 cycles: 188912593 heartbeat IPC: 1.221 cumulative IPC: 2.041 (Simulation time: 00 hr 47 min 20 sec)
Heartbeat CPU 0 instructions: 420000003 cycles: 200998780 heartbeat IPC: 0.8274 cumulative IPC: 1.963 (Simulation time: 00 hr 49 min 29 sec)
Heartbeat CPU 0 instructions: 430000000 cycles: 209438388 heartbeat IPC: 1.185 cumulative IPC: 1.93 (Simulation time: 00 hr 51 min 11 sec)
Heartbeat CPU 0 instructions: 440000004 cycles: 216862773 heartbeat IPC: 1.347 cumulative IPC: 1.908 (Simulation time: 00 hr 52 min 46 sec)
Heartbeat CPU 0 instructions: 450000001 cycles: 224282811 heartbeat IPC: 1.348 cumulative IPC: 1.889 (Simulation time: 00 hr 54 min 16 sec)
Heartbeat CPU 0 instructions: 460000002 cycles: 236006818 heartbeat IPC: 0.853 cumulative IPC: 1.834 (Simulation time: 00 hr 56 min 11 sec)
Heartbeat CPU 0 instructions: 470000003 cycles: 245628366 heartbeat IPC: 1.039 cumulative IPC: 1.802 (Simulation time: 00 hr 57 min 50 sec)
Heartbeat CPU 0 instructions: 480000003 cycles: 249937759 heartbeat IPC: 2.321 cumulative IPC: 1.811 (Simulation time: 00 hr 58 min 50 sec)
Heartbeat CPU 0 instructions: 490000001 cycles: 254672559 heartbeat IPC: 2.112 cumulative IPC: 1.817 (Simulation time: 00 hr 59 min 53 sec)
Heartbeat CPU 0 instructions: 500000002 cycles: 259152589 heartbeat IPC: 2.232 cumulative IPC: 1.824 (Simulation time: 01 hr 00 min 55 sec)
Heartbeat CPU 0 instructions: 510000000 cycles: 263425928 heartbeat IPC: 2.34 cumulative IPC: 1.833 (Simulation time: 01 hr 01 min 56 sec)
Heartbeat CPU 0 instructions: 520000000 cycles: 267880127 heartbeat IPC: 2.245 cumulative IPC: 1.84 (Simulation time: 01 hr 02 min 57 sec)
Heartbeat CPU 0 instructions: 530000001 cycles: 280621674 heartbeat IPC: 0.7848 cumulative IPC: 1.79 (Simulation time: 01 hr 04 min 58 sec)
Heartbeat CPU 0 instructions: 540000000 cycles: 292739190 heartbeat IPC: 0.8253 cumulative IPC: 1.749 (Simulation time: 01 hr 06 min 58 sec)
Heartbeat CPU 0 instructions: 550000004 cycles: 306221418 heartbeat IPC: 0.7417 cumulative IPC: 1.702 (Simulation time: 01 hr 09 min 05 sec)
Heartbeat CPU 0 instructions: 560000004 cycles: 310449315 heartbeat IPC: 2.365 cumulative IPC: 1.712 (Simulation time: 01 hr 10 min 05 sec)
Heartbeat CPU 0 instructions: 570000001 cycles: 313578344 heartbeat IPC: 3.196 cumulative IPC: 1.727 (Simulation time: 01 hr 11 min 01 sec)
Heartbeat CPU 0 instructions: 580000003 cycles: 317126413 heartbeat IPC: 2.818 cumulative IPC: 1.74 (Simulation time: 01 hr 11 min 57 sec)
Heartbeat CPU 0 instructions: 590000002 cycles: 320752680 heartbeat IPC: 2.758 cumulative IPC: 1.752 (Simulation time: 01 hr 12 min 55 sec)
Heartbeat CPU 0 instructions: 600000003 cycles: 323815578 heartbeat IPC: 3.265 cumulative IPC: 1.767 (Simulation time: 01 hr 13 min 48 sec)
Heartbeat CPU 0 instructions: 610000001 cycles: 327323925 heartbeat IPC: 2.85 cumulative IPC: 1.779 (Simulation time: 01 hr 14 min 41 sec)
Heartbeat CPU 0 instructions: 620000000 cycles: 331341779 heartbeat IPC: 2.489 cumulative IPC: 1.788 (Simulation time: 01 hr 15 min 32 sec)
Heartbeat CPU 0 instructions: 630000002 cycles: 334712126 heartbeat IPC: 2.967 cumulative IPC: 1.8 (Simulation time: 01 hr 16 min 17 sec)
Heartbeat CPU 0 instructions: 640000004 cycles: 338726342 heartbeat IPC: 2.491 cumulative IPC: 1.809 (Simulation time: 01 hr 17 min 04 sec)
Heartbeat CPU 0 instructions: 650000001 cycles: 342552410 heartbeat IPC: 2.614 cumulative IPC: 1.818 (Simulation time: 01 hr 17 min 47 sec)
Simulation finished CPU 0 instructions: 600000001 cycles: 330052349 cumulative IPC: 1.818 (Simulation time: 01 hr 17 min 47 sec)
Simulation complete CPU 0 instructions: 600000001 cycles: 330052349 cumulative IPC: 1.818 (Simulation time: 01 hr 17 min 47 sec)

ChampSim completed all CPUs

=== Simulation ===
CPU 0 runs traces/400.perlbench-50B.champsimtrace.xz
Region of Interest Statistics

CPU 0 cumulative IPC: 1.818 instructions: 600000001 cycles: 330052349
CPU 0 Branch Prediction Accuracy: 96.2% MPKI: 7.839 Average ROB Occupancy at Mispredict: 43.79
Branch type MPKI
BRANCH_DIRECT_JUMP: 0.0176
BRANCH_INDIRECT: 0.38
BRANCH_CONDITIONAL: 6.99
BRANCH_DIRECT_CALL: 0.0067
BRANCH_INDIRECT_CALL: 0.431
BRANCH_RETURN: 0.0161

LLC TOTAL        ACCESS:     837793 HIT:     488858 MISS:     348935
LLC LOAD         ACCESS:     576857 HIT:     302033 MISS:     274824
LLC RFO          ACCESS:      47529 HIT:      27330 MISS:      20199
LLC PREFETCH     ACCESS:      64146 HIT:      33610 MISS:      30536
LLC WRITE        ACCESS:     127127 HIT:     114956 MISS:      12171
LLC TRANSLATION  ACCESS:      22134 HIT:      10929 MISS:      11205
LLC PREFETCH REQUESTED:      64146 ISSUED:      64146 USEFUL:      18762 USELESS:       6515
LLC AVERAGE MISS LATENCY: 524 cycles
cpu0_DTLB TOTAL        ACCESS:  146509304 HIT:  145203245 MISS:    1306059
cpu0_DTLB LOAD         ACCESS:  146509304 HIT:  145203245 MISS:    1306059
cpu0_DTLB RFO          ACCESS:          0 HIT:          0 MISS:          0
cpu0_DTLB PREFETCH     ACCESS:          0 HIT:          0 MISS:          0
cpu0_DTLB WRITE        ACCESS:          0 HIT:          0 MISS:          0
cpu0_DTLB TRANSLATION  ACCESS:          0 HIT:          0 MISS:          0
cpu0_DTLB PREFETCH REQUESTED:          0 ISSUED:          0 USEFUL:          0 USELESS:          0
cpu0_DTLB AVERAGE MISS LATENCY: 11.58 cycles
cpu0_ITLB TOTAL        ACCESS:    8991221 HIT:    8806746 MISS:     184475
cpu0_ITLB LOAD         ACCESS:    8991221 HIT:    8806746 MISS:     184475
cpu0_ITLB RFO          ACCESS:          0 HIT:          0 MISS:          0
cpu0_ITLB PREFETCH     ACCESS:          0 HIT:          0 MISS:          0
cpu0_ITLB WRITE        ACCESS:          0 HIT:          0 MISS:          0
cpu0_ITLB TRANSLATION  ACCESS:          0 HIT:          0 MISS:          0
cpu0_ITLB PREFETCH REQUESTED:          0 ISSUED:          0 USEFUL:          0 USELESS:          0
cpu0_ITLB AVERAGE MISS LATENCY: 3.389 cycles
cpu0_L1D TOTAL        ACCESS:  193276864 HIT:  189609725 MISS:    3667139
cpu0_L1D LOAD         ACCESS:  107430650 HIT:  104415295 MISS:    3015355
cpu0_L1D RFO          ACCESS:          0 HIT:          0 MISS:          0
cpu0_L1D PREFETCH     ACCESS:          0 HIT:          0 MISS:          0
cpu0_L1D WRITE        ACCESS:   85817696 HIT:   85193002 MISS:     624694
cpu0_L1D TRANSLATION  ACCESS:      28518 HIT:       1428 MISS:      27090
cpu0_L1D PREFETCH REQUESTED:          0 ISSUED:          0 USEFUL:          0 USELESS:          0
cpu0_L1D AVERAGE MISS LATENCY: 49.72 cycles
cpu0_L1I TOTAL        ACCESS:   10425215 HIT:    8662747 MISS:    1762468
cpu0_L1I LOAD         ACCESS:   10425215 HIT:    8662747 MISS:    1762468
cpu0_L1I RFO          ACCESS:          0 HIT:          0 MISS:          0
cpu0_L1I PREFETCH     ACCESS:          0 HIT:          0 MISS:          0
cpu0_L1I WRITE        ACCESS:          0 HIT:          0 MISS:          0
cpu0_L1I TRANSLATION  ACCESS:          0 HIT:          0 MISS:          0
cpu0_L1I PREFETCH REQUESTED:          0 ISSUED:          0 USEFUL:          0 USELESS:          0
cpu0_L1I AVERAGE MISS LATENCY: 11.92 cycles
cpu0_L2C TOTAL        ACCESS:    3834602 HIT:    3184860 MISS:     649742
cpu0_L2C LOAD         ACCESS:    3104935 HIT:    2528078 MISS:     576857
cpu0_L2C RFO          ACCESS:     191568 HIT:     144038 MISS:      47530
cpu0_L2C PREFETCH     ACCESS:          0 HIT:          0 MISS:          0
cpu0_L2C WRITE        ACCESS:     511071 HIT:     507850 MISS:       3221
cpu0_L2C TRANSLATION  ACCESS:      27028 HIT:       4894 MISS:      22134
cpu0_L2C PREFETCH REQUESTED:          0 ISSUED:          0 USEFUL:          0 USELESS:          0
cpu0_L2C AVERAGE MISS LATENCY: 274 cycles
cpu0_STLB TOTAL        ACCESS:    1008504 HIT:     981812 MISS:      26692
cpu0_STLB LOAD         ACCESS:    1008504 HIT:     981812 MISS:      26692
cpu0_STLB RFO          ACCESS:          0 HIT:          0 MISS:          0
cpu0_STLB PREFETCH     ACCESS:          0 HIT:          0 MISS:          0
cpu0_STLB WRITE        ACCESS:          0 HIT:          0 MISS:          0
cpu0_STLB TRANSLATION  ACCESS:          0 HIT:          0 MISS:          0
cpu0_STLB PREFETCH REQUESTED:          0 ISSUED:          0 USEFUL:          0 USELESS:          0
cpu0_STLB AVERAGE MISS LATENCY: 346.8 cycles

DRAM Statistics

Channel 0 RQ ROW_BUFFER_HIT:      68012
  ROW_BUFFER_MISS:     263207
 AVG DBUS CONGESTED CYCLE: 3.81
WQ ROW_BUFFER_HIT: Channel 0 
  ROW_BUFFER_MISS:      10030
  FULL:      37017
