WARNING: physical memory size is smaller than virtual memory size.

*** ChampSim Multicore Out-of-Order Simulator ***
Warmup Instructions: 50000000
Simulation Instructions: 600000000
Number of CPUs: 1
Page size: 4096

CPU 0 Tage branch predictor
Off-chip DRAM Size: 4 GiB Channels: 1 Width: 64-bit Data Race: 3200 MT/s
Heartbeat CPU 0 instructions: 10000001 cycles: 2500318 heartbeat IPC: 3.999 cumulative IPC: 3.999 (Simulation time: 00 hr 00 min 22 sec)
Heartbeat CPU 0 instructions: 20000002 cycles: 5037112 heartbeat IPC: 3.942 cumulative IPC: 3.971 (Simulation time: 00 hr 00 min 51 sec)
Heartbeat CPU 0 instructions: 30000002 cycles: 7537112 heartbeat IPC: 4 cumulative IPC: 3.98 (Simulation time: 00 hr 01 min 23 sec)
Heartbeat CPU 0 instructions: 40000002 cycles: 10037112 heartbeat IPC: 4 cumulative IPC: 3.985 (Simulation time: 00 hr 01 min 59 sec)
Heartbeat CPU 0 instructions: 50000002 cycles: 12537112 heartbeat IPC: 4 cumulative IPC: 3.988 (Simulation time: 00 hr 02 min 38 sec)
Warmup finished CPU 0 instructions: 50000002 cycles: 12537113 cumulative IPC: 3.988 (Simulation time: 00 hr 02 min 38 sec)
Warmup complete CPU 0 instructions: 50000002 cycles: 12537113 cumulative IPC: 3.988 (Simulation time: 00 hr 02 min 38 sec)
Heartbeat CPU 0 instructions: 60000001 cycles: 15526517 heartbeat IPC: 3.345 cumulative IPC: 3.345 (Simulation time: 00 hr 03 min 28 sec)
Heartbeat CPU 0 instructions: 70000004 cycles: 18618536 heartbeat IPC: 3.234 cumulative IPC: 3.289 (Simulation time: 00 hr 04 min 15 sec)
Heartbeat CPU 0 instructions: 80000001 cycles: 21683708 heartbeat IPC: 3.262 cumulative IPC: 3.28 (Simulation time: 00 hr 05 min 03 sec)
Heartbeat CPU 0 instructions: 90000001 cycles: 24646019 heartbeat IPC: 3.376 cumulative IPC: 3.303 (Simulation time: 00 hr 05 min 50 sec)
Heartbeat CPU 0 instructions: 100000000 cycles: 27580836 heartbeat IPC: 3.407 cumulative IPC: 3.324 (Simulation time: 00 hr 06 min 36 sec)
Heartbeat CPU 0 instructions: 110000000 cycles: 30542584 heartbeat IPC: 3.376 cumulative IPC: 3.332 (Simulation time: 00 hr 07 min 23 sec)
Heartbeat CPU 0 instructions: 120000001 cycles: 33531593 heartbeat IPC: 3.346 cumulative IPC: 3.334 (Simulation time: 00 hr 08 min 10 sec)
Heartbeat CPU 0 instructions: 130000001 cycles: 36410516 heartbeat IPC: 3.474 cumulative IPC: 3.351 (Simulation time: 00 hr 08 min 57 sec)
Heartbeat CPU 0 instructions: 140000001 cycles: 39487282 heartbeat IPC: 3.25 cumulative IPC: 3.339 (Simulation time: 00 hr 09 min 45 sec)
Heartbeat CPU 0 instructions: 150000001 cycles: 42519707 heartbeat IPC: 3.298 cumulative IPC: 3.335 (Simulation time: 00 hr 10 min 38 sec)
Heartbeat CPU 0 instructions: 160000004 cycles: 45557108 heartbeat IPC: 3.292 cumulative IPC: 3.331 (Simulation time: 00 hr 11 min 33 sec)
Heartbeat CPU 0 instructions: 170000004 cycles: 52625295 heartbeat IPC: 1.415 cumulative IPC: 2.993 (Simulation time: 00 hr 12 min 56 sec)
Heartbeat CPU 0 instructions: 180000004 cycles: 59852206 heartbeat IPC: 1.384 cumulative IPC: 2.748 (Simulation time: 00 hr 14 min 15 sec)
Heartbeat CPU 0 instructions: 190000001 cycles: 68989513 heartbeat IPC: 1.094 cumulative IPC: 2.48 (Simulation time: 00 hr 16 min 09 sec)
Heartbeat CPU 0 instructions: 200000004 cycles: 71964861 heartbeat IPC: 3.361 cumulative IPC: 2.524 (Simulation time: 00 hr 17 min 12 sec)
Heartbeat CPU 0 instructions: 210000001 cycles: 74932297 heartbeat IPC: 3.37 cumulative IPC: 2.564 (Simulation time: 00 hr 18 min 14 sec)
Heartbeat CPU 0 instructions: 220000000 cycles: 77829686 heartbeat IPC: 3.451 cumulative IPC: 2.604 (Simulation time: 00 hr 19 min 17 sec)
Heartbeat CPU 0 instructions: 230000002 cycles: 80864388 heartbeat IPC: 3.295 cumulative IPC: 2.634 (Simulation time: 00 hr 20 min 25 sec)
Heartbeat CPU 0 instructions: 240000003 cycles: 83915794 heartbeat IPC: 3.277 cumulative IPC: 2.662 (Simulation time: 00 hr 21 min 39 sec)
Heartbeat CPU 0 instructions: 250000000 cycles: 86956005 heartbeat IPC: 3.289 cumulative IPC: 2.687 (Simulation time: 00 hr 22 min 47 sec)
Heartbeat CPU 0 instructions: 260000002 cycles: 89943524 heartbeat IPC: 3.347 cumulative IPC: 2.713 (Simulation time: 00 hr 23 min 57 sec)
Heartbeat CPU 0 instructions: 270000002 cycles: 92870238 heartbeat IPC: 3.417 cumulative IPC: 2.739 (Simulation time: 00 hr 25 min 05 sec)
Heartbeat CPU 0 instructions: 280000002 cycles: 95775693 heartbeat IPC: 3.442 cumulative IPC: 2.763 (Simulation time: 00 hr 26 min 13 sec)
Heartbeat CPU 0 instructions: 290000002 cycles: 98745689 heartbeat IPC: 3.367 cumulative IPC: 2.784 (Simulation time: 00 hr 27 min 22 sec)
Heartbeat CPU 0 instructions: 300000003 cycles: 101667764 heartbeat IPC: 3.422 cumulative IPC: 2.805 (Simulation time: 00 hr 28 min 30 sec)
Heartbeat CPU 0 instructions: 310000001 cycles: 104727049 heartbeat IPC: 3.269 cumulative IPC: 2.82 (Simulation time: 00 hr 29 min 41 sec)
Heartbeat CPU 0 instructions: 320000003 cycles: 107752168 heartbeat IPC: 3.306 cumulative IPC: 2.836 (Simulation time: 00 hr 30 min 49 sec)
Heartbeat CPU 0 instructions: 330000003 cycles: 110768134 heartbeat IPC: 3.316 cumulative IPC: 2.85 (Simulation time: 00 hr 31 min 55 sec)
Heartbeat CPU 0 instructions: 340000000 cycles: 118145271 heartbeat IPC: 1.356 cumulative IPC: 2.746 (Simulation time: 00 hr 33 min 42 sec)
Heartbeat CPU 0 instructions: 350000000 cycles: 125947897 heartbeat IPC: 1.282 cumulative IPC: 2.645 (Simulation time: 00 hr 35 min 30 sec)
Heartbeat CPU 0 instructions: 360000004 cycles: 134910341 heartbeat IPC: 1.116 cumulative IPC: 2.533 (Simulation time: 00 hr 37 min 20 sec)
Heartbeat CPU 0 instructions: 370000000 cycles: 137888385 heartbeat IPC: 3.358 cumulative IPC: 2.553 (Simulation time: 00 hr 38 min 23 sec)
Heartbeat CPU 0 instructions: 380000003 cycles: 140807641 heartbeat IPC: 3.426 cumulative IPC: 2.573 (Simulation time: 00 hr 39 min 27 sec)
Heartbeat CPU 0 instructions: 390000002 cycles: 143794587 heartbeat IPC: 3.348 cumulative IPC: 2.59 (Simulation time: 00 hr 40 min 30 sec)
Heartbeat CPU 0 instructions: 400000004 cycles: 146704136 heartbeat IPC: 3.437 cumulative IPC: 2.609 (Simulation time: 00 hr 41 min 31 sec)
Heartbeat CPU 0 instructions: 410000002 cycles: 149655564 heartbeat IPC: 3.388 cumulative IPC: 2.625 (Simulation time: 00 hr 42 min 32 sec)
Heartbeat CPU 0 instructions: 420000003 cycles: 152794912 heartbeat IPC: 3.185 cumulative IPC: 2.638 (Simulation time: 00 hr 43 min 34 sec)
Heartbeat CPU 0 instructions: 430000001 cycles: 155827142 heartbeat IPC: 3.298 cumulative IPC: 2.652 (Simulation time: 00 hr 44 min 41 sec)
Heartbeat CPU 0 instructions: 440000004 cycles: 158982768 heartbeat IPC: 3.169 cumulative IPC: 2.663 (Simulation time: 00 hr 45 min 48 sec)
Heartbeat CPU 0 instructions: 450000002 cycles: 161916587 heartbeat IPC: 3.409 cumulative IPC: 2.678 (Simulation time: 00 hr 46 min 51 sec)
Heartbeat CPU 0 instructions: 460000000 cycles: 164863314 heartbeat IPC: 3.394 cumulative IPC: 2.692 (Simulation time: 00 hr 47 min 53 sec)
Heartbeat CPU 0 instructions: 470000001 cycles: 167732128 heartbeat IPC: 3.486 cumulative IPC: 2.706 (Simulation time: 00 hr 48 min 57 sec)
Heartbeat CPU 0 instructions: 480000003 cycles: 170823657 heartbeat IPC: 3.235 cumulative IPC: 2.717 (Simulation time: 00 hr 50 min 01 sec)
Heartbeat CPU 0 instructions: 490000004 cycles: 173664424 heartbeat IPC: 3.52 cumulative IPC: 2.731 (Simulation time: 00 hr 51 min 03 sec)
Heartbeat CPU 0 instructions: 500000004 cycles: 176656913 heartbeat IPC: 3.342 cumulative IPC: 2.742 (Simulation time: 00 hr 52 min 07 sec)
Heartbeat CPU 0 instructions: 510000003 cycles: 179742967 heartbeat IPC: 3.24 cumulative IPC: 2.751 (Simulation time: 00 hr 53 min 13 sec)
Heartbeat CPU 0 instructions: 520000001 cycles: 182645817 heartbeat IPC: 3.445 cumulative IPC: 2.763 (Simulation time: 00 hr 54 min 18 sec)
Heartbeat CPU 0 instructions: 530000001 cycles: 185689441 heartbeat IPC: 3.286 cumulative IPC: 2.772 (Simulation time: 00 hr 55 min 24 sec)
Heartbeat CPU 0 instructions: 540000000 cycles: 188660022 heartbeat IPC: 3.366 cumulative IPC: 2.782 (Simulation time: 00 hr 56 min 27 sec)
Heartbeat CPU 0 instructions: 550000001 cycles: 191657644 heartbeat IPC: 3.336 cumulative IPC: 2.791 (Simulation time: 00 hr 57 min 30 sec)
Heartbeat CPU 0 instructions: 560000000 cycles: 194805242 heartbeat IPC: 3.177 cumulative IPC: 2.798 (Simulation time: 00 hr 58 min 35 sec)
Heartbeat CPU 0 instructions: 570000004 cycles: 200326060 heartbeat IPC: 1.811 cumulative IPC: 2.769 (Simulation time: 01 hr 00 min 02 sec)
Heartbeat CPU 0 instructions: 580000003 cycles: 207343332 heartbeat IPC: 1.425 cumulative IPC: 2.721 (Simulation time: 01 hr 02 min 10 sec)
Heartbeat CPU 0 instructions: 590000002 cycles: 218884241 heartbeat IPC: 0.8665 cumulative IPC: 2.617 (Simulation time: 01 hr 05 min 00 sec)
Heartbeat CPU 0 instructions: 600000004 cycles: 222010121 heartbeat IPC: 3.199 cumulative IPC: 2.626 (Simulation time: 01 hr 06 min 08 sec)
Heartbeat CPU 0 instructions: 610000002 cycles: 224982838 heartbeat IPC: 3.364 cumulative IPC: 2.636 (Simulation time: 01 hr 07 min 15 sec)
Heartbeat CPU 0 instructions: 620000001 cycles: 227755522 heartbeat IPC: 3.607 cumulative IPC: 2.648 (Simulation time: 01 hr 08 min 22 sec)
Heartbeat CPU 0 instructions: 630000002 cycles: 230732504 heartbeat IPC: 3.359 cumulative IPC: 2.658 (Simulation time: 01 hr 09 min 30 sec)
Heartbeat CPU 0 instructions: 640000004 cycles: 233686115 heartbeat IPC: 3.386 cumulative IPC: 2.668 (Simulation time: 01 hr 10 min 38 sec)
Heartbeat CPU 0 instructions: 650000000 cycles: 236437676 heartbeat IPC: 3.634 cumulative IPC: 2.68 (Simulation time: 01 hr 11 min 45 sec)
Simulation finished CPU 0 instructions: 600000001 cycles: 223900565 cumulative IPC: 2.68 (Simulation time: 01 hr 11 min 45 sec)
Simulation complete CPU 0 instructions: 600000001 cycles: 223900565 cumulative IPC: 2.68 (Simulation time: 01 hr 11 min 45 sec)

ChampSim completed all CPUs

=== Simulation ===
CPU 0 runs traces/400.perlbench-41B.champsimtrace.xz
Region of Interest Statistics

CPU 0 cumulative IPC: 2.68 instructions: 600000001 cycles: 223900565
CPU 0 Branch Prediction Accuracy: 99.19% MPKI: 1.684 Average ROB Occupancy at Mispredict: 102.7
Branch type MPKI
BRANCH_DIRECT_JUMP: 0.0123
BRANCH_INDIRECT: 0.323
BRANCH_CONDITIONAL: 1.14
BRANCH_DIRECT_CALL: 0.0043
BRANCH_INDIRECT_CALL: 0.2
BRANCH_RETURN: 0.00828

LLC TOTAL        ACCESS:     592865 HIT:     317711 MISS:     275154
LLC LOAD         ACCESS:     403373 HIT:     209814 MISS:     193559
LLC RFO          ACCESS:      32520 HIT:      14574 MISS:      17946
LLC PREFETCH     ACCESS:      52954 HIT:      30262 MISS:      22692
LLC WRITE        ACCESS:      84959 HIT:      58272 MISS:      26687
LLC TRANSLATION  ACCESS:      19059 HIT:       4789 MISS:      14270
LLC PREFETCH REQUESTED:      52954 ISSUED:      52954 USEFUL:      12889 USELESS:       6887
LLC AVERAGE MISS LATENCY: 586.9 cycles
cpu0_DTLB TOTAL        ACCESS:  129749029 HIT:  129043291 MISS:     705738
cpu0_DTLB LOAD         ACCESS:  129749029 HIT:  129043291 MISS:     705738
cpu0_DTLB RFO          ACCESS:          0 HIT:          0 MISS:          0
cpu0_DTLB PREFETCH     ACCESS:          0 HIT:          0 MISS:          0
cpu0_DTLB WRITE        ACCESS:          0 HIT:          0 MISS:          0
cpu0_DTLB TRANSLATION  ACCESS:          0 HIT:          0 MISS:          0
cpu0_DTLB PREFETCH REQUESTED:          0 ISSUED:          0 USEFUL:          0 USELESS:          0
cpu0_DTLB AVERAGE MISS LATENCY: 19 cycles
cpu0_ITLB TOTAL        ACCESS:    4878421 HIT:    4816324 MISS:      62097
cpu0_ITLB LOAD         ACCESS:    4878421 HIT:    4816324 MISS:      62097
cpu0_ITLB RFO          ACCESS:          0 HIT:          0 MISS:          0
cpu0_ITLB PREFETCH     ACCESS:          0 HIT:          0 MISS:          0
cpu0_ITLB WRITE        ACCESS:          0 HIT:          0 MISS:          0
cpu0_ITLB TRANSLATION  ACCESS:          0 HIT:          0 MISS:          0
cpu0_ITLB PREFETCH REQUESTED:          0 ISSUED:          0 USEFUL:          0 USELESS:          0
cpu0_ITLB AVERAGE MISS LATENCY: 6.372 cycles
cpu0_L1D TOTAL        ACCESS:  174336223 HIT:  172547372 MISS:    1788851
cpu0_L1D LOAD         ACCESS:   91314010 HIT:   89922438 MISS:    1391572
cpu0_L1D RFO          ACCESS:          0 HIT:          0 MISS:          0
cpu0_L1D PREFETCH     ACCESS:          0 HIT:          0 MISS:          0
cpu0_L1D WRITE        ACCESS:   82997746 HIT:   82623873 MISS:     373873
cpu0_L1D TRANSLATION  ACCESS:      24467 HIT:       1061 MISS:      23406
cpu0_L1D PREFETCH REQUESTED:          0 ISSUED:          0 USEFUL:          0 USELESS:          0
cpu0_L1D AVERAGE MISS LATENCY: 81.97 cycles
cpu0_L1I TOTAL        ACCESS:    5657361 HIT:    4853239 MISS:     804122
cpu0_L1I LOAD         ACCESS:    5657361 HIT:    4853239 MISS:     804122
cpu0_L1I RFO          ACCESS:          0 HIT:          0 MISS:          0
cpu0_L1I PREFETCH     ACCESS:          0 HIT:          0 MISS:          0
cpu0_L1I WRITE        ACCESS:          0 HIT:          0 MISS:          0
cpu0_L1I TRANSLATION  ACCESS:          0 HIT:          0 MISS:          0
cpu0_L1I PREFETCH REQUESTED:          0 ISSUED:          0 USEFUL:          0 USELESS:          0
cpu0_L1I AVERAGE MISS LATENCY: 15.24 cycles
cpu0_L2C TOTAL        ACCESS:    1667784 HIT:    1211031 MISS:     456753
cpu0_L2C LOAD         ACCESS:    1315238 HIT:     911865 MISS:     403373
cpu0_L2C RFO          ACCESS:      89601 HIT:      57080 MISS:      32521
cpu0_L2C PREFETCH     ACCESS:          0 HIT:          0 MISS:          0
cpu0_L2C WRITE        ACCESS:     239618 HIT:     237818 MISS:       1800
cpu0_L2C TRANSLATION  ACCESS:      23327 HIT:       4268 MISS:      19059
cpu0_L2C PREFETCH REQUESTED:          0 ISSUED:          0 USEFUL:          0 USELESS:          0
cpu0_L2C AVERAGE MISS LATENCY: 339.1 cycles
cpu0_STLB TOTAL        ACCESS:     509138 HIT:     486351 MISS:      22787
cpu0_STLB LOAD         ACCESS:     509138 HIT:     486351 MISS:      22787
cpu0_STLB RFO          ACCESS:          0 HIT:          0 MISS:          0
cpu0_STLB PREFETCH     ACCESS:          0 HIT:          0 MISS:          0
cpu0_STLB WRITE        ACCESS:          0 HIT:          0 MISS:          0
cpu0_STLB TRANSLATION  ACCESS:          0 HIT:          0 MISS:          0
cpu0_STLB PREFETCH REQUESTED:          0 ISSUED:          0 USEFUL:          0 USELESS:          0
cpu0_STLB AVERAGE MISS LATENCY: 493.7 cycles

DRAM Statistics

Channel 0 RQ ROW_BUFFER_HIT:      38629
  ROW_BUFFER_MISS:     205197
 AVG DBUS CONGESTED CYCLE: 3.856
WQ ROW_BUFFER_HIT: Channel 0 
  ROW_BUFFER_MISS:       7092
  FULL:      35676
