WARNING: physical memory size is smaller than virtual memory size.

*** ChampSim Multicore Out-of-Order Simulator ***
Warmup Instructions: 50000000
Simulation Instructions: 600000000
Number of CPUs: 1
Page size: 4096

Off-chip DRAM Size: 4 GiB Channels: 1 Width: 64-bit Data Race: 3200 MT/s
Heartbeat CPU 0 instructions: 10000001 cycles: 2500318 heartbeat IPC: 3.999 cumulative IPC: 3.999 (Simulation time: 00 hr 00 min 51 sec)
Heartbeat CPU 0 instructions: 20000002 cycles: 5037114 heartbeat IPC: 3.942 cumulative IPC: 3.971 (Simulation time: 00 hr 01 min 46 sec)
Heartbeat CPU 0 instructions: 30000002 cycles: 7537114 heartbeat IPC: 4 cumulative IPC: 3.98 (Simulation time: 00 hr 02 min 37 sec)
Heartbeat CPU 0 instructions: 40000002 cycles: 10037114 heartbeat IPC: 4 cumulative IPC: 3.985 (Simulation time: 00 hr 03 min 37 sec)
Heartbeat CPU 0 instructions: 50000002 cycles: 12537114 heartbeat IPC: 4 cumulative IPC: 3.988 (Simulation time: 00 hr 04 min 34 sec)
Warmup finished CPU 0 instructions: 50000002 cycles: 12537115 cumulative IPC: 3.988 (Simulation time: 00 hr 04 min 34 sec)
Warmup complete CPU 0 instructions: 50000002 cycles: 12537115 cumulative IPC: 3.988 (Simulation time: 00 hr 04 min 34 sec)
Heartbeat CPU 0 instructions: 60000000 cycles: 17715942 heartbeat IPC: 1.931 cumulative IPC: 1.931 (Simulation time: 00 hr 05 min 57 sec)
Heartbeat CPU 0 instructions: 70000002 cycles: 22611530 heartbeat IPC: 2.043 cumulative IPC: 1.985 (Simulation time: 00 hr 07 min 10 sec)
Heartbeat CPU 0 instructions: 80000001 cycles: 27973219 heartbeat IPC: 1.865 cumulative IPC: 1.943 (Simulation time: 00 hr 08 min 21 sec)
Heartbeat CPU 0 instructions: 90000001 cycles: 32846838 heartbeat IPC: 2.052 cumulative IPC: 1.969 (Simulation time: 00 hr 09 min 26 sec)
Heartbeat CPU 0 instructions: 100000000 cycles: 37966763 heartbeat IPC: 1.953 cumulative IPC: 1.966 (Simulation time: 00 hr 10 min 33 sec)
Heartbeat CPU 0 instructions: 110000000 cycles: 42850663 heartbeat IPC: 2.048 cumulative IPC: 1.979 (Simulation time: 00 hr 11 min 38 sec)
Heartbeat CPU 0 instructions: 120000001 cycles: 48049345 heartbeat IPC: 1.924 cumulative IPC: 1.971 (Simulation time: 00 hr 12 min 43 sec)
Heartbeat CPU 0 instructions: 130000001 cycles: 53209466 heartbeat IPC: 1.938 cumulative IPC: 1.967 (Simulation time: 00 hr 13 min 49 sec)
Heartbeat CPU 0 instructions: 140000001 cycles: 58533538 heartbeat IPC: 1.878 cumulative IPC: 1.957 (Simulation time: 00 hr 14 min 54 sec)
Heartbeat CPU 0 instructions: 150000001 cycles: 63859591 heartbeat IPC: 1.878 cumulative IPC: 1.948 (Simulation time: 00 hr 16 min 03 sec)
Heartbeat CPU 0 instructions: 160000004 cycles: 69084414 heartbeat IPC: 1.914 cumulative IPC: 1.945 (Simulation time: 00 hr 17 min 17 sec)
Heartbeat CPU 0 instructions: 170000004 cycles: 79908412 heartbeat IPC: 0.9239 cumulative IPC: 1.781 (Simulation time: 00 hr 19 min 30 sec)
Heartbeat CPU 0 instructions: 180000004 cycles: 91477713 heartbeat IPC: 0.8644 cumulative IPC: 1.647 (Simulation time: 00 hr 21 min 44 sec)
Heartbeat CPU 0 instructions: 190000001 cycles: 102965355 heartbeat IPC: 0.8705 cumulative IPC: 1.548 (Simulation time: 00 hr 23 min 46 sec)
Heartbeat CPU 0 instructions: 200000003 cycles: 107768217 heartbeat IPC: 2.082 cumulative IPC: 1.575 (Simulation time: 00 hr 24 min 53 sec)
Heartbeat CPU 0 instructions: 210000001 cycles: 112717360 heartbeat IPC: 2.021 cumulative IPC: 1.597 (Simulation time: 00 hr 26 min 05 sec)
Heartbeat CPU 0 instructions: 220000000 cycles: 117567165 heartbeat IPC: 2.062 cumulative IPC: 1.619 (Simulation time: 00 hr 27 min 15 sec)
Heartbeat CPU 0 instructions: 230000002 cycles: 122948366 heartbeat IPC: 1.858 cumulative IPC: 1.63 (Simulation time: 00 hr 28 min 25 sec)
Heartbeat CPU 0 instructions: 240000000 cycles: 127831901 heartbeat IPC: 2.048 cumulative IPC: 1.648 (Simulation time: 00 hr 29 min 33 sec)
Heartbeat CPU 0 instructions: 250000000 cycles: 133017290 heartbeat IPC: 1.928 cumulative IPC: 1.66 (Simulation time: 00 hr 30 min 46 sec)
Heartbeat CPU 0 instructions: 260000000 cycles: 138073331 heartbeat IPC: 1.978 cumulative IPC: 1.673 (Simulation time: 00 hr 32 min 11 sec)
Heartbeat CPU 0 instructions: 270000002 cycles: 142977605 heartbeat IPC: 2.039 cumulative IPC: 1.687 (Simulation time: 00 hr 33 min 25 sec)
Heartbeat CPU 0 instructions: 280000002 cycles: 147909046 heartbeat IPC: 2.028 cumulative IPC: 1.699 (Simulation time: 00 hr 34 min 37 sec)
Heartbeat CPU 0 instructions: 290000001 cycles: 153294687 heartbeat IPC: 1.857 cumulative IPC: 1.705 (Simulation time: 00 hr 35 min 50 sec)
Heartbeat CPU 0 instructions: 300000003 cycles: 158388213 heartbeat IPC: 1.963 cumulative IPC: 1.714 (Simulation time: 00 hr 36 min 59 sec)
Heartbeat CPU 0 instructions: 310000001 cycles: 163718254 heartbeat IPC: 1.876 cumulative IPC: 1.72 (Simulation time: 00 hr 38 min 11 sec)
Heartbeat CPU 0 instructions: 320000003 cycles: 168957343 heartbeat IPC: 1.909 cumulative IPC: 1.726 (Simulation time: 00 hr 39 min 22 sec)
Heartbeat CPU 0 instructions: 330000003 cycles: 174296793 heartbeat IPC: 1.873 cumulative IPC: 1.731 (Simulation time: 00 hr 40 min 37 sec)
Heartbeat CPU 0 instructions: 340000000 cycles: 185729823 heartbeat IPC: 0.8747 cumulative IPC: 1.674 (Simulation time: 00 hr 42 min 37 sec)
Heartbeat CPU 0 instructions: 350000000 cycles: 197710245 heartbeat IPC: 0.8347 cumulative IPC: 1.62 (Simulation time: 00 hr 44 min 39 sec)
Heartbeat CPU 0 instructions: 360000004 cycles: 209295881 heartbeat IPC: 0.8631 cumulative IPC: 1.576 (Simulation time: 00 hr 46 min 35 sec)
Heartbeat CPU 0 instructions: 370000000 cycles: 213726191 heartbeat IPC: 2.257 cumulative IPC: 1.591 (Simulation time: 00 hr 47 min 50 sec)
Heartbeat CPU 0 instructions: 380000001 cycles: 218677168 heartbeat IPC: 2.02 cumulative IPC: 1.601 (Simulation time: 00 hr 49 min 25 sec)
Heartbeat CPU 0 instructions: 390000002 cycles: 223514397 heartbeat IPC: 2.067 cumulative IPC: 1.612 (Simulation time: 00 hr 50 min 49 sec)
Heartbeat CPU 0 instructions: 400000004 cycles: 228458894 heartbeat IPC: 2.022 cumulative IPC: 1.621 (Simulation time: 00 hr 52 min 05 sec)
Heartbeat CPU 0 instructions: 410000000 cycles: 233213603 heartbeat IPC: 2.103 cumulative IPC: 1.631 (Simulation time: 00 hr 53 min 18 sec)
Heartbeat CPU 0 instructions: 420000000 cycles: 238436268 heartbeat IPC: 1.915 cumulative IPC: 1.638 (Simulation time: 00 hr 54 min 34 sec)
Heartbeat CPU 0 instructions: 430000001 cycles: 242929054 heartbeat IPC: 2.226 cumulative IPC: 1.649 (Simulation time: 00 hr 55 min 46 sec)
Heartbeat CPU 0 instructions: 440000000 cycles: 248313612 heartbeat IPC: 1.857 cumulative IPC: 1.654 (Simulation time: 00 hr 56 min 56 sec)
Heartbeat CPU 0 instructions: 450000002 cycles: 253002984 heartbeat IPC: 2.132 cumulative IPC: 1.663 (Simulation time: 00 hr 58 min 00 sec)
Heartbeat CPU 0 instructions: 460000000 cycles: 257820285 heartbeat IPC: 2.076 cumulative IPC: 1.672 (Simulation time: 00 hr 59 min 03 sec)
Heartbeat CPU 0 instructions: 470000000 cycles: 262819845 heartbeat IPC: 2 cumulative IPC: 1.678 (Simulation time: 01 hr 00 min 06 sec)
Heartbeat CPU 0 instructions: 480000003 cycles: 267662216 heartbeat IPC: 2.065 cumulative IPC: 1.685 (Simulation time: 01 hr 01 min 09 sec)
Heartbeat CPU 0 instructions: 490000000 cycles: 272284623 heartbeat IPC: 2.163 cumulative IPC: 1.694 (Simulation time: 01 hr 02 min 14 sec)
Heartbeat CPU 0 instructions: 500000000 cycles: 277324903 heartbeat IPC: 1.984 cumulative IPC: 1.699 (Simulation time: 01 hr 03 min 17 sec)
Heartbeat CPU 0 instructions: 510000003 cycles: 283052437 heartbeat IPC: 1.746 cumulative IPC: 1.7 (Simulation time: 01 hr 04 min 24 sec)
Heartbeat CPU 0 instructions: 520000001 cycles: 287769213 heartbeat IPC: 2.12 cumulative IPC: 1.708 (Simulation time: 01 hr 05 min 30 sec)
Heartbeat CPU 0 instructions: 530000002 cycles: 292976115 heartbeat IPC: 1.921 cumulative IPC: 1.712 (Simulation time: 01 hr 06 min 39 sec)
Heartbeat CPU 0 instructions: 540000000 cycles: 298112595 heartbeat IPC: 1.947 cumulative IPC: 1.716 (Simulation time: 01 hr 07 min 48 sec)
Heartbeat CPU 0 instructions: 550000001 cycles: 302934429 heartbeat IPC: 2.074 cumulative IPC: 1.722 (Simulation time: 01 hr 08 min 57 sec)
Heartbeat CPU 0 instructions: 560000000 cycles: 308298858 heartbeat IPC: 1.864 cumulative IPC: 1.724 (Simulation time: 01 hr 10 min 07 sec)
Heartbeat CPU 0 instructions: 570000004 cycles: 315707842 heartbeat IPC: 1.35 cumulative IPC: 1.715 (Simulation time: 01 hr 11 min 33 sec)
Heartbeat CPU 0 instructions: 580000003 cycles: 328364974 heartbeat IPC: 0.7901 cumulative IPC: 1.678 (Simulation time: 01 hr 13 min 38 sec)
Heartbeat CPU 0 instructions: 590000002 cycles: 343101559 heartbeat IPC: 0.6786 cumulative IPC: 1.634 (Simulation time: 01 hr 15 min 56 sec)
Heartbeat CPU 0 instructions: 600000000 cycles: 347730649 heartbeat IPC: 2.16 cumulative IPC: 1.641 (Simulation time: 01 hr 16 min 57 sec)
Heartbeat CPU 0 instructions: 610000002 cycles: 352237546 heartbeat IPC: 2.219 cumulative IPC: 1.649 (Simulation time: 01 hr 17 min 53 sec)
Heartbeat CPU 0 instructions: 620000000 cycles: 357055405 heartbeat IPC: 2.076 cumulative IPC: 1.654 (Simulation time: 01 hr 18 min 49 sec)
Heartbeat CPU 0 instructions: 630000002 cycles: 362161295 heartbeat IPC: 1.959 cumulative IPC: 1.659 (Simulation time: 01 hr 19 min 41 sec)
Heartbeat CPU 0 instructions: 640000001 cycles: 367023141 heartbeat IPC: 2.057 cumulative IPC: 1.664 (Simulation time: 01 hr 20 min 32 sec)
Heartbeat CPU 0 instructions: 650000000 cycles: 371586974 heartbeat IPC: 2.191 cumulative IPC: 1.671 (Simulation time: 01 hr 21 min 15 sec)
Simulation finished CPU 0 instructions: 600000001 cycles: 359049861 cumulative IPC: 1.671 (Simulation time: 01 hr 21 min 15 sec)
Simulation complete CPU 0 instructions: 600000001 cycles: 359049861 cumulative IPC: 1.671 (Simulation time: 01 hr 21 min 15 sec)

ChampSim completed all CPUs

=== Simulation ===
CPU 0 runs traces/400.perlbench-41B.champsimtrace.xz
Region of Interest Statistics

CPU 0 cumulative IPC: 1.671 instructions: 600000001 cycles: 359049861
CPU 0 Branch Prediction Accuracy: 93.95% MPKI: 12.5 Average ROB Occupancy at Mispredict: 29.67
Branch type MPKI
BRANCH_DIRECT_JUMP: 0.0123
BRANCH_INDIRECT: 0.323
BRANCH_CONDITIONAL: 12
BRANCH_DIRECT_CALL: 0.0043
BRANCH_INDIRECT_CALL: 0.2
BRANCH_RETURN: 0.00828

LLC TOTAL        ACCESS:     940135 HIT:     431886 MISS:     508249
LLC LOAD         ACCESS:     401444 HIT:     170648 MISS:     230796
LLC RFO          ACCESS:      32800 HIT:      15311 MISS:      17489
LLC PREFETCH     ACCESS:     401444 HIT:     166746 MISS:     234698
LLC WRITE        ACCESS:      85399 HIT:      71568 MISS:      13831
LLC TRANSLATION  ACCESS:      19048 HIT:       7613 MISS:      11435
LLC PREFETCH REQUESTED:     401444 ISSUED:     401444 USEFUL:      56962 USELESS:      54510
LLC AVERAGE MISS LATENCY: 561.1 cycles
cpu0_DTLB TOTAL        ACCESS:  153668850 HIT:  152990369 MISS:     678481
cpu0_DTLB LOAD         ACCESS:  153668850 HIT:  152990369 MISS:     678481
cpu0_DTLB RFO          ACCESS:          0 HIT:          0 MISS:          0
cpu0_DTLB PREFETCH     ACCESS:          0 HIT:          0 MISS:          0
cpu0_DTLB WRITE        ACCESS:          0 HIT:          0 MISS:          0
cpu0_DTLB TRANSLATION  ACCESS:          0 HIT:          0 MISS:          0
cpu0_DTLB PREFETCH REQUESTED:          0 ISSUED:          0 USEFUL:          0 USELESS:          0
cpu0_DTLB AVERAGE MISS LATENCY: 18.43 cycles
cpu0_ITLB TOTAL        ACCESS:    4835135 HIT:    4777272 MISS:      57863
cpu0_ITLB LOAD         ACCESS:    4835135 HIT:    4777272 MISS:      57863
cpu0_ITLB RFO          ACCESS:          0 HIT:          0 MISS:          0
cpu0_ITLB PREFETCH     ACCESS:          0 HIT:          0 MISS:          0
cpu0_ITLB WRITE        ACCESS:          0 HIT:          0 MISS:          0
cpu0_ITLB TRANSLATION  ACCESS:          0 HIT:          0 MISS:          0
cpu0_ITLB PREFETCH REQUESTED:          0 ISSUED:          0 USEFUL:          0 USELESS:          0
cpu0_ITLB AVERAGE MISS LATENCY: 8.433 cycles
cpu0_L1D TOTAL        ACCESS:  200276605 HIT:  198531925 MISS:    1744680
cpu0_L1D LOAD         ACCESS:  117034577 HIT:  115674503 MISS:    1360074
cpu0_L1D RFO          ACCESS:          0 HIT:          0 MISS:          0
cpu0_L1D PREFETCH     ACCESS:          0 HIT:          0 MISS:          0
cpu0_L1D WRITE        ACCESS:   83217565 HIT:   82856388 MISS:     361177
cpu0_L1D TRANSLATION  ACCESS:      24463 HIT:       1034 MISS:      23429
cpu0_L1D PREFETCH REQUESTED:          0 ISSUED:          0 USEFUL:          0 USELESS:          0
cpu0_L1D AVERAGE MISS LATENCY: 94.66 cycles
cpu0_L1I TOTAL        ACCESS:    5577560 HIT:    4816287 MISS:     761273
cpu0_L1I LOAD         ACCESS:    5577560 HIT:    4816287 MISS:     761273
cpu0_L1I RFO          ACCESS:          0 HIT:          0 MISS:          0
cpu0_L1I PREFETCH     ACCESS:          0 HIT:          0 MISS:          0
cpu0_L1I WRITE        ACCESS:          0 HIT:          0 MISS:          0
cpu0_L1I TRANSLATION  ACCESS:          0 HIT:          0 MISS:          0
cpu0_L1I PREFETCH REQUESTED:          0 ISSUED:          0 USEFUL:          0 USELESS:          0
cpu0_L1I AVERAGE MISS LATENCY: 16.67 cycles
cpu0_L2C TOTAL        ACCESS:    1667784 HIT:    1212667 MISS:     455117
cpu0_L2C LOAD         ACCESS:    1317039 HIT:     915595 MISS:     401444
cpu0_L2C RFO          ACCESS:      88615 HIT:      55815 MISS:      32800
cpu0_L2C PREFETCH     ACCESS:          0 HIT:          0 MISS:          0
cpu0_L2C WRITE        ACCESS:     238785 HIT:     236960 MISS:       1825
cpu0_L2C TRANSLATION  ACCESS:      23345 HIT:       4297 MISS:      19048
cpu0_L2C PREFETCH REQUESTED:          0 ISSUED:          0 USEFUL:          0 USELESS:          0
cpu0_L2C AVERAGE MISS LATENCY: 371 cycles
cpu0_STLB TOTAL        ACCESS:     505245 HIT:     482456 MISS:      22789
cpu0_STLB LOAD         ACCESS:     505245 HIT:     482456 MISS:      22789
cpu0_STLB RFO          ACCESS:          0 HIT:          0 MISS:          0
cpu0_STLB PREFETCH     ACCESS:          0 HIT:          0 MISS:          0
cpu0_STLB WRITE        ACCESS:          0 HIT:          0 MISS:          0
cpu0_STLB TRANSLATION  ACCESS:          0 HIT:          0 MISS:          0
cpu0_STLB PREFETCH REQUESTED:          0 ISSUED:          0 USEFUL:          0 USELESS:          0
cpu0_STLB AVERAGE MISS LATENCY: 434 cycles

DRAM Statistics

Channel 0 RQ ROW_BUFFER_HIT:      83664
  ROW_BUFFER_MISS:     342483
 AVG DBUS CONGESTED CYCLE: 3.868
WQ ROW_BUFFER_HIT: Channel 0 
  ROW_BUFFER_MISS:       6363
  FULL:      40968
