WARNING: physical memory size is smaller than virtual memory size.

*** ChampSim Multicore Out-of-Order Simulator ***
Warmup Instructions: 50000000
Simulation Instructions: 600000000
Number of CPUs: 1
Page size: 4096

Off-chip DRAM Size: 4 GiB Channels: 1 Width: 64-bit Data Race: 3200 MT/s
Heartbeat CPU 0 instructions: 10000000 cycles: 2500061 heartbeat IPC: 4 cumulative IPC: 4 (Simulation time: 00 hr 00 min 38 sec)
Heartbeat CPU 0 instructions: 20000000 cycles: 5000061 heartbeat IPC: 4 cumulative IPC: 4 (Simulation time: 00 hr 01 min 12 sec)
Heartbeat CPU 0 instructions: 30000000 cycles: 7500061 heartbeat IPC: 4 cumulative IPC: 4 (Simulation time: 00 hr 01 min 44 sec)
Heartbeat CPU 0 instructions: 40000000 cycles: 10000061 heartbeat IPC: 4 cumulative IPC: 4 (Simulation time: 00 hr 02 min 17 sec)
Heartbeat CPU 0 instructions: 50000000 cycles: 12500061 heartbeat IPC: 4 cumulative IPC: 4 (Simulation time: 00 hr 02 min 52 sec)
Warmup finished CPU 0 instructions: 50000000 cycles: 12500062 cumulative IPC: 4 (Simulation time: 00 hr 02 min 52 sec)
Warmup complete CPU 0 instructions: 50000000 cycles: 12500062 cumulative IPC: 4 (Simulation time: 00 hr 02 min 52 sec)
Heartbeat CPU 0 instructions: 60000002 cycles: 16907366 heartbeat IPC: 2.269 cumulative IPC: 2.269 (Simulation time: 00 hr 03 min 43 sec)
Heartbeat CPU 0 instructions: 70000003 cycles: 21889050 heartbeat IPC: 2.007 cumulative IPC: 2.13 (Simulation time: 00 hr 04 min 34 sec)
Heartbeat CPU 0 instructions: 80000001 cycles: 27230745 heartbeat IPC: 1.872 cumulative IPC: 2.037 (Simulation time: 00 hr 05 min 29 sec)
Heartbeat CPU 0 instructions: 90000000 cycles: 31527294 heartbeat IPC: 2.327 cumulative IPC: 2.102 (Simulation time: 00 hr 06 min 18 sec)
Heartbeat CPU 0 instructions: 100000003 cycles: 36379334 heartbeat IPC: 2.061 cumulative IPC: 2.094 (Simulation time: 00 hr 07 min 09 sec)
Heartbeat CPU 0 instructions: 110000002 cycles: 41247374 heartbeat IPC: 2.054 cumulative IPC: 2.087 (Simulation time: 00 hr 08 min 00 sec)
Heartbeat CPU 0 instructions: 120000001 cycles: 46240828 heartbeat IPC: 2.003 cumulative IPC: 2.075 (Simulation time: 00 hr 08 min 52 sec)
Heartbeat CPU 0 instructions: 130000003 cycles: 50807189 heartbeat IPC: 2.19 cumulative IPC: 2.088 (Simulation time: 00 hr 09 min 40 sec)
Heartbeat CPU 0 instructions: 140000002 cycles: 55694832 heartbeat IPC: 2.046 cumulative IPC: 2.084 (Simulation time: 00 hr 10 min 30 sec)
Heartbeat CPU 0 instructions: 150000001 cycles: 60360024 heartbeat IPC: 2.144 cumulative IPC: 2.089 (Simulation time: 00 hr 11 min 20 sec)
Heartbeat CPU 0 instructions: 160000000 cycles: 64996045 heartbeat IPC: 2.157 cumulative IPC: 2.095 (Simulation time: 00 hr 12 min 09 sec)
Heartbeat CPU 0 instructions: 170000000 cycles: 70325364 heartbeat IPC: 1.876 cumulative IPC: 2.075 (Simulation time: 00 hr 13 min 01 sec)
Heartbeat CPU 0 instructions: 180000001 cycles: 76043102 heartbeat IPC: 1.749 cumulative IPC: 2.046 (Simulation time: 00 hr 13 min 57 sec)
Heartbeat CPU 0 instructions: 190000002 cycles: 80511237 heartbeat IPC: 2.238 cumulative IPC: 2.058 (Simulation time: 00 hr 14 min 44 sec)
Heartbeat CPU 0 instructions: 200000002 cycles: 85411855 heartbeat IPC: 2.041 cumulative IPC: 2.057 (Simulation time: 00 hr 15 min 34 sec)
Heartbeat CPU 0 instructions: 210000000 cycles: 90414257 heartbeat IPC: 1.999 cumulative IPC: 2.054 (Simulation time: 00 hr 16 min 24 sec)
Heartbeat CPU 0 instructions: 220000001 cycles: 95337287 heartbeat IPC: 2.031 cumulative IPC: 2.052 (Simulation time: 00 hr 17 min 13 sec)
Heartbeat CPU 0 instructions: 230000002 cycles: 100582595 heartbeat IPC: 1.906 cumulative IPC: 2.044 (Simulation time: 00 hr 18 min 04 sec)
Heartbeat CPU 0 instructions: 240000001 cycles: 105545841 heartbeat IPC: 2.015 cumulative IPC: 2.042 (Simulation time: 00 hr 18 min 54 sec)
Heartbeat CPU 0 instructions: 250000003 cycles: 110721715 heartbeat IPC: 1.932 cumulative IPC: 2.036 (Simulation time: 00 hr 19 min 43 sec)
Heartbeat CPU 0 instructions: 260000001 cycles: 115580465 heartbeat IPC: 2.058 cumulative IPC: 2.037 (Simulation time: 00 hr 20 min 31 sec)
Heartbeat CPU 0 instructions: 270000000 cycles: 123368984 heartbeat IPC: 1.284 cumulative IPC: 1.984 (Simulation time: 00 hr 21 min 36 sec)
Heartbeat CPU 0 instructions: 280000000 cycles: 135154817 heartbeat IPC: 0.8485 cumulative IPC: 1.875 (Simulation time: 00 hr 23 min 09 sec)
Heartbeat CPU 0 instructions: 290000001 cycles: 145525970 heartbeat IPC: 0.9642 cumulative IPC: 1.804 (Simulation time: 00 hr 24 min 34 sec)
Heartbeat CPU 0 instructions: 300000003 cycles: 153189663 heartbeat IPC: 1.305 cumulative IPC: 1.777 (Simulation time: 00 hr 25 min 45 sec)
Heartbeat CPU 0 instructions: 310000004 cycles: 164429548 heartbeat IPC: 0.8897 cumulative IPC: 1.711 (Simulation time: 00 hr 27 min 17 sec)
Heartbeat CPU 0 instructions: 320000004 cycles: 170166138 heartbeat IPC: 1.743 cumulative IPC: 1.712 (Simulation time: 00 hr 28 min 28 sec)
Heartbeat CPU 0 instructions: 330000000 cycles: 175463541 heartbeat IPC: 1.888 cumulative IPC: 1.718 (Simulation time: 00 hr 30 min 27 sec)
Heartbeat CPU 0 instructions: 340000001 cycles: 180702174 heartbeat IPC: 1.909 cumulative IPC: 1.724 (Simulation time: 00 hr 32 min 11 sec)
Heartbeat CPU 0 instructions: 350000000 cycles: 186142622 heartbeat IPC: 1.838 cumulative IPC: 1.728 (Simulation time: 00 hr 33 min 54 sec)
Heartbeat CPU 0 instructions: 360000003 cycles: 191335107 heartbeat IPC: 1.926 cumulative IPC: 1.733 (Simulation time: 00 hr 35 min 32 sec)
Heartbeat CPU 0 instructions: 370000001 cycles: 196438927 heartbeat IPC: 1.959 cumulative IPC: 1.74 (Simulation time: 00 hr 37 min 08 sec)
Heartbeat CPU 0 instructions: 380000004 cycles: 201813358 heartbeat IPC: 1.861 cumulative IPC: 1.743 (Simulation time: 00 hr 38 min 48 sec)
Heartbeat CPU 0 instructions: 390000002 cycles: 207255826 heartbeat IPC: 1.837 cumulative IPC: 1.746 (Simulation time: 00 hr 40 min 30 sec)
Heartbeat CPU 0 instructions: 400000000 cycles: 212778229 heartbeat IPC: 1.811 cumulative IPC: 1.748 (Simulation time: 00 hr 42 min 10 sec)
Heartbeat CPU 0 instructions: 410000000 cycles: 221208779 heartbeat IPC: 1.186 cumulative IPC: 1.725 (Simulation time: 00 hr 44 min 26 sec)
Heartbeat CPU 0 instructions: 420000001 cycles: 232680863 heartbeat IPC: 0.8717 cumulative IPC: 1.68 (Simulation time: 00 hr 47 min 12 sec)
Heartbeat CPU 0 instructions: 430000000 cycles: 240682306 heartbeat IPC: 1.25 cumulative IPC: 1.665 (Simulation time: 00 hr 49 min 36 sec)
Heartbeat CPU 0 instructions: 440000002 cycles: 247931726 heartbeat IPC: 1.379 cumulative IPC: 1.657 (Simulation time: 00 hr 51 min 52 sec)
Heartbeat CPU 0 instructions: 450000000 cycles: 254859149 heartbeat IPC: 1.444 cumulative IPC: 1.65 (Simulation time: 00 hr 53 min 56 sec)
Heartbeat CPU 0 instructions: 460000002 cycles: 265885267 heartbeat IPC: 0.9069 cumulative IPC: 1.618 (Simulation time: 00 hr 56 min 50 sec)
Heartbeat CPU 0 instructions: 470000000 cycles: 276065475 heartbeat IPC: 0.9823 cumulative IPC: 1.594 (Simulation time: 00 hr 59 min 39 sec)
Heartbeat CPU 0 instructions: 480000000 cycles: 281567175 heartbeat IPC: 1.818 cumulative IPC: 1.598 (Simulation time: 01 hr 01 min 27 sec)
Heartbeat CPU 0 instructions: 490000001 cycles: 287346610 heartbeat IPC: 1.73 cumulative IPC: 1.601 (Simulation time: 01 hr 03 min 19 sec)
Heartbeat CPU 0 instructions: 500000002 cycles: 292992901 heartbeat IPC: 1.771 cumulative IPC: 1.604 (Simulation time: 01 hr 05 min 38 sec)
Heartbeat CPU 0 instructions: 510000000 cycles: 298712806 heartbeat IPC: 1.748 cumulative IPC: 1.607 (Simulation time: 01 hr 07 min 58 sec)
Heartbeat CPU 0 instructions: 520000000 cycles: 304509594 heartbeat IPC: 1.725 cumulative IPC: 1.61 (Simulation time: 01 hr 10 min 08 sec)
Heartbeat CPU 0 instructions: 530000001 cycles: 316430495 heartbeat IPC: 0.8389 cumulative IPC: 1.579 (Simulation time: 01 hr 13 min 26 sec)
Heartbeat CPU 0 instructions: 540000000 cycles: 327682604 heartbeat IPC: 0.8887 cumulative IPC: 1.555 (Simulation time: 01 hr 17 min 05 sec)
Heartbeat CPU 0 instructions: 550000002 cycles: 340793495 heartbeat IPC: 0.7627 cumulative IPC: 1.523 (Simulation time: 01 hr 21 min 13 sec)
Heartbeat CPU 0 instructions: 560000004 cycles: 345705961 heartbeat IPC: 2.036 cumulative IPC: 1.531 (Simulation time: 01 hr 23 min 24 sec)
Heartbeat CPU 0 instructions: 570000001 cycles: 350117090 heartbeat IPC: 2.267 cumulative IPC: 1.54 (Simulation time: 01 hr 25 min 28 sec)
Heartbeat CPU 0 instructions: 580000003 cycles: 354361732 heartbeat IPC: 2.356 cumulative IPC: 1.55 (Simulation time: 01 hr 27 min 30 sec)
Heartbeat CPU 0 instructions: 590000001 cycles: 359266917 heartbeat IPC: 2.039 cumulative IPC: 1.557 (Simulation time: 01 hr 29 min 42 sec)
Heartbeat CPU 0 instructions: 600000003 cycles: 363910572 heartbeat IPC: 2.153 cumulative IPC: 1.565 (Simulation time: 01 hr 30 min 40 sec)
Heartbeat CPU 0 instructions: 610000001 cycles: 368771763 heartbeat IPC: 2.057 cumulative IPC: 1.572 (Simulation time: 01 hr 31 min 29 sec)
Heartbeat CPU 0 instructions: 620000000 cycles: 373841226 heartbeat IPC: 1.973 cumulative IPC: 1.577 (Simulation time: 01 hr 32 min 20 sec)
Heartbeat CPU 0 instructions: 630000002 cycles: 378088603 heartbeat IPC: 2.354 cumulative IPC: 1.586 (Simulation time: 01 hr 33 min 08 sec)
Heartbeat CPU 0 instructions: 640000004 cycles: 383409823 heartbeat IPC: 1.879 cumulative IPC: 1.591 (Simulation time: 01 hr 34 min 00 sec)
Heartbeat CPU 0 instructions: 650000001 cycles: 388175124 heartbeat IPC: 2.099 cumulative IPC: 1.597 (Simulation time: 01 hr 34 min 49 sec)
Simulation finished CPU 0 instructions: 600000001 cycles: 375675063 cumulative IPC: 1.597 (Simulation time: 01 hr 34 min 49 sec)
Simulation complete CPU 0 instructions: 600000001 cycles: 375675063 cumulative IPC: 1.597 (Simulation time: 01 hr 34 min 49 sec)

ChampSim completed all CPUs

=== Simulation ===
CPU 0 runs traces/400.perlbench-50B.champsimtrace.xz
Region of Interest Statistics

CPU 0 cumulative IPC: 1.597 instructions: 600000001 cycles: 375675063
CPU 0 Branch Prediction Accuracy: 93.83% MPKI: 12.71 Average ROB Occupancy at Mispredict: 29.55
Branch type MPKI
BRANCH_DIRECT_JUMP: 0.0176
BRANCH_INDIRECT: 0.38
BRANCH_CONDITIONAL: 11.9
BRANCH_DIRECT_CALL: 0.0067
BRANCH_INDIRECT_CALL: 0.431
BRANCH_RETURN: 0.0161

LLC TOTAL        ACCESS:     851248 HIT:     527276 MISS:     323972
LLC LOAD         ACCESS:     587592 HIT:     326488 MISS:     261104
LLC RFO          ACCESS:      47492 HIT:      26910 MISS:      20582
LLC PREFETCH     ACCESS:      65919 HIT:      36289 MISS:      29630
LLC WRITE        ACCESS:     128178 HIT:     127605 MISS:        573
LLC TRANSLATION  ACCESS:      22067 HIT:       9984 MISS:      12083
LLC PREFETCH REQUESTED:      65919 ISSUED:      65919 USEFUL:      18547 USELESS:       6677
LLC AVERAGE MISS LATENCY: 550.5 cycles
cpu0_DTLB TOTAL        ACCESS:  156769407 HIT:  155468082 MISS:    1301325
cpu0_DTLB LOAD         ACCESS:  156769407 HIT:  155468082 MISS:    1301325
cpu0_DTLB RFO          ACCESS:          0 HIT:          0 MISS:          0
cpu0_DTLB PREFETCH     ACCESS:          0 HIT:          0 MISS:          0
cpu0_DTLB WRITE        ACCESS:          0 HIT:          0 MISS:          0
cpu0_DTLB TRANSLATION  ACCESS:          0 HIT:          0 MISS:          0
cpu0_DTLB PREFETCH REQUESTED:          0 ISSUED:          0 USEFUL:          0 USELESS:          0
cpu0_DTLB AVERAGE MISS LATENCY: 12.22 cycles
cpu0_ITLB TOTAL        ACCESS:    8933267 HIT:    8734714 MISS:     198553
cpu0_ITLB LOAD         ACCESS:    8933267 HIT:    8734714 MISS:     198553
cpu0_ITLB RFO          ACCESS:          0 HIT:          0 MISS:          0
cpu0_ITLB PREFETCH     ACCESS:          0 HIT:          0 MISS:          0
cpu0_ITLB WRITE        ACCESS:          0 HIT:          0 MISS:          0
cpu0_ITLB TRANSLATION  ACCESS:          0 HIT:          0 MISS:          0
cpu0_ITLB PREFETCH REQUESTED:          0 ISSUED:          0 USEFUL:          0 USELESS:          0
cpu0_ITLB AVERAGE MISS LATENCY: 3.307 cycles
cpu0_L1D TOTAL        ACCESS:  203609407 HIT:  199936410 MISS:    3672997
cpu0_L1D LOAD         ACCESS:  117932723 HIT:  114917180 MISS:    3015543
cpu0_L1D RFO          ACCESS:          0 HIT:          0 MISS:          0
cpu0_L1D PREFETCH     ACCESS:          0 HIT:          0 MISS:          0
cpu0_L1D WRITE        ACCESS:   85648139 HIT:   85017827 MISS:     630312
cpu0_L1D TRANSLATION  ACCESS:      28545 HIT:       1403 MISS:      27142
cpu0_L1D PREFETCH REQUESTED:          0 ISSUED:          0 USEFUL:          0 USELESS:          0
cpu0_L1D AVERAGE MISS LATENCY: 48.63 cycles
cpu0_L1I TOTAL        ACCESS:   10371762 HIT:    8574364 MISS:    1797398
cpu0_L1I LOAD         ACCESS:   10371762 HIT:    8574364 MISS:    1797398
cpu0_L1I RFO          ACCESS:          0 HIT:          0 MISS:          0
cpu0_L1I PREFETCH     ACCESS:          0 HIT:          0 MISS:          0
cpu0_L1I WRITE        ACCESS:          0 HIT:          0 MISS:          0
cpu0_L1I TRANSLATION  ACCESS:          0 HIT:          0 MISS:          0
cpu0_L1I PREFETCH REQUESTED:          0 ISSUED:          0 USEFUL:          0 USELESS:          0
cpu0_L1I AVERAGE MISS LATENCY: 11.8 cycles
cpu0_L2C TOTAL        ACCESS:    3837124 HIT:    3176679 MISS:     660445
cpu0_L2C LOAD         ACCESS:    3106360 HIT:    2518768 MISS:     587592
cpu0_L2C RFO          ACCESS:     191822 HIT:     144330 MISS:      47492
cpu0_L2C PREFETCH     ACCESS:          0 HIT:          0 MISS:          0
cpu0_L2C WRITE        ACCESS:     511883 HIT:     508589 MISS:       3294
cpu0_L2C TRANSLATION  ACCESS:      27059 HIT:       4992 MISS:      22067
cpu0_L2C PREFETCH REQUESTED:          0 ISSUED:          0 USEFUL:          0 USELESS:          0
cpu0_L2C AVERAGE MISS LATENCY: 263.4 cycles
cpu0_STLB TOTAL        ACCESS:    1009416 HIT:     982724 MISS:      26692
cpu0_STLB LOAD         ACCESS:    1009416 HIT:     982724 MISS:      26692
cpu0_STLB RFO          ACCESS:          0 HIT:          0 MISS:          0
cpu0_STLB PREFETCH     ACCESS:          0 HIT:          0 MISS:          0
cpu0_STLB WRITE        ACCESS:          0 HIT:          0 MISS:          0
cpu0_STLB TRANSLATION  ACCESS:          0 HIT:          0 MISS:          0
cpu0_STLB PREFETCH REQUESTED:          0 ISSUED:          0 USEFUL:          0 USELESS:          0
cpu0_STLB AVERAGE MISS LATENCY: 377.5 cycles

DRAM Statistics

Channel 0 RQ ROW_BUFFER_HIT:      59722
  ROW_BUFFER_MISS:     258369
 AVG DBUS CONGESTED CYCLE: 3.818
WQ ROW_BUFFER_HIT: Channel 0 
  ROW_BUFFER_MISS:       8815
  FULL:      40395
