WARNING: physical memory size is smaller than virtual memory size.

*** ChampSim Multicore Out-of-Order Simulator ***
Warmup Instructions: 50000000
Simulation Instructions: 600000000
Number of CPUs: 1
Page size: 4096

Off-chip DRAM Size: 4 GiB Channels: 1 Width: 64-bit Data Race: 3200 MT/s
Heartbeat CPU 0 instructions: 10000000 cycles: 2500061 heartbeat IPC: 4 cumulative IPC: 4 (Simulation time: 00 hr 00 min 19 sec)
Heartbeat CPU 0 instructions: 20000000 cycles: 5000061 heartbeat IPC: 4 cumulative IPC: 4 (Simulation time: 00 hr 00 min 40 sec)
Heartbeat CPU 0 instructions: 30000000 cycles: 7500061 heartbeat IPC: 4 cumulative IPC: 4 (Simulation time: 00 hr 01 min 06 sec)
Heartbeat CPU 0 instructions: 40000000 cycles: 10000061 heartbeat IPC: 4 cumulative IPC: 4 (Simulation time: 00 hr 01 min 39 sec)
Heartbeat CPU 0 instructions: 50000000 cycles: 12500061 heartbeat IPC: 4 cumulative IPC: 4 (Simulation time: 00 hr 02 min 14 sec)
Warmup finished CPU 0 instructions: 50000000 cycles: 12500062 cumulative IPC: 4 (Simulation time: 00 hr 02 min 14 sec)
Warmup complete CPU 0 instructions: 50000000 cycles: 12500062 cumulative IPC: 4 (Simulation time: 00 hr 02 min 14 sec)
Heartbeat CPU 0 instructions: 60000002 cycles: 16435783 heartbeat IPC: 2.541 cumulative IPC: 2.541 (Simulation time: 00 hr 03 min 05 sec)
Heartbeat CPU 0 instructions: 70000003 cycles: 20749204 heartbeat IPC: 2.318 cumulative IPC: 2.424 (Simulation time: 00 hr 03 min 57 sec)
Heartbeat CPU 0 instructions: 80000003 cycles: 25212938 heartbeat IPC: 2.24 cumulative IPC: 2.36 (Simulation time: 00 hr 04 min 50 sec)
Heartbeat CPU 0 instructions: 90000000 cycles: 28902625 heartbeat IPC: 2.71 cumulative IPC: 2.439 (Simulation time: 00 hr 05 min 38 sec)
Heartbeat CPU 0 instructions: 100000003 cycles: 32797283 heartbeat IPC: 2.568 cumulative IPC: 2.463 (Simulation time: 00 hr 06 min 30 sec)
Heartbeat CPU 0 instructions: 110000002 cycles: 36888882 heartbeat IPC: 2.444 cumulative IPC: 2.46 (Simulation time: 00 hr 07 min 21 sec)
Heartbeat CPU 0 instructions: 120000001 cycles: 40602045 heartbeat IPC: 2.693 cumulative IPC: 2.491 (Simulation time: 00 hr 08 min 10 sec)
Heartbeat CPU 0 instructions: 130000003 cycles: 44366187 heartbeat IPC: 2.657 cumulative IPC: 2.511 (Simulation time: 00 hr 08 min 54 sec)
Heartbeat CPU 0 instructions: 140000002 cycles: 48491614 heartbeat IPC: 2.424 cumulative IPC: 2.501 (Simulation time: 00 hr 09 min 40 sec)
Heartbeat CPU 0 instructions: 150000001 cycles: 52535644 heartbeat IPC: 2.473 cumulative IPC: 2.498 (Simulation time: 00 hr 10 min 25 sec)
Heartbeat CPU 0 instructions: 160000000 cycles: 56184366 heartbeat IPC: 2.741 cumulative IPC: 2.518 (Simulation time: 00 hr 11 min 09 sec)
Heartbeat CPU 0 instructions: 170000001 cycles: 60350038 heartbeat IPC: 2.401 cumulative IPC: 2.508 (Simulation time: 00 hr 11 min 56 sec)
Heartbeat CPU 0 instructions: 180000001 cycles: 63805525 heartbeat IPC: 2.894 cumulative IPC: 2.534 (Simulation time: 00 hr 12 min 40 sec)
Heartbeat CPU 0 instructions: 190000002 cycles: 67382191 heartbeat IPC: 2.796 cumulative IPC: 2.551 (Simulation time: 00 hr 13 min 26 sec)
Heartbeat CPU 0 instructions: 200000002 cycles: 71153161 heartbeat IPC: 2.652 cumulative IPC: 2.557 (Simulation time: 00 hr 14 min 11 sec)
Heartbeat CPU 0 instructions: 210000000 cycles: 74788584 heartbeat IPC: 2.751 cumulative IPC: 2.569 (Simulation time: 00 hr 14 min 54 sec)
Heartbeat CPU 0 instructions: 220000001 cycles: 78656479 heartbeat IPC: 2.585 cumulative IPC: 2.57 (Simulation time: 00 hr 15 min 39 sec)
Heartbeat CPU 0 instructions: 230000002 cycles: 82492622 heartbeat IPC: 2.607 cumulative IPC: 2.572 (Simulation time: 00 hr 16 min 24 sec)
Heartbeat CPU 0 instructions: 240000001 cycles: 86695188 heartbeat IPC: 2.379 cumulative IPC: 2.561 (Simulation time: 00 hr 17 min 10 sec)
Heartbeat CPU 0 instructions: 250000003 cycles: 91253982 heartbeat IPC: 2.194 cumulative IPC: 2.54 (Simulation time: 00 hr 17 min 59 sec)
Heartbeat CPU 0 instructions: 260000000 cycles: 95046978 heartbeat IPC: 2.636 cumulative IPC: 2.544 (Simulation time: 00 hr 18 min 46 sec)
Heartbeat CPU 0 instructions: 270000003 cycles: 101777805 heartbeat IPC: 1.486 cumulative IPC: 2.464 (Simulation time: 00 hr 19 min 48 sec)
Heartbeat CPU 0 instructions: 280000000 cycles: 112405434 heartbeat IPC: 0.9409 cumulative IPC: 2.302 (Simulation time: 00 hr 21 min 12 sec)
Heartbeat CPU 0 instructions: 290000000 cycles: 122023528 heartbeat IPC: 1.04 cumulative IPC: 2.191 (Simulation time: 00 hr 22 min 35 sec)
Heartbeat CPU 0 instructions: 300000003 cycles: 129388352 heartbeat IPC: 1.358 cumulative IPC: 2.139 (Simulation time: 00 hr 23 min 43 sec)
Heartbeat CPU 0 instructions: 310000004 cycles: 140174255 heartbeat IPC: 0.9271 cumulative IPC: 2.036 (Simulation time: 00 hr 25 min 13 sec)
Heartbeat CPU 0 instructions: 320000004 cycles: 145201064 heartbeat IPC: 1.989 cumulative IPC: 2.035 (Simulation time: 00 hr 26 min 05 sec)
Heartbeat CPU 0 instructions: 330000000 cycles: 149275391 heartbeat IPC: 2.454 cumulative IPC: 2.047 (Simulation time: 00 hr 26 min 52 sec)
Heartbeat CPU 0 instructions: 340000001 cycles: 153574213 heartbeat IPC: 2.326 cumulative IPC: 2.056 (Simulation time: 00 hr 27 min 41 sec)
Heartbeat CPU 0 instructions: 350000004 cycles: 157999992 heartbeat IPC: 2.259 cumulative IPC: 2.062 (Simulation time: 00 hr 28 min 30 sec)
Heartbeat CPU 0 instructions: 360000003 cycles: 162125916 heartbeat IPC: 2.424 cumulative IPC: 2.072 (Simulation time: 00 hr 29 min 16 sec)
Heartbeat CPU 0 instructions: 370000001 cycles: 166162170 heartbeat IPC: 2.478 cumulative IPC: 2.082 (Simulation time: 00 hr 30 min 03 sec)
Heartbeat CPU 0 instructions: 380000004 cycles: 170057915 heartbeat IPC: 2.567 cumulative IPC: 2.094 (Simulation time: 00 hr 30 min 49 sec)
Heartbeat CPU 0 instructions: 390000002 cycles: 174128143 heartbeat IPC: 2.457 cumulative IPC: 2.104 (Simulation time: 00 hr 31 min 36 sec)
Heartbeat CPU 0 instructions: 400000000 cycles: 178491667 heartbeat IPC: 2.292 cumulative IPC: 2.109 (Simulation time: 00 hr 32 min 24 sec)
Heartbeat CPU 0 instructions: 410000000 cycles: 185977001 heartbeat IPC: 1.336 cumulative IPC: 2.075 (Simulation time: 00 hr 33 min 32 sec)
Heartbeat CPU 0 instructions: 420000003 cycles: 196783284 heartbeat IPC: 0.9254 cumulative IPC: 2.008 (Simulation time: 00 hr 34 min 59 sec)
Heartbeat CPU 0 instructions: 430000000 cycles: 204348690 heartbeat IPC: 1.322 cumulative IPC: 1.981 (Simulation time: 00 hr 36 min 07 sec)
Heartbeat CPU 0 instructions: 440000004 cycles: 211069981 heartbeat IPC: 1.488 cumulative IPC: 1.964 (Simulation time: 00 hr 37 min 13 sec)
Heartbeat CPU 0 instructions: 450000001 cycles: 217802496 heartbeat IPC: 1.485 cumulative IPC: 1.948 (Simulation time: 00 hr 38 min 17 sec)
Heartbeat CPU 0 instructions: 460000002 cycles: 228564660 heartbeat IPC: 0.9292 cumulative IPC: 1.898 (Simulation time: 00 hr 39 min 45 sec)
Heartbeat CPU 0 instructions: 470000003 cycles: 237985958 heartbeat IPC: 1.061 cumulative IPC: 1.863 (Simulation time: 00 hr 41 min 06 sec)
Heartbeat CPU 0 instructions: 480000003 cycles: 242258117 heartbeat IPC: 2.341 cumulative IPC: 1.872 (Simulation time: 00 hr 41 min 54 sec)
Heartbeat CPU 0 instructions: 490000001 cycles: 246959374 heartbeat IPC: 2.127 cumulative IPC: 1.877 (Simulation time: 00 hr 42 min 44 sec)
Heartbeat CPU 0 instructions: 500000002 cycles: 251371782 heartbeat IPC: 2.266 cumulative IPC: 1.884 (Simulation time: 00 hr 43 min 34 sec)
Heartbeat CPU 0 instructions: 510000000 cycles: 255633097 heartbeat IPC: 2.347 cumulative IPC: 1.892 (Simulation time: 00 hr 44 min 23 sec)
Heartbeat CPU 0 instructions: 520000000 cycles: 260072288 heartbeat IPC: 2.253 cumulative IPC: 1.898 (Simulation time: 00 hr 45 min 12 sec)
Heartbeat CPU 0 instructions: 530000001 cycles: 271131017 heartbeat IPC: 0.9043 cumulative IPC: 1.856 (Simulation time: 00 hr 46 min 40 sec)
Heartbeat CPU 0 instructions: 540000000 cycles: 282038756 heartbeat IPC: 0.9168 cumulative IPC: 1.818 (Simulation time: 00 hr 48 min 08 sec)
Heartbeat CPU 0 instructions: 550000004 cycles: 294407215 heartbeat IPC: 0.8085 cumulative IPC: 1.774 (Simulation time: 00 hr 49 min 43 sec)
Heartbeat CPU 0 instructions: 560000004 cycles: 298630812 heartbeat IPC: 2.368 cumulative IPC: 1.782 (Simulation time: 00 hr 50 min 31 sec)
Heartbeat CPU 0 instructions: 570000001 cycles: 301760560 heartbeat IPC: 3.195 cumulative IPC: 1.798 (Simulation time: 00 hr 51 min 14 sec)
Heartbeat CPU 0 instructions: 580000003 cycles: 305307713 heartbeat IPC: 2.819 cumulative IPC: 1.81 (Simulation time: 00 hr 51 min 56 sec)
Heartbeat CPU 0 instructions: 590000002 cycles: 308936474 heartbeat IPC: 2.756 cumulative IPC: 1.822 (Simulation time: 00 hr 52 min 40 sec)
Heartbeat CPU 0 instructions: 600000003 cycles: 312005062 heartbeat IPC: 3.259 cumulative IPC: 1.836 (Simulation time: 00 hr 53 min 23 sec)
Heartbeat CPU 0 instructions: 610000001 cycles: 315515227 heartbeat IPC: 2.849 cumulative IPC: 1.848 (Simulation time: 00 hr 54 min 07 sec)
Heartbeat CPU 0 instructions: 620000000 cycles: 319533244 heartbeat IPC: 2.489 cumulative IPC: 1.856 (Simulation time: 00 hr 54 min 53 sec)
Heartbeat CPU 0 instructions: 630000002 cycles: 322896877 heartbeat IPC: 2.973 cumulative IPC: 1.869 (Simulation time: 00 hr 55 min 35 sec)
Heartbeat CPU 0 instructions: 640000004 cycles: 326907782 heartbeat IPC: 2.493 cumulative IPC: 1.877 (Simulation time: 00 hr 56 min 19 sec)
Heartbeat CPU 0 instructions: 650000001 cycles: 330731044 heartbeat IPC: 2.616 cumulative IPC: 1.885 (Simulation time: 00 hr 56 min 58 sec)
Simulation finished CPU 0 instructions: 600000001 cycles: 318230983 cumulative IPC: 1.885 (Simulation time: 00 hr 56 min 58 sec)
Simulation complete CPU 0 instructions: 600000001 cycles: 318230983 cumulative IPC: 1.885 (Simulation time: 00 hr 56 min 58 sec)

ChampSim completed all CPUs

=== Simulation ===
CPU 0 runs traces/400.perlbench-50B.champsimtrace.xz
Region of Interest Statistics

CPU 0 cumulative IPC: 1.885 instructions: 600000001 cycles: 318230983
CPU 0 Branch Prediction Accuracy: 96.2% MPKI: 7.839 Average ROB Occupancy at Mispredict: 43.46
Branch type MPKI
BRANCH_DIRECT_JUMP: 0.0176
BRANCH_INDIRECT: 0.38
BRANCH_CONDITIONAL: 6.99
BRANCH_DIRECT_CALL: 0.0067
BRANCH_INDIRECT_CALL: 0.431
BRANCH_RETURN: 0.0161

LLC TOTAL        ACCESS:    1354529 HIT:     880873 MISS:     473656
LLC LOAD         ACCESS:     578889 HIT:     366907 MISS:     211982
LLC RFO          ACCESS:      47448 HIT:      28946 MISS:      18502
LLC PREFETCH     ACCESS:     578889 HIT:     349885 MISS:     229004
LLC WRITE        ACCESS:     127256 HIT:     126506 MISS:        750
LLC TRANSLATION  ACCESS:      22047 HIT:       8629 MISS:      13418
LLC PREFETCH REQUESTED:     578889 ISSUED:     578889 USEFUL:      86621 USELESS:      87315
LLC AVERAGE MISS LATENCY: 552.4 cycles
cpu0_DTLB TOTAL        ACCESS:  146514271 HIT:  145208340 MISS:    1305931
cpu0_DTLB LOAD         ACCESS:  146514271 HIT:  145208340 MISS:    1305931
cpu0_DTLB RFO          ACCESS:          0 HIT:          0 MISS:          0
cpu0_DTLB PREFETCH     ACCESS:          0 HIT:          0 MISS:          0
cpu0_DTLB WRITE        ACCESS:          0 HIT:          0 MISS:          0
cpu0_DTLB TRANSLATION  ACCESS:          0 HIT:          0 MISS:          0
cpu0_DTLB PREFETCH REQUESTED:          0 ISSUED:          0 USEFUL:          0 USELESS:          0
cpu0_DTLB AVERAGE MISS LATENCY: 13.04 cycles
cpu0_ITLB TOTAL        ACCESS:    8986546 HIT:    8802057 MISS:     184489
cpu0_ITLB LOAD         ACCESS:    8986546 HIT:    8802057 MISS:     184489
cpu0_ITLB RFO          ACCESS:          0 HIT:          0 MISS:          0
cpu0_ITLB PREFETCH     ACCESS:          0 HIT:          0 MISS:          0
cpu0_ITLB WRITE        ACCESS:          0 HIT:          0 MISS:          0
cpu0_ITLB TRANSLATION  ACCESS:          0 HIT:          0 MISS:          0
cpu0_ITLB PREFETCH REQUESTED:          0 ISSUED:          0 USEFUL:          0 USELESS:          0
cpu0_ITLB AVERAGE MISS LATENCY: 3.891 cycles
cpu0_L1D TOTAL        ACCESS:  193299105 HIT:  189636817 MISS:    3662288
cpu0_L1D LOAD         ACCESS:  107453069 HIT:  104442462 MISS:    3010607
cpu0_L1D RFO          ACCESS:          0 HIT:          0 MISS:          0
cpu0_L1D PREFETCH     ACCESS:          0 HIT:          0 MISS:          0
cpu0_L1D WRITE        ACCESS:   85817513 HIT:   85192928 MISS:     624585
cpu0_L1D TRANSLATION  ACCESS:      28523 HIT:       1427 MISS:      27096
cpu0_L1D PREFETCH REQUESTED:          0 ISSUED:          0 USEFUL:          0 USELESS:          0
cpu0_L1D AVERAGE MISS LATENCY: 45.42 cycles
cpu0_L1I TOTAL        ACCESS:   10421244 HIT:    8659494 MISS:    1761750
cpu0_L1I LOAD         ACCESS:   10421244 HIT:    8659494 MISS:    1761750
cpu0_L1I RFO          ACCESS:          0 HIT:          0 MISS:          0
cpu0_L1I PREFETCH     ACCESS:          0 HIT:          0 MISS:          0
cpu0_L1I WRITE        ACCESS:          0 HIT:          0 MISS:          0
cpu0_L1I TRANSLATION  ACCESS:          0 HIT:          0 MISS:          0
cpu0_L1I PREFETCH REQUESTED:          0 ISSUED:          0 USEFUL:          0 USELESS:          0
cpu0_L1I AVERAGE MISS LATENCY: 10.76 cycles
cpu0_L2C TOTAL        ACCESS:    3834546 HIT:    3183061 MISS:     651485
cpu0_L2C LOAD         ACCESS:    3104920 HIT:    2526031 MISS:     578889
cpu0_L2C RFO          ACCESS:     191539 HIT:     144091 MISS:      47448
cpu0_L2C PREFETCH     ACCESS:          0 HIT:          0 MISS:          0
cpu0_L2C WRITE        ACCESS:     511060 HIT:     507959 MISS:       3101
cpu0_L2C TRANSLATION  ACCESS:      27027 HIT:       4980 MISS:      22047
cpu0_L2C PREFETCH REQUESTED:          0 ISSUED:          0 USEFUL:          0 USELESS:          0
cpu0_L2C AVERAGE MISS LATENCY: 244.9 cycles
cpu0_STLB TOTAL        ACCESS:    1008473 HIT:     981781 MISS:      26692
cpu0_STLB LOAD         ACCESS:    1008473 HIT:     981781 MISS:      26692
cpu0_STLB RFO          ACCESS:          0 HIT:          0 MISS:          0
cpu0_STLB PREFETCH     ACCESS:          0 HIT:          0 MISS:          0
cpu0_STLB WRITE        ACCESS:          0 HIT:          0 MISS:          0
cpu0_STLB TRANSLATION  ACCESS:          0 HIT:          0 MISS:          0
cpu0_STLB PREFETCH REQUESTED:          0 ISSUED:          0 USEFUL:          0 USELESS:          0
cpu0_STLB AVERAGE MISS LATENCY: 422.9 cycles

DRAM Statistics

Channel 0 RQ ROW_BUFFER_HIT:      81750
  ROW_BUFFER_MISS:     322838
 AVG DBUS CONGESTED CYCLE: 3.868
WQ ROW_BUFFER_HIT: Channel 0 
  ROW_BUFFER_MISS:       6499
  FULL:      39181
