WARNING: physical memory size is smaller than virtual memory size.

*** ChampSim Multicore Out-of-Order Simulator ***
Warmup Instructions: 50000000
Simulation Instructions: 600000000
Number of CPUs: 1
Page size: 4096

Off-chip DRAM Size: 4 GiB Channels: 1 Width: 64-bit Data Race: 3200 MT/s
Heartbeat CPU 0 instructions: 10000000 cycles: 2500061 heartbeat IPC: 4 cumulative IPC: 4 (Simulation time: 00 hr 00 min 35 sec)
Heartbeat CPU 0 instructions: 20000000 cycles: 5000061 heartbeat IPC: 4 cumulative IPC: 4 (Simulation time: 00 hr 01 min 07 sec)
Heartbeat CPU 0 instructions: 30000000 cycles: 7500061 heartbeat IPC: 4 cumulative IPC: 4 (Simulation time: 00 hr 01 min 39 sec)
Heartbeat CPU 0 instructions: 40000000 cycles: 10000061 heartbeat IPC: 4 cumulative IPC: 4 (Simulation time: 00 hr 02 min 11 sec)
Heartbeat CPU 0 instructions: 50000000 cycles: 12500061 heartbeat IPC: 4 cumulative IPC: 4 (Simulation time: 00 hr 02 min 44 sec)
Warmup finished CPU 0 instructions: 50000000 cycles: 12500062 cumulative IPC: 4 (Simulation time: 00 hr 02 min 44 sec)
Warmup complete CPU 0 instructions: 50000000 cycles: 12500062 cumulative IPC: 4 (Simulation time: 00 hr 02 min 44 sec)
Heartbeat CPU 0 instructions: 60000002 cycles: 16446623 heartbeat IPC: 2.534 cumulative IPC: 2.534 (Simulation time: 00 hr 03 min 28 sec)
Heartbeat CPU 0 instructions: 70000003 cycles: 20770663 heartbeat IPC: 2.313 cumulative IPC: 2.418 (Simulation time: 00 hr 04 min 15 sec)
Heartbeat CPU 0 instructions: 80000003 cycles: 25247437 heartbeat IPC: 2.234 cumulative IPC: 2.353 (Simulation time: 00 hr 05 min 04 sec)
Heartbeat CPU 0 instructions: 90000000 cycles: 28939876 heartbeat IPC: 2.708 cumulative IPC: 2.433 (Simulation time: 00 hr 05 min 48 sec)
Heartbeat CPU 0 instructions: 100000003 cycles: 32843908 heartbeat IPC: 2.561 cumulative IPC: 2.458 (Simulation time: 00 hr 06 min 33 sec)
Heartbeat CPU 0 instructions: 110000002 cycles: 36950135 heartbeat IPC: 2.435 cumulative IPC: 2.454 (Simulation time: 00 hr 07 min 20 sec)
Heartbeat CPU 0 instructions: 120000001 cycles: 40668359 heartbeat IPC: 2.689 cumulative IPC: 2.485 (Simulation time: 00 hr 08 min 04 sec)
Heartbeat CPU 0 instructions: 130000003 cycles: 44444328 heartbeat IPC: 2.648 cumulative IPC: 2.504 (Simulation time: 00 hr 08 min 48 sec)
Heartbeat CPU 0 instructions: 140000002 cycles: 48579315 heartbeat IPC: 2.418 cumulative IPC: 2.495 (Simulation time: 00 hr 09 min 33 sec)
Heartbeat CPU 0 instructions: 150000001 cycles: 52632664 heartbeat IPC: 2.467 cumulative IPC: 2.492 (Simulation time: 00 hr 10 min 19 sec)
Heartbeat CPU 0 instructions: 160000000 cycles: 56291651 heartbeat IPC: 2.733 cumulative IPC: 2.512 (Simulation time: 00 hr 11 min 03 sec)
Heartbeat CPU 0 instructions: 170000001 cycles: 60472265 heartbeat IPC: 2.392 cumulative IPC: 2.501 (Simulation time: 00 hr 11 min 48 sec)
Heartbeat CPU 0 instructions: 180000001 cycles: 63937266 heartbeat IPC: 2.886 cumulative IPC: 2.527 (Simulation time: 00 hr 12 min 31 sec)
Heartbeat CPU 0 instructions: 190000002 cycles: 67527991 heartbeat IPC: 2.785 cumulative IPC: 2.544 (Simulation time: 00 hr 13 min 17 sec)
Heartbeat CPU 0 instructions: 200000002 cycles: 71313896 heartbeat IPC: 2.641 cumulative IPC: 2.55 (Simulation time: 00 hr 14 min 02 sec)
Heartbeat CPU 0 instructions: 210000000 cycles: 74955829 heartbeat IPC: 2.746 cumulative IPC: 2.562 (Simulation time: 00 hr 14 min 44 sec)
Heartbeat CPU 0 instructions: 220000001 cycles: 78831156 heartbeat IPC: 2.58 cumulative IPC: 2.563 (Simulation time: 00 hr 15 min 26 sec)
Heartbeat CPU 0 instructions: 230000002 cycles: 82674752 heartbeat IPC: 2.602 cumulative IPC: 2.565 (Simulation time: 00 hr 16 min 09 sec)
Heartbeat CPU 0 instructions: 240000001 cycles: 86887533 heartbeat IPC: 2.374 cumulative IPC: 2.554 (Simulation time: 00 hr 16 min 54 sec)
Heartbeat CPU 0 instructions: 250000003 cycles: 91460665 heartbeat IPC: 2.187 cumulative IPC: 2.533 (Simulation time: 00 hr 17 min 39 sec)
Heartbeat CPU 0 instructions: 260000000 cycles: 95258738 heartbeat IPC: 2.633 cumulative IPC: 2.537 (Simulation time: 00 hr 18 min 22 sec)
Heartbeat CPU 0 instructions: 270000003 cycles: 102606143 heartbeat IPC: 1.361 cumulative IPC: 2.442 (Simulation time: 00 hr 19 min 23 sec)
Heartbeat CPU 0 instructions: 280000000 cycles: 115897953 heartbeat IPC: 0.7523 cumulative IPC: 2.224 (Simulation time: 00 hr 21 min 05 sec)
Heartbeat CPU 0 instructions: 290000000 cycles: 130188630 heartbeat IPC: 0.6998 cumulative IPC: 2.039 (Simulation time: 00 hr 22 min 54 sec)
Heartbeat CPU 0 instructions: 300000003 cycles: 139014774 heartbeat IPC: 1.133 cumulative IPC: 1.976 (Simulation time: 00 hr 24 min 12 sec)
Heartbeat CPU 0 instructions: 310000004 cycles: 151477598 heartbeat IPC: 0.8024 cumulative IPC: 1.871 (Simulation time: 00 hr 25 min 52 sec)
Heartbeat CPU 0 instructions: 320000004 cycles: 157020729 heartbeat IPC: 1.804 cumulative IPC: 1.868 (Simulation time: 00 hr 26 min 50 sec)
Heartbeat CPU 0 instructions: 330000000 cycles: 161102149 heartbeat IPC: 2.45 cumulative IPC: 1.884 (Simulation time: 00 hr 27 min 37 sec)
Heartbeat CPU 0 instructions: 340000001 cycles: 165497108 heartbeat IPC: 2.275 cumulative IPC: 1.895 (Simulation time: 00 hr 28 min 27 sec)
Heartbeat CPU 0 instructions: 350000004 cycles: 169921826 heartbeat IPC: 2.26 cumulative IPC: 1.906 (Simulation time: 00 hr 29 min 16 sec)
Heartbeat CPU 0 instructions: 360000003 cycles: 173913529 heartbeat IPC: 2.505 cumulative IPC: 1.921 (Simulation time: 00 hr 30 min 03 sec)
Heartbeat CPU 0 instructions: 370000001 cycles: 177719100 heartbeat IPC: 2.628 cumulative IPC: 1.937 (Simulation time: 00 hr 30 min 49 sec)
Heartbeat CPU 0 instructions: 380000004 cycles: 181342069 heartbeat IPC: 2.76 cumulative IPC: 1.954 (Simulation time: 00 hr 31 min 33 sec)
Heartbeat CPU 0 instructions: 390000002 cycles: 185095074 heartbeat IPC: 2.665 cumulative IPC: 1.97 (Simulation time: 00 hr 32 min 19 sec)
Heartbeat CPU 0 instructions: 400000000 cycles: 189053445 heartbeat IPC: 2.526 cumulative IPC: 1.982 (Simulation time: 00 hr 33 min 05 sec)
Heartbeat CPU 0 instructions: 410000000 cycles: 196588533 heartbeat IPC: 1.327 cumulative IPC: 1.956 (Simulation time: 00 hr 34 min 13 sec)
Heartbeat CPU 0 instructions: 420000003 cycles: 208895337 heartbeat IPC: 0.8126 cumulative IPC: 1.884 (Simulation time: 00 hr 35 min 44 sec)
Heartbeat CPU 0 instructions: 430000000 cycles: 217058770 heartbeat IPC: 1.225 cumulative IPC: 1.858 (Simulation time: 00 hr 36 min 55 sec)
Heartbeat CPU 0 instructions: 440000004 cycles: 225277024 heartbeat IPC: 1.217 cumulative IPC: 1.833 (Simulation time: 00 hr 38 min 06 sec)
Heartbeat CPU 0 instructions: 450000001 cycles: 233669664 heartbeat IPC: 1.192 cumulative IPC: 1.809 (Simulation time: 00 hr 39 min 17 sec)
Heartbeat CPU 0 instructions: 460000002 cycles: 247595220 heartbeat IPC: 0.7181 cumulative IPC: 1.744 (Simulation time: 00 hr 40 min 58 sec)
Heartbeat CPU 0 instructions: 470000003 cycles: 258092958 heartbeat IPC: 0.9526 cumulative IPC: 1.71 (Simulation time: 00 hr 42 min 20 sec)
Heartbeat CPU 0 instructions: 480000003 cycles: 262402436 heartbeat IPC: 2.32 cumulative IPC: 1.721 (Simulation time: 00 hr 43 min 08 sec)
Heartbeat CPU 0 instructions: 490000001 cycles: 266976133 heartbeat IPC: 2.186 cumulative IPC: 1.729 (Simulation time: 00 hr 43 min 58 sec)
Heartbeat CPU 0 instructions: 500000002 cycles: 271081636 heartbeat IPC: 2.436 cumulative IPC: 1.74 (Simulation time: 00 hr 44 min 45 sec)
Heartbeat CPU 0 instructions: 510000000 cycles: 274806434 heartbeat IPC: 2.685 cumulative IPC: 1.754 (Simulation time: 00 hr 45 min 31 sec)
Heartbeat CPU 0 instructions: 520000000 cycles: 278579561 heartbeat IPC: 2.65 cumulative IPC: 1.766 (Simulation time: 00 hr 46 min 16 sec)
Heartbeat CPU 0 instructions: 530000001 cycles: 289984323 heartbeat IPC: 0.8768 cumulative IPC: 1.73 (Simulation time: 00 hr 47 min 47 sec)
Heartbeat CPU 0 instructions: 540000000 cycles: 302763751 heartbeat IPC: 0.7825 cumulative IPC: 1.688 (Simulation time: 00 hr 49 min 29 sec)
Heartbeat CPU 0 instructions: 550000004 cycles: 317591930 heartbeat IPC: 0.6744 cumulative IPC: 1.639 (Simulation time: 00 hr 51 min 21 sec)
Heartbeat CPU 0 instructions: 560000004 cycles: 322033747 heartbeat IPC: 2.251 cumulative IPC: 1.648 (Simulation time: 00 hr 52 min 10 sec)
Heartbeat CPU 0 instructions: 570000001 cycles: 325169531 heartbeat IPC: 3.189 cumulative IPC: 1.663 (Simulation time: 00 hr 52 min 53 sec)
Heartbeat CPU 0 instructions: 580000003 cycles: 328721406 heartbeat IPC: 2.815 cumulative IPC: 1.676 (Simulation time: 00 hr 53 min 37 sec)
Heartbeat CPU 0 instructions: 590000002 cycles: 332350847 heartbeat IPC: 2.755 cumulative IPC: 1.688 (Simulation time: 00 hr 54 min 21 sec)
Heartbeat CPU 0 instructions: 600000003 cycles: 335419111 heartbeat IPC: 3.259 cumulative IPC: 1.703 (Simulation time: 00 hr 55 min 04 sec)
Heartbeat CPU 0 instructions: 610000001 cycles: 338931685 heartbeat IPC: 2.847 cumulative IPC: 1.716 (Simulation time: 00 hr 55 min 48 sec)
Heartbeat CPU 0 instructions: 620000000 cycles: 342949304 heartbeat IPC: 2.489 cumulative IPC: 1.725 (Simulation time: 00 hr 56 min 35 sec)
Heartbeat CPU 0 instructions: 630000002 cycles: 346318918 heartbeat IPC: 2.968 cumulative IPC: 1.737 (Simulation time: 00 hr 57 min 19 sec)
Heartbeat CPU 0 instructions: 640000004 cycles: 350335307 heartbeat IPC: 2.49 cumulative IPC: 1.746 (Simulation time: 00 hr 58 min 05 sec)
Heartbeat CPU 0 instructions: 650000001 cycles: 354162075 heartbeat IPC: 2.613 cumulative IPC: 1.756 (Simulation time: 00 hr 58 min 48 sec)
Simulation finished CPU 0 instructions: 600000001 cycles: 341662014 cumulative IPC: 1.756 (Simulation time: 00 hr 58 min 48 sec)
Simulation complete CPU 0 instructions: 600000001 cycles: 341662014 cumulative IPC: 1.756 (Simulation time: 00 hr 58 min 48 sec)

ChampSim completed all CPUs

=== Simulation ===
CPU 0 runs traces/400.perlbench-50B.champsimtrace.xz
Region of Interest Statistics

CPU 0 cumulative IPC: 1.756 instructions: 600000001 cycles: 341662014
CPU 0 Branch Prediction Accuracy: 96.2% MPKI: 7.839 Average ROB Occupancy at Mispredict: 44.15
Branch type MPKI
BRANCH_DIRECT_JUMP: 0.0176
BRANCH_INDIRECT: 0.38
BRANCH_CONDITIONAL: 6.99
BRANCH_DIRECT_CALL: 0.0067
BRANCH_INDIRECT_CALL: 0.431
BRANCH_RETURN: 0.0161

LLC TOTAL        ACCESS:     786677 HIT:     410504 MISS:     376173
LLC LOAD         ACCESS:     588358 HIT:     290239 MISS:     298119
LLC RFO          ACCESS:      47592 HIT:      25232 MISS:      22360
LLC PREFETCH     ACCESS:          0 HIT:          0 MISS:          0
LLC WRITE        ACCESS:     128691 HIT:      91353 MISS:      37338
LLC TRANSLATION  ACCESS:      22036 HIT:       3680 MISS:      18356
LLC PREFETCH REQUESTED:          0 ISSUED:          0 USEFUL:          0 USELESS:          0
LLC AVERAGE MISS LATENCY: 482.4 cycles
cpu0_DTLB TOTAL        ACCESS:  146477523 HIT:  145170141 MISS:    1307382
cpu0_DTLB LOAD         ACCESS:  146477523 HIT:  145170141 MISS:    1307382
cpu0_DTLB RFO          ACCESS:          0 HIT:          0 MISS:          0
cpu0_DTLB PREFETCH     ACCESS:          0 HIT:          0 MISS:          0
cpu0_DTLB WRITE        ACCESS:          0 HIT:          0 MISS:          0
cpu0_DTLB TRANSLATION  ACCESS:          0 HIT:          0 MISS:          0
cpu0_DTLB PREFETCH REQUESTED:          0 ISSUED:          0 USEFUL:          0 USELESS:          0
cpu0_DTLB AVERAGE MISS LATENCY: 14.76 cycles
cpu0_ITLB TOTAL        ACCESS:    8987606 HIT:    8803026 MISS:     184580
cpu0_ITLB LOAD         ACCESS:    8987606 HIT:    8803026 MISS:     184580
cpu0_ITLB RFO          ACCESS:          0 HIT:          0 MISS:          0
cpu0_ITLB PREFETCH     ACCESS:          0 HIT:          0 MISS:          0
cpu0_ITLB WRITE        ACCESS:          0 HIT:          0 MISS:          0
cpu0_ITLB TRANSLATION  ACCESS:          0 HIT:          0 MISS:          0
cpu0_ITLB PREFETCH REQUESTED:          0 ISSUED:          0 USEFUL:          0 USELESS:          0
cpu0_ITLB AVERAGE MISS LATENCY: 3.984 cycles
cpu0_L1D TOTAL        ACCESS:  193234141 HIT:  189545442 MISS:    3688699
cpu0_L1D LOAD         ACCESS:  107389494 HIT:  104353457 MISS:    3036037
cpu0_L1D RFO          ACCESS:          0 HIT:          0 MISS:          0
cpu0_L1D PREFETCH     ACCESS:          0 HIT:          0 MISS:          0
cpu0_L1D WRITE        ACCESS:   85816129 HIT:   85190566 MISS:     625563
cpu0_L1D TRANSLATION  ACCESS:      28518 HIT:       1419 MISS:      27099
cpu0_L1D PREFETCH REQUESTED:          0 ISSUED:          0 USEFUL:          0 USELESS:          0
cpu0_L1D AVERAGE MISS LATENCY: 52.52 cycles
cpu0_L1I TOTAL        ACCESS:   10421804 HIT:    8659753 MISS:    1762051
cpu0_L1I LOAD         ACCESS:   10421804 HIT:    8659753 MISS:    1762051
cpu0_L1I RFO          ACCESS:          0 HIT:          0 MISS:          0
cpu0_L1I PREFETCH     ACCESS:          0 HIT:          0 MISS:          0
cpu0_L1I WRITE        ACCESS:          0 HIT:          0 MISS:          0
cpu0_L1I TRANSLATION  ACCESS:          0 HIT:          0 MISS:          0
cpu0_L1I PREFETCH REQUESTED:          0 ISSUED:          0 USEFUL:          0 USELESS:          0
cpu0_L1I AVERAGE MISS LATENCY: 14.81 cycles
cpu0_L2C TOTAL        ACCESS:    3834512 HIT:    3173182 MISS:     661330
cpu0_L2C LOAD         ACCESS:    3104912 HIT:    2516554 MISS:     588358
cpu0_L2C RFO          ACCESS:     191570 HIT:     143978 MISS:      47592
cpu0_L2C PREFETCH     ACCESS:          0 HIT:          0 MISS:          0
cpu0_L2C WRITE        ACCESS:     511001 HIT:     507657 MISS:       3344
cpu0_L2C TRANSLATION  ACCESS:      27029 HIT:       4993 MISS:      22036
cpu0_L2C PREFETCH REQUESTED:          0 ISSUED:          0 USEFUL:          0 USELESS:          0
cpu0_L2C AVERAGE MISS LATENCY: 294.8 cycles
cpu0_STLB TOTAL        ACCESS:    1008899 HIT:     982207 MISS:      26692
cpu0_STLB LOAD         ACCESS:    1008899 HIT:     982207 MISS:      26692
cpu0_STLB RFO          ACCESS:          0 HIT:          0 MISS:          0
cpu0_STLB PREFETCH     ACCESS:          0 HIT:          0 MISS:          0
cpu0_STLB WRITE        ACCESS:          0 HIT:          0 MISS:          0
cpu0_STLB TRANSLATION  ACCESS:          0 HIT:          0 MISS:          0
cpu0_STLB PREFETCH REQUESTED:          0 ISSUED:          0 USEFUL:          0 USELESS:          0
cpu0_STLB AVERAGE MISS LATENCY: 511.2 cycles

DRAM Statistics

Channel 0 RQ ROW_BUFFER_HIT:      58588
  ROW_BUFFER_MISS:     280052
 AVG DBUS CONGESTED CYCLE: 3.799
WQ ROW_BUFFER_HIT: Channel 0 
  ROW_BUFFER_MISS:      12193
  FULL:      36925
