WARNING: physical memory size is smaller than virtual memory size.

*** ChampSim Multicore Out-of-Order Simulator ***
Warmup Instructions: 50000000
Simulation Instructions: 600000000
Number of CPUs: 1
Page size: 4096

CPU 0 Tage branch predictor
Off-chip DRAM Size: 4 GiB Channels: 1 Width: 64-bit Data Race: 3200 MT/s
Heartbeat CPU 0 instructions: 10000001 cycles: 2500318 heartbeat IPC: 3.999 cumulative IPC: 3.999 (Simulation time: 00 hr 01 min 24 sec)
Heartbeat CPU 0 instructions: 20000002 cycles: 5037121 heartbeat IPC: 3.942 cumulative IPC: 3.971 (Simulation time: 00 hr 02 min 39 sec)
Heartbeat CPU 0 instructions: 30000002 cycles: 7537121 heartbeat IPC: 4 cumulative IPC: 3.98 (Simulation time: 00 hr 03 min 37 sec)
Heartbeat CPU 0 instructions: 40000002 cycles: 10037121 heartbeat IPC: 4 cumulative IPC: 3.985 (Simulation time: 00 hr 04 min 35 sec)
Heartbeat CPU 0 instructions: 50000002 cycles: 12537121 heartbeat IPC: 4 cumulative IPC: 3.988 (Simulation time: 00 hr 05 min 33 sec)
Warmup finished CPU 0 instructions: 50000002 cycles: 12537122 cumulative IPC: 3.988 (Simulation time: 00 hr 05 min 33 sec)
Warmup complete CPU 0 instructions: 50000002 cycles: 12537122 cumulative IPC: 3.988 (Simulation time: 00 hr 05 min 33 sec)
Heartbeat CPU 0 instructions: 60000001 cycles: 15561875 heartbeat IPC: 3.306 cumulative IPC: 3.306 (Simulation time: 00 hr 06 min 42 sec)
Heartbeat CPU 0 instructions: 70000004 cycles: 18664866 heartbeat IPC: 3.223 cumulative IPC: 3.264 (Simulation time: 00 hr 07 min 54 sec)
Heartbeat CPU 0 instructions: 80000001 cycles: 21748366 heartbeat IPC: 3.243 cumulative IPC: 3.257 (Simulation time: 00 hr 09 min 05 sec)
Heartbeat CPU 0 instructions: 90000001 cycles: 24717743 heartbeat IPC: 3.368 cumulative IPC: 3.284 (Simulation time: 00 hr 10 min 14 sec)
Heartbeat CPU 0 instructions: 100000000 cycles: 27663483 heartbeat IPC: 3.395 cumulative IPC: 3.305 (Simulation time: 00 hr 11 min 23 sec)
Heartbeat CPU 0 instructions: 110000000 cycles: 30625366 heartbeat IPC: 3.376 cumulative IPC: 3.317 (Simulation time: 00 hr 12 min 32 sec)
Heartbeat CPU 0 instructions: 120000001 cycles: 33624961 heartbeat IPC: 3.334 cumulative IPC: 3.319 (Simulation time: 00 hr 13 min 41 sec)
Heartbeat CPU 0 instructions: 130000001 cycles: 36510399 heartbeat IPC: 3.466 cumulative IPC: 3.337 (Simulation time: 00 hr 14 min 51 sec)
Heartbeat CPU 0 instructions: 140000001 cycles: 39605999 heartbeat IPC: 3.23 cumulative IPC: 3.325 (Simulation time: 00 hr 16 min 01 sec)
Heartbeat CPU 0 instructions: 150000001 cycles: 42656749 heartbeat IPC: 3.278 cumulative IPC: 3.32 (Simulation time: 00 hr 17 min 11 sec)
Heartbeat CPU 0 instructions: 160000004 cycles: 45717393 heartbeat IPC: 3.267 cumulative IPC: 3.315 (Simulation time: 00 hr 18 min 21 sec)
Heartbeat CPU 0 instructions: 170000004 cycles: 53922516 heartbeat IPC: 1.219 cumulative IPC: 2.9 (Simulation time: 00 hr 20 min 22 sec)
Heartbeat CPU 0 instructions: 180000004 cycles: 62926358 heartbeat IPC: 1.111 cumulative IPC: 2.58 (Simulation time: 00 hr 22 min 33 sec)
Heartbeat CPU 0 instructions: 190000001 cycles: 71811027 heartbeat IPC: 1.126 cumulative IPC: 2.362 (Simulation time: 00 hr 24 min 42 sec)
Heartbeat CPU 0 instructions: 200000004 cycles: 74821565 heartbeat IPC: 3.322 cumulative IPC: 2.408 (Simulation time: 00 hr 25 min 51 sec)
Heartbeat CPU 0 instructions: 210000001 cycles: 77810747 heartbeat IPC: 3.345 cumulative IPC: 2.451 (Simulation time: 00 hr 27 min 02 sec)
Heartbeat CPU 0 instructions: 220000000 cycles: 80718282 heartbeat IPC: 3.439 cumulative IPC: 2.493 (Simulation time: 00 hr 28 min 10 sec)
Heartbeat CPU 0 instructions: 230000002 cycles: 83796476 heartbeat IPC: 3.249 cumulative IPC: 2.526 (Simulation time: 00 hr 29 min 21 sec)
Heartbeat CPU 0 instructions: 240000003 cycles: 86867759 heartbeat IPC: 3.256 cumulative IPC: 2.556 (Simulation time: 00 hr 30 min 33 sec)
Heartbeat CPU 0 instructions: 250000000 cycles: 89934184 heartbeat IPC: 3.261 cumulative IPC: 2.584 (Simulation time: 00 hr 31 min 44 sec)
Heartbeat CPU 0 instructions: 260000002 cycles: 92934491 heartbeat IPC: 3.333 cumulative IPC: 2.612 (Simulation time: 00 hr 32 min 54 sec)
Heartbeat CPU 0 instructions: 270000002 cycles: 95872649 heartbeat IPC: 3.403 cumulative IPC: 2.64 (Simulation time: 00 hr 34 min 03 sec)
Heartbeat CPU 0 instructions: 280000002 cycles: 98776101 heartbeat IPC: 3.444 cumulative IPC: 2.667 (Simulation time: 00 hr 35 min 11 sec)
Heartbeat CPU 0 instructions: 290000002 cycles: 101764544 heartbeat IPC: 3.346 cumulative IPC: 2.69 (Simulation time: 00 hr 36 min 21 sec)
Heartbeat CPU 0 instructions: 300000003 cycles: 104703512 heartbeat IPC: 3.403 cumulative IPC: 2.712 (Simulation time: 00 hr 37 min 31 sec)
Heartbeat CPU 0 instructions: 310000001 cycles: 107794315 heartbeat IPC: 3.235 cumulative IPC: 2.729 (Simulation time: 00 hr 38 min 41 sec)
Heartbeat CPU 0 instructions: 320000003 cycles: 110837955 heartbeat IPC: 3.286 cumulative IPC: 2.747 (Simulation time: 00 hr 39 min 51 sec)
Heartbeat CPU 0 instructions: 330000003 cycles: 113886527 heartbeat IPC: 3.28 cumulative IPC: 2.763 (Simulation time: 00 hr 41 min 02 sec)
Heartbeat CPU 0 instructions: 340000000 cycles: 122418713 heartbeat IPC: 1.172 cumulative IPC: 2.639 (Simulation time: 00 hr 43 min 06 sec)
Heartbeat CPU 0 instructions: 350000000 cycles: 131831451 heartbeat IPC: 1.062 cumulative IPC: 2.515 (Simulation time: 00 hr 45 min 21 sec)
Heartbeat CPU 0 instructions: 360000004 cycles: 140867320 heartbeat IPC: 1.107 cumulative IPC: 2.416 (Simulation time: 00 hr 47 min 30 sec)
Heartbeat CPU 0 instructions: 370000000 cycles: 143852843 heartbeat IPC: 3.349 cumulative IPC: 2.437 (Simulation time: 00 hr 48 min 40 sec)
Heartbeat CPU 0 instructions: 380000003 cycles: 146805702 heartbeat IPC: 3.387 cumulative IPC: 2.458 (Simulation time: 00 hr 49 min 49 sec)
Heartbeat CPU 0 instructions: 390000002 cycles: 149801104 heartbeat IPC: 3.338 cumulative IPC: 2.477 (Simulation time: 00 hr 50 min 58 sec)
Heartbeat CPU 0 instructions: 400000004 cycles: 152713834 heartbeat IPC: 3.433 cumulative IPC: 2.497 (Simulation time: 00 hr 52 min 07 sec)
Heartbeat CPU 0 instructions: 410000002 cycles: 155685960 heartbeat IPC: 3.365 cumulative IPC: 2.515 (Simulation time: 00 hr 53 min 16 sec)
Heartbeat CPU 0 instructions: 420000003 cycles: 158880452 heartbeat IPC: 3.13 cumulative IPC: 2.528 (Simulation time: 00 hr 54 min 26 sec)
Heartbeat CPU 0 instructions: 430000001 cycles: 161913256 heartbeat IPC: 3.297 cumulative IPC: 2.544 (Simulation time: 00 hr 55 min 36 sec)
Heartbeat CPU 0 instructions: 440000004 cycles: 165076956 heartbeat IPC: 3.161 cumulative IPC: 2.557 (Simulation time: 00 hr 56 min 47 sec)
Heartbeat CPU 0 instructions: 450000002 cycles: 168023110 heartbeat IPC: 3.394 cumulative IPC: 2.573 (Simulation time: 00 hr 57 min 56 sec)
Heartbeat CPU 0 instructions: 460000000 cycles: 170976216 heartbeat IPC: 3.386 cumulative IPC: 2.588 (Simulation time: 00 hr 59 min 04 sec)
Heartbeat CPU 0 instructions: 470000001 cycles: 173853536 heartbeat IPC: 3.475 cumulative IPC: 2.604 (Simulation time: 01 hr 00 min 12 sec)
Heartbeat CPU 0 instructions: 480000003 cycles: 176950061 heartbeat IPC: 3.229 cumulative IPC: 2.615 (Simulation time: 01 hr 01 min 22 sec)
Heartbeat CPU 0 instructions: 490000004 cycles: 179786129 heartbeat IPC: 3.526 cumulative IPC: 2.631 (Simulation time: 01 hr 02 min 30 sec)
Heartbeat CPU 0 instructions: 500000004 cycles: 182784060 heartbeat IPC: 3.336 cumulative IPC: 2.643 (Simulation time: 01 hr 03 min 38 sec)
Heartbeat CPU 0 instructions: 510000003 cycles: 185870173 heartbeat IPC: 3.24 cumulative IPC: 2.654 (Simulation time: 01 hr 04 min 49 sec)
Heartbeat CPU 0 instructions: 520000001 cycles: 188782316 heartbeat IPC: 3.434 cumulative IPC: 2.667 (Simulation time: 01 hr 05 min 59 sec)
Heartbeat CPU 0 instructions: 530000001 cycles: 191843228 heartbeat IPC: 3.267 cumulative IPC: 2.677 (Simulation time: 01 hr 07 min 09 sec)
Heartbeat CPU 0 instructions: 540000000 cycles: 194820110 heartbeat IPC: 3.359 cumulative IPC: 2.688 (Simulation time: 01 hr 08 min 20 sec)
Heartbeat CPU 0 instructions: 550000001 cycles: 197817319 heartbeat IPC: 3.336 cumulative IPC: 2.699 (Simulation time: 01 hr 09 min 29 sec)
Heartbeat CPU 0 instructions: 560000000 cycles: 200999246 heartbeat IPC: 3.143 cumulative IPC: 2.706 (Simulation time: 01 hr 10 min 40 sec)
Heartbeat CPU 0 instructions: 570000004 cycles: 206370804 heartbeat IPC: 1.862 cumulative IPC: 2.683 (Simulation time: 01 hr 12 min 13 sec)
Heartbeat CPU 0 instructions: 580000003 cycles: 216297767 heartbeat IPC: 1.007 cumulative IPC: 2.601 (Simulation time: 01 hr 14 min 33 sec)
Heartbeat CPU 0 instructions: 590000002 cycles: 227893701 heartbeat IPC: 0.8624 cumulative IPC: 2.507 (Simulation time: 01 hr 17 min 09 sec)
Heartbeat CPU 0 instructions: 600000004 cycles: 230981132 heartbeat IPC: 3.239 cumulative IPC: 2.518 (Simulation time: 01 hr 18 min 18 sec)
Heartbeat CPU 0 instructions: 610000002 cycles: 233967867 heartbeat IPC: 3.348 cumulative IPC: 2.529 (Simulation time: 01 hr 19 min 26 sec)
Heartbeat CPU 0 instructions: 620000001 cycles: 236758752 heartbeat IPC: 3.583 cumulative IPC: 2.542 (Simulation time: 01 hr 20 min 34 sec)
Heartbeat CPU 0 instructions: 630000002 cycles: 239753268 heartbeat IPC: 3.339 cumulative IPC: 2.553 (Simulation time: 01 hr 21 min 44 sec)
Heartbeat CPU 0 instructions: 640000004 cycles: 242708166 heartbeat IPC: 3.384 cumulative IPC: 2.563 (Simulation time: 01 hr 22 min 53 sec)
Heartbeat CPU 0 instructions: 650000000 cycles: 245465851 heartbeat IPC: 3.626 cumulative IPC: 2.576 (Simulation time: 01 hr 24 min 01 sec)
Simulation finished CPU 0 instructions: 600000001 cycles: 232928731 cumulative IPC: 2.576 (Simulation time: 01 hr 24 min 01 sec)
Simulation complete CPU 0 instructions: 600000001 cycles: 232928731 cumulative IPC: 2.576 (Simulation time: 01 hr 24 min 01 sec)

ChampSim completed all CPUs

=== Simulation ===
CPU 0 runs traces/400.perlbench-41B.champsimtrace.xz
Region of Interest Statistics

CPU 0 cumulative IPC: 2.576 instructions: 600000001 cycles: 232928731
CPU 0 Branch Prediction Accuracy: 99.19% MPKI: 1.684 Average ROB Occupancy at Mispredict: 102.3
Branch type MPKI
BRANCH_DIRECT_JUMP: 0.0123
BRANCH_INDIRECT: 0.323
BRANCH_CONDITIONAL: 1.14
BRANCH_DIRECT_CALL: 0.0043
BRANCH_INDIRECT_CALL: 0.2
BRANCH_RETURN: 0.00828

LLC TOTAL        ACCESS:     939856 HIT:     467427 MISS:     472429
LLC LOAD         ACCESS:     401834 HIT:     194909 MISS:     206925
LLC RFO          ACCESS:      32424 HIT:      15580 MISS:      16844
LLC PREFETCH     ACCESS:     401834 HIT:     186996 MISS:     214838
LLC WRITE        ACCESS:      84634 HIT:      69475 MISS:      15159
LLC TRANSLATION  ACCESS:      19130 HIT:        467 MISS:      18663
LLC PREFETCH REQUESTED:     401834 ISSUED:     401834 USEFUL:      81538 USELESS:      75099
LLC AVERAGE MISS LATENCY: 640.6 cycles
cpu0_DTLB TOTAL        ACCESS:  129760664 HIT:  129055562 MISS:     705102
cpu0_DTLB LOAD         ACCESS:  129760664 HIT:  129055562 MISS:     705102
cpu0_DTLB RFO          ACCESS:          0 HIT:          0 MISS:          0
cpu0_DTLB PREFETCH     ACCESS:          0 HIT:          0 MISS:          0
cpu0_DTLB WRITE        ACCESS:          0 HIT:          0 MISS:          0
cpu0_DTLB TRANSLATION  ACCESS:          0 HIT:          0 MISS:          0
cpu0_DTLB PREFETCH REQUESTED:          0 ISSUED:          0 USEFUL:          0 USELESS:          0
cpu0_DTLB AVERAGE MISS LATENCY: 25.88 cycles
cpu0_ITLB TOTAL        ACCESS:    4870025 HIT:    4807830 MISS:      62195
cpu0_ITLB LOAD         ACCESS:    4870025 HIT:    4807830 MISS:      62195
cpu0_ITLB RFO          ACCESS:          0 HIT:          0 MISS:          0
cpu0_ITLB PREFETCH     ACCESS:          0 HIT:          0 MISS:          0
cpu0_ITLB WRITE        ACCESS:          0 HIT:          0 MISS:          0
cpu0_ITLB TRANSLATION  ACCESS:          0 HIT:          0 MISS:          0
cpu0_ITLB PREFETCH REQUESTED:          0 ISSUED:          0 USEFUL:          0 USELESS:          0
cpu0_ITLB AVERAGE MISS LATENCY: 8.281 cycles
cpu0_L1D TOTAL        ACCESS:  174350034 HIT:  172539195 MISS:    1810839
cpu0_L1D LOAD         ACCESS:   91329130 HIT:   89917774 MISS:    1411356
cpu0_L1D RFO          ACCESS:          0 HIT:          0 MISS:          0
cpu0_L1D PREFETCH     ACCESS:          0 HIT:          0 MISS:          0
cpu0_L1D WRITE        ACCESS:   82996438 HIT:   82620363 MISS:     376075
cpu0_L1D TRANSLATION  ACCESS:      24466 HIT:       1058 MISS:      23408
cpu0_L1D PREFETCH REQUESTED:          0 ISSUED:          0 USEFUL:          0 USELESS:          0
cpu0_L1D AVERAGE MISS LATENCY: 98.8 cycles
cpu0_L1I TOTAL        ACCESS:    5649753 HIT:    4845796 MISS:     803957
cpu0_L1I LOAD         ACCESS:    5649753 HIT:    4845796 MISS:     803957
cpu0_L1I RFO          ACCESS:          0 HIT:          0 MISS:          0
cpu0_L1I PREFETCH     ACCESS:          0 HIT:          0 MISS:          0
cpu0_L1I WRITE        ACCESS:          0 HIT:          0 MISS:          0
cpu0_L1I TRANSLATION  ACCESS:          0 HIT:          0 MISS:          0
cpu0_L1I PREFETCH REQUESTED:          0 ISSUED:          0 USEFUL:          0 USELESS:          0
cpu0_L1I AVERAGE MISS LATENCY: 13.53 cycles
cpu0_L2C TOTAL        ACCESS:    1667821 HIT:    1212608 MISS:     455213
cpu0_L2C LOAD         ACCESS:    1315172 HIT:     913338 MISS:     401834
cpu0_L2C RFO          ACCESS:      89644 HIT:      57220 MISS:      32424
cpu0_L2C PREFETCH     ACCESS:          0 HIT:          0 MISS:          0
cpu0_L2C WRITE        ACCESS:     239688 HIT:     237863 MISS:       1825
cpu0_L2C TRANSLATION  ACCESS:      23317 HIT:       4187 MISS:      19130
cpu0_L2C PREFETCH REQUESTED:          0 ISSUED:          0 USEFUL:          0 USELESS:          0
cpu0_L2C AVERAGE MISS LATENCY: 412.9 cycles
cpu0_STLB TOTAL        ACCESS:     508756 HIT:     485971 MISS:      22785
cpu0_STLB LOAD         ACCESS:     508756 HIT:     485971 MISS:      22785
cpu0_STLB RFO          ACCESS:          0 HIT:          0 MISS:          0
cpu0_STLB PREFETCH     ACCESS:          0 HIT:          0 MISS:          0
cpu0_STLB WRITE        ACCESS:          0 HIT:          0 MISS:          0
cpu0_STLB TRANSLATION  ACCESS:          0 HIT:          0 MISS:          0
cpu0_STLB PREFETCH REQUESTED:          0 ISSUED:          0 USEFUL:          0 USELESS:          0
cpu0_STLB AVERAGE MISS LATENCY: 724.4 cycles

DRAM Statistics

Channel 0 RQ ROW_BUFFER_HIT:      69734
  ROW_BUFFER_MISS:     307532
 AVG DBUS CONGESTED CYCLE: 3.902
WQ ROW_BUFFER_HIT: Channel 0 
  ROW_BUFFER_MISS:       4758
  FULL:      43543
Final OPTGen Hits: 8506
Final OPTGen Access: 9382
Final OPTGEN Hit Rate: 90.663
