WARNING: physical memory size is smaller than virtual memory size.

*** ChampSim Multicore Out-of-Order Simulator ***
Warmup Instructions: 50000000
Simulation Instructions: 600000000
Number of CPUs: 1
Page size: 4096

CPU 0 Tage branch predictor
Off-chip DRAM Size: 4 GiB Channels: 1 Width: 64-bit Data Race: 3200 MT/s
Heartbeat CPU 0 instructions: 10000000 cycles: 2500061 heartbeat IPC: 4 cumulative IPC: 4 (Simulation time: 00 hr 00 min 52 sec)
Heartbeat CPU 0 instructions: 20000000 cycles: 5000061 heartbeat IPC: 4 cumulative IPC: 4 (Simulation time: 00 hr 01 min 54 sec)
Heartbeat CPU 0 instructions: 30000000 cycles: 7500061 heartbeat IPC: 4 cumulative IPC: 4 (Simulation time: 00 hr 02 min 54 sec)
Heartbeat CPU 0 instructions: 40000000 cycles: 10000061 heartbeat IPC: 4 cumulative IPC: 4 (Simulation time: 00 hr 03 min 58 sec)
Heartbeat CPU 0 instructions: 50000000 cycles: 12500061 heartbeat IPC: 4 cumulative IPC: 4 (Simulation time: 00 hr 04 min 52 sec)
Warmup finished CPU 0 instructions: 50000000 cycles: 12500062 cumulative IPC: 4 (Simulation time: 00 hr 04 min 52 sec)
Warmup complete CPU 0 instructions: 50000000 cycles: 12500062 cumulative IPC: 4 (Simulation time: 00 hr 04 min 52 sec)
Heartbeat CPU 0 instructions: 60000004 cycles: 15504574 heartbeat IPC: 3.328 cumulative IPC: 3.328 (Simulation time: 00 hr 05 min 55 sec)
Heartbeat CPU 0 instructions: 70000003 cycles: 18375027 heartbeat IPC: 3.484 cumulative IPC: 3.404 (Simulation time: 00 hr 06 min 57 sec)
Heartbeat CPU 0 instructions: 80000002 cycles: 21385455 heartbeat IPC: 3.322 cumulative IPC: 3.376 (Simulation time: 00 hr 08 min 01 sec)
Heartbeat CPU 0 instructions: 90000000 cycles: 24106445 heartbeat IPC: 3.675 cumulative IPC: 3.446 (Simulation time: 00 hr 09 min 13 sec)
Heartbeat CPU 0 instructions: 100000003 cycles: 26861573 heartbeat IPC: 3.63 cumulative IPC: 3.482 (Simulation time: 00 hr 10 min 15 sec)
Heartbeat CPU 0 instructions: 110000001 cycles: 29760716 heartbeat IPC: 3.449 cumulative IPC: 3.476 (Simulation time: 00 hr 11 min 17 sec)
Heartbeat CPU 0 instructions: 120000001 cycles: 32476957 heartbeat IPC: 3.682 cumulative IPC: 3.504 (Simulation time: 00 hr 12 min 19 sec)
Heartbeat CPU 0 instructions: 130000003 cycles: 35373828 heartbeat IPC: 3.452 cumulative IPC: 3.497 (Simulation time: 00 hr 13 min 21 sec)
Heartbeat CPU 0 instructions: 140000002 cycles: 38209923 heartbeat IPC: 3.526 cumulative IPC: 3.501 (Simulation time: 00 hr 14 min 23 sec)
Heartbeat CPU 0 instructions: 150000001 cycles: 40979169 heartbeat IPC: 3.611 cumulative IPC: 3.511 (Simulation time: 00 hr 15 min 24 sec)
Heartbeat CPU 0 instructions: 160000000 cycles: 43896422 heartbeat IPC: 3.428 cumulative IPC: 3.504 (Simulation time: 00 hr 16 min 29 sec)
Heartbeat CPU 0 instructions: 170000001 cycles: 46819705 heartbeat IPC: 3.421 cumulative IPC: 3.497 (Simulation time: 00 hr 17 min 32 sec)
Heartbeat CPU 0 instructions: 180000000 cycles: 49612091 heartbeat IPC: 3.581 cumulative IPC: 3.503 (Simulation time: 00 hr 18 min 34 sec)
Heartbeat CPU 0 instructions: 190000002 cycles: 52318430 heartbeat IPC: 3.695 cumulative IPC: 3.516 (Simulation time: 00 hr 19 min 38 sec)
Heartbeat CPU 0 instructions: 200000002 cycles: 55141199 heartbeat IPC: 3.543 cumulative IPC: 3.518 (Simulation time: 00 hr 20 min 42 sec)
Heartbeat CPU 0 instructions: 210000000 cycles: 58032005 heartbeat IPC: 3.459 cumulative IPC: 3.514 (Simulation time: 00 hr 21 min 45 sec)
Heartbeat CPU 0 instructions: 220000001 cycles: 60781743 heartbeat IPC: 3.637 cumulative IPC: 3.521 (Simulation time: 00 hr 22 min 46 sec)
Heartbeat CPU 0 instructions: 230000002 cycles: 63669230 heartbeat IPC: 3.463 cumulative IPC: 3.518 (Simulation time: 00 hr 23 min 48 sec)
Heartbeat CPU 0 instructions: 240000004 cycles: 66619841 heartbeat IPC: 3.389 cumulative IPC: 3.511 (Simulation time: 00 hr 24 min 51 sec)
Heartbeat CPU 0 instructions: 250000003 cycles: 69510981 heartbeat IPC: 3.459 cumulative IPC: 3.508 (Simulation time: 00 hr 25 min 53 sec)
Heartbeat CPU 0 instructions: 260000001 cycles: 72295852 heartbeat IPC: 3.591 cumulative IPC: 3.512 (Simulation time: 00 hr 26 min 54 sec)
Heartbeat CPU 0 instructions: 270000002 cycles: 78135027 heartbeat IPC: 1.713 cumulative IPC: 3.352 (Simulation time: 00 hr 28 min 22 sec)
Heartbeat CPU 0 instructions: 280000000 cycles: 88177023 heartbeat IPC: 0.9958 cumulative IPC: 3.039 (Simulation time: 00 hr 30 min 27 sec)
Heartbeat CPU 0 instructions: 290000000 cycles: 96890505 heartbeat IPC: 1.148 cumulative IPC: 2.844 (Simulation time: 00 hr 32 min 22 sec)
Heartbeat CPU 0 instructions: 300000003 cycles: 102459776 heartbeat IPC: 1.796 cumulative IPC: 2.779 (Simulation time: 00 hr 33 min 53 sec)
Heartbeat CPU 0 instructions: 310000001 cycles: 111279332 heartbeat IPC: 1.134 cumulative IPC: 2.632 (Simulation time: 00 hr 35 min 53 sec)
Heartbeat CPU 0 instructions: 320000004 cycles: 115175977 heartbeat IPC: 2.566 cumulative IPC: 2.63 (Simulation time: 00 hr 37 min 06 sec)
Heartbeat CPU 0 instructions: 330000000 cycles: 118309343 heartbeat IPC: 3.191 cumulative IPC: 2.646 (Simulation time: 00 hr 38 min 11 sec)
Heartbeat CPU 0 instructions: 340000001 cycles: 121449883 heartbeat IPC: 3.184 cumulative IPC: 2.662 (Simulation time: 00 hr 39 min 17 sec)
Heartbeat CPU 0 instructions: 350000000 cycles: 124817281 heartbeat IPC: 2.97 cumulative IPC: 2.671 (Simulation time: 00 hr 40 min 25 sec)
Heartbeat CPU 0 instructions: 360000004 cycles: 127975752 heartbeat IPC: 3.166 cumulative IPC: 2.685 (Simulation time: 00 hr 41 min 31 sec)
Heartbeat CPU 0 instructions: 370000001 cycles: 131064411 heartbeat IPC: 3.238 cumulative IPC: 2.699 (Simulation time: 00 hr 42 min 39 sec)
Heartbeat CPU 0 instructions: 380000004 cycles: 134172361 heartbeat IPC: 3.218 cumulative IPC: 2.712 (Simulation time: 00 hr 43 min 45 sec)
Heartbeat CPU 0 instructions: 390000002 cycles: 137468590 heartbeat IPC: 3.034 cumulative IPC: 2.721 (Simulation time: 00 hr 44 min 51 sec)
Heartbeat CPU 0 instructions: 400000000 cycles: 140805318 heartbeat IPC: 2.997 cumulative IPC: 2.728 (Simulation time: 00 hr 45 min 59 sec)
Heartbeat CPU 0 instructions: 410000000 cycles: 147481970 heartbeat IPC: 1.498 cumulative IPC: 2.667 (Simulation time: 00 hr 47 min 35 sec)
Heartbeat CPU 0 instructions: 420000003 cycles: 157239301 heartbeat IPC: 1.025 cumulative IPC: 2.556 (Simulation time: 00 hr 49 min 40 sec)
Heartbeat CPU 0 instructions: 430000000 cycles: 163040425 heartbeat IPC: 1.724 cumulative IPC: 2.524 (Simulation time: 00 hr 51 min 13 sec)
Heartbeat CPU 0 instructions: 440000004 cycles: 168567684 heartbeat IPC: 1.809 cumulative IPC: 2.499 (Simulation time: 00 hr 52 min 43 sec)
Heartbeat CPU 0 instructions: 450000001 cycles: 173746544 heartbeat IPC: 1.931 cumulative IPC: 2.481 (Simulation time: 00 hr 54 min 12 sec)
Heartbeat CPU 0 instructions: 460000002 cycles: 183261530 heartbeat IPC: 1.051 cumulative IPC: 2.401 (Simulation time: 00 hr 56 min 18 sec)
Heartbeat CPU 0 instructions: 470000003 cycles: 191209599 heartbeat IPC: 1.258 cumulative IPC: 2.35 (Simulation time: 00 hr 58 min 10 sec)
Heartbeat CPU 0 instructions: 480000000 cycles: 194576347 heartbeat IPC: 2.97 cumulative IPC: 2.362 (Simulation time: 00 hr 59 min 17 sec)
Heartbeat CPU 0 instructions: 490000001 cycles: 198157559 heartbeat IPC: 2.792 cumulative IPC: 2.37 (Simulation time: 01 hr 00 min 28 sec)
Heartbeat CPU 0 instructions: 500000002 cycles: 201658565 heartbeat IPC: 2.856 cumulative IPC: 2.379 (Simulation time: 01 hr 01 min 37 sec)
Heartbeat CPU 0 instructions: 510000000 cycles: 205118231 heartbeat IPC: 2.89 cumulative IPC: 2.388 (Simulation time: 01 hr 02 min 46 sec)
Heartbeat CPU 0 instructions: 520000000 cycles: 208589330 heartbeat IPC: 2.881 cumulative IPC: 2.397 (Simulation time: 01 hr 03 min 55 sec)
Heartbeat CPU 0 instructions: 530000001 cycles: 218662628 heartbeat IPC: 0.9927 cumulative IPC: 2.328 (Simulation time: 01 hr 06 min 07 sec)
Heartbeat CPU 0 instructions: 540000000 cycles: 228303934 heartbeat IPC: 1.037 cumulative IPC: 2.271 (Simulation time: 01 hr 08 min 13 sec)
Heartbeat CPU 0 instructions: 550000004 cycles: 239286228 heartbeat IPC: 0.9106 cumulative IPC: 2.205 (Simulation time: 01 hr 10 min 30 sec)
Heartbeat CPU 0 instructions: 560000004 cycles: 243019572 heartbeat IPC: 2.679 cumulative IPC: 2.212 (Simulation time: 01 hr 11 min 40 sec)
Heartbeat CPU 0 instructions: 570000002 cycles: 245840018 heartbeat IPC: 3.546 cumulative IPC: 2.229 (Simulation time: 01 hr 12 min 43 sec)
Heartbeat CPU 0 instructions: 580000000 cycles: 248766081 heartbeat IPC: 3.418 cumulative IPC: 2.243 (Simulation time: 01 hr 13 min 46 sec)
Heartbeat CPU 0 instructions: 590000001 cycles: 251692666 heartbeat IPC: 3.417 cumulative IPC: 2.258 (Simulation time: 01 hr 14 min 49 sec)
Heartbeat CPU 0 instructions: 600000003 cycles: 254383331 heartbeat IPC: 3.717 cumulative IPC: 2.274 (Simulation time: 01 hr 15 min 51 sec)
Heartbeat CPU 0 instructions: 610000001 cycles: 257248753 heartbeat IPC: 3.49 cumulative IPC: 2.288 (Simulation time: 01 hr 16 min 54 sec)
Heartbeat CPU 0 instructions: 620000004 cycles: 260203451 heartbeat IPC: 3.384 cumulative IPC: 2.301 (Simulation time: 01 hr 17 min 57 sec)
Heartbeat CPU 0 instructions: 630000002 cycles: 263008827 heartbeat IPC: 3.565 cumulative IPC: 2.315 (Simulation time: 01 hr 19 min 00 sec)
Heartbeat CPU 0 instructions: 640000004 cycles: 266035597 heartbeat IPC: 3.304 cumulative IPC: 2.327 (Simulation time: 01 hr 20 min 05 sec)
Heartbeat CPU 0 instructions: 650000001 cycles: 268740225 heartbeat IPC: 3.697 cumulative IPC: 2.342 (Simulation time: 01 hr 20 min 59 sec)
Simulation finished CPU 0 instructions: 600000001 cycles: 256240164 cumulative IPC: 2.342 (Simulation time: 01 hr 20 min 59 sec)
Simulation complete CPU 0 instructions: 600000001 cycles: 256240164 cumulative IPC: 2.342 (Simulation time: 01 hr 20 min 59 sec)

ChampSim completed all CPUs

=== Simulation ===
CPU 0 runs traces/400.perlbench-50B.champsimtrace.xz
Region of Interest Statistics

CPU 0 cumulative IPC: 2.342 instructions: 600000001 cycles: 256240164
CPU 0 Branch Prediction Accuracy: 99.01% MPKI: 2.04 Average ROB Occupancy at Mispredict: 95.49
Branch type MPKI
BRANCH_DIRECT_JUMP: 0.0176
BRANCH_INDIRECT: 0.38
BRANCH_CONDITIONAL: 1.19
BRANCH_DIRECT_CALL: 0.0067
BRANCH_INDIRECT_CALL: 0.431
BRANCH_RETURN: 0.0161

LLC TOTAL        ACCESS:     848403 HIT:     491532 MISS:     356871
LLC LOAD         ACCESS:     585816 HIT:     302644 MISS:     283172
LLC RFO          ACCESS:      47574 HIT:      25099 MISS:      22475
LLC PREFETCH     ACCESS:      65232 HIT:      35099 MISS:      30133
LLC WRITE        ACCESS:     127829 HIT:     120172 MISS:       7657
LLC TRANSLATION  ACCESS:      21952 HIT:       8518 MISS:      13434
LLC PREFETCH REQUESTED:      65232 ISSUED:      65232 USEFUL:      18562 USELESS:       7134
LLC AVERAGE MISS LATENCY: 608.6 cycles
cpu0_DTLB TOTAL        ACCESS:  133219765 HIT:  131865063 MISS:    1354702
cpu0_DTLB LOAD         ACCESS:  133219765 HIT:  131865063 MISS:    1354702
cpu0_DTLB RFO          ACCESS:          0 HIT:          0 MISS:          0
cpu0_DTLB PREFETCH     ACCESS:          0 HIT:          0 MISS:          0
cpu0_DTLB WRITE        ACCESS:          0 HIT:          0 MISS:          0
cpu0_DTLB TRANSLATION  ACCESS:          0 HIT:          0 MISS:          0
cpu0_DTLB PREFETCH REQUESTED:          0 ISSUED:          0 USEFUL:          0 USELESS:          0
cpu0_DTLB AVERAGE MISS LATENCY: 12.81 cycles
cpu0_ITLB TOTAL        ACCESS:    9001340 HIT:    8792060 MISS:     209280
cpu0_ITLB LOAD         ACCESS:    9001340 HIT:    8792060 MISS:     209280
cpu0_ITLB RFO          ACCESS:          0 HIT:          0 MISS:          0
cpu0_ITLB PREFETCH     ACCESS:          0 HIT:          0 MISS:          0
cpu0_ITLB WRITE        ACCESS:          0 HIT:          0 MISS:          0
cpu0_ITLB TRANSLATION  ACCESS:          0 HIT:          0 MISS:          0
cpu0_ITLB PREFETCH REQUESTED:          0 ISSUED:          0 USEFUL:          0 USELESS:          0
cpu0_ITLB AVERAGE MISS LATENCY: 2.989 cycles
cpu0_L1D TOTAL        ACCESS:  178238849 HIT:  174440872 MISS:    3797977
cpu0_L1D LOAD         ACCESS:   92719922 HIT:   89606002 MISS:    3113920
cpu0_L1D RFO          ACCESS:          0 HIT:          0 MISS:          0
cpu0_L1D PREFETCH     ACCESS:          0 HIT:          0 MISS:          0
cpu0_L1D WRITE        ACCESS:   85490405 HIT:   84833456 MISS:     656949
cpu0_L1D TRANSLATION  ACCESS:      28522 HIT:       1414 MISS:      27108
cpu0_L1D PREFETCH REQUESTED:          0 ISSUED:          0 USEFUL:          0 USELESS:          0
cpu0_L1D AVERAGE MISS LATENCY: 53.64 cycles
cpu0_L1I TOTAL        ACCESS:   10520085 HIT:    8622477 MISS:    1897608
cpu0_L1I LOAD         ACCESS:   10520085 HIT:    8622477 MISS:    1897608
cpu0_L1I RFO          ACCESS:          0 HIT:          0 MISS:          0
cpu0_L1I PREFETCH     ACCESS:          0 HIT:          0 MISS:          0
cpu0_L1I WRITE        ACCESS:          0 HIT:          0 MISS:          0
cpu0_L1I TRANSLATION  ACCESS:          0 HIT:          0 MISS:          0
cpu0_L1I PREFETCH REQUESTED:          0 ISSUED:          0 USEFUL:          0 USELESS:          0
cpu0_L1I AVERAGE MISS LATENCY: 13.6 cycles
cpu0_L2C TOTAL        ACCESS:    3840375 HIT:    3181522 MISS:     658853
cpu0_L2C LOAD         ACCESS:    3103770 HIT:    2517954 MISS:     585816
cpu0_L2C RFO          ACCESS:     194892 HIT:     147318 MISS:      47574
cpu0_L2C PREFETCH     ACCESS:          0 HIT:          0 MISS:          0
cpu0_L2C WRITE        ACCESS:     514684 HIT:     511173 MISS:       3511
cpu0_L2C TRANSLATION  ACCESS:      27029 HIT:       5077 MISS:      21952
cpu0_L2C PREFETCH REQUESTED:          0 ISSUED:          0 USEFUL:          0 USELESS:          0
cpu0_L2C AVERAGE MISS LATENCY: 320.6 cycles
cpu0_STLB TOTAL        ACCESS:    1010062 HIT:     983373 MISS:      26689
cpu0_STLB LOAD         ACCESS:    1010062 HIT:     983373 MISS:      26689
cpu0_STLB RFO          ACCESS:          0 HIT:          0 MISS:          0
cpu0_STLB PREFETCH     ACCESS:          0 HIT:          0 MISS:          0
cpu0_STLB WRITE        ACCESS:          0 HIT:          0 MISS:          0
cpu0_STLB TRANSLATION  ACCESS:          0 HIT:          0 MISS:          0
cpu0_STLB PREFETCH REQUESTED:          0 ISSUED:          0 USEFUL:          0 USELESS:          0
cpu0_STLB AVERAGE MISS LATENCY: 452 cycles

DRAM Statistics

Channel 0 RQ ROW_BUFFER_HIT:      64265
  ROW_BUFFER_MISS:     278586
 AVG DBUS CONGESTED CYCLE: 3.855
WQ ROW_BUFFER_HIT: Channel 0 
  ROW_BUFFER_MISS:       6682
  FULL:      50332
