WARNING: physical memory size is smaller than virtual memory size.

*** ChampSim Multicore Out-of-Order Simulator ***
Warmup Instructions: 50000000
Simulation Instructions: 600000000
Number of CPUs: 1
Page size: 4096

Off-chip DRAM Size: 4 GiB Channels: 1 Width: 64-bit Data Race: 3200 MT/s
Heartbeat CPU 0 instructions: 10000000 cycles: 2500061 heartbeat IPC: 4 cumulative IPC: 4 (Simulation time: 00 hr 00 min 36 sec)
Heartbeat CPU 0 instructions: 20000000 cycles: 5000061 heartbeat IPC: 4 cumulative IPC: 4 (Simulation time: 00 hr 01 min 10 sec)
Heartbeat CPU 0 instructions: 30000000 cycles: 7500061 heartbeat IPC: 4 cumulative IPC: 4 (Simulation time: 00 hr 01 min 43 sec)
Heartbeat CPU 0 instructions: 40000000 cycles: 10000061 heartbeat IPC: 4 cumulative IPC: 4 (Simulation time: 00 hr 02 min 17 sec)
Heartbeat CPU 0 instructions: 50000000 cycles: 12500061 heartbeat IPC: 4 cumulative IPC: 4 (Simulation time: 00 hr 02 min 53 sec)
Warmup finished CPU 0 instructions: 50000000 cycles: 12500062 cumulative IPC: 4 (Simulation time: 00 hr 02 min 53 sec)
Warmup complete CPU 0 instructions: 50000000 cycles: 12500062 cumulative IPC: 4 (Simulation time: 00 hr 02 min 53 sec)
Heartbeat CPU 0 instructions: 60000002 cycles: 16444688 heartbeat IPC: 2.535 cumulative IPC: 2.535 (Simulation time: 00 hr 03 min 41 sec)
Heartbeat CPU 0 instructions: 70000003 cycles: 20760893 heartbeat IPC: 2.317 cumulative IPC: 2.421 (Simulation time: 00 hr 04 min 31 sec)
Heartbeat CPU 0 instructions: 80000003 cycles: 25229157 heartbeat IPC: 2.238 cumulative IPC: 2.357 (Simulation time: 00 hr 05 min 22 sec)
Heartbeat CPU 0 instructions: 90000000 cycles: 28920814 heartbeat IPC: 2.709 cumulative IPC: 2.436 (Simulation time: 00 hr 06 min 08 sec)
Heartbeat CPU 0 instructions: 100000003 cycles: 32818788 heartbeat IPC: 2.565 cumulative IPC: 2.461 (Simulation time: 00 hr 06 min 56 sec)
Heartbeat CPU 0 instructions: 110000002 cycles: 36920325 heartbeat IPC: 2.438 cumulative IPC: 2.457 (Simulation time: 00 hr 07 min 44 sec)
Heartbeat CPU 0 instructions: 120000001 cycles: 40635683 heartbeat IPC: 2.692 cumulative IPC: 2.488 (Simulation time: 00 hr 08 min 30 sec)
Heartbeat CPU 0 instructions: 130000003 cycles: 44404658 heartbeat IPC: 2.653 cumulative IPC: 2.507 (Simulation time: 00 hr 09 min 14 sec)
Heartbeat CPU 0 instructions: 140000002 cycles: 48538024 heartbeat IPC: 2.419 cumulative IPC: 2.497 (Simulation time: 00 hr 09 min 58 sec)
Heartbeat CPU 0 instructions: 150000001 cycles: 52589949 heartbeat IPC: 2.468 cumulative IPC: 2.494 (Simulation time: 00 hr 10 min 46 sec)
Heartbeat CPU 0 instructions: 160000000 cycles: 56247531 heartbeat IPC: 2.734 cumulative IPC: 2.514 (Simulation time: 00 hr 11 min 30 sec)
Heartbeat CPU 0 instructions: 170000001 cycles: 60421737 heartbeat IPC: 2.396 cumulative IPC: 2.504 (Simulation time: 00 hr 12 min 16 sec)
Heartbeat CPU 0 instructions: 180000001 cycles: 63882371 heartbeat IPC: 2.89 cumulative IPC: 2.53 (Simulation time: 00 hr 13 min 01 sec)
Heartbeat CPU 0 instructions: 190000002 cycles: 67465761 heartbeat IPC: 2.791 cumulative IPC: 2.547 (Simulation time: 00 hr 13 min 45 sec)
Heartbeat CPU 0 instructions: 200000002 cycles: 71249566 heartbeat IPC: 2.643 cumulative IPC: 2.553 (Simulation time: 00 hr 14 min 31 sec)
Heartbeat CPU 0 instructions: 210000000 cycles: 74888484 heartbeat IPC: 2.748 cumulative IPC: 2.565 (Simulation time: 00 hr 15 min 15 sec)
Heartbeat CPU 0 instructions: 220000001 cycles: 78756189 heartbeat IPC: 2.586 cumulative IPC: 2.566 (Simulation time: 00 hr 16 min 00 sec)
Heartbeat CPU 0 instructions: 230000002 cycles: 82597402 heartbeat IPC: 2.603 cumulative IPC: 2.568 (Simulation time: 00 hr 16 min 45 sec)
Heartbeat CPU 0 instructions: 240000001 cycles: 86805223 heartbeat IPC: 2.377 cumulative IPC: 2.557 (Simulation time: 00 hr 17 min 32 sec)
Heartbeat CPU 0 instructions: 250000003 cycles: 91371345 heartbeat IPC: 2.19 cumulative IPC: 2.536 (Simulation time: 00 hr 18 min 21 sec)
Heartbeat CPU 0 instructions: 260000000 cycles: 95166403 heartbeat IPC: 2.635 cumulative IPC: 2.54 (Simulation time: 00 hr 19 min 06 sec)
Heartbeat CPU 0 instructions: 270000003 cycles: 102384968 heartbeat IPC: 1.385 cumulative IPC: 2.448 (Simulation time: 00 hr 20 min 11 sec)
Heartbeat CPU 0 instructions: 280000000 cycles: 113899064 heartbeat IPC: 0.8685 cumulative IPC: 2.268 (Simulation time: 00 hr 21 min 42 sec)
Heartbeat CPU 0 instructions: 290000000 cycles: 124152657 heartbeat IPC: 0.9753 cumulative IPC: 2.15 (Simulation time: 00 hr 23 min 03 sec)
Heartbeat CPU 0 instructions: 300000003 cycles: 131656505 heartbeat IPC: 1.333 cumulative IPC: 2.098 (Simulation time: 00 hr 24 min 12 sec)
Heartbeat CPU 0 instructions: 310000004 cycles: 142703332 heartbeat IPC: 0.9052 cumulative IPC: 1.997 (Simulation time: 00 hr 25 min 37 sec)
Heartbeat CPU 0 instructions: 320000004 cycles: 147804281 heartbeat IPC: 1.96 cumulative IPC: 1.996 (Simulation time: 00 hr 26 min 29 sec)
Heartbeat CPU 0 instructions: 330000000 cycles: 151880359 heartbeat IPC: 2.453 cumulative IPC: 2.009 (Simulation time: 00 hr 27 min 15 sec)
Heartbeat CPU 0 instructions: 340000001 cycles: 156222255 heartbeat IPC: 2.303 cumulative IPC: 2.018 (Simulation time: 00 hr 28 min 40 sec)
Heartbeat CPU 0 instructions: 350000004 cycles: 160691987 heartbeat IPC: 2.237 cumulative IPC: 2.024 (Simulation time: 00 hr 30 min 14 sec)
Heartbeat CPU 0 instructions: 360000003 cycles: 164864227 heartbeat IPC: 2.397 cumulative IPC: 2.035 (Simulation time: 00 hr 31 min 45 sec)
Heartbeat CPU 0 instructions: 370000001 cycles: 168926008 heartbeat IPC: 2.462 cumulative IPC: 2.046 (Simulation time: 00 hr 33 min 17 sec)
Heartbeat CPU 0 instructions: 380000004 cycles: 172844882 heartbeat IPC: 2.552 cumulative IPC: 2.058 (Simulation time: 00 hr 34 min 50 sec)
Heartbeat CPU 0 instructions: 390000002 cycles: 176944776 heartbeat IPC: 2.439 cumulative IPC: 2.068 (Simulation time: 00 hr 36 min 17 sec)
Heartbeat CPU 0 instructions: 400000000 cycles: 181336940 heartbeat IPC: 2.277 cumulative IPC: 2.073 (Simulation time: 00 hr 37 min 48 sec)
Heartbeat CPU 0 instructions: 410000000 cycles: 189356278 heartbeat IPC: 1.247 cumulative IPC: 2.036 (Simulation time: 00 hr 40 min 08 sec)
Heartbeat CPU 0 instructions: 420000003 cycles: 200823803 heartbeat IPC: 0.872 cumulative IPC: 1.965 (Simulation time: 00 hr 43 min 04 sec)
Heartbeat CPU 0 instructions: 430000000 cycles: 208813150 heartbeat IPC: 1.252 cumulative IPC: 1.936 (Simulation time: 00 hr 45 min 16 sec)
Heartbeat CPU 0 instructions: 440000004 cycles: 215650497 heartbeat IPC: 1.463 cumulative IPC: 1.92 (Simulation time: 00 hr 47 min 14 sec)
Heartbeat CPU 0 instructions: 450000001 cycles: 222528581 heartbeat IPC: 1.454 cumulative IPC: 1.905 (Simulation time: 00 hr 49 min 11 sec)
Heartbeat CPU 0 instructions: 460000002 cycles: 233460073 heartbeat IPC: 0.9148 cumulative IPC: 1.856 (Simulation time: 00 hr 51 min 59 sec)
Heartbeat CPU 0 instructions: 470000003 cycles: 243089138 heartbeat IPC: 1.039 cumulative IPC: 1.821 (Simulation time: 00 hr 54 min 26 sec)
Heartbeat CPU 0 instructions: 480000003 cycles: 247385564 heartbeat IPC: 2.328 cumulative IPC: 1.831 (Simulation time: 00 hr 56 min 02 sec)
Heartbeat CPU 0 instructions: 490000001 cycles: 252131041 heartbeat IPC: 2.107 cumulative IPC: 1.836 (Simulation time: 00 hr 57 min 44 sec)
Heartbeat CPU 0 instructions: 500000002 cycles: 256606874 heartbeat IPC: 2.234 cumulative IPC: 1.843 (Simulation time: 00 hr 59 min 23 sec)
Heartbeat CPU 0 instructions: 510000000 cycles: 260896205 heartbeat IPC: 2.331 cumulative IPC: 1.852 (Simulation time: 01 hr 01 min 00 sec)
Heartbeat CPU 0 instructions: 520000000 cycles: 265363022 heartbeat IPC: 2.239 cumulative IPC: 1.859 (Simulation time: 01 hr 02 min 34 sec)
Heartbeat CPU 0 instructions: 530000001 cycles: 277436362 heartbeat IPC: 0.8283 cumulative IPC: 1.812 (Simulation time: 01 hr 06 min 08 sec)
Heartbeat CPU 0 instructions: 540000000 cycles: 289060851 heartbeat IPC: 0.8603 cumulative IPC: 1.772 (Simulation time: 01 hr 09 min 58 sec)
Heartbeat CPU 0 instructions: 550000004 cycles: 301772978 heartbeat IPC: 0.7867 cumulative IPC: 1.728 (Simulation time: 01 hr 13 min 32 sec)
Heartbeat CPU 0 instructions: 560000004 cycles: 306094642 heartbeat IPC: 2.314 cumulative IPC: 1.737 (Simulation time: 01 hr 15 min 27 sec)
Heartbeat CPU 0 instructions: 570000001 cycles: 309223992 heartbeat IPC: 3.196 cumulative IPC: 1.752 (Simulation time: 01 hr 17 min 02 sec)
Heartbeat CPU 0 instructions: 580000003 cycles: 312770253 heartbeat IPC: 2.82 cumulative IPC: 1.765 (Simulation time: 01 hr 18 min 39 sec)
Heartbeat CPU 0 instructions: 590000002 cycles: 316397455 heartbeat IPC: 2.757 cumulative IPC: 1.777 (Simulation time: 01 hr 20 min 35 sec)
Heartbeat CPU 0 instructions: 600000003 cycles: 319463183 heartbeat IPC: 3.262 cumulative IPC: 1.792 (Simulation time: 01 hr 22 min 32 sec)
Heartbeat CPU 0 instructions: 610000001 cycles: 322972474 heartbeat IPC: 2.85 cumulative IPC: 1.804 (Simulation time: 01 hr 24 min 34 sec)
Heartbeat CPU 0 instructions: 620000000 cycles: 326990909 heartbeat IPC: 2.489 cumulative IPC: 1.812 (Simulation time: 01 hr 26 min 43 sec)
Heartbeat CPU 0 instructions: 630000002 cycles: 330360876 heartbeat IPC: 2.967 cumulative IPC: 1.825 (Simulation time: 01 hr 28 min 38 sec)
Heartbeat CPU 0 instructions: 640000004 cycles: 334374651 heartbeat IPC: 2.491 cumulative IPC: 1.833 (Simulation time: 01 hr 29 min 53 sec)
Heartbeat CPU 0 instructions: 650000001 cycles: 338201218 heartbeat IPC: 2.613 cumulative IPC: 1.842 (Simulation time: 01 hr 30 min 32 sec)
Simulation finished CPU 0 instructions: 600000001 cycles: 325701157 cumulative IPC: 1.842 (Simulation time: 01 hr 30 min 32 sec)
Simulation complete CPU 0 instructions: 600000001 cycles: 325701157 cumulative IPC: 1.842 (Simulation time: 01 hr 30 min 32 sec)

ChampSim completed all CPUs

=== Simulation ===
CPU 0 runs traces/400.perlbench-50B.champsimtrace.xz
Region of Interest Statistics

CPU 0 cumulative IPC: 1.842 instructions: 600000001 cycles: 325701157
CPU 0 Branch Prediction Accuracy: 96.2% MPKI: 7.839 Average ROB Occupancy at Mispredict: 43.76
Branch type MPKI
BRANCH_DIRECT_JUMP: 0.0176
BRANCH_INDIRECT: 0.38
BRANCH_CONDITIONAL: 6.99
BRANCH_DIRECT_CALL: 0.0067
BRANCH_INDIRECT_CALL: 0.431
BRANCH_RETURN: 0.0161

LLC TOTAL        ACCESS:     838579 HIT:     513612 MISS:     324967
LLC LOAD         ACCESS:     577297 HIT:     315226 MISS:     262071
LLC RFO          ACCESS:      47586 HIT:      26893 MISS:      20693
LLC PREFETCH     ACCESS:      64357 HIT:      34846 MISS:      29511
LLC WRITE        ACCESS:     127263 HIT:     126634 MISS:        629
LLC TRANSLATION  ACCESS:      22076 HIT:      10013 MISS:      12063
LLC PREFETCH REQUESTED:      64357 ISSUED:      64357 USEFUL:      18452 USELESS:       6754
LLC AVERAGE MISS LATENCY: 553.3 cycles
cpu0_DTLB TOTAL        ACCESS:  146507881 HIT:  145201837 MISS:    1306044
cpu0_DTLB LOAD         ACCESS:  146507881 HIT:  145201837 MISS:    1306044
cpu0_DTLB RFO          ACCESS:          0 HIT:          0 MISS:          0
cpu0_DTLB PREFETCH     ACCESS:          0 HIT:          0 MISS:          0
cpu0_DTLB WRITE        ACCESS:          0 HIT:          0 MISS:          0
cpu0_DTLB TRANSLATION  ACCESS:          0 HIT:          0 MISS:          0
cpu0_DTLB PREFETCH REQUESTED:          0 ISSUED:          0 USEFUL:          0 USELESS:          0
cpu0_DTLB AVERAGE MISS LATENCY: 11.97 cycles
cpu0_ITLB TOTAL        ACCESS:    8990766 HIT:    8806275 MISS:     184491
cpu0_ITLB LOAD         ACCESS:    8990766 HIT:    8806275 MISS:     184491
cpu0_ITLB RFO          ACCESS:          0 HIT:          0 MISS:          0
cpu0_ITLB PREFETCH     ACCESS:          0 HIT:          0 MISS:          0
cpu0_ITLB WRITE        ACCESS:          0 HIT:          0 MISS:          0
cpu0_ITLB TRANSLATION  ACCESS:          0 HIT:          0 MISS:          0
cpu0_ITLB PREFETCH REQUESTED:          0 ISSUED:          0 USEFUL:          0 USELESS:          0
cpu0_ITLB AVERAGE MISS LATENCY: 3.677 cycles
cpu0_L1D TOTAL        ACCESS:  193278744 HIT:  189613376 MISS:    3665368
cpu0_L1D LOAD         ACCESS:  107432739 HIT:  104419523 MISS:    3013216
cpu0_L1D RFO          ACCESS:          0 HIT:          0 MISS:          0
cpu0_L1D PREFETCH     ACCESS:          0 HIT:          0 MISS:          0
cpu0_L1D WRITE        ACCESS:   85817486 HIT:   85192426 MISS:     625060
cpu0_L1D TRANSLATION  ACCESS:      28519 HIT:       1427 MISS:      27092
cpu0_L1D PREFETCH REQUESTED:          0 ISSUED:          0 USEFUL:          0 USELESS:          0
cpu0_L1D AVERAGE MISS LATENCY: 48.93 cycles
cpu0_L1I TOTAL        ACCESS:   10424699 HIT:    8662223 MISS:    1762476
cpu0_L1I LOAD         ACCESS:   10424699 HIT:    8662223 MISS:    1762476
cpu0_L1I RFO          ACCESS:          0 HIT:          0 MISS:          0
cpu0_L1I PREFETCH     ACCESS:          0 HIT:          0 MISS:          0
cpu0_L1I WRITE        ACCESS:          0 HIT:          0 MISS:          0
cpu0_L1I TRANSLATION  ACCESS:          0 HIT:          0 MISS:          0
cpu0_L1I PREFETCH REQUESTED:          0 ISSUED:          0 USEFUL:          0 USELESS:          0
cpu0_L1I AVERAGE MISS LATENCY: 12.02 cycles
cpu0_L2C TOTAL        ACCESS:    3834639 HIT:    3184478 MISS:     650161
cpu0_L2C LOAD         ACCESS:    3104956 HIT:    2527659 MISS:     577297
cpu0_L2C RFO          ACCESS:     191565 HIT:     143978 MISS:      47587
cpu0_L2C PREFETCH     ACCESS:          0 HIT:          0 MISS:          0
cpu0_L2C WRITE        ACCESS:     511091 HIT:     507890 MISS:       3201
cpu0_L2C TRANSLATION  ACCESS:      27027 HIT:       4951 MISS:      22076
cpu0_L2C PREFETCH REQUESTED:          0 ISSUED:          0 USEFUL:          0 USELESS:          0
cpu0_L2C AVERAGE MISS LATENCY: 269.6 cycles
cpu0_STLB TOTAL        ACCESS:    1008480 HIT:     981788 MISS:      26692
cpu0_STLB LOAD         ACCESS:    1008480 HIT:     981788 MISS:      26692
cpu0_STLB RFO          ACCESS:          0 HIT:          0 MISS:          0
cpu0_STLB PREFETCH     ACCESS:          0 HIT:          0 MISS:          0
cpu0_STLB WRITE        ACCESS:          0 HIT:          0 MISS:          0
cpu0_STLB TRANSLATION  ACCESS:          0 HIT:          0 MISS:          0
cpu0_STLB PREFETCH REQUESTED:          0 ISSUED:          0 USEFUL:          0 USELESS:          0
cpu0_STLB AVERAGE MISS LATENCY: 368.8 cycles

DRAM Statistics

Channel 0 RQ ROW_BUFFER_HIT:      61090
  ROW_BUFFER_MISS:     257921
 AVG DBUS CONGESTED CYCLE: 3.819
WQ ROW_BUFFER_HIT: Channel 0 
  ROW_BUFFER_MISS:       8746
  FULL:      40572
