WARNING: physical memory size is smaller than virtual memory size.

*** ChampSim Multicore Out-of-Order Simulator ***
Warmup Instructions: 50000000
Simulation Instructions: 600000000
Number of CPUs: 1
Page size: 4096

Off-chip DRAM Size: 4 GiB Channels: 1 Width: 64-bit Data Race: 3200 MT/s
Heartbeat CPU 0 instructions: 10000001 cycles: 2500318 heartbeat IPC: 3.999 cumulative IPC: 3.999 (Simulation time: 00 hr 00 min 26 sec)
Heartbeat CPU 0 instructions: 20000002 cycles: 5037110 heartbeat IPC: 3.942 cumulative IPC: 3.971 (Simulation time: 00 hr 00 min 58 sec)
Heartbeat CPU 0 instructions: 30000002 cycles: 7537110 heartbeat IPC: 4 cumulative IPC: 3.98 (Simulation time: 00 hr 01 min 32 sec)
Heartbeat CPU 0 instructions: 40000002 cycles: 10037110 heartbeat IPC: 4 cumulative IPC: 3.985 (Simulation time: 00 hr 02 min 08 sec)
Heartbeat CPU 0 instructions: 50000002 cycles: 12537110 heartbeat IPC: 4 cumulative IPC: 3.988 (Simulation time: 00 hr 02 min 47 sec)
Warmup finished CPU 0 instructions: 50000002 cycles: 12537111 cumulative IPC: 3.988 (Simulation time: 00 hr 02 min 47 sec)
Warmup complete CPU 0 instructions: 50000002 cycles: 12537111 cumulative IPC: 3.988 (Simulation time: 00 hr 02 min 47 sec)
Heartbeat CPU 0 instructions: 60000000 cycles: 17708463 heartbeat IPC: 1.934 cumulative IPC: 1.934 (Simulation time: 00 hr 03 min 46 sec)
Heartbeat CPU 0 instructions: 70000002 cycles: 22606172 heartbeat IPC: 2.042 cumulative IPC: 1.986 (Simulation time: 00 hr 04 min 41 sec)
Heartbeat CPU 0 instructions: 80000001 cycles: 27968869 heartbeat IPC: 1.865 cumulative IPC: 1.944 (Simulation time: 00 hr 05 min 39 sec)
Heartbeat CPU 0 instructions: 90000001 cycles: 32853130 heartbeat IPC: 2.047 cumulative IPC: 1.969 (Simulation time: 00 hr 06 min 38 sec)
Heartbeat CPU 0 instructions: 100000000 cycles: 37972173 heartbeat IPC: 1.953 cumulative IPC: 1.966 (Simulation time: 00 hr 07 min 34 sec)
Heartbeat CPU 0 instructions: 110000000 cycles: 42865062 heartbeat IPC: 2.044 cumulative IPC: 1.978 (Simulation time: 00 hr 08 min 25 sec)
Heartbeat CPU 0 instructions: 120000001 cycles: 48053944 heartbeat IPC: 1.927 cumulative IPC: 1.971 (Simulation time: 00 hr 09 min 17 sec)
Heartbeat CPU 0 instructions: 130000001 cycles: 53210501 heartbeat IPC: 1.939 cumulative IPC: 1.967 (Simulation time: 00 hr 10 min 10 sec)
Heartbeat CPU 0 instructions: 140000001 cycles: 58523718 heartbeat IPC: 1.882 cumulative IPC: 1.957 (Simulation time: 00 hr 11 min 01 sec)
Heartbeat CPU 0 instructions: 150000001 cycles: 63850196 heartbeat IPC: 1.877 cumulative IPC: 1.949 (Simulation time: 00 hr 11 min 54 sec)
Heartbeat CPU 0 instructions: 160000004 cycles: 69058008 heartbeat IPC: 1.92 cumulative IPC: 1.946 (Simulation time: 00 hr 12 min 49 sec)
Heartbeat CPU 0 instructions: 170000000 cycles: 79237812 heartbeat IPC: 0.9823 cumulative IPC: 1.799 (Simulation time: 00 hr 14 min 08 sec)
Heartbeat CPU 0 instructions: 180000004 cycles: 89774817 heartbeat IPC: 0.949 cumulative IPC: 1.683 (Simulation time: 00 hr 15 min 34 sec)
Heartbeat CPU 0 instructions: 190000001 cycles: 100462131 heartbeat IPC: 0.9357 cumulative IPC: 1.592 (Simulation time: 00 hr 16 min 59 sec)
Heartbeat CPU 0 instructions: 200000003 cycles: 105234422 heartbeat IPC: 2.095 cumulative IPC: 1.618 (Simulation time: 00 hr 17 min 53 sec)
Heartbeat CPU 0 instructions: 210000001 cycles: 110158621 heartbeat IPC: 2.031 cumulative IPC: 1.639 (Simulation time: 00 hr 18 min 43 sec)
Heartbeat CPU 0 instructions: 220000000 cycles: 114988860 heartbeat IPC: 2.07 cumulative IPC: 1.659 (Simulation time: 00 hr 19 min 33 sec)
Heartbeat CPU 0 instructions: 230000002 cycles: 120308037 heartbeat IPC: 1.88 cumulative IPC: 1.67 (Simulation time: 00 hr 20 min 26 sec)
Heartbeat CPU 0 instructions: 240000000 cycles: 125148938 heartbeat IPC: 2.066 cumulative IPC: 1.687 (Simulation time: 00 hr 21 min 17 sec)
Heartbeat CPU 0 instructions: 250000000 cycles: 130306876 heartbeat IPC: 1.939 cumulative IPC: 1.698 (Simulation time: 00 hr 22 min 12 sec)
Heartbeat CPU 0 instructions: 260000000 cycles: 135336216 heartbeat IPC: 1.988 cumulative IPC: 1.71 (Simulation time: 00 hr 23 min 03 sec)
Heartbeat CPU 0 instructions: 270000002 cycles: 140228351 heartbeat IPC: 2.044 cumulative IPC: 1.723 (Simulation time: 00 hr 23 min 52 sec)
Heartbeat CPU 0 instructions: 280000002 cycles: 145140614 heartbeat IPC: 2.036 cumulative IPC: 1.734 (Simulation time: 00 hr 24 min 42 sec)
Heartbeat CPU 0 instructions: 290000001 cycles: 150506819 heartbeat IPC: 1.864 cumulative IPC: 1.74 (Simulation time: 00 hr 25 min 35 sec)
Heartbeat CPU 0 instructions: 300000003 cycles: 155565014 heartbeat IPC: 1.977 cumulative IPC: 1.748 (Simulation time: 00 hr 26 min 27 sec)
Heartbeat CPU 0 instructions: 310000001 cycles: 160860467 heartbeat IPC: 1.888 cumulative IPC: 1.753 (Simulation time: 00 hr 27 min 18 sec)
Heartbeat CPU 0 instructions: 320000003 cycles: 166071390 heartbeat IPC: 1.919 cumulative IPC: 1.759 (Simulation time: 00 hr 28 min 09 sec)
Heartbeat CPU 0 instructions: 330000003 cycles: 171372135 heartbeat IPC: 1.887 cumulative IPC: 1.763 (Simulation time: 00 hr 29 min 01 sec)
Heartbeat CPU 0 instructions: 340000000 cycles: 181736027 heartbeat IPC: 0.9649 cumulative IPC: 1.714 (Simulation time: 00 hr 30 min 24 sec)
Heartbeat CPU 0 instructions: 350000000 cycles: 192797648 heartbeat IPC: 0.904 cumulative IPC: 1.664 (Simulation time: 00 hr 31 min 51 sec)
Heartbeat CPU 0 instructions: 360000004 cycles: 203496676 heartbeat IPC: 0.9347 cumulative IPC: 1.623 (Simulation time: 00 hr 33 min 18 sec)
Heartbeat CPU 0 instructions: 370000000 cycles: 207910672 heartbeat IPC: 2.266 cumulative IPC: 1.638 (Simulation time: 00 hr 34 min 05 sec)
Heartbeat CPU 0 instructions: 380000001 cycles: 212833275 heartbeat IPC: 2.031 cumulative IPC: 1.648 (Simulation time: 00 hr 34 min 56 sec)
Heartbeat CPU 0 instructions: 390000002 cycles: 217660028 heartbeat IPC: 2.072 cumulative IPC: 1.658 (Simulation time: 00 hr 35 min 47 sec)
Heartbeat CPU 0 instructions: 400000004 cycles: 222596934 heartbeat IPC: 2.026 cumulative IPC: 1.666 (Simulation time: 00 hr 36 min 38 sec)
Heartbeat CPU 0 instructions: 410000000 cycles: 227324774 heartbeat IPC: 2.115 cumulative IPC: 1.676 (Simulation time: 00 hr 37 min 27 sec)
Heartbeat CPU 0 instructions: 420000000 cycles: 232454497 heartbeat IPC: 1.949 cumulative IPC: 1.682 (Simulation time: 00 hr 38 min 18 sec)
Heartbeat CPU 0 instructions: 430000001 cycles: 236917244 heartbeat IPC: 2.241 cumulative IPC: 1.694 (Simulation time: 00 hr 39 min 07 sec)
Heartbeat CPU 0 instructions: 440000000 cycles: 242270135 heartbeat IPC: 1.868 cumulative IPC: 1.698 (Simulation time: 00 hr 39 min 59 sec)
Heartbeat CPU 0 instructions: 450000002 cycles: 246937901 heartbeat IPC: 2.142 cumulative IPC: 1.706 (Simulation time: 00 hr 40 min 49 sec)
Heartbeat CPU 0 instructions: 460000000 cycles: 251730788 heartbeat IPC: 2.086 cumulative IPC: 1.714 (Simulation time: 00 hr 41 min 39 sec)
Heartbeat CPU 0 instructions: 470000000 cycles: 256709456 heartbeat IPC: 2.009 cumulative IPC: 1.72 (Simulation time: 00 hr 42 min 30 sec)
Heartbeat CPU 0 instructions: 480000003 cycles: 261496152 heartbeat IPC: 2.089 cumulative IPC: 1.727 (Simulation time: 00 hr 43 min 19 sec)
Heartbeat CPU 0 instructions: 490000000 cycles: 266106191 heartbeat IPC: 2.169 cumulative IPC: 1.735 (Simulation time: 00 hr 44 min 07 sec)
Heartbeat CPU 0 instructions: 500000000 cycles: 271128193 heartbeat IPC: 1.991 cumulative IPC: 1.74 (Simulation time: 00 hr 44 min 59 sec)
Heartbeat CPU 0 instructions: 510000003 cycles: 276747350 heartbeat IPC: 1.78 cumulative IPC: 1.741 (Simulation time: 00 hr 45 min 53 sec)
Heartbeat CPU 0 instructions: 520000001 cycles: 281439199 heartbeat IPC: 2.131 cumulative IPC: 1.748 (Simulation time: 00 hr 46 min 42 sec)
Heartbeat CPU 0 instructions: 530000002 cycles: 286573225 heartbeat IPC: 1.948 cumulative IPC: 1.752 (Simulation time: 00 hr 47 min 34 sec)
Heartbeat CPU 0 instructions: 540000000 cycles: 291691079 heartbeat IPC: 1.954 cumulative IPC: 1.755 (Simulation time: 00 hr 48 min 25 sec)
Heartbeat CPU 0 instructions: 550000001 cycles: 296497729 heartbeat IPC: 2.08 cumulative IPC: 1.761 (Simulation time: 00 hr 49 min 15 sec)
Heartbeat CPU 0 instructions: 560000000 cycles: 301708676 heartbeat IPC: 1.919 cumulative IPC: 1.764 (Simulation time: 00 hr 50 min 06 sec)
Heartbeat CPU 0 instructions: 570000004 cycles: 308818525 heartbeat IPC: 1.407 cumulative IPC: 1.755 (Simulation time: 00 hr 51 min 09 sec)
Heartbeat CPU 0 instructions: 580000003 cycles: 320364460 heartbeat IPC: 0.8661 cumulative IPC: 1.722 (Simulation time: 00 hr 52 min 41 sec)
Heartbeat CPU 0 instructions: 590000002 cycles: 333581984 heartbeat IPC: 0.7566 cumulative IPC: 1.682 (Simulation time: 00 hr 54 min 20 sec)
Heartbeat CPU 0 instructions: 600000000 cycles: 338147159 heartbeat IPC: 2.19 cumulative IPC: 1.689 (Simulation time: 00 hr 55 min 06 sec)
Heartbeat CPU 0 instructions: 610000002 cycles: 342637976 heartbeat IPC: 2.227 cumulative IPC: 1.696 (Simulation time: 00 hr 55 min 50 sec)
Heartbeat CPU 0 instructions: 620000000 cycles: 347445825 heartbeat IPC: 2.08 cumulative IPC: 1.702 (Simulation time: 00 hr 56 min 37 sec)
Heartbeat CPU 0 instructions: 630000002 cycles: 352531159 heartbeat IPC: 1.966 cumulative IPC: 1.706 (Simulation time: 00 hr 57 min 19 sec)
Heartbeat CPU 0 instructions: 640000001 cycles: 357384903 heartbeat IPC: 2.06 cumulative IPC: 1.711 (Simulation time: 00 hr 57 min 55 sec)
Heartbeat CPU 0 instructions: 650000000 cycles: 361943009 heartbeat IPC: 2.194 cumulative IPC: 1.717 (Simulation time: 00 hr 58 min 23 sec)
Simulation finished CPU 0 instructions: 600000001 cycles: 349405900 cumulative IPC: 1.717 (Simulation time: 00 hr 58 min 23 sec)
Simulation complete CPU 0 instructions: 600000001 cycles: 349405900 cumulative IPC: 1.717 (Simulation time: 00 hr 58 min 23 sec)

ChampSim completed all CPUs

=== Simulation ===
CPU 0 runs traces/400.perlbench-41B.champsimtrace.xz
Region of Interest Statistics

CPU 0 cumulative IPC: 1.717 instructions: 600000001 cycles: 349405900
CPU 0 Branch Prediction Accuracy: 93.95% MPKI: 12.5 Average ROB Occupancy at Mispredict: 29.67
Branch type MPKI
BRANCH_DIRECT_JUMP: 0.0123
BRANCH_INDIRECT: 0.323
BRANCH_CONDITIONAL: 12
BRANCH_DIRECT_CALL: 0.0043
BRANCH_INDIRECT_CALL: 0.2
BRANCH_RETURN: 0.00828

LLC TOTAL        ACCESS:     594846 HIT:     318750 MISS:     276096
LLC LOAD         ACCESS:     403068 HIT:     180129 MISS:     222939
LLC RFO          ACCESS:      32586 HIT:      17989 MISS:      14597
LLC PREFETCH     ACCESS:      54586 HIT:      26585 MISS:      28001
LLC WRITE        ACCESS:      85586 HIT:      85426 MISS:        160
LLC TRANSLATION  ACCESS:      19020 HIT:       8621 MISS:      10399
LLC PREFETCH REQUESTED:      54586 ISSUED:      54586 USEFUL:      17511 USELESS:       6978
LLC AVERAGE MISS LATENCY: 568.7 cycles
cpu0_DTLB TOTAL        ACCESS:  153681818 HIT:  153003957 MISS:     677861
cpu0_DTLB LOAD         ACCESS:  153681818 HIT:  153003957 MISS:     677861
cpu0_DTLB RFO          ACCESS:          0 HIT:          0 MISS:          0
cpu0_DTLB PREFETCH     ACCESS:          0 HIT:          0 MISS:          0
cpu0_DTLB WRITE        ACCESS:          0 HIT:          0 MISS:          0
cpu0_DTLB TRANSLATION  ACCESS:          0 HIT:          0 MISS:          0
cpu0_DTLB PREFETCH REQUESTED:          0 ISSUED:          0 USEFUL:          0 USELESS:          0
cpu0_DTLB AVERAGE MISS LATENCY: 15.94 cycles
cpu0_ITLB TOTAL        ACCESS:    4837062 HIT:    4779211 MISS:      57851
cpu0_ITLB LOAD         ACCESS:    4837062 HIT:    4779211 MISS:      57851
cpu0_ITLB RFO          ACCESS:          0 HIT:          0 MISS:          0
cpu0_ITLB PREFETCH     ACCESS:          0 HIT:          0 MISS:          0
cpu0_ITLB WRITE        ACCESS:          0 HIT:          0 MISS:          0
cpu0_ITLB TRANSLATION  ACCESS:          0 HIT:          0 MISS:          0
cpu0_ITLB PREFETCH REQUESTED:          0 ISSUED:          0 USEFUL:          0 USELESS:          0
cpu0_ITLB AVERAGE MISS LATENCY: 7.45 cycles
cpu0_L1D TOTAL        ACCESS:  200288443 HIT:  198555669 MISS:    1732774
cpu0_L1D LOAD         ACCESS:  117046048 HIT:  115696846 MISS:    1349202
cpu0_L1D RFO          ACCESS:          0 HIT:          0 MISS:          0
cpu0_L1D PREFETCH     ACCESS:          0 HIT:          0 MISS:          0
cpu0_L1D WRITE        ACCESS:   83217933 HIT:   82857785 MISS:     360148
cpu0_L1D TRANSLATION  ACCESS:      24462 HIT:       1038 MISS:      23424
cpu0_L1D PREFETCH REQUESTED:          0 ISSUED:          0 USEFUL:          0 USELESS:          0
cpu0_L1D AVERAGE MISS LATENCY: 85.73 cycles
cpu0_L1I TOTAL        ACCESS:    5579528 HIT:    4817933 MISS:     761595
cpu0_L1I LOAD         ACCESS:    5579528 HIT:    4817933 MISS:     761595
cpu0_L1I RFO          ACCESS:          0 HIT:          0 MISS:          0
cpu0_L1I PREFETCH     ACCESS:          0 HIT:          0 MISS:          0
cpu0_L1I WRITE        ACCESS:          0 HIT:          0 MISS:          0
cpu0_L1I TRANSLATION  ACCESS:          0 HIT:          0 MISS:          0
cpu0_L1I PREFETCH REQUESTED:          0 ISSUED:          0 USEFUL:          0 USELESS:          0
cpu0_L1I AVERAGE MISS LATENCY: 12.98 cycles
cpu0_L2C TOTAL        ACCESS:    1667917 HIT:    1211465 MISS:     456452
cpu0_L2C LOAD         ACCESS:    1317053 HIT:     913985 MISS:     403068
cpu0_L2C RFO          ACCESS:      88636 HIT:      56050 MISS:      32586
cpu0_L2C PREFETCH     ACCESS:          0 HIT:          0 MISS:          0
cpu0_L2C WRITE        ACCESS:     238885 HIT:     237107 MISS:       1778
cpu0_L2C TRANSLATION  ACCESS:      23343 HIT:       4323 MISS:      19020
cpu0_L2C PREFETCH REQUESTED:          0 ISSUED:          0 USEFUL:          0 USELESS:          0
cpu0_L2C AVERAGE MISS LATENCY: 326.2 cycles
cpu0_STLB TOTAL        ACCESS:     505194 HIT:     482403 MISS:      22791
cpu0_STLB LOAD         ACCESS:     505194 HIT:     482403 MISS:      22791
cpu0_STLB RFO          ACCESS:          0 HIT:          0 MISS:          0
cpu0_STLB PREFETCH     ACCESS:          0 HIT:          0 MISS:          0
cpu0_STLB WRITE        ACCESS:          0 HIT:          0 MISS:          0
cpu0_STLB TRANSLATION  ACCESS:          0 HIT:          0 MISS:          0
cpu0_STLB PREFETCH REQUESTED:          0 ISSUED:          0 USEFUL:          0 USELESS:          0
cpu0_STLB AVERAGE MISS LATENCY: 352.9 cycles

DRAM Statistics

Channel 0 RQ ROW_BUFFER_HIT:      48002
  ROW_BUFFER_MISS:     222776
 AVG DBUS CONGESTED CYCLE: 3.819
WQ ROW_BUFFER_HIT: Channel 0 
  ROW_BUFFER_MISS:       7241
  FULL:      31694
