WARNING: physical memory size is smaller than virtual memory size.

*** ChampSim Multicore Out-of-Order Simulator ***
Warmup Instructions: 50000000
Simulation Instructions: 600000000
Number of CPUs: 1
Page size: 4096

Off-chip DRAM Size: 4 GiB Channels: 1 Width: 64-bit Data Race: 3200 MT/s
Heartbeat CPU 0 instructions: 10000000 cycles: 2500061 heartbeat IPC: 4 cumulative IPC: 4 (Simulation time: 00 hr 00 min 49 sec)
Heartbeat CPU 0 instructions: 20000000 cycles: 5000061 heartbeat IPC: 4 cumulative IPC: 4 (Simulation time: 00 hr 01 min 37 sec)
Heartbeat CPU 0 instructions: 30000000 cycles: 7500061 heartbeat IPC: 4 cumulative IPC: 4 (Simulation time: 00 hr 02 min 22 sec)
Heartbeat CPU 0 instructions: 40000000 cycles: 10000061 heartbeat IPC: 4 cumulative IPC: 4 (Simulation time: 00 hr 03 min 05 sec)
Heartbeat CPU 0 instructions: 50000000 cycles: 12500061 heartbeat IPC: 4 cumulative IPC: 4 (Simulation time: 00 hr 03 min 54 sec)
Warmup finished CPU 0 instructions: 50000000 cycles: 12500062 cumulative IPC: 4 (Simulation time: 00 hr 03 min 54 sec)
Warmup complete CPU 0 instructions: 50000000 cycles: 12500062 cumulative IPC: 4 (Simulation time: 00 hr 03 min 54 sec)
Heartbeat CPU 0 instructions: 60000002 cycles: 16907366 heartbeat IPC: 2.269 cumulative IPC: 2.269 (Simulation time: 00 hr 05 min 02 sec)
Heartbeat CPU 0 instructions: 70000003 cycles: 21889050 heartbeat IPC: 2.007 cumulative IPC: 2.13 (Simulation time: 00 hr 06 min 15 sec)
Heartbeat CPU 0 instructions: 80000001 cycles: 27230745 heartbeat IPC: 1.872 cumulative IPC: 2.037 (Simulation time: 00 hr 07 min 38 sec)
Heartbeat CPU 0 instructions: 90000000 cycles: 31527294 heartbeat IPC: 2.327 cumulative IPC: 2.102 (Simulation time: 00 hr 08 min 55 sec)
Heartbeat CPU 0 instructions: 100000003 cycles: 36379334 heartbeat IPC: 2.061 cumulative IPC: 2.094 (Simulation time: 00 hr 10 min 12 sec)
Heartbeat CPU 0 instructions: 110000002 cycles: 41247374 heartbeat IPC: 2.054 cumulative IPC: 2.087 (Simulation time: 00 hr 11 min 26 sec)
Heartbeat CPU 0 instructions: 120000001 cycles: 46240828 heartbeat IPC: 2.003 cumulative IPC: 2.075 (Simulation time: 00 hr 12 min 37 sec)
Heartbeat CPU 0 instructions: 130000003 cycles: 50807189 heartbeat IPC: 2.19 cumulative IPC: 2.088 (Simulation time: 00 hr 13 min 42 sec)
Heartbeat CPU 0 instructions: 140000002 cycles: 55694832 heartbeat IPC: 2.046 cumulative IPC: 2.084 (Simulation time: 00 hr 14 min 51 sec)
Heartbeat CPU 0 instructions: 150000001 cycles: 60360024 heartbeat IPC: 2.144 cumulative IPC: 2.089 (Simulation time: 00 hr 15 min 58 sec)
Heartbeat CPU 0 instructions: 160000000 cycles: 64996045 heartbeat IPC: 2.157 cumulative IPC: 2.095 (Simulation time: 00 hr 17 min 03 sec)
Heartbeat CPU 0 instructions: 170000000 cycles: 70325364 heartbeat IPC: 1.876 cumulative IPC: 2.075 (Simulation time: 00 hr 18 min 12 sec)
Heartbeat CPU 0 instructions: 180000001 cycles: 76043102 heartbeat IPC: 1.749 cumulative IPC: 2.046 (Simulation time: 00 hr 19 min 23 sec)
Heartbeat CPU 0 instructions: 190000002 cycles: 80511237 heartbeat IPC: 2.238 cumulative IPC: 2.058 (Simulation time: 00 hr 20 min 27 sec)
Heartbeat CPU 0 instructions: 200000002 cycles: 85411855 heartbeat IPC: 2.041 cumulative IPC: 2.057 (Simulation time: 00 hr 21 min 38 sec)
Heartbeat CPU 0 instructions: 210000000 cycles: 90414257 heartbeat IPC: 1.999 cumulative IPC: 2.054 (Simulation time: 00 hr 23 min 01 sec)
Heartbeat CPU 0 instructions: 220000001 cycles: 95337287 heartbeat IPC: 2.031 cumulative IPC: 2.052 (Simulation time: 00 hr 24 min 18 sec)
Heartbeat CPU 0 instructions: 230000002 cycles: 100581995 heartbeat IPC: 1.907 cumulative IPC: 2.044 (Simulation time: 00 hr 25 min 32 sec)
Heartbeat CPU 0 instructions: 240000001 cycles: 105544326 heartbeat IPC: 2.015 cumulative IPC: 2.042 (Simulation time: 00 hr 26 min 40 sec)
Heartbeat CPU 0 instructions: 250000003 cycles: 110719530 heartbeat IPC: 1.932 cumulative IPC: 2.036 (Simulation time: 00 hr 27 min 45 sec)
Heartbeat CPU 0 instructions: 260000001 cycles: 115576650 heartbeat IPC: 2.059 cumulative IPC: 2.037 (Simulation time: 00 hr 28 min 50 sec)
Heartbeat CPU 0 instructions: 270000000 cycles: 123361629 heartbeat IPC: 1.285 cumulative IPC: 1.984 (Simulation time: 00 hr 30 min 21 sec)
Heartbeat CPU 0 instructions: 280000000 cycles: 134999752 heartbeat IPC: 0.8592 cumulative IPC: 1.878 (Simulation time: 00 hr 32 min 22 sec)
Heartbeat CPU 0 instructions: 290000001 cycles: 145289502 heartbeat IPC: 0.9718 cumulative IPC: 1.807 (Simulation time: 00 hr 34 min 06 sec)
Heartbeat CPU 0 instructions: 300000003 cycles: 152867613 heartbeat IPC: 1.32 cumulative IPC: 1.781 (Simulation time: 00 hr 35 min 42 sec)
Heartbeat CPU 0 instructions: 310000004 cycles: 163871974 heartbeat IPC: 0.9087 cumulative IPC: 1.718 (Simulation time: 00 hr 37 min 53 sec)
Heartbeat CPU 0 instructions: 320000004 cycles: 169580084 heartbeat IPC: 1.752 cumulative IPC: 1.719 (Simulation time: 00 hr 39 min 15 sec)
Heartbeat CPU 0 instructions: 330000000 cycles: 174880709 heartbeat IPC: 1.887 cumulative IPC: 1.724 (Simulation time: 00 hr 40 min 29 sec)
Heartbeat CPU 0 instructions: 340000001 cycles: 180101054 heartbeat IPC: 1.916 cumulative IPC: 1.73 (Simulation time: 00 hr 41 min 37 sec)
Heartbeat CPU 0 instructions: 350000000 cycles: 185522382 heartbeat IPC: 1.845 cumulative IPC: 1.734 (Simulation time: 00 hr 42 min 46 sec)
Heartbeat CPU 0 instructions: 360000003 cycles: 190703687 heartbeat IPC: 1.93 cumulative IPC: 1.74 (Simulation time: 00 hr 43 min 51 sec)
Heartbeat CPU 0 instructions: 370000001 cycles: 195813257 heartbeat IPC: 1.957 cumulative IPC: 1.746 (Simulation time: 00 hr 44 min 59 sec)
Heartbeat CPU 0 instructions: 380000004 cycles: 201186313 heartbeat IPC: 1.861 cumulative IPC: 1.749 (Simulation time: 00 hr 46 min 07 sec)
Heartbeat CPU 0 instructions: 390000002 cycles: 206610377 heartbeat IPC: 1.844 cumulative IPC: 1.752 (Simulation time: 00 hr 47 min 14 sec)
Heartbeat CPU 0 instructions: 400000000 cycles: 212121392 heartbeat IPC: 1.815 cumulative IPC: 1.753 (Simulation time: 00 hr 48 min 21 sec)
Heartbeat CPU 0 instructions: 410000000 cycles: 220190242 heartbeat IPC: 1.239 cumulative IPC: 1.733 (Simulation time: 00 hr 49 min 48 sec)
Heartbeat CPU 0 instructions: 420000001 cycles: 231470797 heartbeat IPC: 0.8865 cumulative IPC: 1.69 (Simulation time: 00 hr 51 min 44 sec)
Heartbeat CPU 0 instructions: 430000000 cycles: 239231472 heartbeat IPC: 1.289 cumulative IPC: 1.676 (Simulation time: 00 hr 53 min 40 sec)
Heartbeat CPU 0 instructions: 440000002 cycles: 246371145 heartbeat IPC: 1.401 cumulative IPC: 1.668 (Simulation time: 00 hr 55 min 23 sec)
Heartbeat CPU 0 instructions: 450000000 cycles: 253271997 heartbeat IPC: 1.449 cumulative IPC: 1.661 (Simulation time: 00 hr 56 min 55 sec)
Heartbeat CPU 0 instructions: 460000002 cycles: 264107844 heartbeat IPC: 0.9229 cumulative IPC: 1.63 (Simulation time: 00 hr 58 min 53 sec)
Heartbeat CPU 0 instructions: 470000000 cycles: 273845944 heartbeat IPC: 1.027 cumulative IPC: 1.607 (Simulation time: 01 hr 00 min 43 sec)
Heartbeat CPU 0 instructions: 480000000 cycles: 279333332 heartbeat IPC: 1.822 cumulative IPC: 1.611 (Simulation time: 01 hr 01 min 54 sec)
Heartbeat CPU 0 instructions: 490000001 cycles: 285104280 heartbeat IPC: 1.733 cumulative IPC: 1.614 (Simulation time: 01 hr 03 min 06 sec)
Heartbeat CPU 0 instructions: 500000002 cycles: 290742268 heartbeat IPC: 1.774 cumulative IPC: 1.617 (Simulation time: 01 hr 04 min 14 sec)
Heartbeat CPU 0 instructions: 510000000 cycles: 296464115 heartbeat IPC: 1.748 cumulative IPC: 1.62 (Simulation time: 01 hr 05 min 23 sec)
Heartbeat CPU 0 instructions: 520000000 cycles: 302273029 heartbeat IPC: 1.721 cumulative IPC: 1.622 (Simulation time: 01 hr 06 min 32 sec)
Heartbeat CPU 0 instructions: 530000001 cycles: 313731581 heartbeat IPC: 0.8727 cumulative IPC: 1.593 (Simulation time: 01 hr 08 min 22 sec)
Heartbeat CPU 0 instructions: 540000000 cycles: 324529484 heartbeat IPC: 0.9261 cumulative IPC: 1.57 (Simulation time: 01 hr 10 min 10 sec)
Heartbeat CPU 0 instructions: 550000002 cycles: 337429082 heartbeat IPC: 0.7752 cumulative IPC: 1.539 (Simulation time: 01 hr 12 min 11 sec)
Heartbeat CPU 0 instructions: 560000004 cycles: 342221517 heartbeat IPC: 2.087 cumulative IPC: 1.547 (Simulation time: 01 hr 13 min 15 sec)
Heartbeat CPU 0 instructions: 570000001 cycles: 346632650 heartbeat IPC: 2.267 cumulative IPC: 1.556 (Simulation time: 01 hr 14 min 17 sec)
Heartbeat CPU 0 instructions: 580000003 cycles: 350876147 heartbeat IPC: 2.357 cumulative IPC: 1.566 (Simulation time: 01 hr 15 min 18 sec)
Heartbeat CPU 0 instructions: 590000001 cycles: 355779797 heartbeat IPC: 2.039 cumulative IPC: 1.573 (Simulation time: 01 hr 16 min 24 sec)
Heartbeat CPU 0 instructions: 600000003 cycles: 360421117 heartbeat IPC: 2.155 cumulative IPC: 1.581 (Simulation time: 01 hr 17 min 34 sec)
Heartbeat CPU 0 instructions: 610000001 cycles: 365281286 heartbeat IPC: 2.058 cumulative IPC: 1.587 (Simulation time: 01 hr 18 min 44 sec)
Heartbeat CPU 0 instructions: 620000000 cycles: 370350346 heartbeat IPC: 1.973 cumulative IPC: 1.593 (Simulation time: 01 hr 19 min 52 sec)
Heartbeat CPU 0 instructions: 630000002 cycles: 374596395 heartbeat IPC: 2.355 cumulative IPC: 1.602 (Simulation time: 01 hr 20 min 53 sec)
Heartbeat CPU 0 instructions: 640000004 cycles: 379920203 heartbeat IPC: 1.878 cumulative IPC: 1.606 (Simulation time: 01 hr 21 min 58 sec)
Heartbeat CPU 0 instructions: 650000001 cycles: 384686949 heartbeat IPC: 2.098 cumulative IPC: 1.612 (Simulation time: 01 hr 22 min 53 sec)
Simulation finished CPU 0 instructions: 600000001 cycles: 372186888 cumulative IPC: 1.612 (Simulation time: 01 hr 22 min 53 sec)
Simulation complete CPU 0 instructions: 600000001 cycles: 372186888 cumulative IPC: 1.612 (Simulation time: 01 hr 22 min 53 sec)

ChampSim completed all CPUs

=== Simulation ===
CPU 0 runs traces/400.perlbench-50B.champsimtrace.xz
Region of Interest Statistics

CPU 0 cumulative IPC: 1.612 instructions: 600000001 cycles: 372186888
CPU 0 Branch Prediction Accuracy: 93.83% MPKI: 12.71 Average ROB Occupancy at Mispredict: 29.51
Branch type MPKI
BRANCH_DIRECT_JUMP: 0.0176
BRANCH_INDIRECT: 0.38
BRANCH_CONDITIONAL: 11.9
BRANCH_DIRECT_CALL: 0.0067
BRANCH_INDIRECT_CALL: 0.431
BRANCH_RETURN: 0.0161

LLC TOTAL        ACCESS:     850802 HIT:     539392 MISS:     311410
LLC LOAD         ACCESS:     587404 HIT:     336959 MISS:     250445
LLC RFO          ACCESS:      47522 HIT:      27477 MISS:      20045
LLC PREFETCH     ACCESS:      65705 HIT:      37109 MISS:      28596
LLC WRITE        ACCESS:     128161 HIT:     127725 MISS:        436
LLC TRANSLATION  ACCESS:      22010 HIT:      10122 MISS:      11888
LLC PREFETCH REQUESTED:      65705 ISSUED:      65705 USEFUL:      17779 USELESS:       6701
LLC AVERAGE MISS LATENCY: 549.1 cycles
cpu0_DTLB TOTAL        ACCESS:  156772894 HIT:  155471865 MISS:    1301029
cpu0_DTLB LOAD         ACCESS:  156772894 HIT:  155471865 MISS:    1301029
cpu0_DTLB RFO          ACCESS:          0 HIT:          0 MISS:          0
cpu0_DTLB PREFETCH     ACCESS:          0 HIT:          0 MISS:          0
cpu0_DTLB WRITE        ACCESS:          0 HIT:          0 MISS:          0
cpu0_DTLB TRANSLATION  ACCESS:          0 HIT:          0 MISS:          0
cpu0_DTLB PREFETCH REQUESTED:          0 ISSUED:          0 USEFUL:          0 USELESS:          0
cpu0_DTLB AVERAGE MISS LATENCY: 12.03 cycles
cpu0_ITLB TOTAL        ACCESS:    8933312 HIT:    8734736 MISS:     198576
cpu0_ITLB LOAD         ACCESS:    8933312 HIT:    8734736 MISS:     198576
cpu0_ITLB RFO          ACCESS:          0 HIT:          0 MISS:          0
cpu0_ITLB PREFETCH     ACCESS:          0 HIT:          0 MISS:          0
cpu0_ITLB WRITE        ACCESS:          0 HIT:          0 MISS:          0
cpu0_ITLB TRANSLATION  ACCESS:          0 HIT:          0 MISS:          0
cpu0_ITLB PREFETCH REQUESTED:          0 ISSUED:          0 USEFUL:          0 USELESS:          0
cpu0_ITLB AVERAGE MISS LATENCY: 3.238 cycles
cpu0_L1D TOTAL        ACCESS:  203614459 HIT:  199943075 MISS:    3671384
cpu0_L1D LOAD         ACCESS:  117937942 HIT:  114923857 MISS:    3014085
cpu0_L1D RFO          ACCESS:          0 HIT:          0 MISS:          0
cpu0_L1D PREFETCH     ACCESS:          0 HIT:          0 MISS:          0
cpu0_L1D WRITE        ACCESS:   85647975 HIT:   85017814 MISS:     630161
cpu0_L1D TRANSLATION  ACCESS:      28542 HIT:       1404 MISS:      27138
cpu0_L1D PREFETCH REQUESTED:          0 ISSUED:          0 USEFUL:          0 USELESS:          0
cpu0_L1D AVERAGE MISS LATENCY: 47.29 cycles
cpu0_L1I TOTAL        ACCESS:   10371913 HIT:    8574473 MISS:    1797440
cpu0_L1I LOAD         ACCESS:   10371913 HIT:    8574473 MISS:    1797440
cpu0_L1I RFO          ACCESS:          0 HIT:          0 MISS:          0
cpu0_L1I PREFETCH     ACCESS:          0 HIT:          0 MISS:          0
cpu0_L1I WRITE        ACCESS:          0 HIT:          0 MISS:          0
cpu0_L1I TRANSLATION  ACCESS:          0 HIT:          0 MISS:          0
cpu0_L1I PREFETCH REQUESTED:          0 ISSUED:          0 USEFUL:          0 USELESS:          0
cpu0_L1I AVERAGE MISS LATENCY: 10.75 cycles
cpu0_L2C TOTAL        ACCESS:    3837081 HIT:    3176870 MISS:     660211
cpu0_L2C LOAD         ACCESS:    3106359 HIT:    2518955 MISS:     587404
cpu0_L2C RFO          ACCESS:     191802 HIT:     144280 MISS:      47522
cpu0_L2C PREFETCH     ACCESS:          0 HIT:          0 MISS:          0
cpu0_L2C WRITE        ACCESS:     511865 HIT:     508590 MISS:       3275
cpu0_L2C TRANSLATION  ACCESS:      27055 HIT:       5045 MISS:      22010
cpu0_L2C PREFETCH REQUESTED:          0 ISSUED:          0 USEFUL:          0 USELESS:          0
cpu0_L2C AVERAGE MISS LATENCY: 253 cycles
cpu0_STLB TOTAL        ACCESS:    1009333 HIT:     982642 MISS:      26691
cpu0_STLB LOAD         ACCESS:    1009333 HIT:     982642 MISS:      26691
cpu0_STLB RFO          ACCESS:          0 HIT:          0 MISS:          0
cpu0_STLB PREFETCH     ACCESS:          0 HIT:          0 MISS:          0
cpu0_STLB WRITE        ACCESS:          0 HIT:          0 MISS:          0
cpu0_STLB TRANSLATION  ACCESS:          0 HIT:          0 MISS:          0
cpu0_STLB PREFETCH REQUESTED:          0 ISSUED:          0 USEFUL:          0 USELESS:          0
cpu0_STLB AVERAGE MISS LATENCY: 367 cycles

DRAM Statistics

Channel 0 RQ ROW_BUFFER_HIT:      59676
  ROW_BUFFER_MISS:     246303
 AVG DBUS CONGESTED CYCLE: 3.812
WQ ROW_BUFFER_HIT: Channel 0 
  ROW_BUFFER_MISS:       8696
  FULL:      35625
