WARNING: physical memory size is smaller than virtual memory size.

*** ChampSim Multicore Out-of-Order Simulator ***
Warmup Instructions: 50000000
Simulation Instructions: 600000000
Number of CPUs: 1
Page size: 4096

Off-chip DRAM Size: 4 GiB Channels: 1 Width: 64-bit Data Race: 3200 MT/s
Heartbeat CPU 0 instructions: 10000001 cycles: 2500318 heartbeat IPC: 3.999 cumulative IPC: 3.999 (Simulation time: 00 hr 01 min 01 sec)
Heartbeat CPU 0 instructions: 20000002 cycles: 5037122 heartbeat IPC: 3.942 cumulative IPC: 3.971 (Simulation time: 00 hr 02 min 03 sec)
Heartbeat CPU 0 instructions: 30000002 cycles: 7537122 heartbeat IPC: 4 cumulative IPC: 3.98 (Simulation time: 00 hr 02 min 57 sec)
Heartbeat CPU 0 instructions: 40000002 cycles: 10037122 heartbeat IPC: 4 cumulative IPC: 3.985 (Simulation time: 00 hr 03 min 49 sec)
Heartbeat CPU 0 instructions: 50000002 cycles: 12537122 heartbeat IPC: 4 cumulative IPC: 3.988 (Simulation time: 00 hr 04 min 37 sec)
Warmup finished CPU 0 instructions: 50000002 cycles: 12537123 cumulative IPC: 3.988 (Simulation time: 00 hr 04 min 37 sec)
Warmup complete CPU 0 instructions: 50000002 cycles: 12537123 cumulative IPC: 3.988 (Simulation time: 00 hr 04 min 37 sec)
Heartbeat CPU 0 instructions: 60000000 cycles: 17157905 heartbeat IPC: 2.164 cumulative IPC: 2.164 (Simulation time: 00 hr 05 min 43 sec)
Heartbeat CPU 0 instructions: 70000004 cycles: 21435072 heartbeat IPC: 2.338 cumulative IPC: 2.248 (Simulation time: 00 hr 06 min 47 sec)
Heartbeat CPU 0 instructions: 80000001 cycles: 26029929 heartbeat IPC: 2.176 cumulative IPC: 2.223 (Simulation time: 00 hr 07 min 55 sec)
Heartbeat CPU 0 instructions: 90000001 cycles: 30159000 heartbeat IPC: 2.422 cumulative IPC: 2.27 (Simulation time: 00 hr 09 min 00 sec)
Heartbeat CPU 0 instructions: 100000000 cycles: 34213284 heartbeat IPC: 2.467 cumulative IPC: 2.307 (Simulation time: 00 hr 10 min 02 sec)
Heartbeat CPU 0 instructions: 110000000 cycles: 38457311 heartbeat IPC: 2.356 cumulative IPC: 2.315 (Simulation time: 00 hr 11 min 04 sec)
Heartbeat CPU 0 instructions: 120000001 cycles: 42465818 heartbeat IPC: 2.495 cumulative IPC: 2.339 (Simulation time: 00 hr 12 min 06 sec)
Heartbeat CPU 0 instructions: 130000001 cycles: 46198066 heartbeat IPC: 2.679 cumulative IPC: 2.377 (Simulation time: 00 hr 13 min 07 sec)
Heartbeat CPU 0 instructions: 140000001 cycles: 50360366 heartbeat IPC: 2.403 cumulative IPC: 2.379 (Simulation time: 00 hr 14 min 12 sec)
Heartbeat CPU 0 instructions: 150000001 cycles: 54563478 heartbeat IPC: 2.379 cumulative IPC: 2.379 (Simulation time: 00 hr 15 min 30 sec)
Heartbeat CPU 0 instructions: 160000004 cycles: 58987535 heartbeat IPC: 2.26 cumulative IPC: 2.368 (Simulation time: 00 hr 16 min 45 sec)
Heartbeat CPU 0 instructions: 170000000 cycles: 69573640 heartbeat IPC: 0.9446 cumulative IPC: 2.104 (Simulation time: 00 hr 18 min 46 sec)
Heartbeat CPU 0 instructions: 180000004 cycles: 81279639 heartbeat IPC: 0.8543 cumulative IPC: 1.891 (Simulation time: 00 hr 20 min 48 sec)
Heartbeat CPU 0 instructions: 190000001 cycles: 92171783 heartbeat IPC: 0.9181 cumulative IPC: 1.758 (Simulation time: 00 hr 22 min 44 sec)
Heartbeat CPU 0 instructions: 200000004 cycles: 95944015 heartbeat IPC: 2.651 cumulative IPC: 1.798 (Simulation time: 00 hr 23 min 48 sec)
Heartbeat CPU 0 instructions: 210000001 cycles: 99862486 heartbeat IPC: 2.552 cumulative IPC: 1.832 (Simulation time: 00 hr 24 min 51 sec)
Heartbeat CPU 0 instructions: 220000000 cycles: 103821904 heartbeat IPC: 2.526 cumulative IPC: 1.862 (Simulation time: 00 hr 25 min 53 sec)
Heartbeat CPU 0 instructions: 230000002 cycles: 108491424 heartbeat IPC: 2.142 cumulative IPC: 1.876 (Simulation time: 00 hr 26 min 59 sec)
Heartbeat CPU 0 instructions: 240000000 cycles: 112682420 heartbeat IPC: 2.386 cumulative IPC: 1.897 (Simulation time: 00 hr 28 min 07 sec)
Heartbeat CPU 0 instructions: 250000000 cycles: 116999955 heartbeat IPC: 2.316 cumulative IPC: 1.915 (Simulation time: 00 hr 29 min 27 sec)
Heartbeat CPU 0 instructions: 260000000 cycles: 121178800 heartbeat IPC: 2.393 cumulative IPC: 1.933 (Simulation time: 00 hr 30 min 41 sec)
Heartbeat CPU 0 instructions: 270000002 cycles: 125021394 heartbeat IPC: 2.602 cumulative IPC: 1.956 (Simulation time: 00 hr 31 min 52 sec)
Heartbeat CPU 0 instructions: 280000002 cycles: 129192395 heartbeat IPC: 2.398 cumulative IPC: 1.972 (Simulation time: 00 hr 33 min 03 sec)
Heartbeat CPU 0 instructions: 290000001 cycles: 133083498 heartbeat IPC: 2.57 cumulative IPC: 1.991 (Simulation time: 00 hr 34 min 08 sec)
Heartbeat CPU 0 instructions: 300000003 cycles: 136909336 heartbeat IPC: 2.614 cumulative IPC: 2.01 (Simulation time: 00 hr 35 min 11 sec)
Heartbeat CPU 0 instructions: 310000001 cycles: 141025516 heartbeat IPC: 2.429 cumulative IPC: 2.024 (Simulation time: 00 hr 36 min 13 sec)
Heartbeat CPU 0 instructions: 320000003 cycles: 145094018 heartbeat IPC: 2.458 cumulative IPC: 2.037 (Simulation time: 00 hr 37 min 18 sec)
Heartbeat CPU 0 instructions: 330000003 cycles: 149487737 heartbeat IPC: 2.276 cumulative IPC: 2.045 (Simulation time: 00 hr 38 min 25 sec)
Heartbeat CPU 0 instructions: 340000000 cycles: 160029567 heartbeat IPC: 0.9486 cumulative IPC: 1.966 (Simulation time: 00 hr 40 min 12 sec)
Heartbeat CPU 0 instructions: 350000000 cycles: 172251963 heartbeat IPC: 0.8182 cumulative IPC: 1.878 (Simulation time: 00 hr 42 min 18 sec)
Heartbeat CPU 0 instructions: 360000004 cycles: 182923669 heartbeat IPC: 0.9371 cumulative IPC: 1.819 (Simulation time: 00 hr 44 min 16 sec)
Heartbeat CPU 0 instructions: 370000000 cycles: 186366636 heartbeat IPC: 2.904 cumulative IPC: 1.841 (Simulation time: 00 hr 45 min 27 sec)
Heartbeat CPU 0 instructions: 380000001 cycles: 189781510 heartbeat IPC: 2.928 cumulative IPC: 1.862 (Simulation time: 00 hr 46 min 50 sec)
Heartbeat CPU 0 instructions: 390000004 cycles: 193523655 heartbeat IPC: 2.672 cumulative IPC: 1.879 (Simulation time: 00 hr 48 min 04 sec)
Heartbeat CPU 0 instructions: 400000004 cycles: 197337591 heartbeat IPC: 2.622 cumulative IPC: 1.894 (Simulation time: 00 hr 49 min 13 sec)
Heartbeat CPU 0 instructions: 410000001 cycles: 200987536 heartbeat IPC: 2.74 cumulative IPC: 1.91 (Simulation time: 00 hr 50 min 18 sec)
Heartbeat CPU 0 instructions: 420000003 cycles: 205077032 heartbeat IPC: 2.445 cumulative IPC: 1.922 (Simulation time: 00 hr 51 min 27 sec)
Heartbeat CPU 0 instructions: 430000001 cycles: 208736265 heartbeat IPC: 2.733 cumulative IPC: 1.937 (Simulation time: 00 hr 52 min 36 sec)
Heartbeat CPU 0 instructions: 440000004 cycles: 212818548 heartbeat IPC: 2.45 cumulative IPC: 1.947 (Simulation time: 00 hr 53 min 46 sec)
Heartbeat CPU 0 instructions: 450000002 cycles: 216548659 heartbeat IPC: 2.681 cumulative IPC: 1.961 (Simulation time: 00 hr 54 min 50 sec)
Heartbeat CPU 0 instructions: 460000000 cycles: 220212902 heartbeat IPC: 2.729 cumulative IPC: 1.974 (Simulation time: 00 hr 55 min 52 sec)
Heartbeat CPU 0 instructions: 470000000 cycles: 223669740 heartbeat IPC: 2.893 cumulative IPC: 1.989 (Simulation time: 00 hr 56 min 52 sec)
Heartbeat CPU 0 instructions: 480000003 cycles: 227521709 heartbeat IPC: 2.596 cumulative IPC: 2 (Simulation time: 00 hr 57 min 53 sec)
Heartbeat CPU 0 instructions: 490000000 cycles: 231155239 heartbeat IPC: 2.752 cumulative IPC: 2.013 (Simulation time: 00 hr 58 min 52 sec)
Heartbeat CPU 0 instructions: 500000000 cycles: 234849938 heartbeat IPC: 2.707 cumulative IPC: 2.024 (Simulation time: 00 hr 59 min 52 sec)
Heartbeat CPU 0 instructions: 510000003 cycles: 238554510 heartbeat IPC: 2.699 cumulative IPC: 2.035 (Simulation time: 01 hr 00 min 53 sec)
Heartbeat CPU 0 instructions: 520000001 cycles: 241964868 heartbeat IPC: 2.932 cumulative IPC: 2.049 (Simulation time: 01 hr 01 min 52 sec)
Heartbeat CPU 0 instructions: 530000002 cycles: 245663601 heartbeat IPC: 2.704 cumulative IPC: 2.059 (Simulation time: 01 hr 02 min 52 sec)
Heartbeat CPU 0 instructions: 540000000 cycles: 249187394 heartbeat IPC: 2.838 cumulative IPC: 2.071 (Simulation time: 01 hr 03 min 51 sec)
Heartbeat CPU 0 instructions: 550000001 cycles: 252877412 heartbeat IPC: 2.71 cumulative IPC: 2.08 (Simulation time: 01 hr 04 min 51 sec)
Heartbeat CPU 0 instructions: 560000000 cycles: 256919300 heartbeat IPC: 2.474 cumulative IPC: 2.087 (Simulation time: 01 hr 05 min 54 sec)
Heartbeat CPU 0 instructions: 570000004 cycles: 263404469 heartbeat IPC: 1.542 cumulative IPC: 2.073 (Simulation time: 01 hr 07 min 20 sec)
Heartbeat CPU 0 instructions: 580000003 cycles: 275911150 heartbeat IPC: 0.7996 cumulative IPC: 2.012 (Simulation time: 01 hr 09 min 32 sec)
Heartbeat CPU 0 instructions: 590000002 cycles: 290082984 heartbeat IPC: 0.7056 cumulative IPC: 1.946 (Simulation time: 01 hr 11 min 59 sec)
Heartbeat CPU 0 instructions: 600000000 cycles: 293850795 heartbeat IPC: 2.654 cumulative IPC: 1.955 (Simulation time: 01 hr 12 min 57 sec)
Heartbeat CPU 0 instructions: 610000000 cycles: 297705897 heartbeat IPC: 2.594 cumulative IPC: 1.964 (Simulation time: 01 hr 13 min 55 sec)
Heartbeat CPU 0 instructions: 620000001 cycles: 301133575 heartbeat IPC: 2.917 cumulative IPC: 1.975 (Simulation time: 01 hr 14 min 50 sec)
Heartbeat CPU 0 instructions: 630000002 cycles: 305410259 heartbeat IPC: 2.338 cumulative IPC: 1.98 (Simulation time: 01 hr 15 min 43 sec)
Heartbeat CPU 0 instructions: 640000001 cycles: 309307465 heartbeat IPC: 2.566 cumulative IPC: 1.988 (Simulation time: 01 hr 16 min 32 sec)
Heartbeat CPU 0 instructions: 650000000 cycles: 313061927 heartbeat IPC: 2.663 cumulative IPC: 1.997 (Simulation time: 01 hr 17 min 18 sec)
Simulation finished CPU 0 instructions: 600000001 cycles: 300524806 cumulative IPC: 1.997 (Simulation time: 01 hr 17 min 18 sec)
Simulation complete CPU 0 instructions: 600000001 cycles: 300524806 cumulative IPC: 1.997 (Simulation time: 01 hr 17 min 18 sec)

ChampSim completed all CPUs

=== Simulation ===
CPU 0 runs traces/400.perlbench-41B.champsimtrace.xz
Region of Interest Statistics

CPU 0 cumulative IPC: 1.997 instructions: 600000001 cycles: 300524806
CPU 0 Branch Prediction Accuracy: 96.56% MPKI: 7.112 Average ROB Occupancy at Mispredict: 47.46
Branch type MPKI
BRANCH_DIRECT_JUMP: 0.0123
BRANCH_INDIRECT: 0.323
BRANCH_CONDITIONAL: 6.56
BRANCH_DIRECT_CALL: 0.0043
BRANCH_INDIRECT_CALL: 0.2
BRANCH_RETURN: 0.00828

LLC TOTAL        ACCESS:     592310 HIT:     285643 MISS:     306667
LLC LOAD         ACCESS:     402708 HIT:     163259 MISS:     239449
LLC RFO          ACCESS:      32515 HIT:      16449 MISS:      16066
LLC PREFETCH     ACCESS:      53174 HIT:      24675 MISS:      28499
LLC WRITE        ACCESS:      84882 HIT:      73080 MISS:      11802
LLC TRANSLATION  ACCESS:      19031 HIT:       8180 MISS:      10851
LLC PREFETCH REQUESTED:      53174 ISSUED:      53174 USEFUL:      17537 USELESS:       6466
LLC AVERAGE MISS LATENCY: 547.5 cycles
cpu0_DTLB TOTAL        ACCESS:  141911119 HIT:  141223480 MISS:     687639
cpu0_DTLB LOAD         ACCESS:  141911119 HIT:  141223480 MISS:     687639
cpu0_DTLB RFO          ACCESS:          0 HIT:          0 MISS:          0
cpu0_DTLB PREFETCH     ACCESS:          0 HIT:          0 MISS:          0
cpu0_DTLB WRITE        ACCESS:          0 HIT:          0 MISS:          0
cpu0_DTLB TRANSLATION  ACCESS:          0 HIT:          0 MISS:          0
cpu0_DTLB PREFETCH REQUESTED:          0 ISSUED:          0 USEFUL:          0 USELESS:          0
cpu0_DTLB AVERAGE MISS LATENCY: 15.79 cycles
cpu0_ITLB TOTAL        ACCESS:    4859980 HIT:    4806864 MISS:      53116
cpu0_ITLB LOAD         ACCESS:    4859980 HIT:    4806864 MISS:      53116
cpu0_ITLB RFO          ACCESS:          0 HIT:          0 MISS:          0
cpu0_ITLB PREFETCH     ACCESS:          0 HIT:          0 MISS:          0
cpu0_ITLB WRITE        ACCESS:          0 HIT:          0 MISS:          0
cpu0_ITLB TRANSLATION  ACCESS:          0 HIT:          0 MISS:          0
cpu0_ITLB PREFETCH REQUESTED:          0 ISSUED:          0 USEFUL:          0 USELESS:          0
cpu0_ITLB AVERAGE MISS LATENCY: 8.333 cycles
cpu0_L1D TOTAL        ACCESS:  188561980 HIT:  186820611 MISS:    1741369
cpu0_L1D LOAD         ACCESS:  105194781 HIT:  103834610 MISS:    1360171
cpu0_L1D RFO          ACCESS:          0 HIT:          0 MISS:          0
cpu0_L1D PREFETCH     ACCESS:          0 HIT:          0 MISS:          0
cpu0_L1D WRITE        ACCESS:   83342736 HIT:   82984935 MISS:     357801
cpu0_L1D TRANSLATION  ACCESS:      24463 HIT:       1066 MISS:      23397
cpu0_L1D PREFETCH REQUESTED:          0 ISSUED:          0 USEFUL:          0 USELESS:          0
cpu0_L1D AVERAGE MISS LATENCY: 90.08 cycles
cpu0_L1I TOTAL        ACCESS:    5597640 HIT:    4854051 MISS:     743589
cpu0_L1I LOAD         ACCESS:    5597640 HIT:    4854051 MISS:     743589
cpu0_L1I RFO          ACCESS:          0 HIT:          0 MISS:          0
cpu0_L1I PREFETCH     ACCESS:          0 HIT:          0 MISS:          0
cpu0_L1I WRITE        ACCESS:          0 HIT:          0 MISS:          0
cpu0_L1I TRANSLATION  ACCESS:          0 HIT:          0 MISS:          0
cpu0_L1I PREFETCH REQUESTED:          0 ISSUED:          0 USEFUL:          0 USELESS:          0
cpu0_L1I AVERAGE MISS LATENCY: 15.06 cycles
cpu0_L2C TOTAL        ACCESS:    1665546 HIT:    1209514 MISS:     456032
cpu0_L2C LOAD         ACCESS:    1315899 HIT:     913191 MISS:     402708
cpu0_L2C RFO          ACCESS:      88371 HIT:      55856 MISS:      32515
cpu0_L2C PREFETCH     ACCESS:          0 HIT:          0 MISS:          0
cpu0_L2C WRITE        ACCESS:     237947 HIT:     236169 MISS:       1778
cpu0_L2C TRANSLATION  ACCESS:      23329 HIT:       4298 MISS:      19031
cpu0_L2C PREFETCH REQUESTED:          0 ISSUED:          0 USEFUL:          0 USELESS:          0
cpu0_L2C AVERAGE MISS LATENCY: 349.9 cycles
cpu0_STLB TOTAL        ACCESS:     507465 HIT:     484671 MISS:      22794
cpu0_STLB LOAD         ACCESS:     507465 HIT:     484671 MISS:      22794
cpu0_STLB RFO          ACCESS:          0 HIT:          0 MISS:          0
cpu0_STLB PREFETCH     ACCESS:          0 HIT:          0 MISS:          0
cpu0_STLB WRITE        ACCESS:          0 HIT:          0 MISS:          0
cpu0_STLB TRANSLATION  ACCESS:          0 HIT:          0 MISS:          0
cpu0_STLB PREFETCH REQUESTED:          0 ISSUED:          0 USEFUL:          0 USELESS:          0
cpu0_STLB AVERAGE MISS LATENCY: 359 cycles

DRAM Statistics

Channel 0 RQ ROW_BUFFER_HIT:      53558
  ROW_BUFFER_MISS:     236046
 AVG DBUS CONGESTED CYCLE: 3.815
WQ ROW_BUFFER_HIT: Channel 0 
  ROW_BUFFER_MISS:       8468
  FULL:      32459
