WARNING: physical memory size is smaller than virtual memory size.

*** ChampSim Multicore Out-of-Order Simulator ***
Warmup Instructions: 50000000
Simulation Instructions: 600000000
Number of CPUs: 1
Page size: 4096

CPU 0 Tage branch predictor
Off-chip DRAM Size: 4 GiB Channels: 1 Width: 64-bit Data Race: 3200 MT/s
Heartbeat CPU 0 instructions: 10000000 cycles: 2500061 heartbeat IPC: 4 cumulative IPC: 4 (Simulation time: 00 hr 00 min 53 sec)
Heartbeat CPU 0 instructions: 20000000 cycles: 5000061 heartbeat IPC: 4 cumulative IPC: 4 (Simulation time: 00 hr 01 min 50 sec)
Heartbeat CPU 0 instructions: 30000000 cycles: 7500061 heartbeat IPC: 4 cumulative IPC: 4 (Simulation time: 00 hr 02 min 47 sec)
Heartbeat CPU 0 instructions: 40000000 cycles: 10000061 heartbeat IPC: 4 cumulative IPC: 4 (Simulation time: 00 hr 03 min 43 sec)
Heartbeat CPU 0 instructions: 50000000 cycles: 12500061 heartbeat IPC: 4 cumulative IPC: 4 (Simulation time: 00 hr 04 min 36 sec)
Warmup finished CPU 0 instructions: 50000000 cycles: 12500062 cumulative IPC: 4 (Simulation time: 00 hr 04 min 36 sec)
Warmup complete CPU 0 instructions: 50000000 cycles: 12500062 cumulative IPC: 4 (Simulation time: 00 hr 04 min 36 sec)
Heartbeat CPU 0 instructions: 60000004 cycles: 15503677 heartbeat IPC: 3.329 cumulative IPC: 3.329 (Simulation time: 00 hr 05 min 46 sec)
Heartbeat CPU 0 instructions: 70000003 cycles: 18382317 heartbeat IPC: 3.474 cumulative IPC: 3.4 (Simulation time: 00 hr 06 min 52 sec)
Heartbeat CPU 0 instructions: 80000002 cycles: 21404747 heartbeat IPC: 3.309 cumulative IPC: 3.369 (Simulation time: 00 hr 08 min 03 sec)
Heartbeat CPU 0 instructions: 90000000 cycles: 24127135 heartbeat IPC: 3.673 cumulative IPC: 3.44 (Simulation time: 00 hr 09 min 21 sec)
Heartbeat CPU 0 instructions: 100000003 cycles: 26893697 heartbeat IPC: 3.615 cumulative IPC: 3.474 (Simulation time: 00 hr 10 min 39 sec)
Heartbeat CPU 0 instructions: 110000001 cycles: 29799971 heartbeat IPC: 3.441 cumulative IPC: 3.468 (Simulation time: 00 hr 11 min 53 sec)
Heartbeat CPU 0 instructions: 120000001 cycles: 32524189 heartbeat IPC: 3.671 cumulative IPC: 3.496 (Simulation time: 00 hr 12 min 59 sec)
Heartbeat CPU 0 instructions: 130000003 cycles: 35426960 heartbeat IPC: 3.445 cumulative IPC: 3.489 (Simulation time: 00 hr 14 min 05 sec)
Heartbeat CPU 0 instructions: 140000002 cycles: 38265022 heartbeat IPC: 3.524 cumulative IPC: 3.493 (Simulation time: 00 hr 15 min 07 sec)
Heartbeat CPU 0 instructions: 150000001 cycles: 41039448 heartbeat IPC: 3.604 cumulative IPC: 3.504 (Simulation time: 00 hr 16 min 12 sec)
Heartbeat CPU 0 instructions: 160000000 cycles: 43954335 heartbeat IPC: 3.431 cumulative IPC: 3.497 (Simulation time: 00 hr 17 min 17 sec)
Heartbeat CPU 0 instructions: 170000001 cycles: 46885360 heartbeat IPC: 3.412 cumulative IPC: 3.49 (Simulation time: 00 hr 18 min 21 sec)
Heartbeat CPU 0 instructions: 180000000 cycles: 49683326 heartbeat IPC: 3.574 cumulative IPC: 3.496 (Simulation time: 00 hr 19 min 24 sec)
Heartbeat CPU 0 instructions: 190000002 cycles: 52392353 heartbeat IPC: 3.691 cumulative IPC: 3.509 (Simulation time: 00 hr 20 min 26 sec)
Heartbeat CPU 0 instructions: 200000002 cycles: 55223407 heartbeat IPC: 3.532 cumulative IPC: 3.511 (Simulation time: 00 hr 21 min 29 sec)
Heartbeat CPU 0 instructions: 210000000 cycles: 58123338 heartbeat IPC: 3.448 cumulative IPC: 3.507 (Simulation time: 00 hr 22 min 36 sec)
Heartbeat CPU 0 instructions: 220000001 cycles: 60889176 heartbeat IPC: 3.616 cumulative IPC: 3.513 (Simulation time: 00 hr 23 min 55 sec)
Heartbeat CPU 0 instructions: 230000002 cycles: 63783855 heartbeat IPC: 3.455 cumulative IPC: 3.51 (Simulation time: 00 hr 25 min 10 sec)
Heartbeat CPU 0 instructions: 240000004 cycles: 66745946 heartbeat IPC: 3.376 cumulative IPC: 3.503 (Simulation time: 00 hr 26 min 18 sec)
Heartbeat CPU 0 instructions: 250000003 cycles: 69659099 heartbeat IPC: 3.433 cumulative IPC: 3.499 (Simulation time: 00 hr 27 min 23 sec)
Heartbeat CPU 0 instructions: 260000001 cycles: 72454519 heartbeat IPC: 3.577 cumulative IPC: 3.503 (Simulation time: 00 hr 28 min 25 sec)
Heartbeat CPU 0 instructions: 270000002 cycles: 78046349 heartbeat IPC: 1.788 cumulative IPC: 3.356 (Simulation time: 00 hr 29 min 46 sec)
Heartbeat CPU 0 instructions: 280000000 cycles: 86935551 heartbeat IPC: 1.125 cumulative IPC: 3.09 (Simulation time: 00 hr 31 min 39 sec)
Heartbeat CPU 0 instructions: 290000000 cycles: 94310286 heartbeat IPC: 1.356 cumulative IPC: 2.934 (Simulation time: 00 hr 33 min 24 sec)
Heartbeat CPU 0 instructions: 300000003 cycles: 99531459 heartbeat IPC: 1.915 cumulative IPC: 2.873 (Simulation time: 00 hr 34 min 53 sec)
Heartbeat CPU 0 instructions: 310000001 cycles: 107813599 heartbeat IPC: 1.207 cumulative IPC: 2.728 (Simulation time: 00 hr 36 min 59 sec)
Heartbeat CPU 0 instructions: 320000004 cycles: 111587340 heartbeat IPC: 2.65 cumulative IPC: 2.725 (Simulation time: 00 hr 38 min 27 sec)
Heartbeat CPU 0 instructions: 330000000 cycles: 114779167 heartbeat IPC: 3.133 cumulative IPC: 2.738 (Simulation time: 00 hr 39 min 45 sec)
Heartbeat CPU 0 instructions: 340000001 cycles: 117976316 heartbeat IPC: 3.128 cumulative IPC: 2.749 (Simulation time: 00 hr 41 min 01 sec)
Heartbeat CPU 0 instructions: 350000000 cycles: 121329458 heartbeat IPC: 2.982 cumulative IPC: 2.757 (Simulation time: 00 hr 42 min 15 sec)
Heartbeat CPU 0 instructions: 360000004 cycles: 124492499 heartbeat IPC: 3.162 cumulative IPC: 2.768 (Simulation time: 00 hr 43 min 24 sec)
Heartbeat CPU 0 instructions: 370000001 cycles: 127597907 heartbeat IPC: 3.22 cumulative IPC: 2.78 (Simulation time: 00 hr 44 min 28 sec)
Heartbeat CPU 0 instructions: 380000004 cycles: 130717675 heartbeat IPC: 3.205 cumulative IPC: 2.791 (Simulation time: 00 hr 45 min 35 sec)
Heartbeat CPU 0 instructions: 390000002 cycles: 133971538 heartbeat IPC: 3.073 cumulative IPC: 2.799 (Simulation time: 00 hr 46 min 46 sec)
Heartbeat CPU 0 instructions: 400000000 cycles: 137298367 heartbeat IPC: 3.006 cumulative IPC: 2.805 (Simulation time: 00 hr 47 min 55 sec)
Heartbeat CPU 0 instructions: 410000000 cycles: 143237382 heartbeat IPC: 1.684 cumulative IPC: 2.754 (Simulation time: 00 hr 49 min 24 sec)
Heartbeat CPU 0 instructions: 420000003 cycles: 151751004 heartbeat IPC: 1.175 cumulative IPC: 2.657 (Simulation time: 00 hr 51 min 14 sec)
Heartbeat CPU 0 instructions: 430000000 cycles: 157135417 heartbeat IPC: 1.857 cumulative IPC: 2.627 (Simulation time: 00 hr 52 min 44 sec)
Heartbeat CPU 0 instructions: 440000004 cycles: 162004297 heartbeat IPC: 2.054 cumulative IPC: 2.609 (Simulation time: 00 hr 54 min 36 sec)
Heartbeat CPU 0 instructions: 450000001 cycles: 166676920 heartbeat IPC: 2.14 cumulative IPC: 2.594 (Simulation time: 00 hr 56 min 20 sec)
Heartbeat CPU 0 instructions: 460000002 cycles: 174937540 heartbeat IPC: 1.211 cumulative IPC: 2.524 (Simulation time: 00 hr 58 min 25 sec)
Heartbeat CPU 0 instructions: 470000003 cycles: 182424414 heartbeat IPC: 1.336 cumulative IPC: 2.472 (Simulation time: 01 hr 00 min 22 sec)
Heartbeat CPU 0 instructions: 480000000 cycles: 185854443 heartbeat IPC: 2.915 cumulative IPC: 2.48 (Simulation time: 01 hr 01 min 39 sec)
Heartbeat CPU 0 instructions: 490000001 cycles: 189522057 heartbeat IPC: 2.727 cumulative IPC: 2.486 (Simulation time: 01 hr 02 min 55 sec)
Heartbeat CPU 0 instructions: 500000002 cycles: 193021320 heartbeat IPC: 2.858 cumulative IPC: 2.493 (Simulation time: 01 hr 04 min 06 sec)
Heartbeat CPU 0 instructions: 510000000 cycles: 196505784 heartbeat IPC: 2.87 cumulative IPC: 2.5 (Simulation time: 01 hr 05 min 16 sec)
Heartbeat CPU 0 instructions: 520000000 cycles: 200035340 heartbeat IPC: 2.833 cumulative IPC: 2.506 (Simulation time: 01 hr 06 min 26 sec)
Heartbeat CPU 0 instructions: 530000001 cycles: 208662684 heartbeat IPC: 1.159 cumulative IPC: 2.447 (Simulation time: 01 hr 08 min 18 sec)
Heartbeat CPU 0 instructions: 540000000 cycles: 217036320 heartbeat IPC: 1.194 cumulative IPC: 2.396 (Simulation time: 01 hr 10 min 10 sec)
Heartbeat CPU 0 instructions: 550000004 cycles: 227166138 heartbeat IPC: 0.9872 cumulative IPC: 2.329 (Simulation time: 01 hr 12 min 16 sec)
Heartbeat CPU 0 instructions: 560000004 cycles: 230749117 heartbeat IPC: 2.791 cumulative IPC: 2.337 (Simulation time: 01 hr 13 min 24 sec)
Heartbeat CPU 0 instructions: 570000002 cycles: 233574941 heartbeat IPC: 3.539 cumulative IPC: 2.352 (Simulation time: 01 hr 14 min 28 sec)
Heartbeat CPU 0 instructions: 580000000 cycles: 236509805 heartbeat IPC: 3.407 cumulative IPC: 2.366 (Simulation time: 01 hr 15 min 33 sec)
Heartbeat CPU 0 instructions: 590000001 cycles: 239447550 heartbeat IPC: 3.404 cumulative IPC: 2.379 (Simulation time: 01 hr 16 min 37 sec)
Heartbeat CPU 0 instructions: 600000003 cycles: 242148412 heartbeat IPC: 3.703 cumulative IPC: 2.395 (Simulation time: 01 hr 17 min 43 sec)
Heartbeat CPU 0 instructions: 610000001 cycles: 245021360 heartbeat IPC: 3.481 cumulative IPC: 2.408 (Simulation time: 01 hr 18 min 48 sec)
Heartbeat CPU 0 instructions: 620000004 cycles: 247981266 heartbeat IPC: 3.378 cumulative IPC: 2.421 (Simulation time: 01 hr 19 min 55 sec)
Heartbeat CPU 0 instructions: 630000002 cycles: 250792972 heartbeat IPC: 3.557 cumulative IPC: 2.434 (Simulation time: 01 hr 20 min 57 sec)
Heartbeat CPU 0 instructions: 640000004 cycles: 253842328 heartbeat IPC: 3.279 cumulative IPC: 2.445 (Simulation time: 01 hr 22 min 01 sec)
Heartbeat CPU 0 instructions: 650000001 cycles: 256550709 heartbeat IPC: 3.692 cumulative IPC: 2.459 (Simulation time: 01 hr 22 min 59 sec)
Simulation finished CPU 0 instructions: 600000001 cycles: 244050648 cumulative IPC: 2.459 (Simulation time: 01 hr 22 min 59 sec)
Simulation complete CPU 0 instructions: 600000001 cycles: 244050648 cumulative IPC: 2.459 (Simulation time: 01 hr 22 min 59 sec)

ChampSim completed all CPUs

=== Simulation ===
CPU 0 runs traces/400.perlbench-50B.champsimtrace.xz
Region of Interest Statistics

CPU 0 cumulative IPC: 2.459 instructions: 600000001 cycles: 244050648
CPU 0 Branch Prediction Accuracy: 99.01% MPKI: 2.04 Average ROB Occupancy at Mispredict: 94.47
Branch type MPKI
BRANCH_DIRECT_JUMP: 0.0176
BRANCH_INDIRECT: 0.38
BRANCH_CONDITIONAL: 1.19
BRANCH_DIRECT_CALL: 0.0067
BRANCH_INDIRECT_CALL: 0.431
BRANCH_RETURN: 0.0161

LLC TOTAL        ACCESS:    1358639 HIT:     873002 MISS:     485637
LLC LOAD         ACCESS:     581180 HIT:     361541 MISS:     219639
LLC RFO          ACCESS:      47260 HIT:      26964 MISS:      20296
LLC PREFETCH     ACCESS:     581180 HIT:     349308 MISS:     231872
LLC WRITE        ACCESS:     126911 HIT:     126092 MISS:        819
LLC TRANSLATION  ACCESS:      22108 HIT:       9097 MISS:      13011
LLC PREFETCH REQUESTED:     581180 ISSUED:     581180 USEFUL:      83910 USELESS:      84924
LLC AVERAGE MISS LATENCY: 631.2 cycles
cpu0_DTLB TOTAL        ACCESS:  133230733 HIT:  131876024 MISS:    1354709
cpu0_DTLB LOAD         ACCESS:  133230733 HIT:  131876024 MISS:    1354709
cpu0_DTLB RFO          ACCESS:          0 HIT:          0 MISS:          0
cpu0_DTLB PREFETCH     ACCESS:          0 HIT:          0 MISS:          0
cpu0_DTLB WRITE        ACCESS:          0 HIT:          0 MISS:          0
cpu0_DTLB TRANSLATION  ACCESS:          0 HIT:          0 MISS:          0
cpu0_DTLB PREFETCH REQUESTED:          0 ISSUED:          0 USEFUL:          0 USELESS:          0
cpu0_DTLB AVERAGE MISS LATENCY: 12.92 cycles
cpu0_ITLB TOTAL        ACCESS:    8992006 HIT:    8782587 MISS:     209419
cpu0_ITLB LOAD         ACCESS:    8992006 HIT:    8782587 MISS:     209419
cpu0_ITLB RFO          ACCESS:          0 HIT:          0 MISS:          0
cpu0_ITLB PREFETCH     ACCESS:          0 HIT:          0 MISS:          0
cpu0_ITLB WRITE        ACCESS:          0 HIT:          0 MISS:          0
cpu0_ITLB TRANSLATION  ACCESS:          0 HIT:          0 MISS:          0
cpu0_ITLB PREFETCH REQUESTED:          0 ISSUED:          0 USEFUL:          0 USELESS:          0
cpu0_ITLB AVERAGE MISS LATENCY: 3.252 cycles
cpu0_L1D TOTAL        ACCESS:  178270659 HIT:  174480727 MISS:    3789932
cpu0_L1D LOAD         ACCESS:   92752023 HIT:   89647255 MISS:    3104768
cpu0_L1D RFO          ACCESS:          0 HIT:          0 MISS:          0
cpu0_L1D PREFETCH     ACCESS:          0 HIT:          0 MISS:          0
cpu0_L1D WRITE        ACCESS:   85490102 HIT:   84832052 MISS:     658050
cpu0_L1D TRANSLATION  ACCESS:      28534 HIT:       1420 MISS:      27114
cpu0_L1D PREFETCH REQUESTED:          0 ISSUED:          0 USEFUL:          0 USELESS:          0
cpu0_L1D AVERAGE MISS LATENCY: 50.16 cycles
cpu0_L1I TOTAL        ACCESS:   10512187 HIT:    8614447 MISS:    1897740
cpu0_L1I LOAD         ACCESS:   10512187 HIT:    8614447 MISS:    1897740
cpu0_L1I RFO          ACCESS:          0 HIT:          0 MISS:          0
cpu0_L1I PREFETCH     ACCESS:          0 HIT:          0 MISS:          0
cpu0_L1I WRITE        ACCESS:          0 HIT:          0 MISS:          0
cpu0_L1I TRANSLATION  ACCESS:          0 HIT:          0 MISS:          0
cpu0_L1I PREFETCH REQUESTED:          0 ISSUED:          0 USEFUL:          0 USELESS:          0
cpu0_L1I AVERAGE MISS LATENCY: 9.82 cycles
cpu0_L2C TOTAL        ACCESS:    3840049 HIT:    3186514 MISS:     653535
cpu0_L2C LOAD         ACCESS:    3103776 HIT:    2522595 MISS:     581181
cpu0_L2C RFO          ACCESS:     194869 HIT:     147609 MISS:      47260
cpu0_L2C PREFETCH     ACCESS:          0 HIT:          0 MISS:          0
cpu0_L2C WRITE        ACCESS:     514369 HIT:     511383 MISS:       2986
cpu0_L2C TRANSLATION  ACCESS:      27035 HIT:       4927 MISS:      22108
cpu0_L2C PREFETCH REQUESTED:          0 ISSUED:          0 USEFUL:          0 USELESS:          0
cpu0_L2C AVERAGE MISS LATENCY: 291 cycles
cpu0_STLB TOTAL        ACCESS:    1010050 HIT:     983359 MISS:      26691
cpu0_STLB LOAD         ACCESS:    1010050 HIT:     983359 MISS:      26691
cpu0_STLB RFO          ACCESS:          0 HIT:          0 MISS:          0
cpu0_STLB PREFETCH     ACCESS:          0 HIT:          0 MISS:          0
cpu0_STLB WRITE        ACCESS:          0 HIT:          0 MISS:          0
cpu0_STLB TRANSLATION  ACCESS:          0 HIT:          0 MISS:          0
cpu0_STLB PREFETCH REQUESTED:          0 ISSUED:          0 USEFUL:          0 USELESS:          0
cpu0_STLB AVERAGE MISS LATENCY: 458.5 cycles

DRAM Statistics

Channel 0 RQ ROW_BUFFER_HIT:      87257
  ROW_BUFFER_MISS:     314633
 AVG DBUS CONGESTED CYCLE: 3.893
WQ ROW_BUFFER_HIT: Channel 0 
  ROW_BUFFER_MISS:       4831
  FULL:      44792
