WARNING: physical memory size is smaller than virtual memory size.

*** ChampSim Multicore Out-of-Order Simulator ***
Warmup Instructions: 50000000
Simulation Instructions: 600000000
Number of CPUs: 1
Page size: 4096

Off-chip DRAM Size: 4 GiB Channels: 1 Width: 64-bit Data Race: 3200 MT/s
Heartbeat CPU 0 instructions: 10000000 cycles: 2500061 heartbeat IPC: 4 cumulative IPC: 4 (Simulation time: 00 hr 00 min 34 sec)
Heartbeat CPU 0 instructions: 20000000 cycles: 5000061 heartbeat IPC: 4 cumulative IPC: 4 (Simulation time: 00 hr 01 min 07 sec)
Heartbeat CPU 0 instructions: 30000000 cycles: 7500061 heartbeat IPC: 4 cumulative IPC: 4 (Simulation time: 00 hr 01 min 38 sec)
Heartbeat CPU 0 instructions: 40000000 cycles: 10000061 heartbeat IPC: 4 cumulative IPC: 4 (Simulation time: 00 hr 02 min 12 sec)
Heartbeat CPU 0 instructions: 50000000 cycles: 12500061 heartbeat IPC: 4 cumulative IPC: 4 (Simulation time: 00 hr 02 min 44 sec)
Warmup finished CPU 0 instructions: 50000000 cycles: 12500062 cumulative IPC: 4 (Simulation time: 00 hr 02 min 44 sec)
Warmup complete CPU 0 instructions: 50000000 cycles: 12500062 cumulative IPC: 4 (Simulation time: 00 hr 02 min 44 sec)
Heartbeat CPU 0 instructions: 60000002 cycles: 16907366 heartbeat IPC: 2.269 cumulative IPC: 2.269 (Simulation time: 00 hr 03 min 32 sec)
Heartbeat CPU 0 instructions: 70000003 cycles: 21889050 heartbeat IPC: 2.007 cumulative IPC: 2.13 (Simulation time: 00 hr 04 min 21 sec)
Heartbeat CPU 0 instructions: 80000001 cycles: 27230745 heartbeat IPC: 1.872 cumulative IPC: 2.037 (Simulation time: 00 hr 05 min 12 sec)
Heartbeat CPU 0 instructions: 90000000 cycles: 31527294 heartbeat IPC: 2.327 cumulative IPC: 2.102 (Simulation time: 00 hr 05 min 58 sec)
Heartbeat CPU 0 instructions: 100000003 cycles: 36379334 heartbeat IPC: 2.061 cumulative IPC: 2.094 (Simulation time: 00 hr 06 min 47 sec)
Heartbeat CPU 0 instructions: 110000002 cycles: 41247374 heartbeat IPC: 2.054 cumulative IPC: 2.087 (Simulation time: 00 hr 07 min 37 sec)
Heartbeat CPU 0 instructions: 120000001 cycles: 46240828 heartbeat IPC: 2.003 cumulative IPC: 2.075 (Simulation time: 00 hr 08 min 27 sec)
Heartbeat CPU 0 instructions: 130000003 cycles: 50807189 heartbeat IPC: 2.19 cumulative IPC: 2.088 (Simulation time: 00 hr 09 min 17 sec)
Heartbeat CPU 0 instructions: 140000002 cycles: 55694832 heartbeat IPC: 2.046 cumulative IPC: 2.084 (Simulation time: 00 hr 10 min 08 sec)
Heartbeat CPU 0 instructions: 150000001 cycles: 60360024 heartbeat IPC: 2.144 cumulative IPC: 2.089 (Simulation time: 00 hr 10 min 57 sec)
Heartbeat CPU 0 instructions: 160000000 cycles: 64996045 heartbeat IPC: 2.157 cumulative IPC: 2.095 (Simulation time: 00 hr 11 min 45 sec)
Heartbeat CPU 0 instructions: 170000000 cycles: 70325364 heartbeat IPC: 1.876 cumulative IPC: 2.075 (Simulation time: 00 hr 12 min 36 sec)
Heartbeat CPU 0 instructions: 180000001 cycles: 76043102 heartbeat IPC: 1.749 cumulative IPC: 2.046 (Simulation time: 00 hr 13 min 31 sec)
Heartbeat CPU 0 instructions: 190000002 cycles: 80511237 heartbeat IPC: 2.238 cumulative IPC: 2.058 (Simulation time: 00 hr 14 min 19 sec)
Heartbeat CPU 0 instructions: 200000002 cycles: 85411245 heartbeat IPC: 2.041 cumulative IPC: 2.057 (Simulation time: 00 hr 15 min 09 sec)
Heartbeat CPU 0 instructions: 210000000 cycles: 90413026 heartbeat IPC: 1.999 cumulative IPC: 2.054 (Simulation time: 00 hr 16 min 00 sec)
Heartbeat CPU 0 instructions: 220000001 cycles: 95334767 heartbeat IPC: 2.032 cumulative IPC: 2.052 (Simulation time: 00 hr 16 min 50 sec)
Heartbeat CPU 0 instructions: 230000002 cycles: 100578650 heartbeat IPC: 1.907 cumulative IPC: 2.044 (Simulation time: 00 hr 17 min 41 sec)
Heartbeat CPU 0 instructions: 240000001 cycles: 105540806 heartbeat IPC: 2.015 cumulative IPC: 2.042 (Simulation time: 00 hr 18 min 30 sec)
Heartbeat CPU 0 instructions: 250000003 cycles: 110715565 heartbeat IPC: 1.932 cumulative IPC: 2.036 (Simulation time: 00 hr 19 min 21 sec)
Heartbeat CPU 0 instructions: 260000001 cycles: 115572205 heartbeat IPC: 2.059 cumulative IPC: 2.037 (Simulation time: 00 hr 20 min 10 sec)
Heartbeat CPU 0 instructions: 270000000 cycles: 123328794 heartbeat IPC: 1.289 cumulative IPC: 1.985 (Simulation time: 00 hr 21 min 15 sec)
Heartbeat CPU 0 instructions: 280000000 cycles: 135435997 heartbeat IPC: 0.826 cumulative IPC: 1.871 (Simulation time: 00 hr 22 min 47 sec)
Heartbeat CPU 0 instructions: 290000001 cycles: 146107113 heartbeat IPC: 0.9371 cumulative IPC: 1.796 (Simulation time: 00 hr 24 min 12 sec)
Heartbeat CPU 0 instructions: 300000003 cycles: 153812828 heartbeat IPC: 1.298 cumulative IPC: 1.769 (Simulation time: 00 hr 25 min 21 sec)
Heartbeat CPU 0 instructions: 310000004 cycles: 165464930 heartbeat IPC: 0.8582 cumulative IPC: 1.7 (Simulation time: 00 hr 26 min 51 sec)
Heartbeat CPU 0 instructions: 320000004 cycles: 171243603 heartbeat IPC: 1.731 cumulative IPC: 1.701 (Simulation time: 00 hr 27 min 48 sec)
Heartbeat CPU 0 instructions: 330000000 cycles: 176533414 heartbeat IPC: 1.89 cumulative IPC: 1.707 (Simulation time: 00 hr 28 min 41 sec)
Heartbeat CPU 0 instructions: 340000001 cycles: 181700674 heartbeat IPC: 1.935 cumulative IPC: 1.714 (Simulation time: 00 hr 29 min 33 sec)
Heartbeat CPU 0 instructions: 350000000 cycles: 187104525 heartbeat IPC: 1.851 cumulative IPC: 1.718 (Simulation time: 00 hr 30 min 26 sec)
Heartbeat CPU 0 instructions: 360000003 cycles: 192283734 heartbeat IPC: 1.931 cumulative IPC: 1.724 (Simulation time: 00 hr 31 min 19 sec)
Heartbeat CPU 0 instructions: 370000001 cycles: 197376447 heartbeat IPC: 1.964 cumulative IPC: 1.731 (Simulation time: 00 hr 32 min 11 sec)
Heartbeat CPU 0 instructions: 380000004 cycles: 202747368 heartbeat IPC: 1.862 cumulative IPC: 1.735 (Simulation time: 00 hr 33 min 04 sec)
Heartbeat CPU 0 instructions: 390000002 cycles: 208160134 heartbeat IPC: 1.847 cumulative IPC: 1.738 (Simulation time: 00 hr 33 min 59 sec)
Heartbeat CPU 0 instructions: 400000000 cycles: 213668799 heartbeat IPC: 1.815 cumulative IPC: 1.74 (Simulation time: 00 hr 34 min 54 sec)
Heartbeat CPU 0 instructions: 410000000 cycles: 222048964 heartbeat IPC: 1.193 cumulative IPC: 1.718 (Simulation time: 00 hr 36 min 06 sec)
Heartbeat CPU 0 instructions: 420000001 cycles: 233477475 heartbeat IPC: 0.875 cumulative IPC: 1.674 (Simulation time: 00 hr 37 min 38 sec)
Heartbeat CPU 0 instructions: 430000000 cycles: 241183933 heartbeat IPC: 1.298 cumulative IPC: 1.662 (Simulation time: 00 hr 38 min 50 sec)
Heartbeat CPU 0 instructions: 440000002 cycles: 248633219 heartbeat IPC: 1.342 cumulative IPC: 1.652 (Simulation time: 00 hr 39 min 58 sec)
Heartbeat CPU 0 instructions: 450000000 cycles: 255617379 heartbeat IPC: 1.432 cumulative IPC: 1.645 (Simulation time: 00 hr 41 min 04 sec)
Heartbeat CPU 0 instructions: 460000002 cycles: 266950903 heartbeat IPC: 0.8823 cumulative IPC: 1.611 (Simulation time: 00 hr 42 min 35 sec)
Heartbeat CPU 0 instructions: 470000000 cycles: 277278719 heartbeat IPC: 0.9683 cumulative IPC: 1.586 (Simulation time: 00 hr 43 min 59 sec)
Heartbeat CPU 0 instructions: 480000000 cycles: 282746769 heartbeat IPC: 1.829 cumulative IPC: 1.591 (Simulation time: 00 hr 44 min 53 sec)
Heartbeat CPU 0 instructions: 490000001 cycles: 288504305 heartbeat IPC: 1.737 cumulative IPC: 1.594 (Simulation time: 00 hr 45 min 50 sec)
Heartbeat CPU 0 instructions: 500000002 cycles: 294143135 heartbeat IPC: 1.773 cumulative IPC: 1.598 (Simulation time: 00 hr 46 min 47 sec)
Heartbeat CPU 0 instructions: 510000000 cycles: 299862532 heartbeat IPC: 1.748 cumulative IPC: 1.601 (Simulation time: 00 hr 47 min 44 sec)
Heartbeat CPU 0 instructions: 520000000 cycles: 305652321 heartbeat IPC: 1.727 cumulative IPC: 1.603 (Simulation time: 00 hr 48 min 42 sec)
Heartbeat CPU 0 instructions: 530000001 cycles: 317337576 heartbeat IPC: 0.8558 cumulative IPC: 1.575 (Simulation time: 00 hr 50 min 14 sec)
Heartbeat CPU 0 instructions: 540000000 cycles: 328205144 heartbeat IPC: 0.9202 cumulative IPC: 1.552 (Simulation time: 00 hr 51 min 39 sec)
Heartbeat CPU 0 instructions: 550000002 cycles: 341234980 heartbeat IPC: 0.7675 cumulative IPC: 1.521 (Simulation time: 00 hr 53 min 19 sec)
Heartbeat CPU 0 instructions: 560000004 cycles: 346094650 heartbeat IPC: 2.058 cumulative IPC: 1.529 (Simulation time: 00 hr 54 min 06 sec)
Heartbeat CPU 0 instructions: 570000001 cycles: 350505725 heartbeat IPC: 2.267 cumulative IPC: 1.538 (Simulation time: 00 hr 54 min 51 sec)
Heartbeat CPU 0 instructions: 580000003 cycles: 354749166 heartbeat IPC: 2.357 cumulative IPC: 1.549 (Simulation time: 00 hr 55 min 34 sec)
Heartbeat CPU 0 instructions: 590000001 cycles: 359653997 heartbeat IPC: 2.039 cumulative IPC: 1.556 (Simulation time: 00 hr 56 min 22 sec)
Heartbeat CPU 0 instructions: 600000003 cycles: 364295772 heartbeat IPC: 2.154 cumulative IPC: 1.563 (Simulation time: 00 hr 57 min 12 sec)
Heartbeat CPU 0 instructions: 610000001 cycles: 369157582 heartbeat IPC: 2.057 cumulative IPC: 1.57 (Simulation time: 00 hr 58 min 04 sec)
Heartbeat CPU 0 instructions: 620000000 cycles: 374226421 heartbeat IPC: 1.973 cumulative IPC: 1.576 (Simulation time: 00 hr 58 min 58 sec)
Heartbeat CPU 0 instructions: 630000002 cycles: 378472202 heartbeat IPC: 2.355 cumulative IPC: 1.585 (Simulation time: 00 hr 59 min 45 sec)
Heartbeat CPU 0 instructions: 640000004 cycles: 383792675 heartbeat IPC: 1.88 cumulative IPC: 1.589 (Simulation time: 01 hr 00 min 37 sec)
Heartbeat CPU 0 instructions: 650000001 cycles: 388557133 heartbeat IPC: 2.099 cumulative IPC: 1.596 (Simulation time: 01 hr 01 min 27 sec)
Simulation finished CPU 0 instructions: 600000001 cycles: 376057072 cumulative IPC: 1.596 (Simulation time: 01 hr 01 min 27 sec)
Simulation complete CPU 0 instructions: 600000001 cycles: 376057072 cumulative IPC: 1.596 (Simulation time: 01 hr 01 min 27 sec)

ChampSim completed all CPUs

=== Simulation ===
CPU 0 runs traces/400.perlbench-50B.champsimtrace.xz
Region of Interest Statistics

CPU 0 cumulative IPC: 1.596 instructions: 600000001 cycles: 376057072
CPU 0 Branch Prediction Accuracy: 93.83% MPKI: 12.71 Average ROB Occupancy at Mispredict: 29.57
Branch type MPKI
BRANCH_DIRECT_JUMP: 0.0176
BRANCH_INDIRECT: 0.38
BRANCH_CONDITIONAL: 11.9
BRANCH_DIRECT_CALL: 0.0067
BRANCH_INDIRECT_CALL: 0.431
BRANCH_RETURN: 0.0161

LLC TOTAL        ACCESS:     850223 HIT:     524968 MISS:     325255
LLC LOAD         ACCESS:     586680 HIT:     326740 MISS:     259940
LLC RFO          ACCESS:      47532 HIT:      26621 MISS:      20911
LLC PREFETCH     ACCESS:      65768 HIT:      37157 MISS:      28611
LLC WRITE        ACCESS:     128223 HIT:     124996 MISS:       3227
LLC TRANSLATION  ACCESS:      22020 HIT:       9454 MISS:      12566
LLC PREFETCH REQUESTED:      65768 ISSUED:      65768 USEFUL:      16690 USELESS:       7846
LLC AVERAGE MISS LATENCY: 541.9 cycles
cpu0_DTLB TOTAL        ACCESS:  156766561 HIT:  155465130 MISS:    1301431
cpu0_DTLB LOAD         ACCESS:  156766561 HIT:  155465130 MISS:    1301431
cpu0_DTLB RFO          ACCESS:          0 HIT:          0 MISS:          0
cpu0_DTLB PREFETCH     ACCESS:          0 HIT:          0 MISS:          0
cpu0_DTLB WRITE        ACCESS:          0 HIT:          0 MISS:          0
cpu0_DTLB TRANSLATION  ACCESS:          0 HIT:          0 MISS:          0
cpu0_DTLB PREFETCH REQUESTED:          0 ISSUED:          0 USEFUL:          0 USELESS:          0
cpu0_DTLB AVERAGE MISS LATENCY: 12.42 cycles
cpu0_ITLB TOTAL        ACCESS:    8933292 HIT:    8734720 MISS:     198572
cpu0_ITLB LOAD         ACCESS:    8933292 HIT:    8734720 MISS:     198572
cpu0_ITLB RFO          ACCESS:          0 HIT:          0 MISS:          0
cpu0_ITLB PREFETCH     ACCESS:          0 HIT:          0 MISS:          0
cpu0_ITLB WRITE        ACCESS:          0 HIT:          0 MISS:          0
cpu0_ITLB TRANSLATION  ACCESS:          0 HIT:          0 MISS:          0
cpu0_ITLB PREFETCH REQUESTED:          0 ISSUED:          0 USEFUL:          0 USELESS:          0
cpu0_ITLB AVERAGE MISS LATENCY: 3.297 cycles
cpu0_L1D TOTAL        ACCESS:  203606414 HIT:  199933605 MISS:    3672809
cpu0_L1D LOAD         ACCESS:  117929807 HIT:  114914601 MISS:    3015206
cpu0_L1D RFO          ACCESS:          0 HIT:          0 MISS:          0
cpu0_L1D PREFETCH     ACCESS:          0 HIT:          0 MISS:          0
cpu0_L1D WRITE        ACCESS:   85648065 HIT:   85017606 MISS:     630459
cpu0_L1D TRANSLATION  ACCESS:      28542 HIT:       1398 MISS:      27144
cpu0_L1D PREFETCH REQUESTED:          0 ISSUED:          0 USEFUL:          0 USELESS:          0
cpu0_L1D AVERAGE MISS LATENCY: 48.46 cycles
cpu0_L1I TOTAL        ACCESS:   10371832 HIT:    8574466 MISS:    1797366
cpu0_L1I LOAD         ACCESS:   10371832 HIT:    8574466 MISS:    1797366
cpu0_L1I RFO          ACCESS:          0 HIT:          0 MISS:          0
cpu0_L1I PREFETCH     ACCESS:          0 HIT:          0 MISS:          0
cpu0_L1I WRITE        ACCESS:          0 HIT:          0 MISS:          0
cpu0_L1I TRANSLATION  ACCESS:          0 HIT:          0 MISS:          0
cpu0_L1I PREFETCH REQUESTED:          0 ISSUED:          0 USEFUL:          0 USELESS:          0
cpu0_L1I AVERAGE MISS LATENCY: 11.52 cycles
cpu0_L2C TOTAL        ACCESS:    3837079 HIT:    3177535 MISS:     659544
cpu0_L2C LOAD         ACCESS:    3106341 HIT:    2519661 MISS:     586680
cpu0_L2C RFO          ACCESS:     191822 HIT:     144290 MISS:      47532
cpu0_L2C PREFETCH     ACCESS:          0 HIT:          0 MISS:          0
cpu0_L2C WRITE        ACCESS:     511857 HIT:     508545 MISS:       3312
cpu0_L2C TRANSLATION  ACCESS:      27059 HIT:       5039 MISS:      22020
cpu0_L2C PREFETCH REQUESTED:          0 ISSUED:          0 USEFUL:          0 USELESS:          0
cpu0_L2C AVERAGE MISS LATENCY: 262.1 cycles
cpu0_STLB TOTAL        ACCESS:    1009370 HIT:     982678 MISS:      26692
cpu0_STLB LOAD         ACCESS:    1009370 HIT:     982678 MISS:      26692
cpu0_STLB RFO          ACCESS:          0 HIT:          0 MISS:          0
cpu0_STLB PREFETCH     ACCESS:          0 HIT:          0 MISS:          0
cpu0_STLB WRITE        ACCESS:          0 HIT:          0 MISS:          0
cpu0_STLB TRANSLATION  ACCESS:          0 HIT:          0 MISS:          0
cpu0_STLB PREFETCH REQUESTED:          0 ISSUED:          0 USEFUL:          0 USELESS:          0
cpu0_STLB AVERAGE MISS LATENCY: 387.1 cycles

DRAM Statistics

Channel 0 RQ ROW_BUFFER_HIT:      60453
  ROW_BUFFER_MISS:     256202
 AVG DBUS CONGESTED CYCLE: 3.815
WQ ROW_BUFFER_HIT: Channel 0 
  ROW_BUFFER_MISS:       9094
  FULL:      37837
