WARNING: physical memory size is smaller than virtual memory size.

*** ChampSim Multicore Out-of-Order Simulator ***
Warmup Instructions: 50000000
Simulation Instructions: 600000000
Number of CPUs: 1
Page size: 4096

Off-chip DRAM Size: 4 GiB Channels: 1 Width: 64-bit Data Race: 3200 MT/s
Heartbeat CPU 0 instructions: 10000000 cycles: 2500061 heartbeat IPC: 4 cumulative IPC: 4 (Simulation time: 00 hr 00 min 35 sec)
Heartbeat CPU 0 instructions: 20000000 cycles: 5000061 heartbeat IPC: 4 cumulative IPC: 4 (Simulation time: 00 hr 01 min 07 sec)
Heartbeat CPU 0 instructions: 30000000 cycles: 7500061 heartbeat IPC: 4 cumulative IPC: 4 (Simulation time: 00 hr 01 min 38 sec)
Heartbeat CPU 0 instructions: 40000000 cycles: 10000061 heartbeat IPC: 4 cumulative IPC: 4 (Simulation time: 00 hr 02 min 10 sec)
Heartbeat CPU 0 instructions: 50000000 cycles: 12500061 heartbeat IPC: 4 cumulative IPC: 4 (Simulation time: 00 hr 02 min 44 sec)
Warmup finished CPU 0 instructions: 50000000 cycles: 12500062 cumulative IPC: 4 (Simulation time: 00 hr 02 min 44 sec)
Warmup complete CPU 0 instructions: 50000000 cycles: 12500062 cumulative IPC: 4 (Simulation time: 00 hr 02 min 44 sec)
Heartbeat CPU 0 instructions: 60000002 cycles: 16897168 heartbeat IPC: 2.274 cumulative IPC: 2.274 (Simulation time: 00 hr 03 min 31 sec)
Heartbeat CPU 0 instructions: 70000003 cycles: 21874323 heartbeat IPC: 2.009 cumulative IPC: 2.134 (Simulation time: 00 hr 04 min 20 sec)
Heartbeat CPU 0 instructions: 80000001 cycles: 27217652 heartbeat IPC: 1.871 cumulative IPC: 2.038 (Simulation time: 00 hr 05 min 13 sec)
Heartbeat CPU 0 instructions: 90000000 cycles: 31512174 heartbeat IPC: 2.329 cumulative IPC: 2.104 (Simulation time: 00 hr 05 min 59 sec)
Heartbeat CPU 0 instructions: 100000003 cycles: 36360283 heartbeat IPC: 2.063 cumulative IPC: 2.096 (Simulation time: 00 hr 06 min 50 sec)
Heartbeat CPU 0 instructions: 110000002 cycles: 41223823 heartbeat IPC: 2.056 cumulative IPC: 2.089 (Simulation time: 00 hr 07 min 36 sec)
Heartbeat CPU 0 instructions: 120000001 cycles: 46216185 heartbeat IPC: 2.003 cumulative IPC: 2.076 (Simulation time: 00 hr 08 min 23 sec)
Heartbeat CPU 0 instructions: 130000003 cycles: 50774631 heartbeat IPC: 2.194 cumulative IPC: 2.09 (Simulation time: 00 hr 09 min 07 sec)
Heartbeat CPU 0 instructions: 140000002 cycles: 55657500 heartbeat IPC: 2.048 cumulative IPC: 2.085 (Simulation time: 00 hr 09 min 53 sec)
Heartbeat CPU 0 instructions: 150000001 cycles: 60315882 heartbeat IPC: 2.147 cumulative IPC: 2.091 (Simulation time: 00 hr 10 min 41 sec)
Heartbeat CPU 0 instructions: 160000000 cycles: 64944965 heartbeat IPC: 2.16 cumulative IPC: 2.097 (Simulation time: 00 hr 11 min 26 sec)
Heartbeat CPU 0 instructions: 170000000 cycles: 70269944 heartbeat IPC: 1.878 cumulative IPC: 2.077 (Simulation time: 00 hr 12 min 14 sec)
Heartbeat CPU 0 instructions: 180000001 cycles: 75985244 heartbeat IPC: 1.75 cumulative IPC: 2.048 (Simulation time: 00 hr 13 min 05 sec)
Heartbeat CPU 0 instructions: 190000002 cycles: 80446549 heartbeat IPC: 2.241 cumulative IPC: 2.06 (Simulation time: 00 hr 13 min 51 sec)
Heartbeat CPU 0 instructions: 200000002 cycles: 85337512 heartbeat IPC: 2.045 cumulative IPC: 2.059 (Simulation time: 00 hr 14 min 40 sec)
Heartbeat CPU 0 instructions: 210000000 cycles: 90335721 heartbeat IPC: 2.001 cumulative IPC: 2.056 (Simulation time: 00 hr 15 min 33 sec)
Heartbeat CPU 0 instructions: 220000001 cycles: 95258871 heartbeat IPC: 2.031 cumulative IPC: 2.054 (Simulation time: 00 hr 16 min 22 sec)
Heartbeat CPU 0 instructions: 230000002 cycles: 100498702 heartbeat IPC: 1.908 cumulative IPC: 2.045 (Simulation time: 00 hr 17 min 11 sec)
Heartbeat CPU 0 instructions: 240000001 cycles: 105457820 heartbeat IPC: 2.016 cumulative IPC: 2.044 (Simulation time: 00 hr 18 min 02 sec)
Heartbeat CPU 0 instructions: 250000003 cycles: 110628558 heartbeat IPC: 1.934 cumulative IPC: 2.038 (Simulation time: 00 hr 18 min 52 sec)
Heartbeat CPU 0 instructions: 260000001 cycles: 115490831 heartbeat IPC: 2.057 cumulative IPC: 2.039 (Simulation time: 00 hr 19 min 42 sec)
Heartbeat CPU 0 instructions: 270000000 cycles: 122921920 heartbeat IPC: 1.346 cumulative IPC: 1.992 (Simulation time: 00 hr 20 min 49 sec)
Heartbeat CPU 0 instructions: 280000000 cycles: 134958565 heartbeat IPC: 0.8308 cumulative IPC: 1.878 (Simulation time: 00 hr 22 min 17 sec)
Heartbeat CPU 0 instructions: 290000001 cycles: 145676996 heartbeat IPC: 0.933 cumulative IPC: 1.802 (Simulation time: 00 hr 23 min 36 sec)
Heartbeat CPU 0 instructions: 300000003 cycles: 153488459 heartbeat IPC: 1.28 cumulative IPC: 1.773 (Simulation time: 00 hr 24 min 45 sec)
Heartbeat CPU 0 instructions: 310000004 cycles: 165321585 heartbeat IPC: 0.8451 cumulative IPC: 1.701 (Simulation time: 00 hr 26 min 21 sec)
Heartbeat CPU 0 instructions: 320000004 cycles: 171157400 heartbeat IPC: 1.714 cumulative IPC: 1.702 (Simulation time: 00 hr 27 min 19 sec)
Heartbeat CPU 0 instructions: 330000000 cycles: 176437728 heartbeat IPC: 1.894 cumulative IPC: 1.708 (Simulation time: 00 hr 28 min 12 sec)
Heartbeat CPU 0 instructions: 340000001 cycles: 181582656 heartbeat IPC: 1.944 cumulative IPC: 1.715 (Simulation time: 00 hr 29 min 03 sec)
Heartbeat CPU 0 instructions: 350000000 cycles: 186955470 heartbeat IPC: 1.861 cumulative IPC: 1.72 (Simulation time: 00 hr 29 min 56 sec)
Heartbeat CPU 0 instructions: 360000003 cycles: 192115257 heartbeat IPC: 1.938 cumulative IPC: 1.726 (Simulation time: 00 hr 30 min 47 sec)
Heartbeat CPU 0 instructions: 370000001 cycles: 197180995 heartbeat IPC: 1.974 cumulative IPC: 1.733 (Simulation time: 00 hr 31 min 38 sec)
Heartbeat CPU 0 instructions: 380000004 cycles: 202529633 heartbeat IPC: 1.87 cumulative IPC: 1.737 (Simulation time: 00 hr 32 min 31 sec)
Heartbeat CPU 0 instructions: 390000002 cycles: 207945523 heartbeat IPC: 1.846 cumulative IPC: 1.74 (Simulation time: 00 hr 33 min 24 sec)
Heartbeat CPU 0 instructions: 400000000 cycles: 213432445 heartbeat IPC: 1.823 cumulative IPC: 1.742 (Simulation time: 00 hr 34 min 14 sec)
Heartbeat CPU 0 instructions: 410000000 cycles: 221560849 heartbeat IPC: 1.23 cumulative IPC: 1.722 (Simulation time: 00 hr 35 min 19 sec)
Heartbeat CPU 0 instructions: 420000001 cycles: 233051462 heartbeat IPC: 0.8703 cumulative IPC: 1.678 (Simulation time: 00 hr 36 min 44 sec)
Heartbeat CPU 0 instructions: 430000000 cycles: 240661782 heartbeat IPC: 1.314 cumulative IPC: 1.665 (Simulation time: 00 hr 37 min 54 sec)
Heartbeat CPU 0 instructions: 440000002 cycles: 248122038 heartbeat IPC: 1.34 cumulative IPC: 1.655 (Simulation time: 00 hr 39 min 03 sec)
Heartbeat CPU 0 instructions: 450000000 cycles: 255034414 heartbeat IPC: 1.447 cumulative IPC: 1.649 (Simulation time: 00 hr 40 min 09 sec)
Heartbeat CPU 0 instructions: 460000002 cycles: 266652855 heartbeat IPC: 0.8607 cumulative IPC: 1.613 (Simulation time: 00 hr 41 min 41 sec)
Heartbeat CPU 0 instructions: 470000000 cycles: 277004237 heartbeat IPC: 0.9661 cumulative IPC: 1.588 (Simulation time: 00 hr 43 min 05 sec)
Heartbeat CPU 0 instructions: 480000000 cycles: 282460195 heartbeat IPC: 1.833 cumulative IPC: 1.593 (Simulation time: 00 hr 43 min 58 sec)
Heartbeat CPU 0 instructions: 490000001 cycles: 288182569 heartbeat IPC: 1.748 cumulative IPC: 1.596 (Simulation time: 00 hr 44 min 53 sec)
Heartbeat CPU 0 instructions: 500000002 cycles: 293795218 heartbeat IPC: 1.782 cumulative IPC: 1.6 (Simulation time: 00 hr 45 min 48 sec)
Heartbeat CPU 0 instructions: 510000000 cycles: 299478606 heartbeat IPC: 1.76 cumulative IPC: 1.603 (Simulation time: 00 hr 46 min 43 sec)
Heartbeat CPU 0 instructions: 520000000 cycles: 305233511 heartbeat IPC: 1.738 cumulative IPC: 1.606 (Simulation time: 00 hr 47 min 38 sec)
Heartbeat CPU 0 instructions: 530000001 cycles: 316705486 heartbeat IPC: 0.8717 cumulative IPC: 1.578 (Simulation time: 00 hr 49 min 12 sec)
Heartbeat CPU 0 instructions: 540000000 cycles: 327834219 heartbeat IPC: 0.8986 cumulative IPC: 1.554 (Simulation time: 00 hr 50 min 43 sec)
Heartbeat CPU 0 instructions: 550000002 cycles: 340856245 heartbeat IPC: 0.7679 cumulative IPC: 1.523 (Simulation time: 00 hr 52 min 23 sec)
Heartbeat CPU 0 instructions: 560000004 cycles: 345762082 heartbeat IPC: 2.038 cumulative IPC: 1.53 (Simulation time: 00 hr 53 min 12 sec)
Heartbeat CPU 0 instructions: 570000001 cycles: 350173256 heartbeat IPC: 2.267 cumulative IPC: 1.54 (Simulation time: 00 hr 54 min 00 sec)
Heartbeat CPU 0 instructions: 580000003 cycles: 354413575 heartbeat IPC: 2.358 cumulative IPC: 1.55 (Simulation time: 00 hr 54 min 47 sec)
Heartbeat CPU 0 instructions: 590000001 cycles: 359318776 heartbeat IPC: 2.039 cumulative IPC: 1.557 (Simulation time: 00 hr 55 min 36 sec)
Heartbeat CPU 0 instructions: 600000003 cycles: 363961258 heartbeat IPC: 2.154 cumulative IPC: 1.565 (Simulation time: 00 hr 56 min 28 sec)
Heartbeat CPU 0 instructions: 610000001 cycles: 368823966 heartbeat IPC: 2.056 cumulative IPC: 1.572 (Simulation time: 00 hr 57 min 20 sec)
Heartbeat CPU 0 instructions: 620000000 cycles: 373893060 heartbeat IPC: 1.973 cumulative IPC: 1.577 (Simulation time: 00 hr 58 min 12 sec)
Heartbeat CPU 0 instructions: 630000002 cycles: 378134961 heartbeat IPC: 2.357 cumulative IPC: 1.586 (Simulation time: 00 hr 58 min 59 sec)
Heartbeat CPU 0 instructions: 640000004 cycles: 383456473 heartbeat IPC: 1.879 cumulative IPC: 1.59 (Simulation time: 00 hr 59 min 51 sec)
Heartbeat CPU 0 instructions: 650000001 cycles: 388215840 heartbeat IPC: 2.101 cumulative IPC: 1.597 (Simulation time: 01 hr 00 min 39 sec)
Simulation finished CPU 0 instructions: 600000001 cycles: 375715779 cumulative IPC: 1.597 (Simulation time: 01 hr 00 min 39 sec)
Simulation complete CPU 0 instructions: 600000001 cycles: 375715779 cumulative IPC: 1.597 (Simulation time: 01 hr 00 min 39 sec)

ChampSim completed all CPUs

=== Simulation ===
CPU 0 runs traces/400.perlbench-50B.champsimtrace.xz
Region of Interest Statistics

CPU 0 cumulative IPC: 1.597 instructions: 600000001 cycles: 375715779
CPU 0 Branch Prediction Accuracy: 93.83% MPKI: 12.71 Average ROB Occupancy at Mispredict: 29.44
Branch type MPKI
BRANCH_DIRECT_JUMP: 0.0176
BRANCH_INDIRECT: 0.38
BRANCH_CONDITIONAL: 11.9
BRANCH_DIRECT_CALL: 0.0067
BRANCH_INDIRECT_CALL: 0.431
BRANCH_RETURN: 0.0161

LLC TOTAL        ACCESS:    1371975 HIT:     857082 MISS:     514893
LLC LOAD         ACCESS:     586619 HIT:     359222 MISS:     227397
LLC RFO          ACCESS:      48352 HIT:      27289 MISS:      21063
LLC PREFETCH     ACCESS:     586619 HIT:     336202 MISS:     250417
LLC WRITE        ACCESS:     128429 HIT:     125483 MISS:       2946
LLC TRANSLATION  ACCESS:      21956 HIT:       8886 MISS:      13070
LLC PREFETCH REQUESTED:     586619 ISSUED:     586619 USEFUL:      81742 USELESS:     107647
LLC AVERAGE MISS LATENCY: 556.1 cycles
cpu0_DTLB TOTAL        ACCESS:  156773489 HIT:  155471761 MISS:    1301728
cpu0_DTLB LOAD         ACCESS:  156773489 HIT:  155471761 MISS:    1301728
cpu0_DTLB RFO          ACCESS:          0 HIT:          0 MISS:          0
cpu0_DTLB PREFETCH     ACCESS:          0 HIT:          0 MISS:          0
cpu0_DTLB WRITE        ACCESS:          0 HIT:          0 MISS:          0
cpu0_DTLB TRANSLATION  ACCESS:          0 HIT:          0 MISS:          0
cpu0_DTLB PREFETCH REQUESTED:          0 ISSUED:          0 USEFUL:          0 USELESS:          0
cpu0_DTLB AVERAGE MISS LATENCY: 13.57 cycles
cpu0_ITLB TOTAL        ACCESS:    8931912 HIT:    8733331 MISS:     198581
cpu0_ITLB LOAD         ACCESS:    8931912 HIT:    8733331 MISS:     198581
cpu0_ITLB RFO          ACCESS:          0 HIT:          0 MISS:          0
cpu0_ITLB PREFETCH     ACCESS:          0 HIT:          0 MISS:          0
cpu0_ITLB WRITE        ACCESS:          0 HIT:          0 MISS:          0
cpu0_ITLB TRANSLATION  ACCESS:          0 HIT:          0 MISS:          0
cpu0_ITLB PREFETCH REQUESTED:          0 ISSUED:          0 USEFUL:          0 USELESS:          0
cpu0_ITLB AVERAGE MISS LATENCY: 3.505 cycles
cpu0_L1D TOTAL        ACCESS:  203622827 HIT:  199951215 MISS:    3671612
cpu0_L1D LOAD         ACCESS:  117945920 HIT:  114933218 MISS:    3012702
cpu0_L1D RFO          ACCESS:          0 HIT:          0 MISS:          0
cpu0_L1D PREFETCH     ACCESS:          0 HIT:          0 MISS:          0
cpu0_L1D WRITE        ACCESS:   85648369 HIT:   85016597 MISS:     631772
cpu0_L1D TRANSLATION  ACCESS:      28538 HIT:       1400 MISS:      27138
cpu0_L1D PREFETCH REQUESTED:          0 ISSUED:          0 USEFUL:          0 USELESS:          0
cpu0_L1D AVERAGE MISS LATENCY: 47.67 cycles
cpu0_L1I TOTAL        ACCESS:   10370707 HIT:    8573569 MISS:    1797138
cpu0_L1I LOAD         ACCESS:   10370707 HIT:    8573569 MISS:    1797138
cpu0_L1I RFO          ACCESS:          0 HIT:          0 MISS:          0
cpu0_L1I PREFETCH     ACCESS:          0 HIT:          0 MISS:          0
cpu0_L1I WRITE        ACCESS:          0 HIT:          0 MISS:          0
cpu0_L1I TRANSLATION  ACCESS:          0 HIT:          0 MISS:          0
cpu0_L1I PREFETCH REQUESTED:          0 ISSUED:          0 USEFUL:          0 USELESS:          0
cpu0_L1I AVERAGE MISS LATENCY: 12.4 cycles
cpu0_L2C TOTAL        ACCESS:    3837086 HIT:    3176759 MISS:     660327
cpu0_L2C LOAD         ACCESS:    3106368 HIT:    2519749 MISS:     586619
cpu0_L2C RFO          ACCESS:     191824 HIT:     143472 MISS:      48352
cpu0_L2C PREFETCH     ACCESS:          0 HIT:          0 MISS:          0
cpu0_L2C WRITE        ACCESS:     511841 HIT:     508441 MISS:       3400
cpu0_L2C TRANSLATION  ACCESS:      27053 HIT:       5097 MISS:      21956
cpu0_L2C PREFETCH REQUESTED:          0 ISSUED:          0 USEFUL:          0 USELESS:          0
cpu0_L2C AVERAGE MISS LATENCY: 259.6 cycles
cpu0_STLB TOTAL        ACCESS:    1009321 HIT:     982630 MISS:      26691
cpu0_STLB LOAD         ACCESS:    1009321 HIT:     982630 MISS:      26691
cpu0_STLB RFO          ACCESS:          0 HIT:          0 MISS:          0
cpu0_STLB PREFETCH     ACCESS:          0 HIT:          0 MISS:          0
cpu0_STLB WRITE        ACCESS:          0 HIT:          0 MISS:          0
cpu0_STLB TRANSLATION  ACCESS:          0 HIT:          0 MISS:          0
cpu0_STLB PREFETCH REQUESTED:          0 ISSUED:          0 USEFUL:          0 USELESS:          0
cpu0_STLB AVERAGE MISS LATENCY: 446.8 cycles

DRAM Statistics

Channel 0 RQ ROW_BUFFER_HIT:      79705
  ROW_BUFFER_MISS:     357644
 AVG DBUS CONGESTED CYCLE: 3.871
WQ ROW_BUFFER_HIT: Channel 0 
  ROW_BUFFER_MISS:       7337
  FULL:      46758
