WARNING: physical memory size is smaller than virtual memory size.

*** ChampSim Multicore Out-of-Order Simulator ***
Warmup Instructions: 50000000
Simulation Instructions: 600000000
Number of CPUs: 1
Page size: 4096

Off-chip DRAM Size: 4 GiB Channels: 1 Width: 64-bit Data Race: 3200 MT/s
Heartbeat CPU 0 instructions: 10000001 cycles: 2500318 heartbeat IPC: 3.999 cumulative IPC: 3.999 (Simulation time: 00 hr 00 min 35 sec)
Heartbeat CPU 0 instructions: 20000002 cycles: 5037135 heartbeat IPC: 3.942 cumulative IPC: 3.971 (Simulation time: 00 hr 01 min 11 sec)
Heartbeat CPU 0 instructions: 30000002 cycles: 7537135 heartbeat IPC: 4 cumulative IPC: 3.98 (Simulation time: 00 hr 01 min 45 sec)
Heartbeat CPU 0 instructions: 40000002 cycles: 10037135 heartbeat IPC: 4 cumulative IPC: 3.985 (Simulation time: 00 hr 02 min 18 sec)
Heartbeat CPU 0 instructions: 50000002 cycles: 12537135 heartbeat IPC: 4 cumulative IPC: 3.988 (Simulation time: 00 hr 02 min 52 sec)
Warmup finished CPU 0 instructions: 50000002 cycles: 12537136 cumulative IPC: 3.988 (Simulation time: 00 hr 02 min 52 sec)
Warmup complete CPU 0 instructions: 50000002 cycles: 12537136 cumulative IPC: 3.988 (Simulation time: 00 hr 02 min 52 sec)
Heartbeat CPU 0 instructions: 60000000 cycles: 17727164 heartbeat IPC: 1.927 cumulative IPC: 1.927 (Simulation time: 00 hr 03 min 44 sec)
Heartbeat CPU 0 instructions: 70000002 cycles: 22643068 heartbeat IPC: 2.034 cumulative IPC: 1.979 (Simulation time: 00 hr 04 min 32 sec)
Heartbeat CPU 0 instructions: 80000001 cycles: 28036759 heartbeat IPC: 1.854 cumulative IPC: 1.936 (Simulation time: 00 hr 05 min 22 sec)
Heartbeat CPU 0 instructions: 90000001 cycles: 32936452 heartbeat IPC: 2.041 cumulative IPC: 1.961 (Simulation time: 00 hr 06 min 11 sec)
Heartbeat CPU 0 instructions: 100000000 cycles: 38071271 heartbeat IPC: 1.947 cumulative IPC: 1.958 (Simulation time: 00 hr 06 min 59 sec)
Heartbeat CPU 0 instructions: 110000000 cycles: 42984059 heartbeat IPC: 2.036 cumulative IPC: 1.971 (Simulation time: 00 hr 07 min 47 sec)
Heartbeat CPU 0 instructions: 120000001 cycles: 48199959 heartbeat IPC: 1.917 cumulative IPC: 1.963 (Simulation time: 00 hr 08 min 36 sec)
Heartbeat CPU 0 instructions: 130000001 cycles: 53376343 heartbeat IPC: 1.932 cumulative IPC: 1.959 (Simulation time: 00 hr 09 min 25 sec)
Heartbeat CPU 0 instructions: 140000001 cycles: 58716482 heartbeat IPC: 1.873 cumulative IPC: 1.949 (Simulation time: 00 hr 10 min 14 sec)
Heartbeat CPU 0 instructions: 150000001 cycles: 64066636 heartbeat IPC: 1.869 cumulative IPC: 1.941 (Simulation time: 00 hr 11 min 04 sec)
Heartbeat CPU 0 instructions: 160000004 cycles: 69300771 heartbeat IPC: 1.911 cumulative IPC: 1.938 (Simulation time: 00 hr 11 min 52 sec)
Heartbeat CPU 0 instructions: 170000000 cycles: 78103544 heartbeat IPC: 1.136 cumulative IPC: 1.83 (Simulation time: 00 hr 13 min 02 sec)
Heartbeat CPU 0 instructions: 180000004 cycles: 86446268 heartbeat IPC: 1.199 cumulative IPC: 1.759 (Simulation time: 00 hr 14 min 13 sec)
Heartbeat CPU 0 instructions: 190000001 cycles: 97764282 heartbeat IPC: 0.8835 cumulative IPC: 1.643 (Simulation time: 00 hr 15 min 43 sec)
Heartbeat CPU 0 instructions: 200000003 cycles: 102553964 heartbeat IPC: 2.088 cumulative IPC: 1.666 (Simulation time: 00 hr 16 min 33 sec)
Heartbeat CPU 0 instructions: 210000001 cycles: 107486106 heartbeat IPC: 2.028 cumulative IPC: 1.685 (Simulation time: 00 hr 17 min 24 sec)
Heartbeat CPU 0 instructions: 220000000 cycles: 112324625 heartbeat IPC: 2.067 cumulative IPC: 1.704 (Simulation time: 00 hr 18 min 15 sec)
Heartbeat CPU 0 instructions: 230000002 cycles: 117658570 heartbeat IPC: 1.875 cumulative IPC: 1.712 (Simulation time: 00 hr 19 min 07 sec)
Heartbeat CPU 0 instructions: 240000000 cycles: 122514615 heartbeat IPC: 2.059 cumulative IPC: 1.728 (Simulation time: 00 hr 19 min 57 sec)
Heartbeat CPU 0 instructions: 250000000 cycles: 127688521 heartbeat IPC: 1.933 cumulative IPC: 1.737 (Simulation time: 00 hr 20 min 49 sec)
Heartbeat CPU 0 instructions: 260000000 cycles: 132736694 heartbeat IPC: 1.981 cumulative IPC: 1.747 (Simulation time: 00 hr 21 min 40 sec)
Heartbeat CPU 0 instructions: 270000002 cycles: 137639958 heartbeat IPC: 2.039 cumulative IPC: 1.759 (Simulation time: 00 hr 22 min 31 sec)
Heartbeat CPU 0 instructions: 280000002 cycles: 142570502 heartbeat IPC: 2.028 cumulative IPC: 1.769 (Simulation time: 00 hr 23 min 21 sec)
Heartbeat CPU 0 instructions: 290000001 cycles: 147958643 heartbeat IPC: 1.856 cumulative IPC: 1.772 (Simulation time: 00 hr 24 min 14 sec)
Heartbeat CPU 0 instructions: 300000003 cycles: 153036444 heartbeat IPC: 1.969 cumulative IPC: 1.779 (Simulation time: 00 hr 25 min 06 sec)
Heartbeat CPU 0 instructions: 310000001 cycles: 158353959 heartbeat IPC: 1.881 cumulative IPC: 1.783 (Simulation time: 00 hr 25 min 59 sec)
Heartbeat CPU 0 instructions: 320000003 cycles: 163582150 heartbeat IPC: 1.913 cumulative IPC: 1.788 (Simulation time: 00 hr 26 min 51 sec)
Heartbeat CPU 0 instructions: 330000003 cycles: 168905025 heartbeat IPC: 1.879 cumulative IPC: 1.791 (Simulation time: 00 hr 27 min 44 sec)
Heartbeat CPU 0 instructions: 340000000 cycles: 177732825 heartbeat IPC: 1.133 cumulative IPC: 1.755 (Simulation time: 00 hr 29 min 02 sec)
Heartbeat CPU 0 instructions: 350000000 cycles: 186789558 heartbeat IPC: 1.104 cumulative IPC: 1.722 (Simulation time: 00 hr 30 min 16 sec)
Heartbeat CPU 0 instructions: 360000004 cycles: 197836737 heartbeat IPC: 0.9052 cumulative IPC: 1.673 (Simulation time: 00 hr 31 min 40 sec)
Heartbeat CPU 0 instructions: 370000000 cycles: 202264982 heartbeat IPC: 2.258 cumulative IPC: 1.687 (Simulation time: 00 hr 32 min 29 sec)
Heartbeat CPU 0 instructions: 380000001 cycles: 207197575 heartbeat IPC: 2.027 cumulative IPC: 1.695 (Simulation time: 00 hr 33 min 21 sec)
Heartbeat CPU 0 instructions: 390000002 cycles: 212028390 heartbeat IPC: 2.07 cumulative IPC: 1.704 (Simulation time: 00 hr 34 min 09 sec)
Heartbeat CPU 0 instructions: 400000004 cycles: 216971721 heartbeat IPC: 2.023 cumulative IPC: 1.712 (Simulation time: 00 hr 34 min 58 sec)
Heartbeat CPU 0 instructions: 410000000 cycles: 221708936 heartbeat IPC: 2.111 cumulative IPC: 1.721 (Simulation time: 00 hr 35 min 47 sec)
Heartbeat CPU 0 instructions: 420000000 cycles: 226834250 heartbeat IPC: 1.951 cumulative IPC: 1.727 (Simulation time: 00 hr 36 min 37 sec)
Heartbeat CPU 0 instructions: 430000001 cycles: 231317268 heartbeat IPC: 2.231 cumulative IPC: 1.737 (Simulation time: 00 hr 37 min 24 sec)
Heartbeat CPU 0 instructions: 440000000 cycles: 236694307 heartbeat IPC: 1.86 cumulative IPC: 1.74 (Simulation time: 00 hr 38 min 14 sec)
Heartbeat CPU 0 instructions: 450000002 cycles: 241375081 heartbeat IPC: 2.136 cumulative IPC: 1.748 (Simulation time: 00 hr 39 min 02 sec)
Heartbeat CPU 0 instructions: 460000000 cycles: 246190642 heartbeat IPC: 2.077 cumulative IPC: 1.755 (Simulation time: 00 hr 39 min 52 sec)
Heartbeat CPU 0 instructions: 470000000 cycles: 251186554 heartbeat IPC: 2.002 cumulative IPC: 1.76 (Simulation time: 00 hr 40 min 43 sec)
Heartbeat CPU 0 instructions: 480000003 cycles: 256003083 heartbeat IPC: 2.076 cumulative IPC: 1.766 (Simulation time: 00 hr 41 min 34 sec)
Heartbeat CPU 0 instructions: 490000000 cycles: 260631481 heartbeat IPC: 2.161 cumulative IPC: 1.774 (Simulation time: 00 hr 42 min 23 sec)
Heartbeat CPU 0 instructions: 500000000 cycles: 265668503 heartbeat IPC: 1.985 cumulative IPC: 1.778 (Simulation time: 00 hr 43 min 13 sec)
Heartbeat CPU 0 instructions: 510000003 cycles: 271339485 heartbeat IPC: 1.763 cumulative IPC: 1.777 (Simulation time: 00 hr 44 min 07 sec)
Heartbeat CPU 0 instructions: 520000001 cycles: 276051303 heartbeat IPC: 2.122 cumulative IPC: 1.784 (Simulation time: 00 hr 44 min 57 sec)
Heartbeat CPU 0 instructions: 530000002 cycles: 281217093 heartbeat IPC: 1.936 cumulative IPC: 1.787 (Simulation time: 00 hr 45 min 49 sec)
Heartbeat CPU 0 instructions: 540000000 cycles: 286344569 heartbeat IPC: 1.95 cumulative IPC: 1.79 (Simulation time: 00 hr 46 min 39 sec)
Heartbeat CPU 0 instructions: 550000001 cycles: 291167355 heartbeat IPC: 2.073 cumulative IPC: 1.794 (Simulation time: 00 hr 47 min 28 sec)
Heartbeat CPU 0 instructions: 560000000 cycles: 296437243 heartbeat IPC: 1.898 cumulative IPC: 1.796 (Simulation time: 00 hr 48 min 19 sec)
Heartbeat CPU 0 instructions: 570000004 cycles: 303529455 heartbeat IPC: 1.41 cumulative IPC: 1.787 (Simulation time: 00 hr 49 min 23 sec)
Heartbeat CPU 0 instructions: 580000003 cycles: 311855031 heartbeat IPC: 1.201 cumulative IPC: 1.771 (Simulation time: 00 hr 50 min 35 sec)
Heartbeat CPU 0 instructions: 590000002 cycles: 325052498 heartbeat IPC: 0.7577 cumulative IPC: 1.728 (Simulation time: 00 hr 52 min 20 sec)
Heartbeat CPU 0 instructions: 600000000 cycles: 329657654 heartbeat IPC: 2.171 cumulative IPC: 1.734 (Simulation time: 00 hr 53 min 09 sec)
Heartbeat CPU 0 instructions: 610000002 cycles: 334160216 heartbeat IPC: 2.221 cumulative IPC: 1.741 (Simulation time: 00 hr 53 min 57 sec)
Heartbeat CPU 0 instructions: 620000000 cycles: 338971180 heartbeat IPC: 2.079 cumulative IPC: 1.746 (Simulation time: 00 hr 54 min 48 sec)
Heartbeat CPU 0 instructions: 630000002 cycles: 344064454 heartbeat IPC: 1.963 cumulative IPC: 1.749 (Simulation time: 00 hr 55 min 40 sec)
Heartbeat CPU 0 instructions: 640000001 cycles: 348922081 heartbeat IPC: 2.059 cumulative IPC: 1.754 (Simulation time: 00 hr 56 min 31 sec)
Heartbeat CPU 0 instructions: 650000000 cycles: 353481584 heartbeat IPC: 2.193 cumulative IPC: 1.76 (Simulation time: 00 hr 57 min 20 sec)
Simulation finished CPU 0 instructions: 600000001 cycles: 340944450 cumulative IPC: 1.76 (Simulation time: 00 hr 57 min 20 sec)
Simulation complete CPU 0 instructions: 600000001 cycles: 340944450 cumulative IPC: 1.76 (Simulation time: 00 hr 57 min 20 sec)

ChampSim completed all CPUs

=== Simulation ===
CPU 0 runs traces/400.perlbench-41B.champsimtrace.xz
Region of Interest Statistics

CPU 0 cumulative IPC: 1.76 instructions: 600000001 cycles: 340944450
CPU 0 Branch Prediction Accuracy: 93.95% MPKI: 12.5 Average ROB Occupancy at Mispredict: 29.65
Branch type MPKI
BRANCH_DIRECT_JUMP: 0.0123
BRANCH_INDIRECT: 0.323
BRANCH_CONDITIONAL: 12
BRANCH_DIRECT_CALL: 0.0043
BRANCH_INDIRECT_CALL: 0.2
BRANCH_RETURN: 0.00828

LLC TOTAL        ACCESS:     540995 HIT:     308187 MISS:     232808
LLC LOAD         ACCESS:     403607 HIT:     219639 MISS:     183968
LLC RFO          ACCESS:      32576 HIT:      18309 MISS:      14267
LLC PREFETCH     ACCESS:          0 HIT:          0 MISS:          0
LLC WRITE        ACCESS:      85774 HIT:      64477 MISS:      21297
LLC TRANSLATION  ACCESS:      19038 HIT:       5762 MISS:      13276
LLC PREFETCH REQUESTED:          0 ISSUED:          0 USEFUL:          0 USELESS:          0
LLC AVERAGE MISS LATENCY: 496.1 cycles
cpu0_DTLB TOTAL        ACCESS:  153663282 HIT:  152984895 MISS:     678387
cpu0_DTLB LOAD         ACCESS:  153663282 HIT:  152984895 MISS:     678387
cpu0_DTLB RFO          ACCESS:          0 HIT:          0 MISS:          0
cpu0_DTLB PREFETCH     ACCESS:          0 HIT:          0 MISS:          0
cpu0_DTLB WRITE        ACCESS:          0 HIT:          0 MISS:          0
cpu0_DTLB TRANSLATION  ACCESS:          0 HIT:          0 MISS:          0
cpu0_DTLB PREFETCH REQUESTED:          0 ISSUED:          0 USEFUL:          0 USELESS:          0
cpu0_DTLB AVERAGE MISS LATENCY: 17.78 cycles
cpu0_ITLB TOTAL        ACCESS:    4834421 HIT:    4776572 MISS:      57849
cpu0_ITLB LOAD         ACCESS:    4834421 HIT:    4776572 MISS:      57849
cpu0_ITLB RFO          ACCESS:          0 HIT:          0 MISS:          0
cpu0_ITLB PREFETCH     ACCESS:          0 HIT:          0 MISS:          0
cpu0_ITLB WRITE        ACCESS:          0 HIT:          0 MISS:          0
cpu0_ITLB TRANSLATION  ACCESS:          0 HIT:          0 MISS:          0
cpu0_ITLB PREFETCH REQUESTED:          0 ISSUED:          0 USEFUL:          0 USELESS:          0
cpu0_ITLB AVERAGE MISS LATENCY: 6.471 cycles
cpu0_L1D TOTAL        ACCESS:  200273911 HIT:  198541276 MISS:    1732635
cpu0_L1D LOAD         ACCESS:  117031209 HIT:  115677828 MISS:    1353381
cpu0_L1D RFO          ACCESS:          0 HIT:          0 MISS:          0
cpu0_L1D PREFETCH     ACCESS:          0 HIT:          0 MISS:          0
cpu0_L1D WRITE        ACCESS:   83218241 HIT:   82862414 MISS:     355827
cpu0_L1D TRANSLATION  ACCESS:      24461 HIT:       1034 MISS:      23427
cpu0_L1D PREFETCH REQUESTED:          0 ISSUED:          0 USEFUL:          0 USELESS:          0
cpu0_L1D AVERAGE MISS LATENCY: 73.45 cycles
cpu0_L1I TOTAL        ACCESS:    5577095 HIT:    4815729 MISS:     761366
cpu0_L1I LOAD         ACCESS:    5577095 HIT:    4815729 MISS:     761366
cpu0_L1I RFO          ACCESS:          0 HIT:          0 MISS:          0
cpu0_L1I PREFETCH     ACCESS:          0 HIT:          0 MISS:          0
cpu0_L1I WRITE        ACCESS:          0 HIT:          0 MISS:          0
cpu0_L1I TRANSLATION  ACCESS:          0 HIT:          0 MISS:          0
cpu0_L1I PREFETCH REQUESTED:          0 ISSUED:          0 USEFUL:          0 USELESS:          0
cpu0_L1I AVERAGE MISS LATENCY: 10.1 cycles
cpu0_L2C TOTAL        ACCESS:    1667923 HIT:    1210881 MISS:     457042
cpu0_L2C LOAD         ACCESS:    1317090 HIT:     913483 MISS:     403607
cpu0_L2C RFO          ACCESS:      88599 HIT:      56023 MISS:      32576
cpu0_L2C PREFETCH     ACCESS:          0 HIT:          0 MISS:          0
cpu0_L2C WRITE        ACCESS:     238890 HIT:     237069 MISS:       1821
cpu0_L2C TRANSLATION  ACCESS:      23344 HIT:       4306 MISS:      19038
cpu0_L2C PREFETCH REQUESTED:          0 ISSUED:          0 USEFUL:          0 USELESS:          0
cpu0_L2C AVERAGE MISS LATENCY: 273.1 cycles
cpu0_STLB TOTAL        ACCESS:     505214 HIT:     482424 MISS:      22790
cpu0_STLB LOAD         ACCESS:     505214 HIT:     482424 MISS:      22790
cpu0_STLB RFO          ACCESS:          0 HIT:          0 MISS:          0
cpu0_STLB PREFETCH     ACCESS:          0 HIT:          0 MISS:          0
cpu0_STLB WRITE        ACCESS:          0 HIT:          0 MISS:          0
cpu0_STLB TRANSLATION  ACCESS:          0 HIT:          0 MISS:          0
cpu0_STLB PREFETCH REQUESTED:          0 ISSUED:          0 USEFUL:          0 USELESS:          0
cpu0_STLB AVERAGE MISS LATENCY: 407.7 cycles

DRAM Statistics

Channel 0 RQ ROW_BUFFER_HIT:      32531
  ROW_BUFFER_MISS:     178956
 AVG DBUS CONGESTED CYCLE: 3.787
WQ ROW_BUFFER_HIT: Channel 0 
  ROW_BUFFER_MISS:       8427
  FULL:      22258
