WARNING: physical memory size is smaller than virtual memory size.

*** ChampSim Multicore Out-of-Order Simulator ***
Warmup Instructions: 50000000
Simulation Instructions: 600000000
Number of CPUs: 1
Page size: 4096

Off-chip DRAM Size: 4 GiB Channels: 1 Width: 64-bit Data Race: 3200 MT/s
Heartbeat CPU 0 instructions: 10000001 cycles: 2500318 heartbeat IPC: 3.999 cumulative IPC: 3.999 (Simulation time: 00 hr 00 min 36 sec)
Heartbeat CPU 0 instructions: 20000002 cycles: 5037122 heartbeat IPC: 3.942 cumulative IPC: 3.971 (Simulation time: 00 hr 01 min 14 sec)
Heartbeat CPU 0 instructions: 30000002 cycles: 7537122 heartbeat IPC: 4 cumulative IPC: 3.98 (Simulation time: 00 hr 01 min 49 sec)
Heartbeat CPU 0 instructions: 40000002 cycles: 10037122 heartbeat IPC: 4 cumulative IPC: 3.985 (Simulation time: 00 hr 02 min 23 sec)
Heartbeat CPU 0 instructions: 50000002 cycles: 12537122 heartbeat IPC: 4 cumulative IPC: 3.988 (Simulation time: 00 hr 02 min 58 sec)
Warmup finished CPU 0 instructions: 50000002 cycles: 12537123 cumulative IPC: 3.988 (Simulation time: 00 hr 02 min 58 sec)
Warmup complete CPU 0 instructions: 50000002 cycles: 12537123 cumulative IPC: 3.988 (Simulation time: 00 hr 02 min 58 sec)
Heartbeat CPU 0 instructions: 60000000 cycles: 17159246 heartbeat IPC: 2.164 cumulative IPC: 2.164 (Simulation time: 00 hr 03 min 46 sec)
Heartbeat CPU 0 instructions: 70000004 cycles: 21447296 heartbeat IPC: 2.332 cumulative IPC: 2.245 (Simulation time: 00 hr 04 min 35 sec)
Heartbeat CPU 0 instructions: 80000001 cycles: 26052049 heartbeat IPC: 2.172 cumulative IPC: 2.22 (Simulation time: 00 hr 05 min 23 sec)
Heartbeat CPU 0 instructions: 90000001 cycles: 30182496 heartbeat IPC: 2.421 cumulative IPC: 2.267 (Simulation time: 00 hr 06 min 12 sec)
Heartbeat CPU 0 instructions: 100000000 cycles: 34236437 heartbeat IPC: 2.467 cumulative IPC: 2.304 (Simulation time: 00 hr 06 min 57 sec)
Heartbeat CPU 0 instructions: 110000000 cycles: 38470502 heartbeat IPC: 2.362 cumulative IPC: 2.314 (Simulation time: 00 hr 07 min 45 sec)
Heartbeat CPU 0 instructions: 120000001 cycles: 42483965 heartbeat IPC: 2.492 cumulative IPC: 2.337 (Simulation time: 00 hr 08 min 29 sec)
Heartbeat CPU 0 instructions: 130000001 cycles: 46223751 heartbeat IPC: 2.674 cumulative IPC: 2.375 (Simulation time: 00 hr 09 min 16 sec)
Heartbeat CPU 0 instructions: 140000001 cycles: 50406418 heartbeat IPC: 2.391 cumulative IPC: 2.377 (Simulation time: 00 hr 10 min 03 sec)
Heartbeat CPU 0 instructions: 150000001 cycles: 54613480 heartbeat IPC: 2.377 cumulative IPC: 2.377 (Simulation time: 00 hr 10 min 53 sec)
Heartbeat CPU 0 instructions: 160000004 cycles: 59043238 heartbeat IPC: 2.257 cumulative IPC: 2.365 (Simulation time: 00 hr 11 min 41 sec)
Heartbeat CPU 0 instructions: 170000004 cycles: 68491941 heartbeat IPC: 1.058 cumulative IPC: 2.145 (Simulation time: 00 hr 12 min 58 sec)
Heartbeat CPU 0 instructions: 180000004 cycles: 79144317 heartbeat IPC: 0.9388 cumulative IPC: 1.952 (Simulation time: 00 hr 14 min 23 sec)
Heartbeat CPU 0 instructions: 190000001 cycles: 90521530 heartbeat IPC: 0.8789 cumulative IPC: 1.795 (Simulation time: 00 hr 15 min 49 sec)
Heartbeat CPU 0 instructions: 200000004 cycles: 94310883 heartbeat IPC: 2.639 cumulative IPC: 1.834 (Simulation time: 00 hr 16 min 32 sec)
Heartbeat CPU 0 instructions: 210000001 cycles: 98231062 heartbeat IPC: 2.551 cumulative IPC: 1.867 (Simulation time: 00 hr 17 min 16 sec)
Heartbeat CPU 0 instructions: 220000000 cycles: 102191710 heartbeat IPC: 2.525 cumulative IPC: 1.896 (Simulation time: 00 hr 18 min 00 sec)
Heartbeat CPU 0 instructions: 230000002 cycles: 106878187 heartbeat IPC: 2.134 cumulative IPC: 1.908 (Simulation time: 00 hr 18 min 47 sec)
Heartbeat CPU 0 instructions: 240000000 cycles: 111083346 heartbeat IPC: 2.378 cumulative IPC: 1.928 (Simulation time: 00 hr 19 min 32 sec)
Heartbeat CPU 0 instructions: 250000000 cycles: 115409978 heartbeat IPC: 2.311 cumulative IPC: 1.944 (Simulation time: 00 hr 20 min 17 sec)
Heartbeat CPU 0 instructions: 260000000 cycles: 119597612 heartbeat IPC: 2.388 cumulative IPC: 1.962 (Simulation time: 00 hr 21 min 02 sec)
Heartbeat CPU 0 instructions: 270000002 cycles: 123451567 heartbeat IPC: 2.595 cumulative IPC: 1.984 (Simulation time: 00 hr 21 min 45 sec)
Heartbeat CPU 0 instructions: 280000002 cycles: 127617488 heartbeat IPC: 2.4 cumulative IPC: 1.999 (Simulation time: 00 hr 22 min 29 sec)
Heartbeat CPU 0 instructions: 290000001 cycles: 131523213 heartbeat IPC: 2.56 cumulative IPC: 2.017 (Simulation time: 00 hr 23 min 11 sec)
Heartbeat CPU 0 instructions: 300000003 cycles: 135353206 heartbeat IPC: 2.611 cumulative IPC: 2.036 (Simulation time: 00 hr 23 min 54 sec)
Heartbeat CPU 0 instructions: 310000001 cycles: 139500194 heartbeat IPC: 2.411 cumulative IPC: 2.048 (Simulation time: 00 hr 24 min 39 sec)
Heartbeat CPU 0 instructions: 320000003 cycles: 143591204 heartbeat IPC: 2.444 cumulative IPC: 2.06 (Simulation time: 00 hr 25 min 24 sec)
Heartbeat CPU 0 instructions: 330000003 cycles: 148014643 heartbeat IPC: 2.261 cumulative IPC: 2.067 (Simulation time: 00 hr 26 min 09 sec)
Heartbeat CPU 0 instructions: 340000000 cycles: 157698665 heartbeat IPC: 1.033 cumulative IPC: 1.998 (Simulation time: 00 hr 27 min 25 sec)
Heartbeat CPU 0 instructions: 350000000 cycles: 168963417 heartbeat IPC: 0.8877 cumulative IPC: 1.918 (Simulation time: 00 hr 28 min 49 sec)
Heartbeat CPU 0 instructions: 360000004 cycles: 180122554 heartbeat IPC: 0.8961 cumulative IPC: 1.85 (Simulation time: 00 hr 30 min 16 sec)
Heartbeat CPU 0 instructions: 370000000 cycles: 183559245 heartbeat IPC: 2.91 cumulative IPC: 1.871 (Simulation time: 00 hr 31 min 00 sec)
Heartbeat CPU 0 instructions: 380000001 cycles: 186983814 heartbeat IPC: 2.92 cumulative IPC: 1.892 (Simulation time: 00 hr 31 min 44 sec)
Heartbeat CPU 0 instructions: 390000004 cycles: 190723883 heartbeat IPC: 2.674 cumulative IPC: 1.908 (Simulation time: 00 hr 32 min 28 sec)
Heartbeat CPU 0 instructions: 400000004 cycles: 194535712 heartbeat IPC: 2.623 cumulative IPC: 1.923 (Simulation time: 00 hr 33 min 14 sec)
Heartbeat CPU 0 instructions: 410000001 cycles: 198201143 heartbeat IPC: 2.728 cumulative IPC: 1.939 (Simulation time: 00 hr 33 min 59 sec)
Heartbeat CPU 0 instructions: 420000003 cycles: 202297354 heartbeat IPC: 2.441 cumulative IPC: 1.95 (Simulation time: 00 hr 34 min 46 sec)
Heartbeat CPU 0 instructions: 430000001 cycles: 205970779 heartbeat IPC: 2.722 cumulative IPC: 1.964 (Simulation time: 00 hr 35 min 30 sec)
Heartbeat CPU 0 instructions: 440000004 cycles: 210065749 heartbeat IPC: 2.442 cumulative IPC: 1.974 (Simulation time: 00 hr 36 min 16 sec)
Heartbeat CPU 0 instructions: 450000002 cycles: 213801949 heartbeat IPC: 2.677 cumulative IPC: 1.987 (Simulation time: 00 hr 37 min 01 sec)
Heartbeat CPU 0 instructions: 460000000 cycles: 217473601 heartbeat IPC: 2.724 cumulative IPC: 2.001 (Simulation time: 00 hr 37 min 45 sec)
Heartbeat CPU 0 instructions: 470000000 cycles: 220943255 heartbeat IPC: 2.882 cumulative IPC: 2.015 (Simulation time: 00 hr 38 min 29 sec)
Heartbeat CPU 0 instructions: 480000003 cycles: 224800212 heartbeat IPC: 2.593 cumulative IPC: 2.026 (Simulation time: 00 hr 39 min 14 sec)
Heartbeat CPU 0 instructions: 490000000 cycles: 228427959 heartbeat IPC: 2.757 cumulative IPC: 2.038 (Simulation time: 00 hr 39 min 58 sec)
Heartbeat CPU 0 instructions: 500000000 cycles: 232132115 heartbeat IPC: 2.7 cumulative IPC: 2.049 (Simulation time: 00 hr 40 min 42 sec)
Heartbeat CPU 0 instructions: 510000003 cycles: 235844363 heartbeat IPC: 2.694 cumulative IPC: 2.06 (Simulation time: 00 hr 41 min 27 sec)
Heartbeat CPU 0 instructions: 520000001 cycles: 239249099 heartbeat IPC: 2.937 cumulative IPC: 2.073 (Simulation time: 00 hr 42 min 10 sec)
Heartbeat CPU 0 instructions: 530000002 cycles: 242970633 heartbeat IPC: 2.687 cumulative IPC: 2.083 (Simulation time: 00 hr 42 min 54 sec)
Heartbeat CPU 0 instructions: 540000000 cycles: 246509210 heartbeat IPC: 2.826 cumulative IPC: 2.094 (Simulation time: 00 hr 43 min 40 sec)
Heartbeat CPU 0 instructions: 550000001 cycles: 250211481 heartbeat IPC: 2.701 cumulative IPC: 2.104 (Simulation time: 00 hr 44 min 25 sec)
Heartbeat CPU 0 instructions: 560000000 cycles: 254263765 heartbeat IPC: 2.468 cumulative IPC: 2.11 (Simulation time: 00 hr 45 min 11 sec)
Heartbeat CPU 0 instructions: 570000004 cycles: 260809557 heartbeat IPC: 1.528 cumulative IPC: 2.094 (Simulation time: 00 hr 46 min 11 sec)
Heartbeat CPU 0 instructions: 580000003 cycles: 271119120 heartbeat IPC: 0.97 cumulative IPC: 2.05 (Simulation time: 00 hr 47 min 36 sec)
Heartbeat CPU 0 instructions: 590000002 cycles: 285915664 heartbeat IPC: 0.6758 cumulative IPC: 1.975 (Simulation time: 00 hr 49 min 28 sec)
Heartbeat CPU 0 instructions: 600000000 cycles: 289720440 heartbeat IPC: 2.628 cumulative IPC: 1.984 (Simulation time: 00 hr 50 min 14 sec)
Heartbeat CPU 0 instructions: 610000000 cycles: 293572412 heartbeat IPC: 2.596 cumulative IPC: 1.993 (Simulation time: 00 hr 50 min 59 sec)
Heartbeat CPU 0 instructions: 620000001 cycles: 297005575 heartbeat IPC: 2.913 cumulative IPC: 2.004 (Simulation time: 00 hr 51 min 40 sec)
Heartbeat CPU 0 instructions: 630000002 cycles: 301281217 heartbeat IPC: 2.339 cumulative IPC: 2.009 (Simulation time: 00 hr 52 min 24 sec)
Heartbeat CPU 0 instructions: 640000001 cycles: 305179626 heartbeat IPC: 2.565 cumulative IPC: 2.016 (Simulation time: 00 hr 53 min 08 sec)
Heartbeat CPU 0 instructions: 650000000 cycles: 308934788 heartbeat IPC: 2.663 cumulative IPC: 2.024 (Simulation time: 00 hr 53 min 50 sec)
Simulation finished CPU 0 instructions: 600000001 cycles: 296397667 cumulative IPC: 2.024 (Simulation time: 00 hr 53 min 50 sec)
Simulation complete CPU 0 instructions: 600000001 cycles: 296397667 cumulative IPC: 2.024 (Simulation time: 00 hr 53 min 50 sec)

ChampSim completed all CPUs

=== Simulation ===
CPU 0 runs traces/400.perlbench-41B.champsimtrace.xz
Region of Interest Statistics

CPU 0 cumulative IPC: 2.024 instructions: 600000001 cycles: 296397667
CPU 0 Branch Prediction Accuracy: 96.56% MPKI: 7.112 Average ROB Occupancy at Mispredict: 47.52
Branch type MPKI
BRANCH_DIRECT_JUMP: 0.0123
BRANCH_INDIRECT: 0.323
BRANCH_CONDITIONAL: 6.56
BRANCH_DIRECT_CALL: 0.0043
BRANCH_INDIRECT_CALL: 0.2
BRANCH_RETURN: 0.00828

LLC TOTAL        ACCESS:     937788 HIT:     500021 MISS:     437767
LLC LOAD         ACCESS:     400832 HIT:     219418 MISS:     181414
LLC RFO          ACCESS:      32426 HIT:      12248 MISS:      20178
LLC PREFETCH     ACCESS:     400832 HIT:     209680 MISS:     191152
LLC WRITE        ACCESS:      84635 HIT:      54589 MISS:      30046
LLC TRANSLATION  ACCESS:      19063 HIT:       4086 MISS:      14977
LLC PREFETCH REQUESTED:     400832 ISSUED:     400832 USEFUL:      62647 USELESS:      88120
LLC AVERAGE MISS LATENCY: 561.9 cycles
cpu0_DTLB TOTAL        ACCESS:  141882196 HIT:  141194680 MISS:     687516
cpu0_DTLB LOAD         ACCESS:  141882196 HIT:  141194680 MISS:     687516
cpu0_DTLB RFO          ACCESS:          0 HIT:          0 MISS:          0
cpu0_DTLB PREFETCH     ACCESS:          0 HIT:          0 MISS:          0
cpu0_DTLB WRITE        ACCESS:          0 HIT:          0 MISS:          0
cpu0_DTLB TRANSLATION  ACCESS:          0 HIT:          0 MISS:          0
cpu0_DTLB PREFETCH REQUESTED:          0 ISSUED:          0 USEFUL:          0 USELESS:          0
cpu0_DTLB AVERAGE MISS LATENCY: 20.75 cycles
cpu0_ITLB TOTAL        ACCESS:    4856880 HIT:    4803728 MISS:      53152
cpu0_ITLB LOAD         ACCESS:    4856880 HIT:    4803728 MISS:      53152
cpu0_ITLB RFO          ACCESS:          0 HIT:          0 MISS:          0
cpu0_ITLB PREFETCH     ACCESS:          0 HIT:          0 MISS:          0
cpu0_ITLB WRITE        ACCESS:          0 HIT:          0 MISS:          0
cpu0_ITLB TRANSLATION  ACCESS:          0 HIT:          0 MISS:          0
cpu0_ITLB PREFETCH REQUESTED:          0 ISSUED:          0 USEFUL:          0 USELESS:          0
cpu0_ITLB AVERAGE MISS LATENCY: 8.718 cycles
cpu0_L1D TOTAL        ACCESS:  188541554 HIT:  186802837 MISS:    1738717
cpu0_L1D LOAD         ACCESS:  105174924 HIT:  103819074 MISS:    1355850
cpu0_L1D RFO          ACCESS:          0 HIT:          0 MISS:          0
cpu0_L1D PREFETCH     ACCESS:          0 HIT:          0 MISS:          0
cpu0_L1D WRITE        ACCESS:   83342162 HIT:   82982703 MISS:     359459
cpu0_L1D TRANSLATION  ACCESS:      24468 HIT:       1060 MISS:      23408
cpu0_L1D PREFETCH REQUESTED:          0 ISSUED:          0 USEFUL:          0 USELESS:          0
cpu0_L1D AVERAGE MISS LATENCY: 84.51 cycles
cpu0_L1I TOTAL        ACCESS:    5594611 HIT:    4851275 MISS:     743336
cpu0_L1I LOAD         ACCESS:    5594611 HIT:    4851275 MISS:     743336
cpu0_L1I RFO          ACCESS:          0 HIT:          0 MISS:          0
cpu0_L1I PREFETCH     ACCESS:          0 HIT:          0 MISS:          0
cpu0_L1I WRITE        ACCESS:          0 HIT:          0 MISS:          0
cpu0_L1I TRANSLATION  ACCESS:          0 HIT:          0 MISS:          0
cpu0_L1I PREFETCH REQUESTED:          0 ISSUED:          0 USEFUL:          0 USELESS:          0
cpu0_L1I AVERAGE MISS LATENCY: 15.92 cycles
cpu0_L2C TOTAL        ACCESS:    1665518 HIT:    1211397 MISS:     454121
cpu0_L2C LOAD         ACCESS:    1315980 HIT:     915148 MISS:     400832
cpu0_L2C RFO          ACCESS:      88315 HIT:      55889 MISS:      32426
cpu0_L2C PREFETCH     ACCESS:          0 HIT:          0 MISS:          0
cpu0_L2C WRITE        ACCESS:     237891 HIT:     236091 MISS:       1800
cpu0_L2C TRANSLATION  ACCESS:      23332 HIT:       4269 MISS:      19063
cpu0_L2C PREFETCH REQUESTED:          0 ISSUED:          0 USEFUL:          0 USELESS:          0
cpu0_L2C AVERAGE MISS LATENCY: 329.9 cycles
cpu0_STLB TOTAL        ACCESS:     507413 HIT:     484619 MISS:      22794
cpu0_STLB LOAD         ACCESS:     507413 HIT:     484619 MISS:      22794
cpu0_STLB RFO          ACCESS:          0 HIT:          0 MISS:          0
cpu0_STLB PREFETCH     ACCESS:          0 HIT:          0 MISS:          0
cpu0_STLB WRITE        ACCESS:          0 HIT:          0 MISS:          0
cpu0_STLB TRANSLATION  ACCESS:          0 HIT:          0 MISS:          0
cpu0_STLB PREFETCH REQUESTED:          0 ISSUED:          0 USEFUL:          0 USELESS:          0
cpu0_STLB AVERAGE MISS LATENCY: 515.7 cycles

DRAM Statistics

Channel 0 RQ ROW_BUFFER_HIT:      50449
  ROW_BUFFER_MISS:     301681
 AVG DBUS CONGESTED CYCLE: 3.892
WQ ROW_BUFFER_HIT: Channel 0 
  ROW_BUFFER_MISS:       7381
  FULL:      46654
