WARNING: physical memory size is smaller than virtual memory size.

*** ChampSim Multicore Out-of-Order Simulator ***
Warmup Instructions: 50000000
Simulation Instructions: 600000000
Number of CPUs: 1
Page size: 4096

Off-chip DRAM Size: 4 GiB Channels: 1 Width: 64-bit Data Race: 3200 MT/s
Heartbeat CPU 0 instructions: 10000001 cycles: 2500318 heartbeat IPC: 3.999 cumulative IPC: 3.999 (Simulation time: 00 hr 01 min 36 sec)
Heartbeat CPU 0 instructions: 20000002 cycles: 5037128 heartbeat IPC: 3.942 cumulative IPC: 3.971 (Simulation time: 00 hr 03 min 14 sec)
Heartbeat CPU 0 instructions: 30000002 cycles: 7537128 heartbeat IPC: 4 cumulative IPC: 3.98 (Simulation time: 00 hr 03 min 49 sec)
Heartbeat CPU 0 instructions: 40000002 cycles: 10037128 heartbeat IPC: 4 cumulative IPC: 3.985 (Simulation time: 00 hr 04 min 19 sec)
Heartbeat CPU 0 instructions: 50000002 cycles: 12537128 heartbeat IPC: 4 cumulative IPC: 3.988 (Simulation time: 00 hr 04 min 54 sec)
Warmup finished CPU 0 instructions: 50000002 cycles: 12537129 cumulative IPC: 3.988 (Simulation time: 00 hr 04 min 54 sec)
Warmup complete CPU 0 instructions: 50000002 cycles: 12537129 cumulative IPC: 3.988 (Simulation time: 00 hr 04 min 54 sec)
Heartbeat CPU 0 instructions: 60000000 cycles: 17723945 heartbeat IPC: 1.928 cumulative IPC: 1.928 (Simulation time: 00 hr 05 min 43 sec)
Heartbeat CPU 0 instructions: 70000002 cycles: 22640318 heartbeat IPC: 2.034 cumulative IPC: 1.98 (Simulation time: 00 hr 06 min 31 sec)
Heartbeat CPU 0 instructions: 80000001 cycles: 28026319 heartbeat IPC: 1.857 cumulative IPC: 1.937 (Simulation time: 00 hr 07 min 21 sec)
Heartbeat CPU 0 instructions: 90000001 cycles: 32924689 heartbeat IPC: 2.041 cumulative IPC: 1.962 (Simulation time: 00 hr 08 min 09 sec)
Heartbeat CPU 0 instructions: 100000000 cycles: 38054773 heartbeat IPC: 1.949 cumulative IPC: 1.959 (Simulation time: 00 hr 08 min 57 sec)
Heartbeat CPU 0 instructions: 110000000 cycles: 42956799 heartbeat IPC: 2.04 cumulative IPC: 1.972 (Simulation time: 00 hr 09 min 44 sec)
Heartbeat CPU 0 instructions: 120000001 cycles: 48165602 heartbeat IPC: 1.92 cumulative IPC: 1.965 (Simulation time: 00 hr 10 min 33 sec)
Heartbeat CPU 0 instructions: 130000001 cycles: 53340568 heartbeat IPC: 1.932 cumulative IPC: 1.961 (Simulation time: 00 hr 11 min 21 sec)
Heartbeat CPU 0 instructions: 140000001 cycles: 58669778 heartbeat IPC: 1.876 cumulative IPC: 1.951 (Simulation time: 00 hr 12 min 10 sec)
Heartbeat CPU 0 instructions: 150000001 cycles: 64002055 heartbeat IPC: 1.875 cumulative IPC: 1.943 (Simulation time: 00 hr 13 min 00 sec)
Heartbeat CPU 0 instructions: 160000004 cycles: 69227811 heartbeat IPC: 1.914 cumulative IPC: 1.94 (Simulation time: 00 hr 13 min 51 sec)
Heartbeat CPU 0 instructions: 170000000 cycles: 80019300 heartbeat IPC: 0.9267 cumulative IPC: 1.778 (Simulation time: 00 hr 15 min 16 sec)
Heartbeat CPU 0 instructions: 180000004 cycles: 91015738 heartbeat IPC: 0.9094 cumulative IPC: 1.657 (Simulation time: 00 hr 16 min 45 sec)
Heartbeat CPU 0 instructions: 190000001 cycles: 102012667 heartbeat IPC: 0.9093 cumulative IPC: 1.565 (Simulation time: 00 hr 18 min 12 sec)
Heartbeat CPU 0 instructions: 200000003 cycles: 106794299 heartbeat IPC: 2.091 cumulative IPC: 1.591 (Simulation time: 00 hr 19 min 02 sec)
Heartbeat CPU 0 instructions: 210000001 cycles: 111728336 heartbeat IPC: 2.027 cumulative IPC: 1.613 (Simulation time: 00 hr 19 min 53 sec)
Heartbeat CPU 0 instructions: 220000000 cycles: 116560454 heartbeat IPC: 2.069 cumulative IPC: 1.634 (Simulation time: 00 hr 20 min 42 sec)
Heartbeat CPU 0 instructions: 230000002 cycles: 121900166 heartbeat IPC: 1.873 cumulative IPC: 1.646 (Simulation time: 00 hr 21 min 35 sec)
Heartbeat CPU 0 instructions: 240000000 cycles: 126760408 heartbeat IPC: 2.058 cumulative IPC: 1.663 (Simulation time: 00 hr 22 min 25 sec)
Heartbeat CPU 0 instructions: 250000000 cycles: 131924406 heartbeat IPC: 1.936 cumulative IPC: 1.675 (Simulation time: 00 hr 23 min 16 sec)
Heartbeat CPU 0 instructions: 260000000 cycles: 136967359 heartbeat IPC: 1.983 cumulative IPC: 1.688 (Simulation time: 00 hr 24 min 07 sec)
Heartbeat CPU 0 instructions: 270000002 cycles: 141867736 heartbeat IPC: 2.041 cumulative IPC: 1.701 (Simulation time: 00 hr 24 min 55 sec)
Heartbeat CPU 0 instructions: 280000002 cycles: 146790892 heartbeat IPC: 2.031 cumulative IPC: 1.713 (Simulation time: 00 hr 25 min 43 sec)
Heartbeat CPU 0 instructions: 290000001 cycles: 152173537 heartbeat IPC: 1.858 cumulative IPC: 1.719 (Simulation time: 00 hr 26 min 32 sec)
Heartbeat CPU 0 instructions: 300000003 cycles: 157251069 heartbeat IPC: 1.969 cumulative IPC: 1.728 (Simulation time: 00 hr 27 min 21 sec)
Heartbeat CPU 0 instructions: 310000001 cycles: 162567266 heartbeat IPC: 1.881 cumulative IPC: 1.733 (Simulation time: 00 hr 28 min 10 sec)
Heartbeat CPU 0 instructions: 320000003 cycles: 167786734 heartbeat IPC: 1.916 cumulative IPC: 1.739 (Simulation time: 00 hr 28 min 59 sec)
Heartbeat CPU 0 instructions: 330000003 cycles: 173095931 heartbeat IPC: 1.884 cumulative IPC: 1.744 (Simulation time: 00 hr 29 min 48 sec)
Heartbeat CPU 0 instructions: 340000000 cycles: 184010604 heartbeat IPC: 0.9162 cumulative IPC: 1.691 (Simulation time: 00 hr 31 min 08 sec)
Heartbeat CPU 0 instructions: 350000000 cycles: 195647503 heartbeat IPC: 0.8593 cumulative IPC: 1.638 (Simulation time: 00 hr 32 min 34 sec)
Heartbeat CPU 0 instructions: 360000004 cycles: 206716971 heartbeat IPC: 0.9034 cumulative IPC: 1.596 (Simulation time: 00 hr 33 min 56 sec)
Heartbeat CPU 0 instructions: 370000000 cycles: 211137282 heartbeat IPC: 2.262 cumulative IPC: 1.611 (Simulation time: 00 hr 34 min 42 sec)
Heartbeat CPU 0 instructions: 380000001 cycles: 216070905 heartbeat IPC: 2.027 cumulative IPC: 1.621 (Simulation time: 00 hr 35 min 30 sec)
Heartbeat CPU 0 instructions: 390000002 cycles: 220902361 heartbeat IPC: 2.07 cumulative IPC: 1.632 (Simulation time: 00 hr 36 min 36 sec)
Heartbeat CPU 0 instructions: 400000004 cycles: 225837191 heartbeat IPC: 2.026 cumulative IPC: 1.641 (Simulation time: 00 hr 37 min 53 sec)
Heartbeat CPU 0 instructions: 410000000 cycles: 230574536 heartbeat IPC: 2.111 cumulative IPC: 1.651 (Simulation time: 00 hr 39 min 19 sec)
Heartbeat CPU 0 instructions: 420000000 cycles: 235718375 heartbeat IPC: 1.944 cumulative IPC: 1.658 (Simulation time: 00 hr 41 min 34 sec)
Heartbeat CPU 0 instructions: 430000001 cycles: 240194668 heartbeat IPC: 2.234 cumulative IPC: 1.669 (Simulation time: 00 hr 43 min 23 sec)
Heartbeat CPU 0 instructions: 440000000 cycles: 245558362 heartbeat IPC: 1.864 cumulative IPC: 1.674 (Simulation time: 00 hr 44 min 40 sec)
Heartbeat CPU 0 instructions: 450000002 cycles: 250239032 heartbeat IPC: 2.136 cumulative IPC: 1.683 (Simulation time: 00 hr 45 min 58 sec)
Heartbeat CPU 0 instructions: 460000000 cycles: 255045512 heartbeat IPC: 2.081 cumulative IPC: 1.691 (Simulation time: 00 hr 47 min 33 sec)
Heartbeat CPU 0 instructions: 470000000 cycles: 260031299 heartbeat IPC: 2.006 cumulative IPC: 1.697 (Simulation time: 00 hr 49 min 28 sec)
Heartbeat CPU 0 instructions: 480000003 cycles: 264828818 heartbeat IPC: 2.084 cumulative IPC: 1.704 (Simulation time: 00 hr 51 min 08 sec)
Heartbeat CPU 0 instructions: 490000000 cycles: 269445488 heartbeat IPC: 2.166 cumulative IPC: 1.713 (Simulation time: 00 hr 52 min 58 sec)
Heartbeat CPU 0 instructions: 500000000 cycles: 274475769 heartbeat IPC: 1.988 cumulative IPC: 1.718 (Simulation time: 00 hr 54 min 42 sec)
Heartbeat CPU 0 instructions: 510000003 cycles: 280115395 heartbeat IPC: 1.773 cumulative IPC: 1.719 (Simulation time: 00 hr 56 min 37 sec)
Heartbeat CPU 0 instructions: 520000001 cycles: 284823267 heartbeat IPC: 2.124 cumulative IPC: 1.726 (Simulation time: 00 hr 58 min 24 sec)
Heartbeat CPU 0 instructions: 530000002 cycles: 289977199 heartbeat IPC: 1.94 cumulative IPC: 1.73 (Simulation time: 00 hr 59 min 56 sec)
Heartbeat CPU 0 instructions: 540000000 cycles: 295105673 heartbeat IPC: 1.95 cumulative IPC: 1.734 (Simulation time: 01 hr 01 min 20 sec)
Heartbeat CPU 0 instructions: 550000001 cycles: 299915601 heartbeat IPC: 2.079 cumulative IPC: 1.74 (Simulation time: 01 hr 02 min 34 sec)
Heartbeat CPU 0 instructions: 560000000 cycles: 305144101 heartbeat IPC: 1.913 cumulative IPC: 1.743 (Simulation time: 01 hr 03 min 47 sec)
Heartbeat CPU 0 instructions: 570000004 cycles: 312624160 heartbeat IPC: 1.337 cumulative IPC: 1.733 (Simulation time: 01 hr 05 min 15 sec)
Heartbeat CPU 0 instructions: 580000003 cycles: 324821772 heartbeat IPC: 0.8198 cumulative IPC: 1.697 (Simulation time: 01 hr 07 min 28 sec)
Heartbeat CPU 0 instructions: 590000002 cycles: 338509761 heartbeat IPC: 0.7306 cumulative IPC: 1.657 (Simulation time: 01 hr 09 min 58 sec)
Heartbeat CPU 0 instructions: 600000000 cycles: 343099489 heartbeat IPC: 2.179 cumulative IPC: 1.664 (Simulation time: 01 hr 11 min 10 sec)
Heartbeat CPU 0 instructions: 610000002 cycles: 347599905 heartbeat IPC: 2.222 cumulative IPC: 1.671 (Simulation time: 01 hr 12 min 25 sec)
Heartbeat CPU 0 instructions: 620000000 cycles: 352408798 heartbeat IPC: 2.079 cumulative IPC: 1.677 (Simulation time: 01 hr 13 min 41 sec)
Heartbeat CPU 0 instructions: 630000002 cycles: 357498024 heartbeat IPC: 1.965 cumulative IPC: 1.681 (Simulation time: 01 hr 14 min 58 sec)
Heartbeat CPU 0 instructions: 640000001 cycles: 362351381 heartbeat IPC: 2.06 cumulative IPC: 1.687 (Simulation time: 01 hr 16 min 14 sec)
Heartbeat CPU 0 instructions: 650000000 cycles: 366909314 heartbeat IPC: 2.194 cumulative IPC: 1.693 (Simulation time: 01 hr 17 min 24 sec)
Simulation finished CPU 0 instructions: 600000001 cycles: 354372187 cumulative IPC: 1.693 (Simulation time: 01 hr 17 min 24 sec)
Simulation complete CPU 0 instructions: 600000001 cycles: 354372187 cumulative IPC: 1.693 (Simulation time: 01 hr 17 min 24 sec)

ChampSim completed all CPUs

=== Simulation ===
CPU 0 runs traces/400.perlbench-41B.champsimtrace.xz
Region of Interest Statistics

CPU 0 cumulative IPC: 1.693 instructions: 600000001 cycles: 354372187
CPU 0 Branch Prediction Accuracy: 93.95% MPKI: 12.5 Average ROB Occupancy at Mispredict: 29.74
Branch type MPKI
BRANCH_DIRECT_JUMP: 0.0123
BRANCH_INDIRECT: 0.323
BRANCH_CONDITIONAL: 12
BRANCH_DIRECT_CALL: 0.0043
BRANCH_INDIRECT_CALL: 0.2
BRANCH_RETURN: 0.00828

LLC TOTAL        ACCESS:     540867 HIT:     265553 MISS:     275314
LLC LOAD         ACCESS:     403466 HIT:     155824 MISS:     247642
LLC RFO          ACCESS:      32602 HIT:      15846 MISS:      16756
LLC PREFETCH     ACCESS:          0 HIT:          0 MISS:          0
LLC WRITE        ACCESS:      85728 HIT:      85184 MISS:        544
LLC TRANSLATION  ACCESS:      19071 HIT:       8699 MISS:      10372
LLC PREFETCH REQUESTED:          0 ISSUED:          0 USEFUL:          0 USELESS:          0
LLC AVERAGE MISS LATENCY: 568.4 cycles
cpu0_DTLB TOTAL        ACCESS:  153669136 HIT:  152990529 MISS:     678607
cpu0_DTLB LOAD         ACCESS:  153669136 HIT:  152990529 MISS:     678607
cpu0_DTLB RFO          ACCESS:          0 HIT:          0 MISS:          0
cpu0_DTLB PREFETCH     ACCESS:          0 HIT:          0 MISS:          0
cpu0_DTLB WRITE        ACCESS:          0 HIT:          0 MISS:          0
cpu0_DTLB TRANSLATION  ACCESS:          0 HIT:          0 MISS:          0
cpu0_DTLB PREFETCH REQUESTED:          0 ISSUED:          0 USEFUL:          0 USELESS:          0
cpu0_DTLB AVERAGE MISS LATENCY: 16.15 cycles
cpu0_ITLB TOTAL        ACCESS:    4835165 HIT:    4777313 MISS:      57852
cpu0_ITLB LOAD         ACCESS:    4835165 HIT:    4777313 MISS:      57852
cpu0_ITLB RFO          ACCESS:          0 HIT:          0 MISS:          0
cpu0_ITLB PREFETCH     ACCESS:          0 HIT:          0 MISS:          0
cpu0_ITLB WRITE        ACCESS:          0 HIT:          0 MISS:          0
cpu0_ITLB TRANSLATION  ACCESS:          0 HIT:          0 MISS:          0
cpu0_ITLB PREFETCH REQUESTED:          0 ISSUED:          0 USEFUL:          0 USELESS:          0
cpu0_ITLB AVERAGE MISS LATENCY: 7.469 cycles
cpu0_L1D TOTAL        ACCESS:  200269844 HIT:  198524898 MISS:    1744946
cpu0_L1D LOAD         ACCESS:  117027597 HIT:  115666691 MISS:    1360906
cpu0_L1D RFO          ACCESS:          0 HIT:          0 MISS:          0
cpu0_L1D PREFETCH     ACCESS:          0 HIT:          0 MISS:          0
cpu0_L1D WRITE        ACCESS:   83217786 HIT:   82857170 MISS:     360616
cpu0_L1D TRANSLATION  ACCESS:      24461 HIT:       1037 MISS:      23424
cpu0_L1D PREFETCH REQUESTED:          0 ISSUED:          0 USEFUL:          0 USELESS:          0
cpu0_L1D AVERAGE MISS LATENCY: 93.65 cycles
cpu0_L1I TOTAL        ACCESS:    5577527 HIT:    4815985 MISS:     761542
cpu0_L1I LOAD         ACCESS:    5577527 HIT:    4815985 MISS:     761542
cpu0_L1I RFO          ACCESS:          0 HIT:          0 MISS:          0
cpu0_L1I PREFETCH     ACCESS:          0 HIT:          0 MISS:          0
cpu0_L1I WRITE        ACCESS:          0 HIT:          0 MISS:          0
cpu0_L1I TRANSLATION  ACCESS:          0 HIT:          0 MISS:          0
cpu0_L1I PREFETCH REQUESTED:          0 ISSUED:          0 USEFUL:          0 USELESS:          0
cpu0_L1I AVERAGE MISS LATENCY: 14.78 cycles
cpu0_L2C TOTAL        ACCESS:    1667923 HIT:    1210957 MISS:     456966
cpu0_L2C LOAD         ACCESS:    1317035 HIT:     913569 MISS:     403466
cpu0_L2C RFO          ACCESS:      88657 HIT:      56055 MISS:      32602
cpu0_L2C PREFETCH     ACCESS:          0 HIT:          0 MISS:          0
cpu0_L2C WRITE        ACCESS:     238888 HIT:     237061 MISS:       1827
cpu0_L2C TRANSLATION  ACCESS:      23343 HIT:       4272 MISS:      19071
cpu0_L2C PREFETCH REQUESTED:          0 ISSUED:          0 USEFUL:          0 USELESS:          0
cpu0_L2C AVERAGE MISS LATENCY: 363 cycles
cpu0_STLB TOTAL        ACCESS:     505330 HIT:     482539 MISS:      22791
cpu0_STLB LOAD         ACCESS:     505330 HIT:     482539 MISS:      22791
cpu0_STLB RFO          ACCESS:          0 HIT:          0 MISS:          0
cpu0_STLB PREFETCH     ACCESS:          0 HIT:          0 MISS:          0
cpu0_STLB WRITE        ACCESS:          0 HIT:          0 MISS:          0
cpu0_STLB TRANSLATION  ACCESS:          0 HIT:          0 MISS:          0
cpu0_STLB PREFETCH REQUESTED:          0 ISSUED:          0 USEFUL:          0 USELESS:          0
cpu0_STLB AVERAGE MISS LATENCY: 361.4 cycles

DRAM Statistics

Channel 0 RQ ROW_BUFFER_HIT:      41771
  ROW_BUFFER_MISS:     232971
 AVG DBUS CONGESTED CYCLE: 3.815
WQ ROW_BUFFER_HIT: Channel 0 
  ROW_BUFFER_MISS:       8101
  FULL:      36818
