WARNING: physical memory size is smaller than virtual memory size.

*** ChampSim Multicore Out-of-Order Simulator ***
Warmup Instructions: 50000000
Simulation Instructions: 600000000
Number of CPUs: 1
Page size: 4096

CPU 0 Tage branch predictor
Off-chip DRAM Size: 4 GiB Channels: 1 Width: 64-bit Data Race: 3200 MT/s
Heartbeat CPU 0 instructions: 10000001 cycles: 2500318 heartbeat IPC: 3.999 cumulative IPC: 3.999 (Simulation time: 00 hr 00 min 40 sec)
Heartbeat CPU 0 instructions: 20000002 cycles: 5037111 heartbeat IPC: 3.942 cumulative IPC: 3.971 (Simulation time: 00 hr 01 min 24 sec)
Heartbeat CPU 0 instructions: 30000002 cycles: 7537111 heartbeat IPC: 4 cumulative IPC: 3.98 (Simulation time: 00 hr 02 min 03 sec)
Heartbeat CPU 0 instructions: 40000002 cycles: 10037111 heartbeat IPC: 4 cumulative IPC: 3.985 (Simulation time: 00 hr 02 min 42 sec)
Heartbeat CPU 0 instructions: 50000002 cycles: 12537111 heartbeat IPC: 4 cumulative IPC: 3.988 (Simulation time: 00 hr 03 min 20 sec)
Warmup finished CPU 0 instructions: 50000002 cycles: 12537112 cumulative IPC: 3.988 (Simulation time: 00 hr 03 min 20 sec)
Warmup complete CPU 0 instructions: 50000002 cycles: 12537112 cumulative IPC: 3.988 (Simulation time: 00 hr 03 min 20 sec)
Heartbeat CPU 0 instructions: 60000001 cycles: 15521198 heartbeat IPC: 3.351 cumulative IPC: 3.351 (Simulation time: 00 hr 04 min 07 sec)
Heartbeat CPU 0 instructions: 70000004 cycles: 18603286 heartbeat IPC: 3.245 cumulative IPC: 3.297 (Simulation time: 00 hr 04 min 54 sec)
Heartbeat CPU 0 instructions: 80000001 cycles: 21664168 heartbeat IPC: 3.267 cumulative IPC: 3.287 (Simulation time: 00 hr 05 min 40 sec)
Heartbeat CPU 0 instructions: 90000001 cycles: 24621757 heartbeat IPC: 3.381 cumulative IPC: 3.31 (Simulation time: 00 hr 06 min 27 sec)
Heartbeat CPU 0 instructions: 100000000 cycles: 27553286 heartbeat IPC: 3.411 cumulative IPC: 3.33 (Simulation time: 00 hr 07 min 13 sec)
Heartbeat CPU 0 instructions: 110000000 cycles: 30513409 heartbeat IPC: 3.378 cumulative IPC: 3.338 (Simulation time: 00 hr 08 min 00 sec)
Heartbeat CPU 0 instructions: 120000001 cycles: 33500232 heartbeat IPC: 3.348 cumulative IPC: 3.339 (Simulation time: 00 hr 08 min 48 sec)
Heartbeat CPU 0 instructions: 130000001 cycles: 36364420 heartbeat IPC: 3.491 cumulative IPC: 3.357 (Simulation time: 00 hr 09 min 35 sec)
Heartbeat CPU 0 instructions: 140000001 cycles: 39429551 heartbeat IPC: 3.263 cumulative IPC: 3.347 (Simulation time: 00 hr 10 min 22 sec)
Heartbeat CPU 0 instructions: 150000001 cycles: 42455382 heartbeat IPC: 3.305 cumulative IPC: 3.342 (Simulation time: 00 hr 11 min 09 sec)
Heartbeat CPU 0 instructions: 160000004 cycles: 45485553 heartbeat IPC: 3.3 cumulative IPC: 3.339 (Simulation time: 00 hr 11 min 56 sec)
Heartbeat CPU 0 instructions: 170000000 cycles: 52382701 heartbeat IPC: 1.45 cumulative IPC: 3.012 (Simulation time: 00 hr 13 min 06 sec)
Heartbeat CPU 0 instructions: 180000004 cycles: 59180901 heartbeat IPC: 1.471 cumulative IPC: 2.787 (Simulation time: 00 hr 14 min 15 sec)
Heartbeat CPU 0 instructions: 190000001 cycles: 67582556 heartbeat IPC: 1.19 cumulative IPC: 2.543 (Simulation time: 00 hr 15 min 34 sec)
Heartbeat CPU 0 instructions: 200000004 cycles: 70541930 heartbeat IPC: 3.379 cumulative IPC: 2.586 (Simulation time: 00 hr 16 min 20 sec)
Heartbeat CPU 0 instructions: 210000001 cycles: 73495249 heartbeat IPC: 3.386 cumulative IPC: 2.625 (Simulation time: 00 hr 17 min 06 sec)
Heartbeat CPU 0 instructions: 220000000 cycles: 76386466 heartbeat IPC: 3.459 cumulative IPC: 2.663 (Simulation time: 00 hr 17 min 52 sec)
Heartbeat CPU 0 instructions: 230000002 cycles: 79401531 heartbeat IPC: 3.317 cumulative IPC: 2.692 (Simulation time: 00 hr 18 min 39 sec)
Heartbeat CPU 0 instructions: 240000003 cycles: 82431768 heartbeat IPC: 3.3 cumulative IPC: 2.718 (Simulation time: 00 hr 19 min 26 sec)
Heartbeat CPU 0 instructions: 250000000 cycles: 85448759 heartbeat IPC: 3.315 cumulative IPC: 2.743 (Simulation time: 00 hr 20 min 12 sec)
Heartbeat CPU 0 instructions: 260000002 cycles: 88418110 heartbeat IPC: 3.368 cumulative IPC: 2.767 (Simulation time: 00 hr 20 min 59 sec)
Heartbeat CPU 0 instructions: 270000002 cycles: 91330936 heartbeat IPC: 3.433 cumulative IPC: 2.792 (Simulation time: 00 hr 21 min 44 sec)
Heartbeat CPU 0 instructions: 280000002 cycles: 94210786 heartbeat IPC: 3.472 cumulative IPC: 2.816 (Simulation time: 00 hr 22 min 31 sec)
Heartbeat CPU 0 instructions: 290000002 cycles: 97166436 heartbeat IPC: 3.383 cumulative IPC: 2.836 (Simulation time: 00 hr 23 min 17 sec)
Heartbeat CPU 0 instructions: 300000003 cycles: 100052417 heartbeat IPC: 3.465 cumulative IPC: 2.857 (Simulation time: 00 hr 24 min 04 sec)
Heartbeat CPU 0 instructions: 310000001 cycles: 103077339 heartbeat IPC: 3.306 cumulative IPC: 2.872 (Simulation time: 00 hr 24 min 51 sec)
Heartbeat CPU 0 instructions: 320000003 cycles: 106081155 heartbeat IPC: 3.329 cumulative IPC: 2.886 (Simulation time: 00 hr 25 min 38 sec)
Heartbeat CPU 0 instructions: 330000003 cycles: 109069729 heartbeat IPC: 3.346 cumulative IPC: 2.901 (Simulation time: 00 hr 26 min 25 sec)
Heartbeat CPU 0 instructions: 340000000 cycles: 116104701 heartbeat IPC: 1.421 cumulative IPC: 2.8 (Simulation time: 00 hr 27 min 38 sec)
Heartbeat CPU 0 instructions: 350000000 cycles: 123138679 heartbeat IPC: 1.422 cumulative IPC: 2.712 (Simulation time: 00 hr 28 min 51 sec)
Heartbeat CPU 0 instructions: 360000004 cycles: 131313670 heartbeat IPC: 1.223 cumulative IPC: 2.61 (Simulation time: 00 hr 30 min 10 sec)
Heartbeat CPU 0 instructions: 370000000 cycles: 134279902 heartbeat IPC: 3.371 cumulative IPC: 2.628 (Simulation time: 00 hr 30 min 57 sec)
Heartbeat CPU 0 instructions: 380000003 cycles: 137193676 heartbeat IPC: 3.432 cumulative IPC: 2.647 (Simulation time: 00 hr 31 min 44 sec)
Heartbeat CPU 0 instructions: 390000002 cycles: 140170063 heartbeat IPC: 3.36 cumulative IPC: 2.664 (Simulation time: 00 hr 32 min 32 sec)
Heartbeat CPU 0 instructions: 400000004 cycles: 143075108 heartbeat IPC: 3.442 cumulative IPC: 2.681 (Simulation time: 00 hr 33 min 20 sec)
Heartbeat CPU 0 instructions: 410000002 cycles: 146012640 heartbeat IPC: 3.404 cumulative IPC: 2.697 (Simulation time: 00 hr 34 min 08 sec)
Heartbeat CPU 0 instructions: 420000003 cycles: 149106051 heartbeat IPC: 3.233 cumulative IPC: 2.709 (Simulation time: 00 hr 34 min 57 sec)
Heartbeat CPU 0 instructions: 430000001 cycles: 152120379 heartbeat IPC: 3.317 cumulative IPC: 2.722 (Simulation time: 00 hr 35 min 46 sec)
Heartbeat CPU 0 instructions: 440000004 cycles: 155253947 heartbeat IPC: 3.191 cumulative IPC: 2.733 (Simulation time: 00 hr 36 min 35 sec)
Heartbeat CPU 0 instructions: 450000002 cycles: 158172755 heartbeat IPC: 3.426 cumulative IPC: 2.747 (Simulation time: 00 hr 37 min 24 sec)
Heartbeat CPU 0 instructions: 460000000 cycles: 161110884 heartbeat IPC: 3.404 cumulative IPC: 2.76 (Simulation time: 00 hr 38 min 12 sec)
Heartbeat CPU 0 instructions: 470000001 cycles: 163968218 heartbeat IPC: 3.5 cumulative IPC: 2.774 (Simulation time: 00 hr 38 min 59 sec)
Heartbeat CPU 0 instructions: 480000003 cycles: 167030866 heartbeat IPC: 3.265 cumulative IPC: 2.783 (Simulation time: 00 hr 39 min 48 sec)
Heartbeat CPU 0 instructions: 490000004 cycles: 169857529 heartbeat IPC: 3.538 cumulative IPC: 2.797 (Simulation time: 00 hr 40 min 34 sec)
Heartbeat CPU 0 instructions: 500000004 cycles: 172842235 heartbeat IPC: 3.35 cumulative IPC: 2.807 (Simulation time: 00 hr 41 min 21 sec)
Heartbeat CPU 0 instructions: 510000003 cycles: 175879177 heartbeat IPC: 3.293 cumulative IPC: 2.816 (Simulation time: 00 hr 42 min 08 sec)
Heartbeat CPU 0 instructions: 520000001 cycles: 178762427 heartbeat IPC: 3.468 cumulative IPC: 2.827 (Simulation time: 00 hr 42 min 55 sec)
Heartbeat CPU 0 instructions: 530000001 cycles: 181778624 heartbeat IPC: 3.315 cumulative IPC: 2.836 (Simulation time: 00 hr 43 min 42 sec)
Heartbeat CPU 0 instructions: 540000000 cycles: 184729582 heartbeat IPC: 3.389 cumulative IPC: 2.846 (Simulation time: 00 hr 44 min 29 sec)
Heartbeat CPU 0 instructions: 550000001 cycles: 187711382 heartbeat IPC: 3.354 cumulative IPC: 2.854 (Simulation time: 00 hr 45 min 16 sec)
Heartbeat CPU 0 instructions: 560000000 cycles: 190816552 heartbeat IPC: 3.22 cumulative IPC: 2.861 (Simulation time: 00 hr 46 min 03 sec)
Heartbeat CPU 0 instructions: 570000004 cycles: 195964583 heartbeat IPC: 1.942 cumulative IPC: 2.835 (Simulation time: 00 hr 47 min 07 sec)
Heartbeat CPU 0 instructions: 580000003 cycles: 203015561 heartbeat IPC: 1.418 cumulative IPC: 2.782 (Simulation time: 00 hr 48 min 20 sec)
Heartbeat CPU 0 instructions: 590000002 cycles: 213201303 heartbeat IPC: 0.9818 cumulative IPC: 2.691 (Simulation time: 00 hr 49 min 52 sec)
Heartbeat CPU 0 instructions: 600000004 cycles: 216279725 heartbeat IPC: 3.248 cumulative IPC: 2.699 (Simulation time: 00 hr 50 min 39 sec)
Heartbeat CPU 0 instructions: 610000002 cycles: 219241833 heartbeat IPC: 3.376 cumulative IPC: 2.709 (Simulation time: 00 hr 51 min 26 sec)
Heartbeat CPU 0 instructions: 620000001 cycles: 222010807 heartbeat IPC: 3.611 cumulative IPC: 2.721 (Simulation time: 00 hr 52 min 12 sec)
Heartbeat CPU 0 instructions: 630000002 cycles: 224981813 heartbeat IPC: 3.366 cumulative IPC: 2.73 (Simulation time: 00 hr 52 min 59 sec)
Heartbeat CPU 0 instructions: 640000004 cycles: 227932690 heartbeat IPC: 3.389 cumulative IPC: 2.739 (Simulation time: 00 hr 53 min 47 sec)
Heartbeat CPU 0 instructions: 650000000 cycles: 230682815 heartbeat IPC: 3.636 cumulative IPC: 2.75 (Simulation time: 00 hr 54 min 33 sec)
Simulation finished CPU 0 instructions: 600000001 cycles: 218145705 cumulative IPC: 2.75 (Simulation time: 00 hr 54 min 33 sec)
Simulation complete CPU 0 instructions: 600000001 cycles: 218145705 cumulative IPC: 2.75 (Simulation time: 00 hr 54 min 33 sec)

ChampSim completed all CPUs

=== Simulation ===
CPU 0 runs traces/400.perlbench-41B.champsimtrace.xz
Region of Interest Statistics

CPU 0 cumulative IPC: 2.75 instructions: 600000001 cycles: 218145705
CPU 0 Branch Prediction Accuracy: 99.19% MPKI: 1.684 Average ROB Occupancy at Mispredict: 102.4
Branch type MPKI
BRANCH_DIRECT_JUMP: 0.0123
BRANCH_INDIRECT: 0.323
BRANCH_CONDITIONAL: 1.14
BRANCH_DIRECT_CALL: 0.0043
BRANCH_INDIRECT_CALL: 0.2
BRANCH_RETURN: 0.00828

LLC TOTAL        ACCESS:     593059 HIT:     348503 MISS:     244556
LLC LOAD         ACCESS:     403408 HIT:     220864 MISS:     182544
LLC RFO          ACCESS:      32496 HIT:      17116 MISS:      15380
LLC PREFETCH     ACCESS:      53148 HIT:      42261 MISS:      10887
LLC WRITE        ACCESS:      85013 HIT:      63592 MISS:      21421
LLC TRANSLATION  ACCESS:      18994 HIT:       4670 MISS:      14324
LLC PREFETCH REQUESTED:      53148 ISSUED:      53148 USEFUL:       3957 USELESS:       5783
LLC AVERAGE MISS LATENCY: 561.1 cycles
cpu0_DTLB TOTAL        ACCESS:  129757942 HIT:  129052136 MISS:     705806
cpu0_DTLB LOAD         ACCESS:  129757942 HIT:  129052136 MISS:     705806
cpu0_DTLB RFO          ACCESS:          0 HIT:          0 MISS:          0
cpu0_DTLB PREFETCH     ACCESS:          0 HIT:          0 MISS:          0
cpu0_DTLB WRITE        ACCESS:          0 HIT:          0 MISS:          0
cpu0_DTLB TRANSLATION  ACCESS:          0 HIT:          0 MISS:          0
cpu0_DTLB PREFETCH REQUESTED:          0 ISSUED:          0 USEFUL:          0 USELESS:          0
cpu0_DTLB AVERAGE MISS LATENCY: 18.37 cycles
cpu0_ITLB TOTAL        ACCESS:    4882683 HIT:    4820558 MISS:      62125
cpu0_ITLB LOAD         ACCESS:    4882683 HIT:    4820558 MISS:      62125
cpu0_ITLB RFO          ACCESS:          0 HIT:          0 MISS:          0
cpu0_ITLB PREFETCH     ACCESS:          0 HIT:          0 MISS:          0
cpu0_ITLB WRITE        ACCESS:          0 HIT:          0 MISS:          0
cpu0_ITLB TRANSLATION  ACCESS:          0 HIT:          0 MISS:          0
cpu0_ITLB PREFETCH REQUESTED:          0 ISSUED:          0 USEFUL:          0 USELESS:          0
cpu0_ITLB AVERAGE MISS LATENCY: 6.141 cycles
cpu0_L1D TOTAL        ACCESS:  174344694 HIT:  172565093 MISS:    1779601
cpu0_L1D LOAD         ACCESS:   91321991 HIT:   89939811 MISS:    1382180
cpu0_L1D RFO          ACCESS:          0 HIT:          0 MISS:          0
cpu0_L1D PREFETCH     ACCESS:          0 HIT:          0 MISS:          0
cpu0_L1D WRITE        ACCESS:   82998243 HIT:   82624230 MISS:     374013
cpu0_L1D TRANSLATION  ACCESS:      24460 HIT:       1052 MISS:      23408
cpu0_L1D PREFETCH REQUESTED:          0 ISSUED:          0 USEFUL:          0 USELESS:          0
cpu0_L1D AVERAGE MISS LATENCY: 76.58 cycles
cpu0_L1I TOTAL        ACCESS:    5661547 HIT:    4856392 MISS:     805155
cpu0_L1I LOAD         ACCESS:    5661547 HIT:    4856392 MISS:     805155
cpu0_L1I RFO          ACCESS:          0 HIT:          0 MISS:          0
cpu0_L1I PREFETCH     ACCESS:          0 HIT:          0 MISS:          0
cpu0_L1I WRITE        ACCESS:          0 HIT:          0 MISS:          0
cpu0_L1I TRANSLATION  ACCESS:          0 HIT:          0 MISS:          0
cpu0_L1I PREFETCH REQUESTED:          0 ISSUED:          0 USEFUL:          0 USELESS:          0
cpu0_L1I AVERAGE MISS LATENCY: 9.77 cycles
cpu0_L2C TOTAL        ACCESS:    1667906 HIT:    1211190 MISS:     456716
cpu0_L2C LOAD         ACCESS:    1315241 HIT:     911833 MISS:     403408
cpu0_L2C RFO          ACCESS:      89630 HIT:      57133 MISS:      32497
cpu0_L2C PREFETCH     ACCESS:          0 HIT:          0 MISS:          0
cpu0_L2C WRITE        ACCESS:     239714 HIT:     237897 MISS:       1817
cpu0_L2C TRANSLATION  ACCESS:      23321 HIT:       4327 MISS:      18994
cpu0_L2C PREFETCH REQUESTED:          0 ISSUED:          0 USEFUL:          0 USELESS:          0
cpu0_L2C AVERAGE MISS LATENCY: 304.3 cycles
cpu0_STLB TOTAL        ACCESS:     509035 HIT:     486250 MISS:      22785
cpu0_STLB LOAD         ACCESS:     509035 HIT:     486250 MISS:      22785
cpu0_STLB RFO          ACCESS:          0 HIT:          0 MISS:          0
cpu0_STLB PREFETCH     ACCESS:          0 HIT:          0 MISS:          0
cpu0_STLB WRITE        ACCESS:          0 HIT:          0 MISS:          0
cpu0_STLB TRANSLATION  ACCESS:          0 HIT:          0 MISS:          0
cpu0_STLB PREFETCH REQUESTED:          0 ISSUED:          0 USEFUL:          0 USELESS:          0
cpu0_STLB AVERAGE MISS LATENCY: 471.8 cycles

DRAM Statistics

Channel 0 RQ ROW_BUFFER_HIT:      40541
  ROW_BUFFER_MISS:     180901
 AVG DBUS CONGESTED CYCLE: 3.825
WQ ROW_BUFFER_HIT: Channel 0 
  ROW_BUFFER_MISS:       7184
  FULL:      24586
