WARNING: physical memory size is smaller than virtual memory size.

*** ChampSim Multicore Out-of-Order Simulator ***
Warmup Instructions: 50000000
Simulation Instructions: 600000000
Number of CPUs: 1
Page size: 4096

CPU 0 Tage branch predictor
Off-chip DRAM Size: 4 GiB Channels: 1 Width: 64-bit Data Race: 3200 MT/s
Heartbeat CPU 0 instructions: 10000000 cycles: 2500061 heartbeat IPC: 4 cumulative IPC: 4 (Simulation time: 00 hr 00 min 43 sec)
Heartbeat CPU 0 instructions: 20000000 cycles: 5000061 heartbeat IPC: 4 cumulative IPC: 4 (Simulation time: 00 hr 01 min 24 sec)
Heartbeat CPU 0 instructions: 30000000 cycles: 7500061 heartbeat IPC: 4 cumulative IPC: 4 (Simulation time: 00 hr 02 min 06 sec)
Heartbeat CPU 0 instructions: 40000000 cycles: 10000061 heartbeat IPC: 4 cumulative IPC: 4 (Simulation time: 00 hr 02 min 46 sec)
Heartbeat CPU 0 instructions: 50000000 cycles: 12500061 heartbeat IPC: 4 cumulative IPC: 4 (Simulation time: 00 hr 03 min 26 sec)
Warmup finished CPU 0 instructions: 50000000 cycles: 12500062 cumulative IPC: 4 (Simulation time: 00 hr 03 min 26 sec)
Warmup complete CPU 0 instructions: 50000000 cycles: 12500062 cumulative IPC: 4 (Simulation time: 00 hr 03 min 26 sec)
Heartbeat CPU 0 instructions: 60000004 cycles: 15503677 heartbeat IPC: 3.329 cumulative IPC: 3.329 (Simulation time: 00 hr 04 min 17 sec)
Heartbeat CPU 0 instructions: 70000003 cycles: 18382317 heartbeat IPC: 3.474 cumulative IPC: 3.4 (Simulation time: 00 hr 05 min 07 sec)
Heartbeat CPU 0 instructions: 80000002 cycles: 21404747 heartbeat IPC: 3.309 cumulative IPC: 3.369 (Simulation time: 00 hr 05 min 57 sec)
Heartbeat CPU 0 instructions: 90000000 cycles: 24127135 heartbeat IPC: 3.673 cumulative IPC: 3.44 (Simulation time: 00 hr 06 min 46 sec)
Heartbeat CPU 0 instructions: 100000003 cycles: 26893697 heartbeat IPC: 3.615 cumulative IPC: 3.474 (Simulation time: 00 hr 07 min 33 sec)
Heartbeat CPU 0 instructions: 110000001 cycles: 29799971 heartbeat IPC: 3.441 cumulative IPC: 3.468 (Simulation time: 00 hr 08 min 21 sec)
Heartbeat CPU 0 instructions: 120000001 cycles: 32524189 heartbeat IPC: 3.671 cumulative IPC: 3.496 (Simulation time: 00 hr 09 min 08 sec)
Heartbeat CPU 0 instructions: 130000003 cycles: 35426960 heartbeat IPC: 3.445 cumulative IPC: 3.489 (Simulation time: 00 hr 09 min 55 sec)
Heartbeat CPU 0 instructions: 140000002 cycles: 38265022 heartbeat IPC: 3.524 cumulative IPC: 3.493 (Simulation time: 00 hr 10 min 41 sec)
Heartbeat CPU 0 instructions: 150000001 cycles: 41039448 heartbeat IPC: 3.604 cumulative IPC: 3.504 (Simulation time: 00 hr 11 min 26 sec)
Heartbeat CPU 0 instructions: 160000000 cycles: 43954335 heartbeat IPC: 3.431 cumulative IPC: 3.497 (Simulation time: 00 hr 12 min 14 sec)
Heartbeat CPU 0 instructions: 170000001 cycles: 46885360 heartbeat IPC: 3.412 cumulative IPC: 3.49 (Simulation time: 00 hr 13 min 02 sec)
Heartbeat CPU 0 instructions: 180000000 cycles: 49683046 heartbeat IPC: 3.574 cumulative IPC: 3.496 (Simulation time: 00 hr 13 min 49 sec)
Heartbeat CPU 0 instructions: 190000002 cycles: 52392073 heartbeat IPC: 3.691 cumulative IPC: 3.509 (Simulation time: 00 hr 14 min 38 sec)
Heartbeat CPU 0 instructions: 200000002 cycles: 55222642 heartbeat IPC: 3.533 cumulative IPC: 3.511 (Simulation time: 00 hr 15 min 25 sec)
Heartbeat CPU 0 instructions: 210000000 cycles: 58123175 heartbeat IPC: 3.448 cumulative IPC: 3.507 (Simulation time: 00 hr 16 min 12 sec)
Heartbeat CPU 0 instructions: 220000001 cycles: 60889646 heartbeat IPC: 3.615 cumulative IPC: 3.513 (Simulation time: 00 hr 16 min 58 sec)
Heartbeat CPU 0 instructions: 230000002 cycles: 63784647 heartbeat IPC: 3.454 cumulative IPC: 3.51 (Simulation time: 00 hr 17 min 45 sec)
Heartbeat CPU 0 instructions: 240000004 cycles: 66746511 heartbeat IPC: 3.376 cumulative IPC: 3.503 (Simulation time: 00 hr 18 min 32 sec)
Heartbeat CPU 0 instructions: 250000003 cycles: 69659474 heartbeat IPC: 3.433 cumulative IPC: 3.499 (Simulation time: 00 hr 19 min 20 sec)
Heartbeat CPU 0 instructions: 260000001 cycles: 72461410 heartbeat IPC: 3.569 cumulative IPC: 3.502 (Simulation time: 00 hr 20 min 06 sec)
Heartbeat CPU 0 instructions: 270000002 cycles: 78098109 heartbeat IPC: 1.774 cumulative IPC: 3.354 (Simulation time: 00 hr 21 min 10 sec)
Heartbeat CPU 0 instructions: 280000000 cycles: 87081069 heartbeat IPC: 1.113 cumulative IPC: 3.084 (Simulation time: 00 hr 22 min 37 sec)
Heartbeat CPU 0 instructions: 290000000 cycles: 94435366 heartbeat IPC: 1.36 cumulative IPC: 2.929 (Simulation time: 00 hr 23 min 54 sec)
Heartbeat CPU 0 instructions: 300000003 cycles: 99674437 heartbeat IPC: 1.909 cumulative IPC: 2.868 (Simulation time: 00 hr 24 min 57 sec)
Heartbeat CPU 0 instructions: 310000001 cycles: 108419346 heartbeat IPC: 1.144 cumulative IPC: 2.711 (Simulation time: 00 hr 26 min 23 sec)
Heartbeat CPU 0 instructions: 320000004 cycles: 112259522 heartbeat IPC: 2.604 cumulative IPC: 2.707 (Simulation time: 00 hr 27 min 18 sec)
Heartbeat CPU 0 instructions: 330000000 cycles: 115449929 heartbeat IPC: 3.134 cumulative IPC: 2.72 (Simulation time: 00 hr 28 min 08 sec)
Heartbeat CPU 0 instructions: 340000001 cycles: 118653161 heartbeat IPC: 3.122 cumulative IPC: 2.732 (Simulation time: 00 hr 28 min 58 sec)
Heartbeat CPU 0 instructions: 350000000 cycles: 122006008 heartbeat IPC: 2.983 cumulative IPC: 2.74 (Simulation time: 00 hr 30 min 54 sec)
Heartbeat CPU 0 instructions: 360000004 cycles: 125170685 heartbeat IPC: 3.16 cumulative IPC: 2.751 (Simulation time: 00 hr 32 min 31 sec)
Heartbeat CPU 0 instructions: 370000001 cycles: 128277481 heartbeat IPC: 3.219 cumulative IPC: 2.764 (Simulation time: 00 hr 34 min 10 sec)
Heartbeat CPU 0 instructions: 380000004 cycles: 131400037 heartbeat IPC: 3.203 cumulative IPC: 2.775 (Simulation time: 00 hr 35 min 48 sec)
Heartbeat CPU 0 instructions: 390000002 cycles: 134676575 heartbeat IPC: 3.052 cumulative IPC: 2.783 (Simulation time: 00 hr 37 min 25 sec)
Heartbeat CPU 0 instructions: 400000000 cycles: 138006681 heartbeat IPC: 3.003 cumulative IPC: 2.789 (Simulation time: 00 hr 39 min 02 sec)
Heartbeat CPU 0 instructions: 410000000 cycles: 144117327 heartbeat IPC: 1.636 cumulative IPC: 2.735 (Simulation time: 00 hr 41 min 11 sec)
Heartbeat CPU 0 instructions: 420000003 cycles: 152778616 heartbeat IPC: 1.155 cumulative IPC: 2.638 (Simulation time: 00 hr 43 min 55 sec)
Heartbeat CPU 0 instructions: 430000000 cycles: 158292673 heartbeat IPC: 1.814 cumulative IPC: 2.606 (Simulation time: 00 hr 45 min 57 sec)
Heartbeat CPU 0 instructions: 440000004 cycles: 163166702 heartbeat IPC: 2.052 cumulative IPC: 2.588 (Simulation time: 00 hr 47 min 57 sec)
Heartbeat CPU 0 instructions: 450000001 cycles: 167827695 heartbeat IPC: 2.145 cumulative IPC: 2.575 (Simulation time: 00 hr 49 min 52 sec)
Heartbeat CPU 0 instructions: 460000002 cycles: 176261405 heartbeat IPC: 1.186 cumulative IPC: 2.504 (Simulation time: 00 hr 52 min 30 sec)
Heartbeat CPU 0 instructions: 470000003 cycles: 184141054 heartbeat IPC: 1.269 cumulative IPC: 2.447 (Simulation time: 00 hr 55 min 13 sec)
Heartbeat CPU 0 instructions: 480000000 cycles: 187584991 heartbeat IPC: 2.904 cumulative IPC: 2.456 (Simulation time: 00 hr 56 min 55 sec)
Heartbeat CPU 0 instructions: 490000001 cycles: 191242550 heartbeat IPC: 2.734 cumulative IPC: 2.462 (Simulation time: 00 hr 58 min 41 sec)
Heartbeat CPU 0 instructions: 500000002 cycles: 194750862 heartbeat IPC: 2.85 cumulative IPC: 2.469 (Simulation time: 01 hr 00 min 25 sec)
Heartbeat CPU 0 instructions: 510000000 cycles: 198232880 heartbeat IPC: 2.872 cumulative IPC: 2.477 (Simulation time: 01 hr 02 min 08 sec)
Heartbeat CPU 0 instructions: 520000000 cycles: 201759390 heartbeat IPC: 2.836 cumulative IPC: 2.483 (Simulation time: 01 hr 03 min 47 sec)
Heartbeat CPU 0 instructions: 530000001 cycles: 210625856 heartbeat IPC: 1.128 cumulative IPC: 2.423 (Simulation time: 01 hr 07 min 03 sec)
Heartbeat CPU 0 instructions: 540000000 cycles: 219280235 heartbeat IPC: 1.155 cumulative IPC: 2.37 (Simulation time: 01 hr 10 min 18 sec)
Heartbeat CPU 0 instructions: 550000004 cycles: 229425713 heartbeat IPC: 0.9857 cumulative IPC: 2.305 (Simulation time: 01 hr 13 min 37 sec)
Heartbeat CPU 0 instructions: 560000004 cycles: 233164857 heartbeat IPC: 2.674 cumulative IPC: 2.311 (Simulation time: 01 hr 15 min 40 sec)
Heartbeat CPU 0 instructions: 570000002 cycles: 235990920 heartbeat IPC: 3.538 cumulative IPC: 2.327 (Simulation time: 01 hr 17 min 30 sec)
Heartbeat CPU 0 instructions: 580000000 cycles: 238923521 heartbeat IPC: 3.41 cumulative IPC: 2.341 (Simulation time: 01 hr 19 min 28 sec)
Heartbeat CPU 0 instructions: 590000001 cycles: 241860751 heartbeat IPC: 3.405 cumulative IPC: 2.354 (Simulation time: 01 hr 21 min 21 sec)
Heartbeat CPU 0 instructions: 600000003 cycles: 244560257 heartbeat IPC: 3.704 cumulative IPC: 2.37 (Simulation time: 01 hr 23 min 24 sec)
Heartbeat CPU 0 instructions: 610000001 cycles: 247432704 heartbeat IPC: 3.481 cumulative IPC: 2.384 (Simulation time: 01 hr 25 min 16 sec)
Heartbeat CPU 0 instructions: 620000004 cycles: 250394141 heartbeat IPC: 3.377 cumulative IPC: 2.396 (Simulation time: 01 hr 27 min 11 sec)
Heartbeat CPU 0 instructions: 630000002 cycles: 253206175 heartbeat IPC: 3.556 cumulative IPC: 2.41 (Simulation time: 01 hr 29 min 09 sec)
Heartbeat CPU 0 instructions: 640000004 cycles: 256257021 heartbeat IPC: 3.278 cumulative IPC: 2.42 (Simulation time: 01 hr 31 min 10 sec)
Heartbeat CPU 0 instructions: 650000001 cycles: 258965351 heartbeat IPC: 3.692 cumulative IPC: 2.434 (Simulation time: 01 hr 31 min 50 sec)
Simulation finished CPU 0 instructions: 600000001 cycles: 246465290 cumulative IPC: 2.434 (Simulation time: 01 hr 31 min 50 sec)
Simulation complete CPU 0 instructions: 600000001 cycles: 246465290 cumulative IPC: 2.434 (Simulation time: 01 hr 31 min 50 sec)

ChampSim completed all CPUs

=== Simulation ===
CPU 0 runs traces/400.perlbench-50B.champsimtrace.xz
Region of Interest Statistics

CPU 0 cumulative IPC: 2.434 instructions: 600000001 cycles: 246465290
CPU 0 Branch Prediction Accuracy: 99.01% MPKI: 2.04 Average ROB Occupancy at Mispredict: 94.54
Branch type MPKI
BRANCH_DIRECT_JUMP: 0.0176
BRANCH_INDIRECT: 0.38
BRANCH_CONDITIONAL: 1.19
BRANCH_DIRECT_CALL: 0.0067
BRANCH_INDIRECT_CALL: 0.431
BRANCH_RETURN: 0.0161

LLC TOTAL        ACCESS:    1355685 HIT:     854850 MISS:     500835
LLC LOAD         ACCESS:     579762 HIT:     353138 MISS:     226624
LLC RFO          ACCESS:      47256 HIT:      26869 MISS:      20387
LLC PREFETCH     ACCESS:     579762 HIT:     339438 MISS:     240324
LLC WRITE        ACCESS:     126826 HIT:     126042 MISS:        784
LLC TRANSLATION  ACCESS:      22079 HIT:       9363 MISS:      12716
LLC PREFETCH REQUESTED:     579762 ISSUED:     579762 USEFUL:      90258 USELESS:      83599
LLC AVERAGE MISS LATENCY: 633.5 cycles
cpu0_DTLB TOTAL        ACCESS:  133230881 HIT:  131876427 MISS:    1354454
cpu0_DTLB LOAD         ACCESS:  133230881 HIT:  131876427 MISS:    1354454
cpu0_DTLB RFO          ACCESS:          0 HIT:          0 MISS:          0
cpu0_DTLB PREFETCH     ACCESS:          0 HIT:          0 MISS:          0
cpu0_DTLB WRITE        ACCESS:          0 HIT:          0 MISS:          0
cpu0_DTLB TRANSLATION  ACCESS:          0 HIT:          0 MISS:          0
cpu0_DTLB PREFETCH REQUESTED:          0 ISSUED:          0 USEFUL:          0 USELESS:          0
cpu0_DTLB AVERAGE MISS LATENCY: 12.9 cycles
cpu0_ITLB TOTAL        ACCESS:    8991675 HIT:    8782266 MISS:     209409
cpu0_ITLB LOAD         ACCESS:    8991675 HIT:    8782266 MISS:     209409
cpu0_ITLB RFO          ACCESS:          0 HIT:          0 MISS:          0
cpu0_ITLB PREFETCH     ACCESS:          0 HIT:          0 MISS:          0
cpu0_ITLB WRITE        ACCESS:          0 HIT:          0 MISS:          0
cpu0_ITLB TRANSLATION  ACCESS:          0 HIT:          0 MISS:          0
cpu0_ITLB PREFETCH REQUESTED:          0 ISSUED:          0 USEFUL:          0 USELESS:          0
cpu0_ITLB AVERAGE MISS LATENCY: 3.275 cycles
cpu0_L1D TOTAL        ACCESS:  178269182 HIT:  174478624 MISS:    3790558
cpu0_L1D LOAD         ACCESS:   92750320 HIT:   89644761 MISS:    3105559
cpu0_L1D RFO          ACCESS:          0 HIT:          0 MISS:          0
cpu0_L1D PREFETCH     ACCESS:          0 HIT:          0 MISS:          0
cpu0_L1D WRITE        ACCESS:   85490329 HIT:   84832449 MISS:     657880
cpu0_L1D TRANSLATION  ACCESS:      28533 HIT:       1414 MISS:      27119
cpu0_L1D PREFETCH REQUESTED:          0 ISSUED:          0 USEFUL:          0 USELESS:          0
cpu0_L1D AVERAGE MISS LATENCY: 51.2 cycles
cpu0_L1I TOTAL        ACCESS:   10511790 HIT:    8614004 MISS:    1897786
cpu0_L1I LOAD         ACCESS:   10511790 HIT:    8614004 MISS:    1897786
cpu0_L1I RFO          ACCESS:          0 HIT:          0 MISS:          0
cpu0_L1I PREFETCH     ACCESS:          0 HIT:          0 MISS:          0
cpu0_L1I WRITE        ACCESS:          0 HIT:          0 MISS:          0
cpu0_L1I TRANSLATION  ACCESS:          0 HIT:          0 MISS:          0
cpu0_L1I PREFETCH REQUESTED:          0 ISSUED:          0 USEFUL:          0 USELESS:          0
cpu0_L1I AVERAGE MISS LATENCY: 10.71 cycles
cpu0_L2C TOTAL        ACCESS:    3840034 HIT:    3187973 MISS:     652061
cpu0_L2C LOAD         ACCESS:    3103752 HIT:    2523989 MISS:     579763
cpu0_L2C RFO          ACCESS:     194866 HIT:     147610 MISS:      47256
cpu0_L2C PREFETCH     ACCESS:          0 HIT:          0 MISS:          0
cpu0_L2C WRITE        ACCESS:     514376 HIT:     511413 MISS:       2963
cpu0_L2C TRANSLATION  ACCESS:      27040 HIT:       4961 MISS:      22079
cpu0_L2C PREFETCH REQUESTED:          0 ISSUED:          0 USEFUL:          0 USELESS:          0
cpu0_L2C AVERAGE MISS LATENCY: 300.6 cycles
cpu0_STLB TOTAL        ACCESS:    1010081 HIT:     983390 MISS:      26691
cpu0_STLB LOAD         ACCESS:    1010081 HIT:     983390 MISS:      26691
cpu0_STLB RFO          ACCESS:          0 HIT:          0 MISS:          0
cpu0_STLB PREFETCH     ACCESS:          0 HIT:          0 MISS:          0
cpu0_STLB WRITE        ACCESS:          0 HIT:          0 MISS:          0
cpu0_STLB TRANSLATION  ACCESS:          0 HIT:          0 MISS:          0
cpu0_STLB PREFETCH REQUESTED:          0 ISSUED:          0 USEFUL:          0 USELESS:          0
cpu0_STLB AVERAGE MISS LATENCY: 457.3 cycles

DRAM Statistics

Channel 0 RQ ROW_BUFFER_HIT:      88567
  ROW_BUFFER_MISS:     325862
 AVG DBUS CONGESTED CYCLE: 3.898
WQ ROW_BUFFER_HIT: Channel 0 
  ROW_BUFFER_MISS:       4566
  FULL:      49334
