WARNING: physical memory size is smaller than virtual memory size.

*** ChampSim Multicore Out-of-Order Simulator ***
Warmup Instructions: 50000000
Simulation Instructions: 600000000
Number of CPUs: 1
Page size: 4096

Off-chip DRAM Size: 4 GiB Channels: 1 Width: 64-bit Data Race: 3200 MT/s
Heartbeat CPU 0 instructions: 10000000 cycles: 2500061 heartbeat IPC: 4 cumulative IPC: 4 (Simulation time: 00 hr 00 min 55 sec)
Heartbeat CPU 0 instructions: 20000000 cycles: 5000061 heartbeat IPC: 4 cumulative IPC: 4 (Simulation time: 00 hr 01 min 55 sec)
Heartbeat CPU 0 instructions: 30000000 cycles: 7500061 heartbeat IPC: 4 cumulative IPC: 4 (Simulation time: 00 hr 02 min 46 sec)
Heartbeat CPU 0 instructions: 40000000 cycles: 10000061 heartbeat IPC: 4 cumulative IPC: 4 (Simulation time: 00 hr 03 min 40 sec)
Heartbeat CPU 0 instructions: 50000000 cycles: 12500061 heartbeat IPC: 4 cumulative IPC: 4 (Simulation time: 00 hr 04 min 29 sec)
Warmup finished CPU 0 instructions: 50000000 cycles: 12500062 cumulative IPC: 4 (Simulation time: 00 hr 04 min 29 sec)
Warmup complete CPU 0 instructions: 50000000 cycles: 12500062 cumulative IPC: 4 (Simulation time: 00 hr 04 min 29 sec)
Heartbeat CPU 0 instructions: 60000002 cycles: 16907366 heartbeat IPC: 2.269 cumulative IPC: 2.269 (Simulation time: 00 hr 05 min 34 sec)
Heartbeat CPU 0 instructions: 70000003 cycles: 21889050 heartbeat IPC: 2.007 cumulative IPC: 2.13 (Simulation time: 00 hr 06 min 39 sec)
Heartbeat CPU 0 instructions: 80000001 cycles: 27230745 heartbeat IPC: 1.872 cumulative IPC: 2.037 (Simulation time: 00 hr 07 min 45 sec)
Heartbeat CPU 0 instructions: 90000000 cycles: 31527294 heartbeat IPC: 2.327 cumulative IPC: 2.102 (Simulation time: 00 hr 08 min 51 sec)
Heartbeat CPU 0 instructions: 100000003 cycles: 36379334 heartbeat IPC: 2.061 cumulative IPC: 2.094 (Simulation time: 00 hr 10 min 00 sec)
Heartbeat CPU 0 instructions: 110000002 cycles: 41247374 heartbeat IPC: 2.054 cumulative IPC: 2.087 (Simulation time: 00 hr 11 min 06 sec)
Heartbeat CPU 0 instructions: 120000001 cycles: 46240828 heartbeat IPC: 2.003 cumulative IPC: 2.075 (Simulation time: 00 hr 12 min 12 sec)
Heartbeat CPU 0 instructions: 130000003 cycles: 50807189 heartbeat IPC: 2.19 cumulative IPC: 2.088 (Simulation time: 00 hr 13 min 16 sec)
Heartbeat CPU 0 instructions: 140000002 cycles: 55694832 heartbeat IPC: 2.046 cumulative IPC: 2.084 (Simulation time: 00 hr 14 min 24 sec)
Heartbeat CPU 0 instructions: 150000001 cycles: 60360024 heartbeat IPC: 2.144 cumulative IPC: 2.089 (Simulation time: 00 hr 15 min 41 sec)
Heartbeat CPU 0 instructions: 160000000 cycles: 64996045 heartbeat IPC: 2.157 cumulative IPC: 2.095 (Simulation time: 00 hr 16 min 58 sec)
Heartbeat CPU 0 instructions: 170000000 cycles: 70325364 heartbeat IPC: 1.876 cumulative IPC: 2.075 (Simulation time: 00 hr 18 min 16 sec)
Heartbeat CPU 0 instructions: 180000001 cycles: 76043102 heartbeat IPC: 1.749 cumulative IPC: 2.046 (Simulation time: 00 hr 19 min 28 sec)
Heartbeat CPU 0 instructions: 190000002 cycles: 80511237 heartbeat IPC: 2.238 cumulative IPC: 2.058 (Simulation time: 00 hr 20 min 34 sec)
Heartbeat CPU 0 instructions: 200000002 cycles: 85411245 heartbeat IPC: 2.041 cumulative IPC: 2.057 (Simulation time: 00 hr 21 min 40 sec)
Heartbeat CPU 0 instructions: 210000000 cycles: 90413026 heartbeat IPC: 1.999 cumulative IPC: 2.054 (Simulation time: 00 hr 22 min 48 sec)
Heartbeat CPU 0 instructions: 220000001 cycles: 95334767 heartbeat IPC: 2.032 cumulative IPC: 2.052 (Simulation time: 00 hr 23 min 57 sec)
Heartbeat CPU 0 instructions: 230000002 cycles: 100578650 heartbeat IPC: 1.907 cumulative IPC: 2.044 (Simulation time: 00 hr 25 min 07 sec)
Heartbeat CPU 0 instructions: 240000001 cycles: 105540806 heartbeat IPC: 2.015 cumulative IPC: 2.042 (Simulation time: 00 hr 26 min 15 sec)
Heartbeat CPU 0 instructions: 250000003 cycles: 110715950 heartbeat IPC: 1.932 cumulative IPC: 2.036 (Simulation time: 00 hr 27 min 22 sec)
Heartbeat CPU 0 instructions: 260000001 cycles: 115575695 heartbeat IPC: 2.058 cumulative IPC: 2.037 (Simulation time: 00 hr 28 min 31 sec)
Heartbeat CPU 0 instructions: 270000000 cycles: 123311319 heartbeat IPC: 1.293 cumulative IPC: 1.985 (Simulation time: 00 hr 30 min 13 sec)
Heartbeat CPU 0 instructions: 280000000 cycles: 134968986 heartbeat IPC: 0.8578 cumulative IPC: 1.878 (Simulation time: 00 hr 32 min 23 sec)
Heartbeat CPU 0 instructions: 290000001 cycles: 145270017 heartbeat IPC: 0.9708 cumulative IPC: 1.808 (Simulation time: 00 hr 34 min 19 sec)
Heartbeat CPU 0 instructions: 300000003 cycles: 152898502 heartbeat IPC: 1.311 cumulative IPC: 1.781 (Simulation time: 00 hr 35 min 55 sec)
Heartbeat CPU 0 instructions: 310000004 cycles: 163910709 heartbeat IPC: 0.9081 cumulative IPC: 1.717 (Simulation time: 00 hr 37 min 55 sec)
Heartbeat CPU 0 instructions: 320000004 cycles: 169613843 heartbeat IPC: 1.753 cumulative IPC: 1.718 (Simulation time: 00 hr 39 min 14 sec)
Heartbeat CPU 0 instructions: 330000000 cycles: 174917866 heartbeat IPC: 1.885 cumulative IPC: 1.724 (Simulation time: 00 hr 40 min 25 sec)
Heartbeat CPU 0 instructions: 340000001 cycles: 180156089 heartbeat IPC: 1.909 cumulative IPC: 1.73 (Simulation time: 00 hr 41 min 35 sec)
Heartbeat CPU 0 instructions: 350000000 cycles: 185587760 heartbeat IPC: 1.841 cumulative IPC: 1.733 (Simulation time: 00 hr 42 min 45 sec)
Heartbeat CPU 0 instructions: 360000003 cycles: 190772082 heartbeat IPC: 1.929 cumulative IPC: 1.739 (Simulation time: 00 hr 43 min 54 sec)
Heartbeat CPU 0 instructions: 370000001 cycles: 195866498 heartbeat IPC: 1.963 cumulative IPC: 1.745 (Simulation time: 00 hr 45 min 07 sec)
Heartbeat CPU 0 instructions: 380000004 cycles: 201230528 heartbeat IPC: 1.864 cumulative IPC: 1.749 (Simulation time: 00 hr 46 min 43 sec)
Heartbeat CPU 0 instructions: 390000002 cycles: 206652999 heartbeat IPC: 1.844 cumulative IPC: 1.751 (Simulation time: 00 hr 48 min 16 sec)
Heartbeat CPU 0 instructions: 400000000 cycles: 212163534 heartbeat IPC: 1.815 cumulative IPC: 1.753 (Simulation time: 00 hr 49 min 39 sec)
Heartbeat CPU 0 instructions: 410000000 cycles: 220844974 heartbeat IPC: 1.152 cumulative IPC: 1.728 (Simulation time: 00 hr 51 min 25 sec)
Heartbeat CPU 0 instructions: 420000001 cycles: 232875385 heartbeat IPC: 0.8312 cumulative IPC: 1.679 (Simulation time: 00 hr 53 min 45 sec)
Heartbeat CPU 0 instructions: 430000000 cycles: 241338308 heartbeat IPC: 1.182 cumulative IPC: 1.661 (Simulation time: 00 hr 55 min 32 sec)
Heartbeat CPU 0 instructions: 440000002 cycles: 249069260 heartbeat IPC: 1.294 cumulative IPC: 1.649 (Simulation time: 00 hr 57 min 06 sec)
Heartbeat CPU 0 instructions: 450000003 cycles: 256346983 heartbeat IPC: 1.374 cumulative IPC: 1.64 (Simulation time: 00 hr 58 min 37 sec)
Heartbeat CPU 0 instructions: 460000002 cycles: 268010973 heartbeat IPC: 0.8573 cumulative IPC: 1.605 (Simulation time: 01 hr 00 min 38 sec)
Heartbeat CPU 0 instructions: 470000000 cycles: 278166770 heartbeat IPC: 0.9847 cumulative IPC: 1.581 (Simulation time: 01 hr 02 min 28 sec)
Heartbeat CPU 0 instructions: 480000000 cycles: 283679727 heartbeat IPC: 1.814 cumulative IPC: 1.586 (Simulation time: 01 hr 03 min 41 sec)
Heartbeat CPU 0 instructions: 490000001 cycles: 289448312 heartbeat IPC: 1.734 cumulative IPC: 1.589 (Simulation time: 01 hr 04 min 54 sec)
Heartbeat CPU 0 instructions: 500000002 cycles: 295106215 heartbeat IPC: 1.767 cumulative IPC: 1.592 (Simulation time: 01 hr 06 min 07 sec)
Heartbeat CPU 0 instructions: 510000000 cycles: 300823637 heartbeat IPC: 1.749 cumulative IPC: 1.595 (Simulation time: 01 hr 07 min 24 sec)
Heartbeat CPU 0 instructions: 520000000 cycles: 306613571 heartbeat IPC: 1.727 cumulative IPC: 1.598 (Simulation time: 01 hr 08 min 38 sec)
Heartbeat CPU 0 instructions: 530000001 cycles: 319456811 heartbeat IPC: 0.7786 cumulative IPC: 1.564 (Simulation time: 01 hr 10 min 49 sec)
Heartbeat CPU 0 instructions: 540000000 cycles: 331328739 heartbeat IPC: 0.8423 cumulative IPC: 1.537 (Simulation time: 01 hr 12 min 56 sec)
Heartbeat CPU 0 instructions: 550000002 cycles: 345150015 heartbeat IPC: 0.7235 cumulative IPC: 1.503 (Simulation time: 01 hr 15 min 05 sec)
Heartbeat CPU 0 instructions: 560000004 cycles: 350001900 heartbeat IPC: 2.061 cumulative IPC: 1.511 (Simulation time: 01 hr 16 min 03 sec)
Heartbeat CPU 0 instructions: 570000001 cycles: 354412864 heartbeat IPC: 2.267 cumulative IPC: 1.521 (Simulation time: 01 hr 16 min 55 sec)
Heartbeat CPU 0 instructions: 580000003 cycles: 358658472 heartbeat IPC: 2.355 cumulative IPC: 1.531 (Simulation time: 01 hr 17 min 42 sec)
Heartbeat CPU 0 instructions: 590000001 cycles: 363561196 heartbeat IPC: 2.04 cumulative IPC: 1.538 (Simulation time: 01 hr 18 min 31 sec)
Heartbeat CPU 0 instructions: 600000003 cycles: 368201806 heartbeat IPC: 2.155 cumulative IPC: 1.546 (Simulation time: 01 hr 19 min 16 sec)
Heartbeat CPU 0 instructions: 610000001 cycles: 373062302 heartbeat IPC: 2.057 cumulative IPC: 1.553 (Simulation time: 01 hr 19 min 52 sec)
Heartbeat CPU 0 instructions: 620000000 cycles: 378130961 heartbeat IPC: 1.973 cumulative IPC: 1.559 (Simulation time: 01 hr 20 min 26 sec)
Heartbeat CPU 0 instructions: 630000002 cycles: 382378428 heartbeat IPC: 2.354 cumulative IPC: 1.568 (Simulation time: 01 hr 20 min 54 sec)
Heartbeat CPU 0 instructions: 640000004 cycles: 387701413 heartbeat IPC: 1.879 cumulative IPC: 1.572 (Simulation time: 01 hr 21 min 23 sec)
Heartbeat CPU 0 instructions: 650000001 cycles: 392468324 heartbeat IPC: 2.098 cumulative IPC: 1.579 (Simulation time: 01 hr 21 min 47 sec)
Simulation finished CPU 0 instructions: 600000001 cycles: 379968263 cumulative IPC: 1.579 (Simulation time: 01 hr 21 min 47 sec)
Simulation complete CPU 0 instructions: 600000001 cycles: 379968263 cumulative IPC: 1.579 (Simulation time: 01 hr 21 min 47 sec)

ChampSim completed all CPUs

=== Simulation ===
CPU 0 runs traces/400.perlbench-50B.champsimtrace.xz
Region of Interest Statistics

CPU 0 cumulative IPC: 1.579 instructions: 600000001 cycles: 379968263
CPU 0 Branch Prediction Accuracy: 93.83% MPKI: 12.71 Average ROB Occupancy at Mispredict: 29.57
Branch type MPKI
BRANCH_DIRECT_JUMP: 0.0176
BRANCH_INDIRECT: 0.38
BRANCH_CONDITIONAL: 11.9
BRANCH_DIRECT_CALL: 0.0067
BRANCH_INDIRECT_CALL: 0.431
BRANCH_RETURN: 0.0161

LLC TOTAL        ACCESS:     851315 HIT:     505215 MISS:     346100
LLC LOAD         ACCESS:     587609 HIT:     314260 MISS:     273349
LLC RFO          ACCESS:      47467 HIT:      27452 MISS:      20015
LLC PREFETCH     ACCESS:      65951 HIT:      35347 MISS:      30604
LLC WRITE        ACCESS:     128226 HIT:     117770 MISS:      10456
LLC TRANSLATION  ACCESS:      22062 HIT:      10386 MISS:      11676
LLC PREFETCH REQUESTED:      65951 ISSUED:      65951 USEFUL:      18688 USELESS:       6751
LLC AVERAGE MISS LATENCY: 524.1 cycles
cpu0_DTLB TOTAL        ACCESS:  156769356 HIT:  155468075 MISS:    1301281
cpu0_DTLB LOAD         ACCESS:  156769356 HIT:  155468075 MISS:    1301281
cpu0_DTLB RFO          ACCESS:          0 HIT:          0 MISS:          0
cpu0_DTLB PREFETCH     ACCESS:          0 HIT:          0 MISS:          0
cpu0_DTLB WRITE        ACCESS:          0 HIT:          0 MISS:          0
cpu0_DTLB TRANSLATION  ACCESS:          0 HIT:          0 MISS:          0
cpu0_DTLB PREFETCH REQUESTED:          0 ISSUED:          0 USEFUL:          0 USELESS:          0
cpu0_DTLB AVERAGE MISS LATENCY: 12.01 cycles
cpu0_ITLB TOTAL        ACCESS:    8933279 HIT:    8734726 MISS:     198553
cpu0_ITLB LOAD         ACCESS:    8933279 HIT:    8734726 MISS:     198553
cpu0_ITLB RFO          ACCESS:          0 HIT:          0 MISS:          0
cpu0_ITLB PREFETCH     ACCESS:          0 HIT:          0 MISS:          0
cpu0_ITLB WRITE        ACCESS:          0 HIT:          0 MISS:          0
cpu0_ITLB TRANSLATION  ACCESS:          0 HIT:          0 MISS:          0
cpu0_ITLB PREFETCH REQUESTED:          0 ISSUED:          0 USEFUL:          0 USELESS:          0
cpu0_ITLB AVERAGE MISS LATENCY: 3.136 cycles
cpu0_L1D TOTAL        ACCESS:  203608284 HIT:  199934349 MISS:    3673935
cpu0_L1D LOAD         ACCESS:  117931490 HIT:  114914588 MISS:    3016902
cpu0_L1D RFO          ACCESS:          0 HIT:          0 MISS:          0
cpu0_L1D PREFETCH     ACCESS:          0 HIT:          0 MISS:          0
cpu0_L1D WRITE        ACCESS:   85648248 HIT:   85018357 MISS:     629891
cpu0_L1D TRANSLATION  ACCESS:      28546 HIT:       1404 MISS:      27142
cpu0_L1D PREFETCH REQUESTED:          0 ISSUED:          0 USEFUL:          0 USELESS:          0
cpu0_L1D AVERAGE MISS LATENCY: 49.4 cycles
cpu0_L1I TOTAL        ACCESS:   10371861 HIT:    8574627 MISS:    1797234
cpu0_L1I LOAD         ACCESS:   10371861 HIT:    8574627 MISS:    1797234
cpu0_L1I RFO          ACCESS:          0 HIT:          0 MISS:          0
cpu0_L1I PREFETCH     ACCESS:          0 HIT:          0 MISS:          0
cpu0_L1I WRITE        ACCESS:          0 HIT:          0 MISS:          0
cpu0_L1I TRANSLATION  ACCESS:          0 HIT:          0 MISS:          0
cpu0_L1I PREFETCH REQUESTED:          0 ISSUED:          0 USEFUL:          0 USELESS:          0
cpu0_L1I AVERAGE MISS LATENCY: 11.83 cycles
cpu0_L2C TOTAL        ACCESS:    3837103 HIT:    3176677 MISS:     660426
cpu0_L2C LOAD         ACCESS:    3106350 HIT:    2518741 MISS:     587609
cpu0_L2C RFO          ACCESS:     191825 HIT:     144358 MISS:      47467
cpu0_L2C PREFETCH     ACCESS:          0 HIT:          0 MISS:          0
cpu0_L2C WRITE        ACCESS:     511866 HIT:     508578 MISS:       3288
cpu0_L2C TRANSLATION  ACCESS:      27062 HIT:       5000 MISS:      22062
cpu0_L2C PREFETCH REQUESTED:          0 ISSUED:          0 USEFUL:          0 USELESS:          0
cpu0_L2C AVERAGE MISS LATENCY: 267.8 cycles
cpu0_STLB TOTAL        ACCESS:    1009341 HIT:     982648 MISS:      26693
cpu0_STLB LOAD         ACCESS:    1009341 HIT:     982648 MISS:      26693
cpu0_STLB RFO          ACCESS:          0 HIT:          0 MISS:          0
cpu0_STLB PREFETCH     ACCESS:          0 HIT:          0 MISS:          0
cpu0_STLB WRITE        ACCESS:          0 HIT:          0 MISS:          0
cpu0_STLB TRANSLATION  ACCESS:          0 HIT:          0 MISS:          0
cpu0_STLB PREFETCH REQUESTED:          0 ISSUED:          0 USEFUL:          0 USELESS:          0
cpu0_STLB AVERAGE MISS LATENCY: 365.2 cycles

DRAM Statistics

Channel 0 RQ ROW_BUFFER_HIT:      65919
  ROW_BUFFER_MISS:     264312
 AVG DBUS CONGESTED CYCLE: 3.809
WQ ROW_BUFFER_HIT: Channel 0 
  ROW_BUFFER_MISS:       9437
  FULL:      37420
