WARNING: physical memory size is smaller than virtual memory size.

*** ChampSim Multicore Out-of-Order Simulator ***
Warmup Instructions: 50000000
Simulation Instructions: 600000000
Number of CPUs: 1
Page size: 4096

Off-chip DRAM Size: 4 GiB Channels: 1 Width: 64-bit Data Race: 3200 MT/s
Heartbeat CPU 0 instructions: 10000001 cycles: 2500318 heartbeat IPC: 3.999 cumulative IPC: 3.999 (Simulation time: 00 hr 00 min 39 sec)
Heartbeat CPU 0 instructions: 20000002 cycles: 5037110 heartbeat IPC: 3.942 cumulative IPC: 3.971 (Simulation time: 00 hr 01 min 20 sec)
Heartbeat CPU 0 instructions: 30000002 cycles: 7537110 heartbeat IPC: 4 cumulative IPC: 3.98 (Simulation time: 00 hr 01 min 54 sec)
Heartbeat CPU 0 instructions: 40000002 cycles: 10037110 heartbeat IPC: 4 cumulative IPC: 3.985 (Simulation time: 00 hr 02 min 28 sec)
Heartbeat CPU 0 instructions: 50000002 cycles: 12537110 heartbeat IPC: 4 cumulative IPC: 3.988 (Simulation time: 00 hr 03 min 02 sec)
Warmup finished CPU 0 instructions: 50000002 cycles: 12537111 cumulative IPC: 3.988 (Simulation time: 00 hr 03 min 02 sec)
Warmup complete CPU 0 instructions: 50000002 cycles: 12537111 cumulative IPC: 3.988 (Simulation time: 00 hr 03 min 02 sec)
Heartbeat CPU 0 instructions: 60000000 cycles: 17711745 heartbeat IPC: 1.933 cumulative IPC: 1.933 (Simulation time: 00 hr 03 min 55 sec)
Heartbeat CPU 0 instructions: 70000002 cycles: 22619228 heartbeat IPC: 2.038 cumulative IPC: 1.984 (Simulation time: 00 hr 04 min 46 sec)
Heartbeat CPU 0 instructions: 80000001 cycles: 27992312 heartbeat IPC: 1.861 cumulative IPC: 1.941 (Simulation time: 00 hr 05 min 38 sec)
Heartbeat CPU 0 instructions: 90000001 cycles: 32879675 heartbeat IPC: 2.046 cumulative IPC: 1.966 (Simulation time: 00 hr 06 min 27 sec)
Heartbeat CPU 0 instructions: 100000000 cycles: 37995988 heartbeat IPC: 1.955 cumulative IPC: 1.964 (Simulation time: 00 hr 07 min 18 sec)
Heartbeat CPU 0 instructions: 110000000 cycles: 42886284 heartbeat IPC: 2.045 cumulative IPC: 1.977 (Simulation time: 00 hr 08 min 09 sec)
Heartbeat CPU 0 instructions: 120000001 cycles: 48077262 heartbeat IPC: 1.926 cumulative IPC: 1.97 (Simulation time: 00 hr 09 min 00 sec)
Heartbeat CPU 0 instructions: 130000001 cycles: 53232376 heartbeat IPC: 1.94 cumulative IPC: 1.966 (Simulation time: 00 hr 09 min 50 sec)
Heartbeat CPU 0 instructions: 140000001 cycles: 58547064 heartbeat IPC: 1.882 cumulative IPC: 1.956 (Simulation time: 00 hr 10 min 40 sec)
Heartbeat CPU 0 instructions: 150000001 cycles: 63873999 heartbeat IPC: 1.877 cumulative IPC: 1.948 (Simulation time: 00 hr 11 min 33 sec)
Heartbeat CPU 0 instructions: 160000004 cycles: 69084706 heartbeat IPC: 1.919 cumulative IPC: 1.945 (Simulation time: 00 hr 12 min 26 sec)
Heartbeat CPU 0 instructions: 170000000 cycles: 79797225 heartbeat IPC: 0.9335 cumulative IPC: 1.784 (Simulation time: 00 hr 13 min 53 sec)
Heartbeat CPU 0 instructions: 180000004 cycles: 90594599 heartbeat IPC: 0.9262 cumulative IPC: 1.665 (Simulation time: 00 hr 15 min 21 sec)
Heartbeat CPU 0 instructions: 190000001 cycles: 101487067 heartbeat IPC: 0.9181 cumulative IPC: 1.574 (Simulation time: 00 hr 16 min 48 sec)
Heartbeat CPU 0 instructions: 200000003 cycles: 106256484 heartbeat IPC: 2.097 cumulative IPC: 1.601 (Simulation time: 00 hr 17 min 37 sec)
Heartbeat CPU 0 instructions: 210000001 cycles: 111180921 heartbeat IPC: 2.031 cumulative IPC: 1.622 (Simulation time: 00 hr 18 min 29 sec)
Heartbeat CPU 0 instructions: 220000000 cycles: 116014128 heartbeat IPC: 2.069 cumulative IPC: 1.643 (Simulation time: 00 hr 19 min 19 sec)
Heartbeat CPU 0 instructions: 230000002 cycles: 121340746 heartbeat IPC: 1.877 cumulative IPC: 1.654 (Simulation time: 00 hr 20 min 11 sec)
Heartbeat CPU 0 instructions: 240000000 cycles: 126191053 heartbeat IPC: 2.062 cumulative IPC: 1.672 (Simulation time: 00 hr 21 min 01 sec)
Heartbeat CPU 0 instructions: 250000000 cycles: 131347021 heartbeat IPC: 1.94 cumulative IPC: 1.683 (Simulation time: 00 hr 21 min 53 sec)
Heartbeat CPU 0 instructions: 260000000 cycles: 136376284 heartbeat IPC: 1.988 cumulative IPC: 1.696 (Simulation time: 00 hr 22 min 44 sec)
Heartbeat CPU 0 instructions: 270000002 cycles: 141269526 heartbeat IPC: 2.044 cumulative IPC: 1.709 (Simulation time: 00 hr 23 min 34 sec)
Heartbeat CPU 0 instructions: 280000002 cycles: 146181654 heartbeat IPC: 2.036 cumulative IPC: 1.721 (Simulation time: 00 hr 24 min 24 sec)
Heartbeat CPU 0 instructions: 290000001 cycles: 151550473 heartbeat IPC: 1.863 cumulative IPC: 1.726 (Simulation time: 00 hr 25 min 16 sec)
Heartbeat CPU 0 instructions: 300000003 cycles: 156610812 heartbeat IPC: 1.976 cumulative IPC: 1.735 (Simulation time: 00 hr 26 min 08 sec)
Heartbeat CPU 0 instructions: 310000001 cycles: 161910197 heartbeat IPC: 1.887 cumulative IPC: 1.741 (Simulation time: 00 hr 27 min 00 sec)
Heartbeat CPU 0 instructions: 320000003 cycles: 167122244 heartbeat IPC: 1.919 cumulative IPC: 1.747 (Simulation time: 00 hr 27 min 52 sec)
Heartbeat CPU 0 instructions: 330000003 cycles: 172421251 heartbeat IPC: 1.887 cumulative IPC: 1.751 (Simulation time: 00 hr 29 min 22 sec)
Heartbeat CPU 0 instructions: 340000000 cycles: 183247553 heartbeat IPC: 0.9237 cumulative IPC: 1.699 (Simulation time: 00 hr 32 min 11 sec)
Heartbeat CPU 0 instructions: 350000000 cycles: 194655716 heartbeat IPC: 0.8766 cumulative IPC: 1.647 (Simulation time: 00 hr 35 min 14 sec)
Heartbeat CPU 0 instructions: 360000004 cycles: 205580786 heartbeat IPC: 0.9153 cumulative IPC: 1.606 (Simulation time: 00 hr 38 min 05 sec)
Heartbeat CPU 0 instructions: 370000000 cycles: 209995607 heartbeat IPC: 2.265 cumulative IPC: 1.621 (Simulation time: 00 hr 39 min 35 sec)
Heartbeat CPU 0 instructions: 380000001 cycles: 214918755 heartbeat IPC: 2.031 cumulative IPC: 1.631 (Simulation time: 00 hr 41 min 12 sec)
Heartbeat CPU 0 instructions: 390000002 cycles: 219746126 heartbeat IPC: 2.072 cumulative IPC: 1.641 (Simulation time: 00 hr 42 min 48 sec)
Heartbeat CPU 0 instructions: 400000004 cycles: 224683734 heartbeat IPC: 2.025 cumulative IPC: 1.65 (Simulation time: 00 hr 44 min 23 sec)
Heartbeat CPU 0 instructions: 410000000 cycles: 229411510 heartbeat IPC: 2.115 cumulative IPC: 1.66 (Simulation time: 00 hr 45 min 57 sec)
Heartbeat CPU 0 instructions: 420000000 cycles: 234548857 heartbeat IPC: 1.947 cumulative IPC: 1.667 (Simulation time: 00 hr 47 min 33 sec)
Heartbeat CPU 0 instructions: 430000001 cycles: 239018029 heartbeat IPC: 2.238 cumulative IPC: 1.678 (Simulation time: 00 hr 49 min 02 sec)
Heartbeat CPU 0 instructions: 440000000 cycles: 244369667 heartbeat IPC: 1.869 cumulative IPC: 1.682 (Simulation time: 00 hr 50 min 43 sec)
Heartbeat CPU 0 instructions: 450000002 cycles: 249039591 heartbeat IPC: 2.141 cumulative IPC: 1.691 (Simulation time: 00 hr 52 min 22 sec)
Heartbeat CPU 0 instructions: 460000000 cycles: 253832740 heartbeat IPC: 2.086 cumulative IPC: 1.699 (Simulation time: 00 hr 54 min 00 sec)
Heartbeat CPU 0 instructions: 470000000 cycles: 258810784 heartbeat IPC: 2.009 cumulative IPC: 1.705 (Simulation time: 00 hr 55 min 32 sec)
Heartbeat CPU 0 instructions: 480000003 cycles: 263600595 heartbeat IPC: 2.088 cumulative IPC: 1.713 (Simulation time: 00 hr 57 min 02 sec)
Heartbeat CPU 0 instructions: 490000000 cycles: 268210223 heartbeat IPC: 2.169 cumulative IPC: 1.721 (Simulation time: 00 hr 58 min 32 sec)
Heartbeat CPU 0 instructions: 500000000 cycles: 273228785 heartbeat IPC: 1.993 cumulative IPC: 1.726 (Simulation time: 01 hr 00 min 06 sec)
Heartbeat CPU 0 instructions: 510000003 cycles: 278854930 heartbeat IPC: 1.777 cumulative IPC: 1.727 (Simulation time: 01 hr 01 min 43 sec)
Heartbeat CPU 0 instructions: 520000001 cycles: 283545842 heartbeat IPC: 2.132 cumulative IPC: 1.734 (Simulation time: 01 hr 03 min 13 sec)
Heartbeat CPU 0 instructions: 530000002 cycles: 288691232 heartbeat IPC: 1.943 cumulative IPC: 1.738 (Simulation time: 01 hr 05 min 01 sec)
Heartbeat CPU 0 instructions: 540000000 cycles: 293809593 heartbeat IPC: 1.954 cumulative IPC: 1.742 (Simulation time: 01 hr 07 min 04 sec)
Heartbeat CPU 0 instructions: 550000001 cycles: 298613863 heartbeat IPC: 2.081 cumulative IPC: 1.748 (Simulation time: 01 hr 08 min 51 sec)
Heartbeat CPU 0 instructions: 560000000 cycles: 303827621 heartbeat IPC: 1.918 cumulative IPC: 1.751 (Simulation time: 01 hr 10 min 39 sec)
Heartbeat CPU 0 instructions: 570000004 cycles: 311253050 heartbeat IPC: 1.347 cumulative IPC: 1.741 (Simulation time: 01 hr 12 min 57 sec)
Heartbeat CPU 0 instructions: 580000003 cycles: 323273550 heartbeat IPC: 0.8319 cumulative IPC: 1.706 (Simulation time: 01 hr 16 min 36 sec)
Heartbeat CPU 0 instructions: 590000002 cycles: 336774509 heartbeat IPC: 0.7407 cumulative IPC: 1.665 (Simulation time: 01 hr 20 min 39 sec)
Heartbeat CPU 0 instructions: 600000000 cycles: 341359564 heartbeat IPC: 2.181 cumulative IPC: 1.673 (Simulation time: 01 hr 22 min 54 sec)
Heartbeat CPU 0 instructions: 610000002 cycles: 345851430 heartbeat IPC: 2.226 cumulative IPC: 1.68 (Simulation time: 01 hr 25 min 07 sec)
Heartbeat CPU 0 instructions: 620000000 cycles: 350657120 heartbeat IPC: 2.081 cumulative IPC: 1.686 (Simulation time: 01 hr 27 min 34 sec)
Heartbeat CPU 0 instructions: 630000002 cycles: 355745569 heartbeat IPC: 1.965 cumulative IPC: 1.69 (Simulation time: 01 hr 30 min 01 sec)
Heartbeat CPU 0 instructions: 640000001 cycles: 360598136 heartbeat IPC: 2.061 cumulative IPC: 1.695 (Simulation time: 01 hr 30 min 57 sec)
Heartbeat CPU 0 instructions: 650000000 cycles: 365155234 heartbeat IPC: 2.194 cumulative IPC: 1.702 (Simulation time: 01 hr 31 min 40 sec)
Simulation finished CPU 0 instructions: 600000001 cycles: 352618125 cumulative IPC: 1.702 (Simulation time: 01 hr 31 min 40 sec)
Simulation complete CPU 0 instructions: 600000001 cycles: 352618125 cumulative IPC: 1.702 (Simulation time: 01 hr 31 min 40 sec)

ChampSim completed all CPUs

=== Simulation ===
CPU 0 runs traces/400.perlbench-41B.champsimtrace.xz
Region of Interest Statistics

CPU 0 cumulative IPC: 1.702 instructions: 600000001 cycles: 352618125
CPU 0 Branch Prediction Accuracy: 93.95% MPKI: 12.5 Average ROB Occupancy at Mispredict: 29.71
Branch type MPKI
BRANCH_DIRECT_JUMP: 0.0123
BRANCH_INDIRECT: 0.323
BRANCH_CONDITIONAL: 12
BRANCH_DIRECT_CALL: 0.0043
BRANCH_INDIRECT_CALL: 0.2
BRANCH_RETURN: 0.00828

LLC TOTAL        ACCESS:     595565 HIT:     306885 MISS:     288680
LLC LOAD         ACCESS:     403455 HIT:     171457 MISS:     231998
LLC RFO          ACCESS:      32604 HIT:      15779 MISS:      16825
LLC PREFETCH     ACCESS:      54690 HIT:      25836 MISS:      28854
LLC WRITE        ACCESS:      85739 HIT:      85189 MISS:        550
LLC TRANSLATION  ACCESS:      19077 HIT:       8624 MISS:      10453
LLC PREFETCH REQUESTED:      54690 ISSUED:      54690 USEFUL:      18148 USELESS:       6913
LLC AVERAGE MISS LATENCY: 573.3 cycles
cpu0_DTLB TOTAL        ACCESS:  153676322 HIT:  152998290 MISS:     678032
cpu0_DTLB LOAD         ACCESS:  153676322 HIT:  152998290 MISS:     678032
cpu0_DTLB RFO          ACCESS:          0 HIT:          0 MISS:          0
cpu0_DTLB PREFETCH     ACCESS:          0 HIT:          0 MISS:          0
cpu0_DTLB WRITE        ACCESS:          0 HIT:          0 MISS:          0
cpu0_DTLB TRANSLATION  ACCESS:          0 HIT:          0 MISS:          0
cpu0_DTLB PREFETCH REQUESTED:          0 ISSUED:          0 USEFUL:          0 USELESS:          0
cpu0_DTLB AVERAGE MISS LATENCY: 16.26 cycles
cpu0_ITLB TOTAL        ACCESS:    4837043 HIT:    4779196 MISS:      57847
cpu0_ITLB LOAD         ACCESS:    4837043 HIT:    4779196 MISS:      57847
cpu0_ITLB RFO          ACCESS:          0 HIT:          0 MISS:          0
cpu0_ITLB PREFETCH     ACCESS:          0 HIT:          0 MISS:          0
cpu0_ITLB WRITE        ACCESS:          0 HIT:          0 MISS:          0
cpu0_ITLB TRANSLATION  ACCESS:          0 HIT:          0 MISS:          0
cpu0_ITLB PREFETCH REQUESTED:          0 ISSUED:          0 USEFUL:          0 USELESS:          0
cpu0_ITLB AVERAGE MISS LATENCY: 7.482 cycles
cpu0_L1D TOTAL        ACCESS:  200281482 HIT:  198547305 MISS:    1734177
cpu0_L1D LOAD         ACCESS:  117039097 HIT:  115689172 MISS:    1349925
cpu0_L1D RFO          ACCESS:          0 HIT:          0 MISS:          0
cpu0_L1D PREFETCH     ACCESS:          0 HIT:          0 MISS:          0
cpu0_L1D WRITE        ACCESS:   83217924 HIT:   82857096 MISS:     360828
cpu0_L1D TRANSLATION  ACCESS:      24461 HIT:       1037 MISS:      23424
cpu0_L1D PREFETCH REQUESTED:          0 ISSUED:          0 USEFUL:          0 USELESS:          0
cpu0_L1D AVERAGE MISS LATENCY: 89.3 cycles
cpu0_L1I TOTAL        ACCESS:    5579290 HIT:    4817747 MISS:     761543
cpu0_L1I LOAD         ACCESS:    5579290 HIT:    4817747 MISS:     761543
cpu0_L1I RFO          ACCESS:          0 HIT:          0 MISS:          0
cpu0_L1I PREFETCH     ACCESS:          0 HIT:          0 MISS:          0
cpu0_L1I WRITE        ACCESS:          0 HIT:          0 MISS:          0
cpu0_L1I TRANSLATION  ACCESS:          0 HIT:          0 MISS:          0
cpu0_L1I PREFETCH REQUESTED:          0 ISSUED:          0 USEFUL:          0 USELESS:          0
cpu0_L1I AVERAGE MISS LATENCY: 14.9 cycles
cpu0_L2C TOTAL        ACCESS:    1667936 HIT:    1210972 MISS:     456964
cpu0_L2C LOAD         ACCESS:    1317037 HIT:     913582 MISS:     403455
cpu0_L2C RFO          ACCESS:      88655 HIT:      56051 MISS:      32604
cpu0_L2C PREFETCH     ACCESS:          0 HIT:          0 MISS:          0
cpu0_L2C WRITE        ACCESS:     238899 HIT:     237071 MISS:       1828
cpu0_L2C TRANSLATION  ACCESS:      23345 HIT:       4268 MISS:      19077
cpu0_L2C PREFETCH REQUESTED:          0 ISSUED:          0 USEFUL:          0 USELESS:          0
cpu0_L2C AVERAGE MISS LATENCY: 343.2 cycles
cpu0_STLB TOTAL        ACCESS:     505260 HIT:     482469 MISS:      22791
cpu0_STLB LOAD         ACCESS:     505260 HIT:     482469 MISS:      22791
cpu0_STLB RFO          ACCESS:          0 HIT:          0 MISS:          0
cpu0_STLB PREFETCH     ACCESS:          0 HIT:          0 MISS:          0
cpu0_STLB WRITE        ACCESS:          0 HIT:          0 MISS:          0
cpu0_STLB TRANSLATION  ACCESS:          0 HIT:          0 MISS:          0
cpu0_STLB PREFETCH REQUESTED:          0 ISSUED:          0 USEFUL:          0 USELESS:          0
cpu0_STLB AVERAGE MISS LATENCY: 363.9 cycles

DRAM Statistics

Channel 0 RQ ROW_BUFFER_HIT:      47632
  ROW_BUFFER_MISS:     235063
 AVG DBUS CONGESTED CYCLE: 3.827
WQ ROW_BUFFER_HIT: Channel 0 
  ROW_BUFFER_MISS:       7535
  FULL:      37690
