WARNING: physical memory size is smaller than virtual memory size.

*** ChampSim Multicore Out-of-Order Simulator ***
Warmup Instructions: 50000000
Simulation Instructions: 600000000
Number of CPUs: 1
Page size: 4096

Off-chip DRAM Size: 4 GiB Channels: 1 Width: 64-bit Data Race: 3200 MT/s
Heartbeat CPU 0 instructions: 10000000 cycles: 2500061 heartbeat IPC: 4 cumulative IPC: 4 (Simulation time: 00 hr 00 min 44 sec)
Heartbeat CPU 0 instructions: 20000000 cycles: 5000061 heartbeat IPC: 4 cumulative IPC: 4 (Simulation time: 00 hr 01 min 27 sec)
Heartbeat CPU 0 instructions: 30000000 cycles: 7500061 heartbeat IPC: 4 cumulative IPC: 4 (Simulation time: 00 hr 02 min 10 sec)
Heartbeat CPU 0 instructions: 40000000 cycles: 10000061 heartbeat IPC: 4 cumulative IPC: 4 (Simulation time: 00 hr 02 min 55 sec)
Heartbeat CPU 0 instructions: 50000000 cycles: 12500061 heartbeat IPC: 4 cumulative IPC: 4 (Simulation time: 00 hr 03 min 49 sec)
Warmup finished CPU 0 instructions: 50000000 cycles: 12500062 cumulative IPC: 4 (Simulation time: 00 hr 03 min 49 sec)
Warmup complete CPU 0 instructions: 50000000 cycles: 12500062 cumulative IPC: 4 (Simulation time: 00 hr 03 min 49 sec)
Heartbeat CPU 0 instructions: 60000002 cycles: 16444688 heartbeat IPC: 2.535 cumulative IPC: 2.535 (Simulation time: 00 hr 04 min 50 sec)
Heartbeat CPU 0 instructions: 70000003 cycles: 20760893 heartbeat IPC: 2.317 cumulative IPC: 2.421 (Simulation time: 00 hr 05 min 57 sec)
Heartbeat CPU 0 instructions: 80000003 cycles: 25229157 heartbeat IPC: 2.238 cumulative IPC: 2.357 (Simulation time: 00 hr 07 min 13 sec)
Heartbeat CPU 0 instructions: 90000000 cycles: 28920814 heartbeat IPC: 2.709 cumulative IPC: 2.436 (Simulation time: 00 hr 08 min 22 sec)
Heartbeat CPU 0 instructions: 100000003 cycles: 32818788 heartbeat IPC: 2.565 cumulative IPC: 2.461 (Simulation time: 00 hr 09 min 26 sec)
Heartbeat CPU 0 instructions: 110000002 cycles: 36920325 heartbeat IPC: 2.438 cumulative IPC: 2.457 (Simulation time: 00 hr 10 min 26 sec)
Heartbeat CPU 0 instructions: 120000001 cycles: 40635683 heartbeat IPC: 2.692 cumulative IPC: 2.488 (Simulation time: 00 hr 11 min 25 sec)
Heartbeat CPU 0 instructions: 130000003 cycles: 44404658 heartbeat IPC: 2.653 cumulative IPC: 2.507 (Simulation time: 00 hr 12 min 24 sec)
Heartbeat CPU 0 instructions: 140000002 cycles: 48538024 heartbeat IPC: 2.419 cumulative IPC: 2.497 (Simulation time: 00 hr 13 min 38 sec)
Heartbeat CPU 0 instructions: 150000001 cycles: 52589949 heartbeat IPC: 2.468 cumulative IPC: 2.494 (Simulation time: 00 hr 14 min 39 sec)
Heartbeat CPU 0 instructions: 160000000 cycles: 56247531 heartbeat IPC: 2.734 cumulative IPC: 2.514 (Simulation time: 00 hr 15 min 37 sec)
Heartbeat CPU 0 instructions: 170000001 cycles: 60421737 heartbeat IPC: 2.396 cumulative IPC: 2.504 (Simulation time: 00 hr 16 min 39 sec)
Heartbeat CPU 0 instructions: 180000001 cycles: 63882371 heartbeat IPC: 2.89 cumulative IPC: 2.53 (Simulation time: 00 hr 17 min 36 sec)
Heartbeat CPU 0 instructions: 190000002 cycles: 67465761 heartbeat IPC: 2.791 cumulative IPC: 2.547 (Simulation time: 00 hr 18 min 35 sec)
Heartbeat CPU 0 instructions: 200000002 cycles: 71249161 heartbeat IPC: 2.643 cumulative IPC: 2.553 (Simulation time: 00 hr 19 min 34 sec)
Heartbeat CPU 0 instructions: 210000000 cycles: 74888079 heartbeat IPC: 2.748 cumulative IPC: 2.565 (Simulation time: 00 hr 20 min 34 sec)
Heartbeat CPU 0 instructions: 220000001 cycles: 78755599 heartbeat IPC: 2.586 cumulative IPC: 2.566 (Simulation time: 00 hr 21 min 36 sec)
Heartbeat CPU 0 instructions: 230000002 cycles: 82597887 heartbeat IPC: 2.603 cumulative IPC: 2.568 (Simulation time: 00 hr 22 min 36 sec)
Heartbeat CPU 0 instructions: 240000001 cycles: 86804953 heartbeat IPC: 2.377 cumulative IPC: 2.557 (Simulation time: 00 hr 23 min 39 sec)
Heartbeat CPU 0 instructions: 250000003 cycles: 91369945 heartbeat IPC: 2.191 cumulative IPC: 2.536 (Simulation time: 00 hr 24 min 47 sec)
Heartbeat CPU 0 instructions: 260000000 cycles: 95165578 heartbeat IPC: 2.635 cumulative IPC: 2.54 (Simulation time: 00 hr 25 min 49 sec)
Heartbeat CPU 0 instructions: 270000003 cycles: 102351793 heartbeat IPC: 1.392 cumulative IPC: 2.448 (Simulation time: 00 hr 27 min 18 sec)
Heartbeat CPU 0 instructions: 280000000 cycles: 114563850 heartbeat IPC: 0.8189 cumulative IPC: 2.253 (Simulation time: 00 hr 29 min 30 sec)
Heartbeat CPU 0 instructions: 290000000 cycles: 125889815 heartbeat IPC: 0.8829 cumulative IPC: 2.117 (Simulation time: 00 hr 31 min 37 sec)
Heartbeat CPU 0 instructions: 300000003 cycles: 133730929 heartbeat IPC: 1.275 cumulative IPC: 2.062 (Simulation time: 00 hr 33 min 16 sec)
Heartbeat CPU 0 instructions: 310000004 cycles: 145477746 heartbeat IPC: 0.8513 cumulative IPC: 1.955 (Simulation time: 00 hr 35 min 28 sec)
Heartbeat CPU 0 instructions: 320000004 cycles: 150694646 heartbeat IPC: 1.917 cumulative IPC: 1.954 (Simulation time: 00 hr 36 min 42 sec)
Heartbeat CPU 0 instructions: 330000000 cycles: 154742211 heartbeat IPC: 2.471 cumulative IPC: 1.968 (Simulation time: 00 hr 37 min 45 sec)
Heartbeat CPU 0 instructions: 340000001 cycles: 159016972 heartbeat IPC: 2.339 cumulative IPC: 1.979 (Simulation time: 00 hr 38 min 48 sec)
Heartbeat CPU 0 instructions: 350000004 cycles: 163500237 heartbeat IPC: 2.231 cumulative IPC: 1.987 (Simulation time: 00 hr 39 min 55 sec)
Heartbeat CPU 0 instructions: 360000003 cycles: 167678854 heartbeat IPC: 2.393 cumulative IPC: 1.998 (Simulation time: 00 hr 40 min 59 sec)
Heartbeat CPU 0 instructions: 370000001 cycles: 171730955 heartbeat IPC: 2.468 cumulative IPC: 2.01 (Simulation time: 00 hr 42 min 01 sec)
Heartbeat CPU 0 instructions: 380000004 cycles: 175644450 heartbeat IPC: 2.555 cumulative IPC: 2.023 (Simulation time: 00 hr 43 min 02 sec)
Heartbeat CPU 0 instructions: 390000002 cycles: 179812150 heartbeat IPC: 2.399 cumulative IPC: 2.032 (Simulation time: 00 hr 44 min 07 sec)
Heartbeat CPU 0 instructions: 400000000 cycles: 184253317 heartbeat IPC: 2.252 cumulative IPC: 2.038 (Simulation time: 00 hr 45 min 13 sec)
Heartbeat CPU 0 instructions: 410000000 cycles: 192622648 heartbeat IPC: 1.195 cumulative IPC: 1.999 (Simulation time: 00 hr 46 min 56 sec)
Heartbeat CPU 0 instructions: 420000003 cycles: 205019356 heartbeat IPC: 0.8067 cumulative IPC: 1.922 (Simulation time: 00 hr 49 min 09 sec)
Heartbeat CPU 0 instructions: 430000000 cycles: 213088352 heartbeat IPC: 1.239 cumulative IPC: 1.894 (Simulation time: 00 hr 50 min 49 sec)
Heartbeat CPU 0 instructions: 440000004 cycles: 220502078 heartbeat IPC: 1.349 cumulative IPC: 1.875 (Simulation time: 00 hr 52 min 23 sec)
Heartbeat CPU 0 instructions: 450000001 cycles: 227762698 heartbeat IPC: 1.377 cumulative IPC: 1.858 (Simulation time: 00 hr 53 min 54 sec)
Heartbeat CPU 0 instructions: 460000002 cycles: 240226730 heartbeat IPC: 0.8023 cumulative IPC: 1.8 (Simulation time: 00 hr 56 min 09 sec)
Heartbeat CPU 0 instructions: 470000003 cycles: 250435788 heartbeat IPC: 0.9795 cumulative IPC: 1.765 (Simulation time: 00 hr 58 min 07 sec)
Heartbeat CPU 0 instructions: 480000003 cycles: 254683653 heartbeat IPC: 2.354 cumulative IPC: 1.776 (Simulation time: 00 hr 59 min 12 sec)
Heartbeat CPU 0 instructions: 490000001 cycles: 259388106 heartbeat IPC: 2.126 cumulative IPC: 1.782 (Simulation time: 01 hr 00 min 22 sec)
Heartbeat CPU 0 instructions: 500000002 cycles: 263900404 heartbeat IPC: 2.216 cumulative IPC: 1.79 (Simulation time: 01 hr 01 min 29 sec)
Heartbeat CPU 0 instructions: 510000000 cycles: 268203095 heartbeat IPC: 2.324 cumulative IPC: 1.799 (Simulation time: 01 hr 02 min 35 sec)
Heartbeat CPU 0 instructions: 520000000 cycles: 272673472 heartbeat IPC: 2.237 cumulative IPC: 1.806 (Simulation time: 01 hr 03 min 41 sec)
Heartbeat CPU 0 instructions: 530000001 cycles: 285638119 heartbeat IPC: 0.7713 cumulative IPC: 1.757 (Simulation time: 01 hr 05 min 59 sec)
Heartbeat CPU 0 instructions: 540000000 cycles: 298134554 heartbeat IPC: 0.8002 cumulative IPC: 1.715 (Simulation time: 01 hr 08 min 16 sec)
Heartbeat CPU 0 instructions: 550000004 cycles: 312022865 heartbeat IPC: 0.72 cumulative IPC: 1.669 (Simulation time: 01 hr 10 min 48 sec)
Heartbeat CPU 0 instructions: 560000004 cycles: 316501516 heartbeat IPC: 2.233 cumulative IPC: 1.678 (Simulation time: 01 hr 11 min 54 sec)
Heartbeat CPU 0 instructions: 570000001 cycles: 319631035 heartbeat IPC: 3.195 cumulative IPC: 1.693 (Simulation time: 01 hr 12 min 50 sec)
Heartbeat CPU 0 instructions: 580000003 cycles: 323179552 heartbeat IPC: 2.818 cumulative IPC: 1.706 (Simulation time: 01 hr 13 min 48 sec)
Heartbeat CPU 0 instructions: 590000002 cycles: 326803535 heartbeat IPC: 2.759 cumulative IPC: 1.718 (Simulation time: 01 hr 14 min 46 sec)
Heartbeat CPU 0 instructions: 600000003 cycles: 329867471 heartbeat IPC: 3.264 cumulative IPC: 1.733 (Simulation time: 01 hr 15 min 42 sec)
Heartbeat CPU 0 instructions: 610000001 cycles: 333378825 heartbeat IPC: 2.848 cumulative IPC: 1.745 (Simulation time: 01 hr 16 min 41 sec)
Heartbeat CPU 0 instructions: 620000000 cycles: 337396851 heartbeat IPC: 2.489 cumulative IPC: 1.754 (Simulation time: 01 hr 17 min 43 sec)
Heartbeat CPU 0 instructions: 630000002 cycles: 340761574 heartbeat IPC: 2.972 cumulative IPC: 1.767 (Simulation time: 01 hr 18 min 41 sec)
Heartbeat CPU 0 instructions: 640000004 cycles: 344748691 heartbeat IPC: 2.508 cumulative IPC: 1.776 (Simulation time: 01 hr 19 min 42 sec)
Heartbeat CPU 0 instructions: 650000001 cycles: 348565111 heartbeat IPC: 2.62 cumulative IPC: 1.785 (Simulation time: 01 hr 20 min 42 sec)
Simulation finished CPU 0 instructions: 600000001 cycles: 336065050 cumulative IPC: 1.785 (Simulation time: 01 hr 20 min 42 sec)
Simulation complete CPU 0 instructions: 600000001 cycles: 336065050 cumulative IPC: 1.785 (Simulation time: 01 hr 20 min 42 sec)

ChampSim completed all CPUs

=== Simulation ===
CPU 0 runs traces/400.perlbench-50B.champsimtrace.xz
Region of Interest Statistics

CPU 0 cumulative IPC: 1.785 instructions: 600000001 cycles: 336065050
CPU 0 Branch Prediction Accuracy: 96.2% MPKI: 7.839 Average ROB Occupancy at Mispredict: 43.9
Branch type MPKI
BRANCH_DIRECT_JUMP: 0.0176
BRANCH_INDIRECT: 0.38
BRANCH_CONDITIONAL: 6.99
BRANCH_DIRECT_CALL: 0.0067
BRANCH_INDIRECT_CALL: 0.431
BRANCH_RETURN: 0.0161

LLC TOTAL        ACCESS:     837273 HIT:     481316 MISS:     355957
LLC LOAD         ACCESS:     576338 HIT:     293969 MISS:     282369
LLC RFO          ACCESS:      47553 HIT:      25021 MISS:      22532
LLC PREFETCH     ACCESS:      64246 HIT:      34376 MISS:      29870
LLC WRITE        ACCESS:     127056 HIT:     119406 MISS:       7650
LLC TRANSLATION  ACCESS:      22080 HIT:       8544 MISS:      13536
LLC PREFETCH REQUESTED:      64246 ISSUED:      64246 USEFUL:      18428 USELESS:       7062
LLC AVERAGE MISS LATENCY: 546.8 cycles
cpu0_DTLB TOTAL        ACCESS:  146499988 HIT:  145193552 MISS:    1306436
cpu0_DTLB LOAD         ACCESS:  146499988 HIT:  145193552 MISS:    1306436
cpu0_DTLB RFO          ACCESS:          0 HIT:          0 MISS:          0
cpu0_DTLB PREFETCH     ACCESS:          0 HIT:          0 MISS:          0
cpu0_DTLB WRITE        ACCESS:          0 HIT:          0 MISS:          0
cpu0_DTLB TRANSLATION  ACCESS:          0 HIT:          0 MISS:          0
cpu0_DTLB PREFETCH REQUESTED:          0 ISSUED:          0 USEFUL:          0 USELESS:          0
cpu0_DTLB AVERAGE MISS LATENCY: 12.85 cycles
cpu0_ITLB TOTAL        ACCESS:    8990477 HIT:    8805976 MISS:     184501
cpu0_ITLB LOAD         ACCESS:    8990477 HIT:    8805976 MISS:     184501
cpu0_ITLB RFO          ACCESS:          0 HIT:          0 MISS:          0
cpu0_ITLB PREFETCH     ACCESS:          0 HIT:          0 MISS:          0
cpu0_ITLB WRITE        ACCESS:          0 HIT:          0 MISS:          0
cpu0_ITLB TRANSLATION  ACCESS:          0 HIT:          0 MISS:          0
cpu0_ITLB PREFETCH REQUESTED:          0 ISSUED:          0 USEFUL:          0 USELESS:          0
cpu0_ITLB AVERAGE MISS LATENCY: 3.628 cycles
cpu0_L1D TOTAL        ACCESS:  193266624 HIT:  189598581 MISS:    3668043
cpu0_L1D LOAD         ACCESS:  107420567 HIT:  104405243 MISS:    3015324
cpu0_L1D RFO          ACCESS:          0 HIT:          0 MISS:          0
cpu0_L1D PREFETCH     ACCESS:          0 HIT:          0 MISS:          0
cpu0_L1D WRITE        ACCESS:   85817544 HIT:   85191918 MISS:     625626
cpu0_L1D TRANSLATION  ACCESS:      28513 HIT:       1420 MISS:      27093
cpu0_L1D PREFETCH REQUESTED:          0 ISSUED:          0 USEFUL:          0 USELESS:          0
cpu0_L1D AVERAGE MISS LATENCY: 51.74 cycles
cpu0_L1I TOTAL        ACCESS:   10424450 HIT:    8662129 MISS:    1762321
cpu0_L1I LOAD         ACCESS:   10424450 HIT:    8662129 MISS:    1762321
cpu0_L1I RFO          ACCESS:          0 HIT:          0 MISS:          0
cpu0_L1I PREFETCH     ACCESS:          0 HIT:          0 MISS:          0
cpu0_L1I WRITE        ACCESS:          0 HIT:          0 MISS:          0
cpu0_L1I TRANSLATION  ACCESS:          0 HIT:          0 MISS:          0
cpu0_L1I PREFETCH REQUESTED:          0 ISSUED:          0 USEFUL:          0 USELESS:          0
cpu0_L1I AVERAGE MISS LATENCY: 14.46 cycles
cpu0_L2C TOTAL        ACCESS:    3834598 HIT:    3185447 MISS:     649151
cpu0_L2C LOAD         ACCESS:    3104949 HIT:    2528611 MISS:     576338
cpu0_L2C RFO          ACCESS:     191564 HIT:     144011 MISS:      47553
cpu0_L2C PREFETCH     ACCESS:          0 HIT:          0 MISS:          0
cpu0_L2C WRITE        ACCESS:     511060 HIT:     507880 MISS:       3180
cpu0_L2C TRANSLATION  ACCESS:      27025 HIT:       4945 MISS:      22080
cpu0_L2C PREFETCH REQUESTED:          0 ISSUED:          0 USEFUL:          0 USELESS:          0
cpu0_L2C AVERAGE MISS LATENCY: 292.9 cycles
cpu0_STLB TOTAL        ACCESS:    1008560 HIT:     981869 MISS:      26691
cpu0_STLB LOAD         ACCESS:    1008560 HIT:     981869 MISS:      26691
cpu0_STLB RFO          ACCESS:          0 HIT:          0 MISS:          0
cpu0_STLB PREFETCH     ACCESS:          0 HIT:          0 MISS:          0
cpu0_STLB WRITE        ACCESS:          0 HIT:          0 MISS:          0
cpu0_STLB TRANSLATION  ACCESS:          0 HIT:          0 MISS:          0
cpu0_STLB PREFETCH REQUESTED:          0 ISSUED:          0 USEFUL:          0 USELESS:          0
cpu0_STLB AVERAGE MISS LATENCY: 412.9 cycles

DRAM Statistics

Channel 0 RQ ROW_BUFFER_HIT:      58188
  ROW_BUFFER_MISS:     284535
 AVG DBUS CONGESTED CYCLE: 3.83
WQ ROW_BUFFER_HIT: Channel 0 
  ROW_BUFFER_MISS:       9961
  FULL:      47053
