WARNING: physical memory size is smaller than virtual memory size.

*** ChampSim Multicore Out-of-Order Simulator ***
Warmup Instructions: 50000000
Simulation Instructions: 600000000
Number of CPUs: 1
Page size: 4096

Off-chip DRAM Size: 4 GiB Channels: 1 Width: 64-bit Data Race: 3200 MT/s
Heartbeat CPU 0 instructions: 10000000 cycles: 2500061 heartbeat IPC: 4 cumulative IPC: 4 (Simulation time: 00 hr 00 min 48 sec)
Heartbeat CPU 0 instructions: 20000000 cycles: 5000061 heartbeat IPC: 4 cumulative IPC: 4 (Simulation time: 00 hr 01 min 35 sec)
Heartbeat CPU 0 instructions: 30000000 cycles: 7500061 heartbeat IPC: 4 cumulative IPC: 4 (Simulation time: 00 hr 02 min 22 sec)
Heartbeat CPU 0 instructions: 40000000 cycles: 10000061 heartbeat IPC: 4 cumulative IPC: 4 (Simulation time: 00 hr 03 min 10 sec)
Heartbeat CPU 0 instructions: 50000000 cycles: 12500061 heartbeat IPC: 4 cumulative IPC: 4 (Simulation time: 00 hr 03 min 55 sec)
Warmup finished CPU 0 instructions: 50000000 cycles: 12500062 cumulative IPC: 4 (Simulation time: 00 hr 03 min 55 sec)
Warmup complete CPU 0 instructions: 50000000 cycles: 12500062 cumulative IPC: 4 (Simulation time: 00 hr 03 min 55 sec)
Heartbeat CPU 0 instructions: 60000002 cycles: 16444688 heartbeat IPC: 2.535 cumulative IPC: 2.535 (Simulation time: 00 hr 04 min 59 sec)
Heartbeat CPU 0 instructions: 70000003 cycles: 20760893 heartbeat IPC: 2.317 cumulative IPC: 2.421 (Simulation time: 00 hr 06 min 07 sec)
Heartbeat CPU 0 instructions: 80000003 cycles: 25229157 heartbeat IPC: 2.238 cumulative IPC: 2.357 (Simulation time: 00 hr 07 min 31 sec)
Heartbeat CPU 0 instructions: 90000000 cycles: 28920814 heartbeat IPC: 2.709 cumulative IPC: 2.436 (Simulation time: 00 hr 08 min 39 sec)
Heartbeat CPU 0 instructions: 100000003 cycles: 32818788 heartbeat IPC: 2.565 cumulative IPC: 2.461 (Simulation time: 00 hr 09 min 51 sec)
Heartbeat CPU 0 instructions: 110000002 cycles: 36920325 heartbeat IPC: 2.438 cumulative IPC: 2.457 (Simulation time: 00 hr 10 min 57 sec)
Heartbeat CPU 0 instructions: 120000001 cycles: 40635683 heartbeat IPC: 2.692 cumulative IPC: 2.488 (Simulation time: 00 hr 11 min 57 sec)
Heartbeat CPU 0 instructions: 130000003 cycles: 44404658 heartbeat IPC: 2.653 cumulative IPC: 2.507 (Simulation time: 00 hr 12 min 54 sec)
Heartbeat CPU 0 instructions: 140000002 cycles: 48538024 heartbeat IPC: 2.419 cumulative IPC: 2.497 (Simulation time: 00 hr 13 min 56 sec)
Heartbeat CPU 0 instructions: 150000001 cycles: 52589949 heartbeat IPC: 2.468 cumulative IPC: 2.494 (Simulation time: 00 hr 14 min 57 sec)
Heartbeat CPU 0 instructions: 160000000 cycles: 56247531 heartbeat IPC: 2.734 cumulative IPC: 2.514 (Simulation time: 00 hr 15 min 54 sec)
Heartbeat CPU 0 instructions: 170000001 cycles: 60421737 heartbeat IPC: 2.396 cumulative IPC: 2.504 (Simulation time: 00 hr 16 min 54 sec)
Heartbeat CPU 0 instructions: 180000001 cycles: 63882371 heartbeat IPC: 2.89 cumulative IPC: 2.53 (Simulation time: 00 hr 17 min 49 sec)
Heartbeat CPU 0 instructions: 190000002 cycles: 67465761 heartbeat IPC: 2.791 cumulative IPC: 2.547 (Simulation time: 00 hr 18 min 46 sec)
Heartbeat CPU 0 instructions: 200000002 cycles: 71249566 heartbeat IPC: 2.643 cumulative IPC: 2.553 (Simulation time: 00 hr 19 min 44 sec)
Heartbeat CPU 0 instructions: 210000000 cycles: 74888484 heartbeat IPC: 2.748 cumulative IPC: 2.565 (Simulation time: 00 hr 20 min 50 sec)
Heartbeat CPU 0 instructions: 220000001 cycles: 78756189 heartbeat IPC: 2.586 cumulative IPC: 2.566 (Simulation time: 00 hr 22 min 04 sec)
Heartbeat CPU 0 instructions: 230000002 cycles: 82597897 heartbeat IPC: 2.603 cumulative IPC: 2.568 (Simulation time: 00 hr 23 min 14 sec)
Heartbeat CPU 0 instructions: 240000001 cycles: 86805288 heartbeat IPC: 2.377 cumulative IPC: 2.557 (Simulation time: 00 hr 24 min 20 sec)
Heartbeat CPU 0 instructions: 250000003 cycles: 91370600 heartbeat IPC: 2.19 cumulative IPC: 2.536 (Simulation time: 00 hr 25 min 28 sec)
Heartbeat CPU 0 instructions: 260000000 cycles: 95165468 heartbeat IPC: 2.635 cumulative IPC: 2.54 (Simulation time: 00 hr 26 min 29 sec)
Heartbeat CPU 0 instructions: 270000003 cycles: 102375653 heartbeat IPC: 1.387 cumulative IPC: 2.448 (Simulation time: 00 hr 27 min 50 sec)
Heartbeat CPU 0 instructions: 280000000 cycles: 113714325 heartbeat IPC: 0.8819 cumulative IPC: 2.272 (Simulation time: 00 hr 29 min 47 sec)
Heartbeat CPU 0 instructions: 290000000 cycles: 123847944 heartbeat IPC: 0.9868 cumulative IPC: 2.155 (Simulation time: 00 hr 31 min 32 sec)
Heartbeat CPU 0 instructions: 300000003 cycles: 131277850 heartbeat IPC: 1.346 cumulative IPC: 2.105 (Simulation time: 00 hr 33 min 00 sec)
Heartbeat CPU 0 instructions: 310000004 cycles: 142059170 heartbeat IPC: 0.9275 cumulative IPC: 2.007 (Simulation time: 00 hr 35 min 04 sec)
Heartbeat CPU 0 instructions: 320000004 cycles: 147121211 heartbeat IPC: 1.975 cumulative IPC: 2.006 (Simulation time: 00 hr 36 min 26 sec)
Heartbeat CPU 0 instructions: 330000000 cycles: 151194454 heartbeat IPC: 2.455 cumulative IPC: 2.019 (Simulation time: 00 hr 37 min 36 sec)
Heartbeat CPU 0 instructions: 340000001 cycles: 155504435 heartbeat IPC: 2.32 cumulative IPC: 2.028 (Simulation time: 00 hr 38 min 44 sec)
Heartbeat CPU 0 instructions: 350000004 cycles: 159966613 heartbeat IPC: 2.241 cumulative IPC: 2.034 (Simulation time: 00 hr 39 min 52 sec)
Heartbeat CPU 0 instructions: 360000003 cycles: 164126532 heartbeat IPC: 2.404 cumulative IPC: 2.044 (Simulation time: 00 hr 40 min 56 sec)
Heartbeat CPU 0 instructions: 370000001 cycles: 168193778 heartbeat IPC: 2.459 cumulative IPC: 2.055 (Simulation time: 00 hr 41 min 59 sec)
Heartbeat CPU 0 instructions: 380000004 cycles: 172105889 heartbeat IPC: 2.556 cumulative IPC: 2.068 (Simulation time: 00 hr 43 min 02 sec)
Heartbeat CPU 0 instructions: 390000002 cycles: 176185246 heartbeat IPC: 2.451 cumulative IPC: 2.077 (Simulation time: 00 hr 44 min 06 sec)
Heartbeat CPU 0 instructions: 400000000 cycles: 180561038 heartbeat IPC: 2.285 cumulative IPC: 2.083 (Simulation time: 00 hr 45 min 09 sec)
Heartbeat CPU 0 instructions: 410000000 cycles: 188172263 heartbeat IPC: 1.314 cumulative IPC: 2.049 (Simulation time: 00 hr 46 min 36 sec)
Heartbeat CPU 0 instructions: 420000003 cycles: 199383327 heartbeat IPC: 0.892 cumulative IPC: 1.98 (Simulation time: 00 hr 48 min 36 sec)
Heartbeat CPU 0 instructions: 430000000 cycles: 207105145 heartbeat IPC: 1.295 cumulative IPC: 1.953 (Simulation time: 00 hr 50 min 14 sec)
Heartbeat CPU 0 instructions: 440000004 cycles: 213787718 heartbeat IPC: 1.496 cumulative IPC: 1.938 (Simulation time: 00 hr 52 min 03 sec)
Heartbeat CPU 0 instructions: 450000001 cycles: 220612494 heartbeat IPC: 1.465 cumulative IPC: 1.922 (Simulation time: 00 hr 53 min 56 sec)
Heartbeat CPU 0 instructions: 460000002 cycles: 231342042 heartbeat IPC: 0.932 cumulative IPC: 1.873 (Simulation time: 00 hr 56 min 06 sec)
Heartbeat CPU 0 instructions: 470000003 cycles: 240433523 heartbeat IPC: 1.1 cumulative IPC: 1.843 (Simulation time: 00 hr 57 min 59 sec)
Heartbeat CPU 0 instructions: 480000003 cycles: 244722031 heartbeat IPC: 2.332 cumulative IPC: 1.852 (Simulation time: 00 hr 59 min 12 sec)
Heartbeat CPU 0 instructions: 490000001 cycles: 249469341 heartbeat IPC: 2.106 cumulative IPC: 1.857 (Simulation time: 01 hr 00 min 26 sec)
Heartbeat CPU 0 instructions: 500000002 cycles: 253938759 heartbeat IPC: 2.237 cumulative IPC: 1.864 (Simulation time: 01 hr 01 min 35 sec)
Heartbeat CPU 0 instructions: 510000000 cycles: 258218464 heartbeat IPC: 2.337 cumulative IPC: 1.872 (Simulation time: 01 hr 02 min 41 sec)
Heartbeat CPU 0 instructions: 520000000 cycles: 262684187 heartbeat IPC: 2.239 cumulative IPC: 1.879 (Simulation time: 01 hr 03 min 48 sec)
Heartbeat CPU 0 instructions: 530000001 cycles: 274196934 heartbeat IPC: 0.8686 cumulative IPC: 1.834 (Simulation time: 01 hr 05 min 49 sec)
Heartbeat CPU 0 instructions: 540000000 cycles: 285329135 heartbeat IPC: 0.8983 cumulative IPC: 1.796 (Simulation time: 01 hr 07 min 50 sec)
Heartbeat CPU 0 instructions: 550000004 cycles: 297852843 heartbeat IPC: 0.7985 cumulative IPC: 1.752 (Simulation time: 01 hr 10 min 01 sec)
Heartbeat CPU 0 instructions: 560000004 cycles: 302038707 heartbeat IPC: 2.389 cumulative IPC: 1.761 (Simulation time: 01 hr 11 min 03 sec)
Heartbeat CPU 0 instructions: 570000001 cycles: 305167954 heartbeat IPC: 3.196 cumulative IPC: 1.777 (Simulation time: 01 hr 12 min 00 sec)
Heartbeat CPU 0 instructions: 580000003 cycles: 308714856 heartbeat IPC: 2.819 cumulative IPC: 1.789 (Simulation time: 01 hr 13 min 01 sec)
Heartbeat CPU 0 instructions: 590000002 cycles: 312341537 heartbeat IPC: 2.757 cumulative IPC: 1.801 (Simulation time: 01 hr 14 min 01 sec)
Heartbeat CPU 0 instructions: 600000003 cycles: 315407505 heartbeat IPC: 3.262 cumulative IPC: 1.816 (Simulation time: 01 hr 14 min 57 sec)
Heartbeat CPU 0 instructions: 610000001 cycles: 318917401 heartbeat IPC: 2.849 cumulative IPC: 1.828 (Simulation time: 01 hr 16 min 01 sec)
Heartbeat CPU 0 instructions: 620000000 cycles: 322936834 heartbeat IPC: 2.488 cumulative IPC: 1.836 (Simulation time: 01 hr 17 min 04 sec)
Heartbeat CPU 0 instructions: 630000002 cycles: 326305091 heartbeat IPC: 2.969 cumulative IPC: 1.848 (Simulation time: 01 hr 18 min 06 sec)
Heartbeat CPU 0 instructions: 640000004 cycles: 330319284 heartbeat IPC: 2.491 cumulative IPC: 1.856 (Simulation time: 01 hr 19 min 06 sec)
Heartbeat CPU 0 instructions: 650000001 cycles: 334144142 heartbeat IPC: 2.614 cumulative IPC: 1.865 (Simulation time: 01 hr 20 min 04 sec)
Simulation finished CPU 0 instructions: 600000001 cycles: 321644081 cumulative IPC: 1.865 (Simulation time: 01 hr 20 min 04 sec)
Simulation complete CPU 0 instructions: 600000001 cycles: 321644081 cumulative IPC: 1.865 (Simulation time: 01 hr 20 min 04 sec)

ChampSim completed all CPUs

=== Simulation ===
CPU 0 runs traces/400.perlbench-50B.champsimtrace.xz
Region of Interest Statistics

CPU 0 cumulative IPC: 1.865 instructions: 600000001 cycles: 321644081
CPU 0 Branch Prediction Accuracy: 96.2% MPKI: 7.839 Average ROB Occupancy at Mispredict: 43.68
Branch type MPKI
BRANCH_DIRECT_JUMP: 0.0176
BRANCH_INDIRECT: 0.38
BRANCH_CONDITIONAL: 6.99
BRANCH_DIRECT_CALL: 0.0067
BRANCH_INDIRECT_CALL: 0.431
BRANCH_RETURN: 0.0161

LLC TOTAL        ACCESS:     837941 HIT:     526566 MISS:     311375
LLC LOAD         ACCESS:     576811 HIT:     326238 MISS:     250573
LLC RFO          ACCESS:      47599 HIT:      27526 MISS:      20073
LLC PREFETCH     ACCESS:      64159 HIT:      35794 MISS:      28365
LLC WRITE        ACCESS:     127299 HIT:     126853 MISS:        446
LLC TRANSLATION  ACCESS:      22073 HIT:      10155 MISS:      11918
LLC PREFETCH REQUESTED:      64159 ISSUED:      64159 USEFUL:      17605 USELESS:       6717
LLC AVERAGE MISS LATENCY: 551.5 cycles
cpu0_DTLB TOTAL        ACCESS:  146510901 HIT:  145204974 MISS:    1305927
cpu0_DTLB LOAD         ACCESS:  146510901 HIT:  145204974 MISS:    1305927
cpu0_DTLB RFO          ACCESS:          0 HIT:          0 MISS:          0
cpu0_DTLB PREFETCH     ACCESS:          0 HIT:          0 MISS:          0
cpu0_DTLB WRITE        ACCESS:          0 HIT:          0 MISS:          0
cpu0_DTLB TRANSLATION  ACCESS:          0 HIT:          0 MISS:          0
cpu0_DTLB PREFETCH REQUESTED:          0 ISSUED:          0 USEFUL:          0 USELESS:          0
cpu0_DTLB AVERAGE MISS LATENCY: 11.81 cycles
cpu0_ITLB TOTAL        ACCESS:    8991023 HIT:    8806539 MISS:     184484
cpu0_ITLB LOAD         ACCESS:    8991023 HIT:    8806539 MISS:     184484
cpu0_ITLB RFO          ACCESS:          0 HIT:          0 MISS:          0
cpu0_ITLB PREFETCH     ACCESS:          0 HIT:          0 MISS:          0
cpu0_ITLB WRITE        ACCESS:          0 HIT:          0 MISS:          0
cpu0_ITLB TRANSLATION  ACCESS:          0 HIT:          0 MISS:          0
cpu0_ITLB PREFETCH REQUESTED:          0 ISSUED:          0 USEFUL:          0 USELESS:          0
cpu0_ITLB AVERAGE MISS LATENCY: 3.593 cycles
cpu0_L1D TOTAL        ACCESS:  193284002 HIT:  189620831 MISS:    3663171
cpu0_L1D LOAD         ACCESS:  107437909 HIT:  104426542 MISS:    3011367
cpu0_L1D RFO          ACCESS:          0 HIT:          0 MISS:          0
cpu0_L1D PREFETCH     ACCESS:          0 HIT:          0 MISS:          0
cpu0_L1D WRITE        ACCESS:   85817569 HIT:   85192863 MISS:     624706
cpu0_L1D TRANSLATION  ACCESS:      28524 HIT:       1426 MISS:      27098
cpu0_L1D PREFETCH REQUESTED:          0 ISSUED:          0 USEFUL:          0 USELESS:          0
cpu0_L1D AVERAGE MISS LATENCY: 47.46 cycles
cpu0_L1I TOTAL        ACCESS:   10425097 HIT:    8662583 MISS:    1762514
cpu0_L1I LOAD         ACCESS:   10425097 HIT:    8662583 MISS:    1762514
cpu0_L1I RFO          ACCESS:          0 HIT:          0 MISS:          0
cpu0_L1I PREFETCH     ACCESS:          0 HIT:          0 MISS:          0
cpu0_L1I WRITE        ACCESS:          0 HIT:          0 MISS:          0
cpu0_L1I TRANSLATION  ACCESS:          0 HIT:          0 MISS:          0
cpu0_L1I PREFETCH REQUESTED:          0 ISSUED:          0 USEFUL:          0 USELESS:          0
cpu0_L1I AVERAGE MISS LATENCY: 10.92 cycles
cpu0_L2C TOTAL        ACCESS:    3834622 HIT:    3184918 MISS:     649704
cpu0_L2C LOAD         ACCESS:    3104961 HIT:    2528150 MISS:     576811
cpu0_L2C RFO          ACCESS:     191557 HIT:     143957 MISS:      47600
cpu0_L2C PREFETCH     ACCESS:          0 HIT:          0 MISS:          0
cpu0_L2C WRITE        ACCESS:     511070 HIT:     507850 MISS:       3220
cpu0_L2C TRANSLATION  ACCESS:      27034 HIT:       4961 MISS:      22073
cpu0_L2C PREFETCH REQUESTED:          0 ISSUED:          0 USEFUL:          0 USELESS:          0
cpu0_L2C AVERAGE MISS LATENCY: 258.1 cycles
cpu0_STLB TOTAL        ACCESS:    1008409 HIT:     981715 MISS:      26694
cpu0_STLB LOAD         ACCESS:    1008409 HIT:     981715 MISS:      26694
cpu0_STLB RFO          ACCESS:          0 HIT:          0 MISS:          0
cpu0_STLB PREFETCH     ACCESS:          0 HIT:          0 MISS:          0
cpu0_STLB WRITE        ACCESS:          0 HIT:          0 MISS:          0
cpu0_STLB TRANSLATION  ACCESS:          0 HIT:          0 MISS:          0
cpu0_STLB PREFETCH REQUESTED:          0 ISSUED:          0 USEFUL:          0 USELESS:          0
cpu0_STLB AVERAGE MISS LATENCY: 359.3 cycles

DRAM Statistics

Channel 0 RQ ROW_BUFFER_HIT:      61177
  ROW_BUFFER_MISS:     244791
 AVG DBUS CONGESTED CYCLE: 3.812
WQ ROW_BUFFER_HIT: Channel 0 
  ROW_BUFFER_MISS:       8594
  FULL:      35509
