WARNING: physical memory size is smaller than virtual memory size.

*** ChampSim Multicore Out-of-Order Simulator ***
Warmup Instructions: 50000000
Simulation Instructions: 600000000
Number of CPUs: 1
Page size: 4096

CPU 0 Tage branch predictor
Off-chip DRAM Size: 4 GiB Channels: 1 Width: 64-bit Data Race: 3200 MT/s
Heartbeat CPU 0 instructions: 10000001 cycles: 2500318 heartbeat IPC: 3.999 cumulative IPC: 3.999 (Simulation time: 00 hr 00 min 41 sec)
Heartbeat CPU 0 instructions: 20000002 cycles: 5037133 heartbeat IPC: 3.942 cumulative IPC: 3.971 (Simulation time: 00 hr 01 min 24 sec)
Heartbeat CPU 0 instructions: 30000002 cycles: 7537133 heartbeat IPC: 4 cumulative IPC: 3.98 (Simulation time: 00 hr 02 min 03 sec)
Heartbeat CPU 0 instructions: 40000002 cycles: 10037133 heartbeat IPC: 4 cumulative IPC: 3.985 (Simulation time: 00 hr 02 min 41 sec)
Heartbeat CPU 0 instructions: 50000002 cycles: 12537133 heartbeat IPC: 4 cumulative IPC: 3.988 (Simulation time: 00 hr 03 min 20 sec)
Warmup finished CPU 0 instructions: 50000002 cycles: 12537134 cumulative IPC: 3.988 (Simulation time: 00 hr 03 min 20 sec)
Warmup complete CPU 0 instructions: 50000002 cycles: 12537134 cumulative IPC: 3.988 (Simulation time: 00 hr 03 min 20 sec)
Heartbeat CPU 0 instructions: 60000001 cycles: 15513139 heartbeat IPC: 3.36 cumulative IPC: 3.36 (Simulation time: 00 hr 04 min 07 sec)
Heartbeat CPU 0 instructions: 70000004 cycles: 18586076 heartbeat IPC: 3.254 cumulative IPC: 3.306 (Simulation time: 00 hr 04 min 54 sec)
Heartbeat CPU 0 instructions: 80000001 cycles: 21636399 heartbeat IPC: 3.278 cumulative IPC: 3.297 (Simulation time: 00 hr 05 min 43 sec)
Heartbeat CPU 0 instructions: 90000001 cycles: 24581284 heartbeat IPC: 3.396 cumulative IPC: 3.321 (Simulation time: 00 hr 06 min 29 sec)
Heartbeat CPU 0 instructions: 100000000 cycles: 27491476 heartbeat IPC: 3.436 cumulative IPC: 3.344 (Simulation time: 00 hr 07 min 18 sec)
Heartbeat CPU 0 instructions: 110000000 cycles: 30437346 heartbeat IPC: 3.395 cumulative IPC: 3.352 (Simulation time: 00 hr 08 min 14 sec)
Heartbeat CPU 0 instructions: 120000001 cycles: 33409931 heartbeat IPC: 3.364 cumulative IPC: 3.354 (Simulation time: 00 hr 09 min 10 sec)
Heartbeat CPU 0 instructions: 130000001 cycles: 36268890 heartbeat IPC: 3.498 cumulative IPC: 3.371 (Simulation time: 00 hr 10 min 09 sec)
Heartbeat CPU 0 instructions: 140000001 cycles: 39316283 heartbeat IPC: 3.281 cumulative IPC: 3.361 (Simulation time: 00 hr 11 min 00 sec)
Heartbeat CPU 0 instructions: 150000001 cycles: 42328207 heartbeat IPC: 3.32 cumulative IPC: 3.357 (Simulation time: 00 hr 11 min 57 sec)
Heartbeat CPU 0 instructions: 160000004 cycles: 45338068 heartbeat IPC: 3.322 cumulative IPC: 3.354 (Simulation time: 00 hr 13 min 06 sec)
Heartbeat CPU 0 instructions: 170000000 cycles: 53487318 heartbeat IPC: 1.227 cumulative IPC: 2.93 (Simulation time: 00 hr 14 min 55 sec)
Heartbeat CPU 0 instructions: 180000004 cycles: 62077495 heartbeat IPC: 1.164 cumulative IPC: 2.624 (Simulation time: 00 hr 16 min 48 sec)
Heartbeat CPU 0 instructions: 190000001 cycles: 70297140 heartbeat IPC: 1.217 cumulative IPC: 2.424 (Simulation time: 00 hr 18 min 49 sec)
Heartbeat CPU 0 instructions: 200000004 cycles: 73263536 heartbeat IPC: 3.371 cumulative IPC: 2.47 (Simulation time: 00 hr 20 min 00 sec)
Heartbeat CPU 0 instructions: 210000001 cycles: 76225982 heartbeat IPC: 3.376 cumulative IPC: 2.512 (Simulation time: 00 hr 21 min 14 sec)
Heartbeat CPU 0 instructions: 220000000 cycles: 79120912 heartbeat IPC: 3.454 cumulative IPC: 2.553 (Simulation time: 00 hr 22 min 25 sec)
Heartbeat CPU 0 instructions: 230000002 cycles: 82147473 heartbeat IPC: 3.304 cumulative IPC: 2.586 (Simulation time: 00 hr 23 min 36 sec)
Heartbeat CPU 0 instructions: 240000003 cycles: 85187089 heartbeat IPC: 3.29 cumulative IPC: 2.615 (Simulation time: 00 hr 24 min 45 sec)
Heartbeat CPU 0 instructions: 250000000 cycles: 88215775 heartbeat IPC: 3.302 cumulative IPC: 2.643 (Simulation time: 00 hr 25 min 53 sec)
Heartbeat CPU 0 instructions: 260000002 cycles: 91186975 heartbeat IPC: 3.366 cumulative IPC: 2.67 (Simulation time: 00 hr 27 min 02 sec)
Heartbeat CPU 0 instructions: 270000002 cycles: 94097782 heartbeat IPC: 3.435 cumulative IPC: 2.697 (Simulation time: 00 hr 28 min 08 sec)
Heartbeat CPU 0 instructions: 280000002 cycles: 96986951 heartbeat IPC: 3.461 cumulative IPC: 2.724 (Simulation time: 00 hr 29 min 10 sec)
Heartbeat CPU 0 instructions: 290000002 cycles: 99946953 heartbeat IPC: 3.378 cumulative IPC: 2.746 (Simulation time: 00 hr 30 min 14 sec)
Heartbeat CPU 0 instructions: 300000003 cycles: 102847518 heartbeat IPC: 3.448 cumulative IPC: 2.768 (Simulation time: 00 hr 31 min 19 sec)
Heartbeat CPU 0 instructions: 310000001 cycles: 105886451 heartbeat IPC: 3.291 cumulative IPC: 2.785 (Simulation time: 00 hr 32 min 24 sec)
Heartbeat CPU 0 instructions: 320000003 cycles: 108898389 heartbeat IPC: 3.32 cumulative IPC: 2.802 (Simulation time: 00 hr 33 min 29 sec)
Heartbeat CPU 0 instructions: 330000003 cycles: 111886883 heartbeat IPC: 3.346 cumulative IPC: 2.818 (Simulation time: 00 hr 34 min 35 sec)
Heartbeat CPU 0 instructions: 340000000 cycles: 120348051 heartbeat IPC: 1.182 cumulative IPC: 2.69 (Simulation time: 00 hr 36 min 28 sec)
Heartbeat CPU 0 instructions: 350000000 cycles: 129222890 heartbeat IPC: 1.127 cumulative IPC: 2.571 (Simulation time: 00 hr 38 min 26 sec)
Heartbeat CPU 0 instructions: 360000004 cycles: 137499141 heartbeat IPC: 1.208 cumulative IPC: 2.481 (Simulation time: 00 hr 40 min 16 sec)
Heartbeat CPU 0 instructions: 370000000 cycles: 140469450 heartbeat IPC: 3.367 cumulative IPC: 2.501 (Simulation time: 00 hr 41 min 20 sec)
Heartbeat CPU 0 instructions: 380000003 cycles: 143393806 heartbeat IPC: 3.42 cumulative IPC: 2.522 (Simulation time: 00 hr 42 min 28 sec)
Heartbeat CPU 0 instructions: 390000002 cycles: 146375278 heartbeat IPC: 3.354 cumulative IPC: 2.54 (Simulation time: 00 hr 43 min 36 sec)
Heartbeat CPU 0 instructions: 400000004 cycles: 149278297 heartbeat IPC: 3.445 cumulative IPC: 2.56 (Simulation time: 00 hr 44 min 40 sec)
Heartbeat CPU 0 instructions: 410000002 cycles: 152224084 heartbeat IPC: 3.395 cumulative IPC: 2.577 (Simulation time: 00 hr 45 min 46 sec)
Heartbeat CPU 0 instructions: 420000003 cycles: 155334086 heartbeat IPC: 3.215 cumulative IPC: 2.591 (Simulation time: 00 hr 46 min 55 sec)
Heartbeat CPU 0 instructions: 430000001 cycles: 158346504 heartbeat IPC: 3.32 cumulative IPC: 2.606 (Simulation time: 00 hr 48 min 02 sec)
Heartbeat CPU 0 instructions: 440000004 cycles: 161481928 heartbeat IPC: 3.189 cumulative IPC: 2.618 (Simulation time: 00 hr 49 min 08 sec)
Heartbeat CPU 0 instructions: 450000002 cycles: 164409655 heartbeat IPC: 3.416 cumulative IPC: 2.634 (Simulation time: 00 hr 50 min 12 sec)
Heartbeat CPU 0 instructions: 460000000 cycles: 167343336 heartbeat IPC: 3.409 cumulative IPC: 2.648 (Simulation time: 00 hr 51 min 14 sec)
Heartbeat CPU 0 instructions: 470000001 cycles: 170198263 heartbeat IPC: 3.503 cumulative IPC: 2.664 (Simulation time: 00 hr 52 min 14 sec)
Heartbeat CPU 0 instructions: 480000003 cycles: 173250159 heartbeat IPC: 3.277 cumulative IPC: 2.676 (Simulation time: 00 hr 53 min 18 sec)
Heartbeat CPU 0 instructions: 490000004 cycles: 176079093 heartbeat IPC: 3.535 cumulative IPC: 2.69 (Simulation time: 00 hr 54 min 23 sec)
Heartbeat CPU 0 instructions: 500000004 cycles: 179064925 heartbeat IPC: 3.349 cumulative IPC: 2.702 (Simulation time: 00 hr 55 min 28 sec)
Heartbeat CPU 0 instructions: 510000003 cycles: 182079464 heartbeat IPC: 3.317 cumulative IPC: 2.713 (Simulation time: 00 hr 56 min 34 sec)
Heartbeat CPU 0 instructions: 520000001 cycles: 184968480 heartbeat IPC: 3.461 cumulative IPC: 2.726 (Simulation time: 00 hr 57 min 49 sec)
Heartbeat CPU 0 instructions: 530000001 cycles: 187977809 heartbeat IPC: 3.323 cumulative IPC: 2.736 (Simulation time: 00 hr 59 min 19 sec)
Heartbeat CPU 0 instructions: 540000000 cycles: 190936632 heartbeat IPC: 3.38 cumulative IPC: 2.747 (Simulation time: 01 hr 00 min 44 sec)
Heartbeat CPU 0 instructions: 550000001 cycles: 193923287 heartbeat IPC: 3.348 cumulative IPC: 2.757 (Simulation time: 01 hr 01 min 58 sec)
Heartbeat CPU 0 instructions: 560000000 cycles: 197002025 heartbeat IPC: 3.248 cumulative IPC: 2.765 (Simulation time: 01 hr 03 min 11 sec)
Heartbeat CPU 0 instructions: 570000004 cycles: 202610852 heartbeat IPC: 1.783 cumulative IPC: 2.736 (Simulation time: 01 hr 04 min 42 sec)
Heartbeat CPU 0 instructions: 580000003 cycles: 212001260 heartbeat IPC: 1.065 cumulative IPC: 2.657 (Simulation time: 01 hr 06 min 48 sec)
Heartbeat CPU 0 instructions: 590000002 cycles: 222734241 heartbeat IPC: 0.9317 cumulative IPC: 2.569 (Simulation time: 01 hr 09 min 03 sec)
Heartbeat CPU 0 instructions: 600000004 cycles: 225783191 heartbeat IPC: 3.28 cumulative IPC: 2.579 (Simulation time: 01 hr 10 min 12 sec)
Heartbeat CPU 0 instructions: 610000002 cycles: 228752589 heartbeat IPC: 3.368 cumulative IPC: 2.59 (Simulation time: 01 hr 11 min 19 sec)
Heartbeat CPU 0 instructions: 620000001 cycles: 231528846 heartbeat IPC: 3.602 cumulative IPC: 2.603 (Simulation time: 01 hr 12 min 30 sec)
Heartbeat CPU 0 instructions: 630000002 cycles: 234500269 heartbeat IPC: 3.365 cumulative IPC: 2.613 (Simulation time: 01 hr 13 min 38 sec)
Heartbeat CPU 0 instructions: 640000004 cycles: 237452506 heartbeat IPC: 3.387 cumulative IPC: 2.623 (Simulation time: 01 hr 14 min 44 sec)
Heartbeat CPU 0 instructions: 650000000 cycles: 240203455 heartbeat IPC: 3.635 cumulative IPC: 2.635 (Simulation time: 01 hr 15 min 50 sec)
Simulation finished CPU 0 instructions: 600000001 cycles: 227666323 cumulative IPC: 2.635 (Simulation time: 01 hr 15 min 50 sec)
Simulation complete CPU 0 instructions: 600000001 cycles: 227666323 cumulative IPC: 2.635 (Simulation time: 01 hr 15 min 50 sec)

ChampSim completed all CPUs

=== Simulation ===
CPU 0 runs traces/400.perlbench-41B.champsimtrace.xz
Region of Interest Statistics

CPU 0 cumulative IPC: 2.635 instructions: 600000001 cycles: 227666323
CPU 0 Branch Prediction Accuracy: 99.19% MPKI: 1.684 Average ROB Occupancy at Mispredict: 102.6
Branch type MPKI
BRANCH_DIRECT_JUMP: 0.0123
BRANCH_INDIRECT: 0.323
BRANCH_CONDITIONAL: 1.14
BRANCH_DIRECT_CALL: 0.0043
BRANCH_INDIRECT_CALL: 0.2
BRANCH_RETURN: 0.00828

LLC TOTAL        ACCESS:     540322 HIT:     266458 MISS:     273864
LLC LOAD         ACCESS:     403671 HIT:     156924 MISS:     246747
LLC RFO          ACCESS:      32518 HIT:      16027 MISS:      16491
LLC PREFETCH     ACCESS:          0 HIT:          0 MISS:          0
LLC WRITE        ACCESS:      85034 HIT:      84603 MISS:        431
LLC TRANSLATION  ACCESS:      19099 HIT:       8904 MISS:      10195
LLC PREFETCH REQUESTED:          0 ISSUED:          0 USEFUL:          0 USELESS:          0
LLC AVERAGE MISS LATENCY: 639.2 cycles
cpu0_DTLB TOTAL        ACCESS:  129763767 HIT:  129059380 MISS:     704387
cpu0_DTLB LOAD         ACCESS:  129763767 HIT:  129059380 MISS:     704387
cpu0_DTLB RFO          ACCESS:          0 HIT:          0 MISS:          0
cpu0_DTLB PREFETCH     ACCESS:          0 HIT:          0 MISS:          0
cpu0_DTLB WRITE        ACCESS:          0 HIT:          0 MISS:          0
cpu0_DTLB TRANSLATION  ACCESS:          0 HIT:          0 MISS:          0
cpu0_DTLB PREFETCH REQUESTED:          0 ISSUED:          0 USEFUL:          0 USELESS:          0
cpu0_DTLB AVERAGE MISS LATENCY: 15.82 cycles
cpu0_ITLB TOTAL        ACCESS:    4877255 HIT:    4815160 MISS:      62095
cpu0_ITLB LOAD         ACCESS:    4877255 HIT:    4815160 MISS:      62095
cpu0_ITLB RFO          ACCESS:          0 HIT:          0 MISS:          0
cpu0_ITLB PREFETCH     ACCESS:          0 HIT:          0 MISS:          0
cpu0_ITLB WRITE        ACCESS:          0 HIT:          0 MISS:          0
cpu0_ITLB TRANSLATION  ACCESS:          0 HIT:          0 MISS:          0
cpu0_ITLB PREFETCH REQUESTED:          0 ISSUED:          0 USEFUL:          0 USELESS:          0
cpu0_ITLB AVERAGE MISS LATENCY: 6.975 cycles
cpu0_L1D TOTAL        ACCESS:  174345499 HIT:  172529039 MISS:    1816460
cpu0_L1D LOAD         ACCESS:   91326080 HIT:   89908185 MISS:    1417895
cpu0_L1D RFO          ACCESS:          0 HIT:          0 MISS:          0
cpu0_L1D PREFETCH     ACCESS:          0 HIT:          0 MISS:          0
cpu0_L1D WRITE        ACCESS:   82994961 HIT:   82619790 MISS:     375171
cpu0_L1D TRANSLATION  ACCESS:      24458 HIT:       1064 MISS:      23394
cpu0_L1D PREFETCH REQUESTED:          0 ISSUED:          0 USEFUL:          0 USELESS:          0
cpu0_L1D AVERAGE MISS LATENCY: 95.2 cycles
cpu0_L1I TOTAL        ACCESS:    5655947 HIT:    4850718 MISS:     805229
cpu0_L1I LOAD         ACCESS:    5655947 HIT:    4850718 MISS:     805229
cpu0_L1I RFO          ACCESS:          0 HIT:          0 MISS:          0
cpu0_L1I PREFETCH     ACCESS:          0 HIT:          0 MISS:          0
cpu0_L1I WRITE        ACCESS:          0 HIT:          0 MISS:          0
cpu0_L1I TRANSLATION  ACCESS:          0 HIT:          0 MISS:          0
cpu0_L1I PREFETCH REQUESTED:          0 ISSUED:          0 USEFUL:          0 USELESS:          0
cpu0_L1I AVERAGE MISS LATENCY: 13.56 cycles
cpu0_L2C TOTAL        ACCESS:    1667894 HIT:    1210786 MISS:     457108
cpu0_L2C LOAD         ACCESS:    1315237 HIT:     911565 MISS:     403672
cpu0_L2C RFO          ACCESS:      89640 HIT:      57121 MISS:      32519
cpu0_L2C PREFETCH     ACCESS:          0 HIT:          0 MISS:          0
cpu0_L2C WRITE        ACCESS:     239699 HIT:     237881 MISS:       1818
cpu0_L2C TRANSLATION  ACCESS:      23318 HIT:       4219 MISS:      19099
cpu0_L2C PREFETCH REQUESTED:          0 ISSUED:          0 USEFUL:          0 USELESS:          0
cpu0_L2C AVERAGE MISS LATENCY: 403.5 cycles
cpu0_STLB TOTAL        ACCESS:     509124 HIT:     486338 MISS:      22786
cpu0_STLB LOAD         ACCESS:     509124 HIT:     486338 MISS:      22786
cpu0_STLB RFO          ACCESS:          0 HIT:          0 MISS:          0
cpu0_STLB PREFETCH     ACCESS:          0 HIT:          0 MISS:          0
cpu0_STLB WRITE        ACCESS:          0 HIT:          0 MISS:          0
cpu0_STLB TRANSLATION  ACCESS:          0 HIT:          0 MISS:          0
cpu0_STLB PREFETCH REQUESTED:          0 ISSUED:          0 USEFUL:          0 USELESS:          0
cpu0_STLB AVERAGE MISS LATENCY: 386.8 cycles

DRAM Statistics

Channel 0 RQ ROW_BUFFER_HIT:      48840
  ROW_BUFFER_MISS:     224553
 AVG DBUS CONGESTED CYCLE: 3.845
WQ ROW_BUFFER_HIT: Channel 0 
  ROW_BUFFER_MISS:       5040
  FULL:      39174
