WARNING: physical memory size is smaller than virtual memory size.

*** ChampSim Multicore Out-of-Order Simulator ***
Warmup Instructions: 50000000
Simulation Instructions: 600000000
Number of CPUs: 1
Page size: 4096

Off-chip DRAM Size: 4 GiB Channels: 1 Width: 64-bit Data Race: 3200 MT/s
Heartbeat CPU 0 instructions: 10000001 cycles: 2500318 heartbeat IPC: 3.999 cumulative IPC: 3.999 (Simulation time: 00 hr 00 min 50 sec)
Heartbeat CPU 0 instructions: 20000002 cycles: 5037114 heartbeat IPC: 3.942 cumulative IPC: 3.971 (Simulation time: 00 hr 01 min 42 sec)
Heartbeat CPU 0 instructions: 30000002 cycles: 7537114 heartbeat IPC: 4 cumulative IPC: 3.98 (Simulation time: 00 hr 02 min 28 sec)
Heartbeat CPU 0 instructions: 40000002 cycles: 10037114 heartbeat IPC: 4 cumulative IPC: 3.985 (Simulation time: 00 hr 03 min 16 sec)
Heartbeat CPU 0 instructions: 50000002 cycles: 12537114 heartbeat IPC: 4 cumulative IPC: 3.988 (Simulation time: 00 hr 04 min 00 sec)
Warmup finished CPU 0 instructions: 50000002 cycles: 12537115 cumulative IPC: 3.988 (Simulation time: 00 hr 04 min 00 sec)
Warmup complete CPU 0 instructions: 50000002 cycles: 12537115 cumulative IPC: 3.988 (Simulation time: 00 hr 04 min 00 sec)
Heartbeat CPU 0 instructions: 60000000 cycles: 17711965 heartbeat IPC: 1.932 cumulative IPC: 1.932 (Simulation time: 00 hr 05 min 07 sec)
Heartbeat CPU 0 instructions: 70000002 cycles: 22609115 heartbeat IPC: 2.042 cumulative IPC: 1.986 (Simulation time: 00 hr 06 min 24 sec)
Heartbeat CPU 0 instructions: 80000001 cycles: 27973966 heartbeat IPC: 1.864 cumulative IPC: 1.943 (Simulation time: 00 hr 07 min 39 sec)
Heartbeat CPU 0 instructions: 90000001 cycles: 32848235 heartbeat IPC: 2.052 cumulative IPC: 1.969 (Simulation time: 00 hr 08 min 47 sec)
Heartbeat CPU 0 instructions: 100000000 cycles: 37963427 heartbeat IPC: 1.955 cumulative IPC: 1.966 (Simulation time: 00 hr 09 min 58 sec)
Heartbeat CPU 0 instructions: 110000000 cycles: 42844815 heartbeat IPC: 2.049 cumulative IPC: 1.98 (Simulation time: 00 hr 11 min 10 sec)
Heartbeat CPU 0 instructions: 120000001 cycles: 48041955 heartbeat IPC: 1.924 cumulative IPC: 1.972 (Simulation time: 00 hr 12 min 31 sec)
Heartbeat CPU 0 instructions: 130000001 cycles: 53194088 heartbeat IPC: 1.941 cumulative IPC: 1.968 (Simulation time: 00 hr 13 min 59 sec)
Heartbeat CPU 0 instructions: 140000001 cycles: 58511536 heartbeat IPC: 1.881 cumulative IPC: 1.958 (Simulation time: 00 hr 15 min 22 sec)
Heartbeat CPU 0 instructions: 150000001 cycles: 63832351 heartbeat IPC: 1.879 cumulative IPC: 1.949 (Simulation time: 00 hr 16 min 35 sec)
Heartbeat CPU 0 instructions: 160000004 cycles: 69046913 heartbeat IPC: 1.918 cumulative IPC: 1.947 (Simulation time: 00 hr 17 min 43 sec)
Heartbeat CPU 0 instructions: 170000000 cycles: 79068995 heartbeat IPC: 0.9978 cumulative IPC: 1.804 (Simulation time: 00 hr 19 min 25 sec)
Heartbeat CPU 0 instructions: 180000004 cycles: 89623978 heartbeat IPC: 0.9474 cumulative IPC: 1.686 (Simulation time: 00 hr 21 min 18 sec)
Heartbeat CPU 0 instructions: 190000001 cycles: 100166187 heartbeat IPC: 0.9486 cumulative IPC: 1.598 (Simulation time: 00 hr 23 min 03 sec)
Heartbeat CPU 0 instructions: 200000003 cycles: 104950707 heartbeat IPC: 2.09 cumulative IPC: 1.623 (Simulation time: 00 hr 24 min 07 sec)
Heartbeat CPU 0 instructions: 210000001 cycles: 109872401 heartbeat IPC: 2.032 cumulative IPC: 1.644 (Simulation time: 00 hr 25 min 11 sec)
Heartbeat CPU 0 instructions: 220000000 cycles: 114703287 heartbeat IPC: 2.07 cumulative IPC: 1.664 (Simulation time: 00 hr 26 min 15 sec)
Heartbeat CPU 0 instructions: 230000002 cycles: 120027754 heartbeat IPC: 1.878 cumulative IPC: 1.675 (Simulation time: 00 hr 27 min 33 sec)
Heartbeat CPU 0 instructions: 240000000 cycles: 124871731 heartbeat IPC: 2.064 cumulative IPC: 1.691 (Simulation time: 00 hr 28 min 49 sec)
Heartbeat CPU 0 instructions: 250000000 cycles: 130023366 heartbeat IPC: 1.941 cumulative IPC: 1.702 (Simulation time: 00 hr 30 min 01 sec)
Heartbeat CPU 0 instructions: 260000000 cycles: 135041979 heartbeat IPC: 1.993 cumulative IPC: 1.714 (Simulation time: 00 hr 31 min 09 sec)
Heartbeat CPU 0 instructions: 270000002 cycles: 139928681 heartbeat IPC: 2.046 cumulative IPC: 1.727 (Simulation time: 00 hr 32 min 17 sec)
Heartbeat CPU 0 instructions: 280000002 cycles: 144830264 heartbeat IPC: 2.04 cumulative IPC: 1.739 (Simulation time: 00 hr 33 min 21 sec)
Heartbeat CPU 0 instructions: 290000001 cycles: 150198636 heartbeat IPC: 1.863 cumulative IPC: 1.743 (Simulation time: 00 hr 34 min 28 sec)
Heartbeat CPU 0 instructions: 300000003 cycles: 155253894 heartbeat IPC: 1.978 cumulative IPC: 1.752 (Simulation time: 00 hr 35 min 37 sec)
Heartbeat CPU 0 instructions: 310000001 cycles: 160550092 heartbeat IPC: 1.888 cumulative IPC: 1.757 (Simulation time: 00 hr 36 min 44 sec)
Heartbeat CPU 0 instructions: 320000003 cycles: 165756469 heartbeat IPC: 1.921 cumulative IPC: 1.762 (Simulation time: 00 hr 37 min 52 sec)
Heartbeat CPU 0 instructions: 330000003 cycles: 171055241 heartbeat IPC: 1.887 cumulative IPC: 1.766 (Simulation time: 00 hr 39 min 01 sec)
Heartbeat CPU 0 instructions: 340000000 cycles: 181201704 heartbeat IPC: 0.9856 cumulative IPC: 1.719 (Simulation time: 00 hr 41 min 00 sec)
Heartbeat CPU 0 instructions: 350000000 cycles: 192176200 heartbeat IPC: 0.9112 cumulative IPC: 1.67 (Simulation time: 00 hr 43 min 19 sec)
Heartbeat CPU 0 instructions: 360000004 cycles: 202774336 heartbeat IPC: 0.9436 cumulative IPC: 1.63 (Simulation time: 00 hr 45 min 28 sec)
Heartbeat CPU 0 instructions: 370000000 cycles: 207183962 heartbeat IPC: 2.268 cumulative IPC: 1.644 (Simulation time: 00 hr 46 min 36 sec)
Heartbeat CPU 0 instructions: 380000001 cycles: 212118396 heartbeat IPC: 2.027 cumulative IPC: 1.653 (Simulation time: 00 hr 47 min 46 sec)
Heartbeat CPU 0 instructions: 390000002 cycles: 216942029 heartbeat IPC: 2.073 cumulative IPC: 1.663 (Simulation time: 00 hr 48 min 53 sec)
Heartbeat CPU 0 instructions: 400000004 cycles: 221876214 heartbeat IPC: 2.027 cumulative IPC: 1.672 (Simulation time: 00 hr 50 min 05 sec)
Heartbeat CPU 0 instructions: 410000000 cycles: 226603828 heartbeat IPC: 2.115 cumulative IPC: 1.682 (Simulation time: 00 hr 51 min 13 sec)
Heartbeat CPU 0 instructions: 420000000 cycles: 231742358 heartbeat IPC: 1.946 cumulative IPC: 1.688 (Simulation time: 00 hr 52 min 21 sec)
Heartbeat CPU 0 instructions: 430000001 cycles: 236201995 heartbeat IPC: 2.242 cumulative IPC: 1.699 (Simulation time: 00 hr 53 min 27 sec)
Heartbeat CPU 0 instructions: 440000000 cycles: 241543110 heartbeat IPC: 1.872 cumulative IPC: 1.703 (Simulation time: 00 hr 54 min 36 sec)
Heartbeat CPU 0 instructions: 450000002 cycles: 246205152 heartbeat IPC: 2.145 cumulative IPC: 1.712 (Simulation time: 00 hr 55 min 40 sec)
Heartbeat CPU 0 instructions: 460000000 cycles: 250991353 heartbeat IPC: 2.089 cumulative IPC: 1.719 (Simulation time: 00 hr 56 min 50 sec)
Heartbeat CPU 0 instructions: 470000000 cycles: 255962470 heartbeat IPC: 2.012 cumulative IPC: 1.725 (Simulation time: 00 hr 58 min 21 sec)
Heartbeat CPU 0 instructions: 480000003 cycles: 260734383 heartbeat IPC: 2.096 cumulative IPC: 1.732 (Simulation time: 00 hr 59 min 47 sec)
Heartbeat CPU 0 instructions: 490000000 cycles: 265333528 heartbeat IPC: 2.174 cumulative IPC: 1.741 (Simulation time: 01 hr 01 min 03 sec)
Heartbeat CPU 0 instructions: 500000000 cycles: 270350592 heartbeat IPC: 1.993 cumulative IPC: 1.745 (Simulation time: 01 hr 02 min 19 sec)
Heartbeat CPU 0 instructions: 510000003 cycles: 275976360 heartbeat IPC: 1.778 cumulative IPC: 1.746 (Simulation time: 01 hr 03 min 39 sec)
Heartbeat CPU 0 instructions: 520000001 cycles: 280656629 heartbeat IPC: 2.137 cumulative IPC: 1.753 (Simulation time: 01 hr 04 min 55 sec)
Heartbeat CPU 0 instructions: 530000002 cycles: 285793499 heartbeat IPC: 1.947 cumulative IPC: 1.757 (Simulation time: 01 hr 06 min 12 sec)
Heartbeat CPU 0 instructions: 540000000 cycles: 290906108 heartbeat IPC: 1.956 cumulative IPC: 1.76 (Simulation time: 01 hr 07 min 25 sec)
Heartbeat CPU 0 instructions: 550000001 cycles: 295710989 heartbeat IPC: 2.081 cumulative IPC: 1.766 (Simulation time: 01 hr 08 min 34 sec)
Heartbeat CPU 0 instructions: 560000000 cycles: 300918277 heartbeat IPC: 1.92 cumulative IPC: 1.768 (Simulation time: 01 hr 09 min 44 sec)
Heartbeat CPU 0 instructions: 570000004 cycles: 307968107 heartbeat IPC: 1.418 cumulative IPC: 1.76 (Simulation time: 01 hr 11 min 09 sec)
Heartbeat CPU 0 instructions: 580000003 cycles: 319231204 heartbeat IPC: 0.8879 cumulative IPC: 1.728 (Simulation time: 01 hr 13 min 06 sec)
Heartbeat CPU 0 instructions: 590000002 cycles: 332221096 heartbeat IPC: 0.7698 cumulative IPC: 1.689 (Simulation time: 01 hr 15 min 09 sec)
Heartbeat CPU 0 instructions: 600000000 cycles: 336804586 heartbeat IPC: 2.182 cumulative IPC: 1.696 (Simulation time: 01 hr 16 min 10 sec)
Heartbeat CPU 0 instructions: 610000002 cycles: 341299162 heartbeat IPC: 2.225 cumulative IPC: 1.703 (Simulation time: 01 hr 17 min 10 sec)
Heartbeat CPU 0 instructions: 620000000 cycles: 346106502 heartbeat IPC: 2.08 cumulative IPC: 1.709 (Simulation time: 01 hr 18 min 13 sec)
Heartbeat CPU 0 instructions: 630000002 cycles: 351195244 heartbeat IPC: 1.965 cumulative IPC: 1.713 (Simulation time: 01 hr 19 min 23 sec)
Heartbeat CPU 0 instructions: 640000001 cycles: 356047049 heartbeat IPC: 2.061 cumulative IPC: 1.718 (Simulation time: 01 hr 20 min 30 sec)
Heartbeat CPU 0 instructions: 650000000 cycles: 360599173 heartbeat IPC: 2.197 cumulative IPC: 1.724 (Simulation time: 01 hr 21 min 35 sec)
Simulation finished CPU 0 instructions: 600000001 cycles: 348062060 cumulative IPC: 1.724 (Simulation time: 01 hr 21 min 35 sec)
Simulation complete CPU 0 instructions: 600000001 cycles: 348062060 cumulative IPC: 1.724 (Simulation time: 01 hr 21 min 35 sec)

ChampSim completed all CPUs

=== Simulation ===
CPU 0 runs traces/400.perlbench-41B.champsimtrace.xz
Region of Interest Statistics

CPU 0 cumulative IPC: 1.724 instructions: 600000001 cycles: 348062060
CPU 0 Branch Prediction Accuracy: 93.95% MPKI: 12.5 Average ROB Occupancy at Mispredict: 29.56
Branch type MPKI
BRANCH_DIRECT_JUMP: 0.0123
BRANCH_INDIRECT: 0.323
BRANCH_CONDITIONAL: 12
BRANCH_DIRECT_CALL: 0.0043
BRANCH_INDIRECT_CALL: 0.2
BRANCH_RETURN: 0.00828

LLC TOTAL        ACCESS:     940245 HIT:     516696 MISS:     423549
LLC LOAD         ACCESS:     401481 HIT:     211169 MISS:     190312
LLC RFO          ACCESS:      32799 HIT:      15198 MISS:      17601
LLC PREFETCH     ACCESS:     401481 HIT:     197948 MISS:     203533
LLC WRITE        ACCESS:      85433 HIT:      84567 MISS:        866
LLC TRANSLATION  ACCESS:      19051 HIT:       7814 MISS:      11237
LLC PREFETCH REQUESTED:     401481 ISSUED:     401481 USEFUL:      72087 USELESS:      80908
LLC AVERAGE MISS LATENCY: 579.8 cycles
cpu0_DTLB TOTAL        ACCESS:  153676998 HIT:  152999623 MISS:     677375
cpu0_DTLB LOAD         ACCESS:  153676998 HIT:  152999623 MISS:     677375
cpu0_DTLB RFO          ACCESS:          0 HIT:          0 MISS:          0
cpu0_DTLB PREFETCH     ACCESS:          0 HIT:          0 MISS:          0
cpu0_DTLB WRITE        ACCESS:          0 HIT:          0 MISS:          0
cpu0_DTLB TRANSLATION  ACCESS:          0 HIT:          0 MISS:          0
cpu0_DTLB PREFETCH REQUESTED:          0 ISSUED:          0 USEFUL:          0 USELESS:          0
cpu0_DTLB AVERAGE MISS LATENCY: 17.82 cycles
cpu0_ITLB TOTAL        ACCESS:    4835475 HIT:    4777569 MISS:      57906
cpu0_ITLB LOAD         ACCESS:    4835475 HIT:    4777569 MISS:      57906
cpu0_ITLB RFO          ACCESS:          0 HIT:          0 MISS:          0
cpu0_ITLB PREFETCH     ACCESS:          0 HIT:          0 MISS:          0
cpu0_ITLB WRITE        ACCESS:          0 HIT:          0 MISS:          0
cpu0_ITLB TRANSLATION  ACCESS:          0 HIT:          0 MISS:          0
cpu0_ITLB PREFETCH REQUESTED:          0 ISSUED:          0 USEFUL:          0 USELESS:          0
cpu0_ITLB AVERAGE MISS LATENCY: 8.109 cycles
cpu0_L1D TOTAL        ACCESS:  200293411 HIT:  198557566 MISS:    1735845
cpu0_L1D LOAD         ACCESS:  117051066 HIT:  115700525 MISS:    1350541
cpu0_L1D RFO          ACCESS:          0 HIT:          0 MISS:          0
cpu0_L1D PREFETCH     ACCESS:          0 HIT:          0 MISS:          0
cpu0_L1D WRITE        ACCESS:   83217884 HIT:   82856009 MISS:     361875
cpu0_L1D TRANSLATION  ACCESS:      24461 HIT:       1032 MISS:      23429
cpu0_L1D PREFETCH REQUESTED:          0 ISSUED:          0 USEFUL:          0 USELESS:          0
cpu0_L1D AVERAGE MISS LATENCY: 84.23 cycles
cpu0_L1I TOTAL        ACCESS:    5577945 HIT:    4816301 MISS:     761644
cpu0_L1I LOAD         ACCESS:    5577945 HIT:    4816301 MISS:     761644
cpu0_L1I RFO          ACCESS:          0 HIT:          0 MISS:          0
cpu0_L1I PREFETCH     ACCESS:          0 HIT:          0 MISS:          0
cpu0_L1I WRITE        ACCESS:          0 HIT:          0 MISS:          0
cpu0_L1I TRANSLATION  ACCESS:          0 HIT:          0 MISS:          0
cpu0_L1I PREFETCH REQUESTED:          0 ISSUED:          0 USEFUL:          0 USELESS:          0
cpu0_L1I AVERAGE MISS LATENCY: 12.68 cycles
cpu0_L2C TOTAL        ACCESS:    1667871 HIT:    1212725 MISS:     455146
cpu0_L2C LOAD         ACCESS:    1317057 HIT:     915576 MISS:     401481
cpu0_L2C RFO          ACCESS:      88632 HIT:      55833 MISS:      32799
cpu0_L2C PREFETCH     ACCESS:          0 HIT:          0 MISS:          0
cpu0_L2C WRITE        ACCESS:     238837 HIT:     237022 MISS:       1815
cpu0_L2C TRANSLATION  ACCESS:      23345 HIT:       4294 MISS:      19051
cpu0_L2C PREFETCH REQUESTED:          0 ISSUED:          0 USEFUL:          0 USELESS:          0
cpu0_L2C AVERAGE MISS LATENCY: 321.3 cycles
cpu0_STLB TOTAL        ACCESS:     505186 HIT:     482396 MISS:      22790
cpu0_STLB LOAD         ACCESS:     505186 HIT:     482396 MISS:      22790
cpu0_STLB RFO          ACCESS:          0 HIT:          0 MISS:          0
cpu0_STLB PREFETCH     ACCESS:          0 HIT:          0 MISS:          0
cpu0_STLB WRITE        ACCESS:          0 HIT:          0 MISS:          0
cpu0_STLB TRANSLATION  ACCESS:          0 HIT:          0 MISS:          0
cpu0_STLB PREFETCH REQUESTED:          0 ISSUED:          0 USEFUL:          0 USELESS:          0
cpu0_STLB AVERAGE MISS LATENCY: 411.7 cycles

DRAM Statistics

Channel 0 RQ ROW_BUFFER_HIT:      63676
  ROW_BUFFER_MISS:     295680
 AVG DBUS CONGESTED CYCLE: 3.871
WQ ROW_BUFFER_HIT: Channel 0 
  ROW_BUFFER_MISS:       5786
  FULL:      40545
