WARNING: physical memory size is smaller than virtual memory size.

*** ChampSim Multicore Out-of-Order Simulator ***
Warmup Instructions: 50000000
Simulation Instructions: 600000000
Number of CPUs: 1
Page size: 4096

Off-chip DRAM Size: 4 GiB Channels: 1 Width: 64-bit Data Race: 3200 MT/s
Heartbeat CPU 0 instructions: 10000000 cycles: 2500061 heartbeat IPC: 4 cumulative IPC: 4 (Simulation time: 00 hr 00 min 35 sec)
Heartbeat CPU 0 instructions: 20000000 cycles: 5000061 heartbeat IPC: 4 cumulative IPC: 4 (Simulation time: 00 hr 01 min 08 sec)
Heartbeat CPU 0 instructions: 30000000 cycles: 7500061 heartbeat IPC: 4 cumulative IPC: 4 (Simulation time: 00 hr 01 min 41 sec)
Heartbeat CPU 0 instructions: 40000000 cycles: 10000061 heartbeat IPC: 4 cumulative IPC: 4 (Simulation time: 00 hr 02 min 13 sec)
Heartbeat CPU 0 instructions: 50000000 cycles: 12500061 heartbeat IPC: 4 cumulative IPC: 4 (Simulation time: 00 hr 02 min 46 sec)
Warmup finished CPU 0 instructions: 50000000 cycles: 12500062 cumulative IPC: 4 (Simulation time: 00 hr 02 min 46 sec)
Warmup complete CPU 0 instructions: 50000000 cycles: 12500062 cumulative IPC: 4 (Simulation time: 00 hr 02 min 46 sec)
Heartbeat CPU 0 instructions: 60000002 cycles: 16435783 heartbeat IPC: 2.541 cumulative IPC: 2.541 (Simulation time: 00 hr 03 min 35 sec)
Heartbeat CPU 0 instructions: 70000003 cycles: 20749204 heartbeat IPC: 2.318 cumulative IPC: 2.424 (Simulation time: 00 hr 04 min 20 sec)
Heartbeat CPU 0 instructions: 80000003 cycles: 25212938 heartbeat IPC: 2.24 cumulative IPC: 2.36 (Simulation time: 00 hr 05 min 07 sec)
Heartbeat CPU 0 instructions: 90000000 cycles: 28902625 heartbeat IPC: 2.71 cumulative IPC: 2.439 (Simulation time: 00 hr 05 min 52 sec)
Heartbeat CPU 0 instructions: 100000003 cycles: 32797283 heartbeat IPC: 2.568 cumulative IPC: 2.463 (Simulation time: 00 hr 06 min 37 sec)
Heartbeat CPU 0 instructions: 110000002 cycles: 36888882 heartbeat IPC: 2.444 cumulative IPC: 2.46 (Simulation time: 00 hr 07 min 22 sec)
Heartbeat CPU 0 instructions: 120000001 cycles: 40602045 heartbeat IPC: 2.693 cumulative IPC: 2.491 (Simulation time: 00 hr 08 min 07 sec)
Heartbeat CPU 0 instructions: 130000003 cycles: 44366187 heartbeat IPC: 2.657 cumulative IPC: 2.511 (Simulation time: 00 hr 08 min 50 sec)
Heartbeat CPU 0 instructions: 140000002 cycles: 48491614 heartbeat IPC: 2.424 cumulative IPC: 2.501 (Simulation time: 00 hr 09 min 36 sec)
Heartbeat CPU 0 instructions: 150000001 cycles: 52535644 heartbeat IPC: 2.473 cumulative IPC: 2.498 (Simulation time: 00 hr 10 min 22 sec)
Heartbeat CPU 0 instructions: 160000000 cycles: 56184366 heartbeat IPC: 2.741 cumulative IPC: 2.518 (Simulation time: 00 hr 11 min 05 sec)
Heartbeat CPU 0 instructions: 170000001 cycles: 60350038 heartbeat IPC: 2.401 cumulative IPC: 2.508 (Simulation time: 00 hr 11 min 52 sec)
Heartbeat CPU 0 instructions: 180000001 cycles: 63805525 heartbeat IPC: 2.894 cumulative IPC: 2.534 (Simulation time: 00 hr 12 min 38 sec)
Heartbeat CPU 0 instructions: 190000002 cycles: 67382191 heartbeat IPC: 2.796 cumulative IPC: 2.551 (Simulation time: 00 hr 13 min 22 sec)
Heartbeat CPU 0 instructions: 200000002 cycles: 71153161 heartbeat IPC: 2.652 cumulative IPC: 2.557 (Simulation time: 00 hr 14 min 07 sec)
Heartbeat CPU 0 instructions: 210000000 cycles: 74789084 heartbeat IPC: 2.75 cumulative IPC: 2.569 (Simulation time: 00 hr 14 min 51 sec)
Heartbeat CPU 0 instructions: 220000001 cycles: 78656979 heartbeat IPC: 2.585 cumulative IPC: 2.57 (Simulation time: 00 hr 15 min 35 sec)
Heartbeat CPU 0 instructions: 230000002 cycles: 82493122 heartbeat IPC: 2.607 cumulative IPC: 2.572 (Simulation time: 00 hr 16 min 21 sec)
Heartbeat CPU 0 instructions: 240000001 cycles: 86695688 heartbeat IPC: 2.379 cumulative IPC: 2.561 (Simulation time: 00 hr 17 min 07 sec)
Heartbeat CPU 0 instructions: 250000003 cycles: 91254482 heartbeat IPC: 2.194 cumulative IPC: 2.54 (Simulation time: 00 hr 17 min 55 sec)
Heartbeat CPU 0 instructions: 260000000 cycles: 95047478 heartbeat IPC: 2.636 cumulative IPC: 2.544 (Simulation time: 00 hr 18 min 38 sec)
Heartbeat CPU 0 instructions: 270000003 cycles: 101783769 heartbeat IPC: 1.484 cumulative IPC: 2.464 (Simulation time: 00 hr 19 min 40 sec)
Heartbeat CPU 0 instructions: 280000000 cycles: 112945302 heartbeat IPC: 0.8959 cumulative IPC: 2.29 (Simulation time: 00 hr 21 min 11 sec)
Heartbeat CPU 0 instructions: 290000000 cycles: 127205657 heartbeat IPC: 0.7012 cumulative IPC: 2.092 (Simulation time: 00 hr 22 min 51 sec)
Heartbeat CPU 0 instructions: 300000003 cycles: 137715888 heartbeat IPC: 0.9515 cumulative IPC: 1.997 (Simulation time: 00 hr 24 min 11 sec)
Heartbeat CPU 0 instructions: 310000004 cycles: 152498542 heartbeat IPC: 0.6765 cumulative IPC: 1.857 (Simulation time: 00 hr 26 min 00 sec)
Heartbeat CPU 0 instructions: 320000004 cycles: 159006367 heartbeat IPC: 1.537 cumulative IPC: 1.843 (Simulation time: 00 hr 27 min 02 sec)
Heartbeat CPU 0 instructions: 330000000 cycles: 163070131 heartbeat IPC: 2.461 cumulative IPC: 1.86 (Simulation time: 00 hr 27 min 49 sec)
Heartbeat CPU 0 instructions: 340000001 cycles: 167457808 heartbeat IPC: 2.279 cumulative IPC: 1.871 (Simulation time: 00 hr 28 min 37 sec)
Heartbeat CPU 0 instructions: 350000004 cycles: 171972369 heartbeat IPC: 2.215 cumulative IPC: 1.881 (Simulation time: 00 hr 29 min 26 sec)
Heartbeat CPU 0 instructions: 360000003 cycles: 176132238 heartbeat IPC: 2.404 cumulative IPC: 1.894 (Simulation time: 00 hr 30 min 13 sec)
Heartbeat CPU 0 instructions: 370000001 cycles: 180070443 heartbeat IPC: 2.539 cumulative IPC: 1.91 (Simulation time: 00 hr 31 min 00 sec)
Heartbeat CPU 0 instructions: 380000004 cycles: 183869240 heartbeat IPC: 2.632 cumulative IPC: 1.926 (Simulation time: 00 hr 31 min 45 sec)
Heartbeat CPU 0 instructions: 390000002 cycles: 188031461 heartbeat IPC: 2.403 cumulative IPC: 1.937 (Simulation time: 00 hr 32 min 32 sec)
Heartbeat CPU 0 instructions: 400000000 cycles: 192483556 heartbeat IPC: 2.246 cumulative IPC: 1.945 (Simulation time: 00 hr 33 min 20 sec)
Heartbeat CPU 0 instructions: 410000000 cycles: 201698377 heartbeat IPC: 1.085 cumulative IPC: 1.903 (Simulation time: 00 hr 34 min 36 sec)
Heartbeat CPU 0 instructions: 420000003 cycles: 214843988 heartbeat IPC: 0.7607 cumulative IPC: 1.829 (Simulation time: 00 hr 36 min 15 sec)
Heartbeat CPU 0 instructions: 430000000 cycles: 224671905 heartbeat IPC: 1.018 cumulative IPC: 1.791 (Simulation time: 00 hr 37 min 38 sec)
Heartbeat CPU 0 instructions: 440000004 cycles: 234760960 heartbeat IPC: 0.9912 cumulative IPC: 1.755 (Simulation time: 00 hr 39 min 01 sec)
Heartbeat CPU 0 instructions: 450000001 cycles: 244928566 heartbeat IPC: 0.9835 cumulative IPC: 1.721 (Simulation time: 00 hr 40 min 24 sec)
Heartbeat CPU 0 instructions: 460000002 cycles: 262276004 heartbeat IPC: 0.5765 cumulative IPC: 1.641 (Simulation time: 00 hr 42 min 27 sec)
Heartbeat CPU 0 instructions: 470000003 cycles: 274831525 heartbeat IPC: 0.7965 cumulative IPC: 1.601 (Simulation time: 00 hr 44 min 03 sec)
Heartbeat CPU 0 instructions: 480000003 cycles: 279258764 heartbeat IPC: 2.259 cumulative IPC: 1.612 (Simulation time: 00 hr 44 min 51 sec)
Heartbeat CPU 0 instructions: 490000001 cycles: 283754209 heartbeat IPC: 2.224 cumulative IPC: 1.622 (Simulation time: 00 hr 45 min 41 sec)
Heartbeat CPU 0 instructions: 500000002 cycles: 288089099 heartbeat IPC: 2.307 cumulative IPC: 1.633 (Simulation time: 00 hr 46 min 29 sec)
Heartbeat CPU 0 instructions: 510000000 cycles: 292152680 heartbeat IPC: 2.461 cumulative IPC: 1.645 (Simulation time: 00 hr 47 min 15 sec)
Heartbeat CPU 0 instructions: 520000000 cycles: 296392820 heartbeat IPC: 2.358 cumulative IPC: 1.656 (Simulation time: 00 hr 48 min 03 sec)
Heartbeat CPU 0 instructions: 530000001 cycles: 310718343 heartbeat IPC: 0.6981 cumulative IPC: 1.61 (Simulation time: 00 hr 49 min 48 sec)
Heartbeat CPU 0 instructions: 540000000 cycles: 325800795 heartbeat IPC: 0.663 cumulative IPC: 1.564 (Simulation time: 00 hr 51 min 39 sec)
Heartbeat CPU 0 instructions: 550000004 cycles: 343663105 heartbeat IPC: 0.5598 cumulative IPC: 1.51 (Simulation time: 00 hr 53 min 45 sec)
Heartbeat CPU 0 instructions: 560000004 cycles: 348387823 heartbeat IPC: 2.117 cumulative IPC: 1.518 (Simulation time: 00 hr 54 min 37 sec)
Heartbeat CPU 0 instructions: 570000001 cycles: 351524607 heartbeat IPC: 3.188 cumulative IPC: 1.534 (Simulation time: 00 hr 55 min 20 sec)
Heartbeat CPU 0 instructions: 580000003 cycles: 355080303 heartbeat IPC: 2.812 cumulative IPC: 1.547 (Simulation time: 00 hr 56 min 02 sec)
Heartbeat CPU 0 instructions: 590000002 cycles: 358705899 heartbeat IPC: 2.758 cumulative IPC: 1.56 (Simulation time: 00 hr 56 min 43 sec)
Heartbeat CPU 0 instructions: 600000003 cycles: 361772526 heartbeat IPC: 3.261 cumulative IPC: 1.575 (Simulation time: 00 hr 57 min 23 sec)
Heartbeat CPU 0 instructions: 610000001 cycles: 365285331 heartbeat IPC: 2.847 cumulative IPC: 1.587 (Simulation time: 00 hr 58 min 09 sec)
Heartbeat CPU 0 instructions: 620000000 cycles: 369301684 heartbeat IPC: 2.49 cumulative IPC: 1.598 (Simulation time: 00 hr 58 min 55 sec)
Heartbeat CPU 0 instructions: 630000002 cycles: 372668822 heartbeat IPC: 2.97 cumulative IPC: 1.61 (Simulation time: 00 hr 59 min 39 sec)
Heartbeat CPU 0 instructions: 640000004 cycles: 376667576 heartbeat IPC: 2.501 cumulative IPC: 1.62 (Simulation time: 01 hr 00 min 27 sec)
Heartbeat CPU 0 instructions: 650000001 cycles: 380482046 heartbeat IPC: 2.622 cumulative IPC: 1.631 (Simulation time: 01 hr 01 min 14 sec)
Simulation finished CPU 0 instructions: 600000001 cycles: 367981985 cumulative IPC: 1.631 (Simulation time: 01 hr 01 min 14 sec)
Simulation complete CPU 0 instructions: 600000001 cycles: 367981985 cumulative IPC: 1.631 (Simulation time: 01 hr 01 min 14 sec)

ChampSim completed all CPUs

=== Simulation ===
CPU 0 runs traces/400.perlbench-50B.champsimtrace.xz
Region of Interest Statistics

CPU 0 cumulative IPC: 1.631 instructions: 600000001 cycles: 367981985
CPU 0 Branch Prediction Accuracy: 96.2% MPKI: 7.839 Average ROB Occupancy at Mispredict: 44.15
Branch type MPKI
BRANCH_DIRECT_JUMP: 0.0176
BRANCH_INDIRECT: 0.38
BRANCH_CONDITIONAL: 6.99
BRANCH_DIRECT_CALL: 0.0067
BRANCH_INDIRECT_CALL: 0.431
BRANCH_RETURN: 0.0161

LLC TOTAL        ACCESS:    1356196 HIT:     557205 MISS:     798991
LLC LOAD         ACCESS:     579674 HIT:     250340 MISS:     329334
LLC RFO          ACCESS:      47311 HIT:      20779 MISS:      26532
LLC PREFETCH     ACCESS:     579674 HIT:     224058 MISS:     355616
LLC WRITE        ACCESS:     127354 HIT:      60025 MISS:      67329
LLC TRANSLATION  ACCESS:      22183 HIT:       2003 MISS:      20180
LLC PREFETCH REQUESTED:     579674 ISSUED:     579674 USEFUL:      90613 USELESS:     192995
LLC AVERAGE MISS LATENCY: 509.9 cycles
cpu0_DTLB TOTAL        ACCESS:  146483268 HIT:  145176064 MISS:    1307204
cpu0_DTLB LOAD         ACCESS:  146483268 HIT:  145176064 MISS:    1307204
cpu0_DTLB RFO          ACCESS:          0 HIT:          0 MISS:          0
cpu0_DTLB PREFETCH     ACCESS:          0 HIT:          0 MISS:          0
cpu0_DTLB WRITE        ACCESS:          0 HIT:          0 MISS:          0
cpu0_DTLB TRANSLATION  ACCESS:          0 HIT:          0 MISS:          0
cpu0_DTLB PREFETCH REQUESTED:          0 ISSUED:          0 USEFUL:          0 USELESS:          0
cpu0_DTLB AVERAGE MISS LATENCY: 17.01 cycles
cpu0_ITLB TOTAL        ACCESS:    8985858 HIT:    8801377 MISS:     184481
cpu0_ITLB LOAD         ACCESS:    8985858 HIT:    8801377 MISS:     184481
cpu0_ITLB RFO          ACCESS:          0 HIT:          0 MISS:          0
cpu0_ITLB PREFETCH     ACCESS:          0 HIT:          0 MISS:          0
cpu0_ITLB WRITE        ACCESS:          0 HIT:          0 MISS:          0
cpu0_ITLB TRANSLATION  ACCESS:          0 HIT:          0 MISS:          0
cpu0_ITLB PREFETCH REQUESTED:          0 ISSUED:          0 USEFUL:          0 USELESS:          0
cpu0_ITLB AVERAGE MISS LATENCY: 4.594 cycles
cpu0_L1D TOTAL        ACCESS:  193242166 HIT:  189556701 MISS:    3685465
cpu0_L1D LOAD         ACCESS:  107396157 HIT:  104360744 MISS:    3035413
cpu0_L1D RFO          ACCESS:          0 HIT:          0 MISS:          0
cpu0_L1D PREFETCH     ACCESS:          0 HIT:          0 MISS:          0
cpu0_L1D WRITE        ACCESS:   85817490 HIT:   85194544 MISS:     622946
cpu0_L1D TRANSLATION  ACCESS:      28519 HIT:       1413 MISS:      27106
cpu0_L1D PREFETCH REQUESTED:          0 ISSUED:          0 USEFUL:          0 USELESS:          0
cpu0_L1D AVERAGE MISS LATENCY: 58.74 cycles
cpu0_L1I TOTAL        ACCESS:   10420689 HIT:    8659352 MISS:    1761337
cpu0_L1I LOAD         ACCESS:   10420689 HIT:    8659352 MISS:    1761337
cpu0_L1I RFO          ACCESS:          0 HIT:          0 MISS:          0
cpu0_L1I PREFETCH     ACCESS:          0 HIT:          0 MISS:          0
cpu0_L1I WRITE        ACCESS:          0 HIT:          0 MISS:          0
cpu0_L1I TRANSLATION  ACCESS:          0 HIT:          0 MISS:          0
cpu0_L1I PREFETCH REQUESTED:          0 ISSUED:          0 USEFUL:          0 USELESS:          0
cpu0_L1I AVERAGE MISS LATENCY: 27.31 cycles
cpu0_L2C TOTAL        ACCESS:    3834329 HIT:    3182081 MISS:     652248
cpu0_L2C LOAD         ACCESS:    3104922 HIT:    2525248 MISS:     579674
cpu0_L2C RFO          ACCESS:     191548 HIT:     144237 MISS:      47311
cpu0_L2C PREFETCH     ACCESS:          0 HIT:          0 MISS:          0
cpu0_L2C WRITE        ACCESS:     510829 HIT:     507749 MISS:       3080
cpu0_L2C TRANSLATION  ACCESS:      27030 HIT:       4847 MISS:      22183
cpu0_L2C PREFETCH REQUESTED:          0 ISSUED:          0 USEFUL:          0 USELESS:          0
cpu0_L2C AVERAGE MISS LATENCY: 367.8 cycles
cpu0_STLB TOTAL        ACCESS:    1008702 HIT:     982010 MISS:      26692
cpu0_STLB LOAD         ACCESS:    1008702 HIT:     982010 MISS:      26692
cpu0_STLB RFO          ACCESS:          0 HIT:          0 MISS:          0
cpu0_STLB PREFETCH     ACCESS:          0 HIT:          0 MISS:          0
cpu0_STLB WRITE        ACCESS:          0 HIT:          0 MISS:          0
cpu0_STLB TRANSLATION  ACCESS:          0 HIT:          0 MISS:          0
cpu0_STLB PREFETCH REQUESTED:          0 ISSUED:          0 USEFUL:          0 USELESS:          0
cpu0_STLB AVERAGE MISS LATENCY: 629.4 cycles

DRAM Statistics

Channel 0 RQ ROW_BUFFER_HIT:      92895
  ROW_BUFFER_MISS:     541067
 AVG DBUS CONGESTED CYCLE: 3.886
WQ ROW_BUFFER_HIT: Channel 0 
  ROW_BUFFER_MISS:      11881
  FULL:      68416
