WARNING: physical memory size is smaller than virtual memory size.

*** ChampSim Multicore Out-of-Order Simulator ***
Warmup Instructions: 50000000
Simulation Instructions: 600000000
Number of CPUs: 1
Page size: 4096

Off-chip DRAM Size: 4 GiB Channels: 1 Width: 64-bit Data Race: 3200 MT/s
Heartbeat CPU 0 instructions: 10000001 cycles: 2500318 heartbeat IPC: 3.999 cumulative IPC: 3.999 (Simulation time: 00 hr 00 min 59 sec)
Heartbeat CPU 0 instructions: 20000002 cycles: 5037110 heartbeat IPC: 3.942 cumulative IPC: 3.971 (Simulation time: 00 hr 02 min 04 sec)
Heartbeat CPU 0 instructions: 30000002 cycles: 7537110 heartbeat IPC: 4 cumulative IPC: 3.98 (Simulation time: 00 hr 02 min 58 sec)
Heartbeat CPU 0 instructions: 40000002 cycles: 10037110 heartbeat IPC: 4 cumulative IPC: 3.985 (Simulation time: 00 hr 03 min 51 sec)
Heartbeat CPU 0 instructions: 50000002 cycles: 12537110 heartbeat IPC: 4 cumulative IPC: 3.988 (Simulation time: 00 hr 04 min 40 sec)
Warmup finished CPU 0 instructions: 50000002 cycles: 12537111 cumulative IPC: 3.988 (Simulation time: 00 hr 04 min 40 sec)
Warmup complete CPU 0 instructions: 50000002 cycles: 12537111 cumulative IPC: 3.988 (Simulation time: 00 hr 04 min 40 sec)
Heartbeat CPU 0 instructions: 60000000 cycles: 17715205 heartbeat IPC: 1.931 cumulative IPC: 1.931 (Simulation time: 00 hr 05 min 53 sec)
Heartbeat CPU 0 instructions: 70000002 cycles: 22615853 heartbeat IPC: 2.041 cumulative IPC: 1.984 (Simulation time: 00 hr 07 min 02 sec)
Heartbeat CPU 0 instructions: 80000001 cycles: 27988062 heartbeat IPC: 1.861 cumulative IPC: 1.942 (Simulation time: 00 hr 08 min 13 sec)
Heartbeat CPU 0 instructions: 90000001 cycles: 32874355 heartbeat IPC: 2.047 cumulative IPC: 1.967 (Simulation time: 00 hr 09 min 23 sec)
Heartbeat CPU 0 instructions: 100000000 cycles: 37990141 heartbeat IPC: 1.955 cumulative IPC: 1.964 (Simulation time: 00 hr 10 min 29 sec)
Heartbeat CPU 0 instructions: 110000000 cycles: 42881152 heartbeat IPC: 2.045 cumulative IPC: 1.977 (Simulation time: 00 hr 11 min 34 sec)
Heartbeat CPU 0 instructions: 120000001 cycles: 48074705 heartbeat IPC: 1.925 cumulative IPC: 1.97 (Simulation time: 00 hr 12 min 40 sec)
Heartbeat CPU 0 instructions: 130000001 cycles: 53230113 heartbeat IPC: 1.94 cumulative IPC: 1.966 (Simulation time: 00 hr 13 min 46 sec)
Heartbeat CPU 0 instructions: 140000001 cycles: 58542417 heartbeat IPC: 1.882 cumulative IPC: 1.956 (Simulation time: 00 hr 14 min 54 sec)
Heartbeat CPU 0 instructions: 150000001 cycles: 63868321 heartbeat IPC: 1.878 cumulative IPC: 1.948 (Simulation time: 00 hr 16 min 15 sec)
Heartbeat CPU 0 instructions: 160000004 cycles: 69079493 heartbeat IPC: 1.919 cumulative IPC: 1.945 (Simulation time: 00 hr 17 min 36 sec)
Heartbeat CPU 0 instructions: 170000000 cycles: 79985440 heartbeat IPC: 0.9169 cumulative IPC: 1.779 (Simulation time: 00 hr 19 min 37 sec)
Heartbeat CPU 0 instructions: 180000004 cycles: 91446065 heartbeat IPC: 0.8726 cumulative IPC: 1.647 (Simulation time: 00 hr 21 min 38 sec)
Heartbeat CPU 0 instructions: 190000001 cycles: 102756602 heartbeat IPC: 0.8841 cumulative IPC: 1.552 (Simulation time: 00 hr 23 min 39 sec)
Heartbeat CPU 0 instructions: 200000003 cycles: 107521192 heartbeat IPC: 2.099 cumulative IPC: 1.579 (Simulation time: 00 hr 24 min 49 sec)
Heartbeat CPU 0 instructions: 210000001 cycles: 112441871 heartbeat IPC: 2.032 cumulative IPC: 1.602 (Simulation time: 00 hr 25 min 58 sec)
Heartbeat CPU 0 instructions: 220000000 cycles: 117273570 heartbeat IPC: 2.07 cumulative IPC: 1.623 (Simulation time: 00 hr 27 min 05 sec)
Heartbeat CPU 0 instructions: 230000002 cycles: 122583047 heartbeat IPC: 1.883 cumulative IPC: 1.636 (Simulation time: 00 hr 28 min 15 sec)
Heartbeat CPU 0 instructions: 240000000 cycles: 127422628 heartbeat IPC: 2.066 cumulative IPC: 1.654 (Simulation time: 00 hr 29 min 34 sec)
Heartbeat CPU 0 instructions: 250000000 cycles: 132571846 heartbeat IPC: 1.942 cumulative IPC: 1.666 (Simulation time: 00 hr 30 min 58 sec)
Heartbeat CPU 0 instructions: 260000000 cycles: 137589009 heartbeat IPC: 1.993 cumulative IPC: 1.679 (Simulation time: 00 hr 32 min 18 sec)
Heartbeat CPU 0 instructions: 270000002 cycles: 142466948 heartbeat IPC: 2.05 cumulative IPC: 1.693 (Simulation time: 00 hr 33 min 36 sec)
Heartbeat CPU 0 instructions: 280000002 cycles: 147368434 heartbeat IPC: 2.04 cumulative IPC: 1.706 (Simulation time: 00 hr 34 min 49 sec)
Heartbeat CPU 0 instructions: 290000001 cycles: 152724256 heartbeat IPC: 1.867 cumulative IPC: 1.712 (Simulation time: 00 hr 36 min 02 sec)
Heartbeat CPU 0 instructions: 300000003 cycles: 157766822 heartbeat IPC: 1.983 cumulative IPC: 1.721 (Simulation time: 00 hr 37 min 11 sec)
Heartbeat CPU 0 instructions: 310000001 cycles: 163046074 heartbeat IPC: 1.894 cumulative IPC: 1.727 (Simulation time: 00 hr 38 min 25 sec)
Heartbeat CPU 0 instructions: 320000003 cycles: 168243115 heartbeat IPC: 1.924 cumulative IPC: 1.734 (Simulation time: 00 hr 39 min 38 sec)
Heartbeat CPU 0 instructions: 330000003 cycles: 173518135 heartbeat IPC: 1.896 cumulative IPC: 1.739 (Simulation time: 00 hr 40 min 48 sec)
Heartbeat CPU 0 instructions: 340000000 cycles: 184253499 heartbeat IPC: 0.9315 cumulative IPC: 1.689 (Simulation time: 00 hr 42 min 43 sec)
Heartbeat CPU 0 instructions: 350000000 cycles: 196467017 heartbeat IPC: 0.8188 cumulative IPC: 1.631 (Simulation time: 00 hr 44 min 52 sec)
Heartbeat CPU 0 instructions: 360000004 cycles: 207604266 heartbeat IPC: 0.8979 cumulative IPC: 1.589 (Simulation time: 00 hr 47 min 24 sec)
Heartbeat CPU 0 instructions: 370000000 cycles: 212013722 heartbeat IPC: 2.268 cumulative IPC: 1.604 (Simulation time: 00 hr 48 min 45 sec)
Heartbeat CPU 0 instructions: 380000001 cycles: 216932336 heartbeat IPC: 2.033 cumulative IPC: 1.615 (Simulation time: 00 hr 50 min 03 sec)
Heartbeat CPU 0 instructions: 390000002 cycles: 221756376 heartbeat IPC: 2.073 cumulative IPC: 1.625 (Simulation time: 00 hr 51 min 18 sec)
Heartbeat CPU 0 instructions: 400000004 cycles: 226692388 heartbeat IPC: 2.026 cumulative IPC: 1.634 (Simulation time: 00 hr 52 min 34 sec)
Heartbeat CPU 0 instructions: 410000000 cycles: 231414579 heartbeat IPC: 2.118 cumulative IPC: 1.645 (Simulation time: 00 hr 53 min 49 sec)
Heartbeat CPU 0 instructions: 420000000 cycles: 236567560 heartbeat IPC: 1.941 cumulative IPC: 1.652 (Simulation time: 00 hr 55 min 05 sec)
Heartbeat CPU 0 instructions: 430000001 cycles: 241032875 heartbeat IPC: 2.239 cumulative IPC: 1.663 (Simulation time: 00 hr 56 min 13 sec)
Heartbeat CPU 0 instructions: 440000000 cycles: 246384584 heartbeat IPC: 1.869 cumulative IPC: 1.668 (Simulation time: 00 hr 57 min 25 sec)
Heartbeat CPU 0 instructions: 450000002 cycles: 251043149 heartbeat IPC: 2.147 cumulative IPC: 1.677 (Simulation time: 00 hr 58 min 32 sec)
Heartbeat CPU 0 instructions: 460000000 cycles: 255832535 heartbeat IPC: 2.088 cumulative IPC: 1.685 (Simulation time: 00 hr 59 min 40 sec)
Heartbeat CPU 0 instructions: 470000000 cycles: 260805416 heartbeat IPC: 2.011 cumulative IPC: 1.692 (Simulation time: 01 hr 00 min 47 sec)
Heartbeat CPU 0 instructions: 480000003 cycles: 265618881 heartbeat IPC: 2.078 cumulative IPC: 1.699 (Simulation time: 01 hr 01 min 54 sec)
Heartbeat CPU 0 instructions: 490000000 cycles: 270229911 heartbeat IPC: 2.169 cumulative IPC: 1.707 (Simulation time: 01 hr 03 min 00 sec)
Heartbeat CPU 0 instructions: 500000000 cycles: 275246025 heartbeat IPC: 1.994 cumulative IPC: 1.713 (Simulation time: 01 hr 04 min 08 sec)
Heartbeat CPU 0 instructions: 510000003 cycles: 280912630 heartbeat IPC: 1.765 cumulative IPC: 1.714 (Simulation time: 01 hr 05 min 21 sec)
Heartbeat CPU 0 instructions: 520000001 cycles: 285594160 heartbeat IPC: 2.136 cumulative IPC: 1.721 (Simulation time: 01 hr 06 min 27 sec)
Heartbeat CPU 0 instructions: 530000002 cycles: 290752089 heartbeat IPC: 1.939 cumulative IPC: 1.725 (Simulation time: 01 hr 07 min 40 sec)
Heartbeat CPU 0 instructions: 540000000 cycles: 295862665 heartbeat IPC: 1.957 cumulative IPC: 1.729 (Simulation time: 01 hr 08 min 49 sec)
Heartbeat CPU 0 instructions: 550000001 cycles: 300657456 heartbeat IPC: 2.086 cumulative IPC: 1.735 (Simulation time: 01 hr 09 min 56 sec)
Heartbeat CPU 0 instructions: 560000000 cycles: 305922566 heartbeat IPC: 1.899 cumulative IPC: 1.738 (Simulation time: 01 hr 11 min 08 sec)
Heartbeat CPU 0 instructions: 570000004 cycles: 313096010 heartbeat IPC: 1.394 cumulative IPC: 1.73 (Simulation time: 01 hr 12 min 33 sec)
Heartbeat CPU 0 instructions: 580000003 cycles: 325536721 heartbeat IPC: 0.8038 cumulative IPC: 1.693 (Simulation time: 01 hr 14 min 35 sec)
Heartbeat CPU 0 instructions: 590000002 cycles: 339707343 heartbeat IPC: 0.7057 cumulative IPC: 1.651 (Simulation time: 01 hr 16 min 39 sec)
Heartbeat CPU 0 instructions: 600000000 cycles: 344296059 heartbeat IPC: 2.179 cumulative IPC: 1.658 (Simulation time: 01 hr 17 min 30 sec)
Heartbeat CPU 0 instructions: 610000002 cycles: 348786878 heartbeat IPC: 2.227 cumulative IPC: 1.665 (Simulation time: 01 hr 18 min 18 sec)
Heartbeat CPU 0 instructions: 620000000 cycles: 353589263 heartbeat IPC: 2.082 cumulative IPC: 1.671 (Simulation time: 01 hr 19 min 07 sec)
Heartbeat CPU 0 instructions: 630000002 cycles: 358672575 heartbeat IPC: 1.967 cumulative IPC: 1.676 (Simulation time: 01 hr 19 min 50 sec)
Heartbeat CPU 0 instructions: 640000001 cycles: 363525951 heartbeat IPC: 2.06 cumulative IPC: 1.681 (Simulation time: 01 hr 20 min 23 sec)
Heartbeat CPU 0 instructions: 650000000 cycles: 368081698 heartbeat IPC: 2.195 cumulative IPC: 1.688 (Simulation time: 01 hr 20 min 54 sec)
Simulation finished CPU 0 instructions: 600000001 cycles: 355544589 cumulative IPC: 1.688 (Simulation time: 01 hr 20 min 54 sec)
Simulation complete CPU 0 instructions: 600000001 cycles: 355544589 cumulative IPC: 1.688 (Simulation time: 01 hr 20 min 54 sec)

ChampSim completed all CPUs

=== Simulation ===
CPU 0 runs traces/400.perlbench-41B.champsimtrace.xz
Region of Interest Statistics

CPU 0 cumulative IPC: 1.688 instructions: 600000001 cycles: 355544589
CPU 0 Branch Prediction Accuracy: 93.95% MPKI: 12.5 Average ROB Occupancy at Mispredict: 29.7
Branch type MPKI
BRANCH_DIRECT_JUMP: 0.0123
BRANCH_INDIRECT: 0.323
BRANCH_CONDITIONAL: 12
BRANCH_DIRECT_CALL: 0.0043
BRANCH_INDIRECT_CALL: 0.2
BRANCH_RETURN: 0.00828

LLC TOTAL        ACCESS:     594922 HIT:     289321 MISS:     305601
LLC LOAD         ACCESS:     403181 HIT:     165343 MISS:     237838
LLC RFO          ACCESS:      32559 HIT:      16285 MISS:      16274
LLC PREFETCH     ACCESS:      54629 HIT:      25640 MISS:      28989
LLC WRITE        ACCESS:      85544 HIT:      73521 MISS:      12023
LLC TRANSLATION  ACCESS:      19009 HIT:       8532 MISS:      10477
LLC PREFETCH REQUESTED:      54629 ISSUED:      54629 USEFUL:      17861 USELESS:       6510
LLC AVERAGE MISS LATENCY: 538.4 cycles
cpu0_DTLB TOTAL        ACCESS:  153677440 HIT:  152999201 MISS:     678239
cpu0_DTLB LOAD         ACCESS:  153677440 HIT:  152999201 MISS:     678239
cpu0_DTLB RFO          ACCESS:          0 HIT:          0 MISS:          0
cpu0_DTLB PREFETCH     ACCESS:          0 HIT:          0 MISS:          0
cpu0_DTLB WRITE        ACCESS:          0 HIT:          0 MISS:          0
cpu0_DTLB TRANSLATION  ACCESS:          0 HIT:          0 MISS:          0
cpu0_DTLB PREFETCH REQUESTED:          0 ISSUED:          0 USEFUL:          0 USELESS:          0
cpu0_DTLB AVERAGE MISS LATENCY: 16.13 cycles
cpu0_ITLB TOTAL        ACCESS:    4836932 HIT:    4779099 MISS:      57833
cpu0_ITLB LOAD         ACCESS:    4836932 HIT:    4779099 MISS:      57833
cpu0_ITLB RFO          ACCESS:          0 HIT:          0 MISS:          0
cpu0_ITLB PREFETCH     ACCESS:          0 HIT:          0 MISS:          0
cpu0_ITLB WRITE        ACCESS:          0 HIT:          0 MISS:          0
cpu0_ITLB TRANSLATION  ACCESS:          0 HIT:          0 MISS:          0
cpu0_ITLB PREFETCH REQUESTED:          0 ISSUED:          0 USEFUL:          0 USELESS:          0
cpu0_ITLB AVERAGE MISS LATENCY: 7.446 cycles
cpu0_L1D TOTAL        ACCESS:  200284377 HIT:  198546688 MISS:    1737689
cpu0_L1D LOAD         ACCESS:  117041793 HIT:  115688135 MISS:    1353658
cpu0_L1D RFO          ACCESS:          0 HIT:          0 MISS:          0
cpu0_L1D PREFETCH     ACCESS:          0 HIT:          0 MISS:          0
cpu0_L1D WRITE        ACCESS:   83218119 HIT:   82857515 MISS:     360604
cpu0_L1D TRANSLATION  ACCESS:      24465 HIT:       1038 MISS:      23427
cpu0_L1D PREFETCH REQUESTED:          0 ISSUED:          0 USEFUL:          0 USELESS:          0
cpu0_L1D AVERAGE MISS LATENCY: 88.92 cycles
cpu0_L1I TOTAL        ACCESS:    5579270 HIT:    4817905 MISS:     761365
cpu0_L1I LOAD         ACCESS:    5579270 HIT:    4817905 MISS:     761365
cpu0_L1I RFO          ACCESS:          0 HIT:          0 MISS:          0
cpu0_L1I PREFETCH     ACCESS:          0 HIT:          0 MISS:          0
cpu0_L1I WRITE        ACCESS:          0 HIT:          0 MISS:          0
cpu0_L1I TRANSLATION  ACCESS:          0 HIT:          0 MISS:          0
cpu0_L1I PREFETCH REQUESTED:          0 ISSUED:          0 USEFUL:          0 USELESS:          0
cpu0_L1I AVERAGE MISS LATENCY: 14.76 cycles
cpu0_L2C TOTAL        ACCESS:    1667897 HIT:    1211371 MISS:     456526
cpu0_L2C LOAD         ACCESS:    1317037 HIT:     913856 MISS:     403181
cpu0_L2C RFO          ACCESS:      88646 HIT:      56087 MISS:      32559
cpu0_L2C PREFETCH     ACCESS:          0 HIT:          0 MISS:          0
cpu0_L2C WRITE        ACCESS:     238869 HIT:     237092 MISS:       1777
cpu0_L2C TRANSLATION  ACCESS:      23345 HIT:       4336 MISS:      19009
cpu0_L2C PREFETCH REQUESTED:          0 ISSUED:          0 USEFUL:          0 USELESS:          0
cpu0_L2C AVERAGE MISS LATENCY: 342.4 cycles
cpu0_STLB TOTAL        ACCESS:     505271 HIT:     482480 MISS:      22791
cpu0_STLB LOAD         ACCESS:     505271 HIT:     482480 MISS:      22791
cpu0_STLB RFO          ACCESS:          0 HIT:          0 MISS:          0
cpu0_STLB PREFETCH     ACCESS:          0 HIT:          0 MISS:          0
cpu0_STLB WRITE        ACCESS:          0 HIT:          0 MISS:          0
cpu0_STLB TRANSLATION  ACCESS:          0 HIT:          0 MISS:          0
cpu0_STLB PREFETCH REQUESTED:          0 ISSUED:          0 USEFUL:          0 USELESS:          0
cpu0_STLB AVERAGE MISS LATENCY: 359.3 cycles

DRAM Statistics

Channel 0 RQ ROW_BUFFER_HIT:      52296
  ROW_BUFFER_MISS:     235932
 AVG DBUS CONGESTED CYCLE: 3.814
WQ ROW_BUFFER_HIT: Channel 0 
  ROW_BUFFER_MISS:       8373
  FULL:      33346
