WARNING: physical memory size is smaller than virtual memory size.

*** ChampSim Multicore Out-of-Order Simulator ***
Warmup Instructions: 50000000
Simulation Instructions: 600000000
Number of CPUs: 1
Page size: 4096

Off-chip DRAM Size: 4 GiB Channels: 1 Width: 64-bit Data Race: 3200 MT/s
Heartbeat CPU 0 instructions: 10000001 cycles: 2500318 heartbeat IPC: 3.999 cumulative IPC: 3.999 (Simulation time: 00 hr 00 min 17 sec)
Heartbeat CPU 0 instructions: 20000002 cycles: 5037121 heartbeat IPC: 3.942 cumulative IPC: 3.971 (Simulation time: 00 hr 00 min 43 sec)
Heartbeat CPU 0 instructions: 30000002 cycles: 7537121 heartbeat IPC: 4 cumulative IPC: 3.98 (Simulation time: 00 hr 01 min 14 sec)
Heartbeat CPU 0 instructions: 40000002 cycles: 10037121 heartbeat IPC: 4 cumulative IPC: 3.985 (Simulation time: 00 hr 01 min 49 sec)
Heartbeat CPU 0 instructions: 50000002 cycles: 12537121 heartbeat IPC: 4 cumulative IPC: 3.988 (Simulation time: 00 hr 02 min 29 sec)
Warmup finished CPU 0 instructions: 50000002 cycles: 12537122 cumulative IPC: 3.988 (Simulation time: 00 hr 02 min 29 sec)
Warmup complete CPU 0 instructions: 50000002 cycles: 12537122 cumulative IPC: 3.988 (Simulation time: 00 hr 02 min 29 sec)
Heartbeat CPU 0 instructions: 60000000 cycles: 17152522 heartbeat IPC: 2.167 cumulative IPC: 2.167 (Simulation time: 00 hr 03 min 30 sec)
Heartbeat CPU 0 instructions: 70000004 cycles: 21428528 heartbeat IPC: 2.339 cumulative IPC: 2.249 (Simulation time: 00 hr 04 min 39 sec)
Heartbeat CPU 0 instructions: 80000001 cycles: 26026448 heartbeat IPC: 2.175 cumulative IPC: 2.224 (Simulation time: 00 hr 05 min 44 sec)
Heartbeat CPU 0 instructions: 90000001 cycles: 30150803 heartbeat IPC: 2.425 cumulative IPC: 2.271 (Simulation time: 00 hr 06 min 44 sec)
Heartbeat CPU 0 instructions: 100000000 cycles: 34200572 heartbeat IPC: 2.469 cumulative IPC: 2.308 (Simulation time: 00 hr 07 min 45 sec)
Heartbeat CPU 0 instructions: 110000000 cycles: 38429333 heartbeat IPC: 2.365 cumulative IPC: 2.317 (Simulation time: 00 hr 08 min 50 sec)
Heartbeat CPU 0 instructions: 120000001 cycles: 42437923 heartbeat IPC: 2.495 cumulative IPC: 2.341 (Simulation time: 00 hr 09 min 58 sec)
Heartbeat CPU 0 instructions: 130000001 cycles: 46166732 heartbeat IPC: 2.682 cumulative IPC: 2.379 (Simulation time: 00 hr 10 min 57 sec)
Heartbeat CPU 0 instructions: 140000001 cycles: 50331058 heartbeat IPC: 2.401 cumulative IPC: 2.381 (Simulation time: 00 hr 11 min 58 sec)
Heartbeat CPU 0 instructions: 150000001 cycles: 54530975 heartbeat IPC: 2.381 cumulative IPC: 2.381 (Simulation time: 00 hr 13 min 00 sec)
Heartbeat CPU 0 instructions: 160000004 cycles: 58958613 heartbeat IPC: 2.259 cumulative IPC: 2.37 (Simulation time: 00 hr 14 min 07 sec)
Heartbeat CPU 0 instructions: 170000004 cycles: 69127251 heartbeat IPC: 0.9834 cumulative IPC: 2.121 (Simulation time: 00 hr 16 min 00 sec)
Heartbeat CPU 0 instructions: 180000004 cycles: 80366572 heartbeat IPC: 0.8897 cumulative IPC: 1.917 (Simulation time: 00 hr 17 min 56 sec)
Heartbeat CPU 0 instructions: 190000001 cycles: 91076911 heartbeat IPC: 0.9337 cumulative IPC: 1.783 (Simulation time: 00 hr 19 min 49 sec)
Heartbeat CPU 0 instructions: 200000004 cycles: 94877253 heartbeat IPC: 2.631 cumulative IPC: 1.822 (Simulation time: 00 hr 20 min 49 sec)
Heartbeat CPU 0 instructions: 210000001 cycles: 98798601 heartbeat IPC: 2.55 cumulative IPC: 1.855 (Simulation time: 00 hr 21 min 50 sec)
Heartbeat CPU 0 instructions: 220000000 cycles: 102762165 heartbeat IPC: 2.523 cumulative IPC: 1.884 (Simulation time: 00 hr 22 min 50 sec)
Heartbeat CPU 0 instructions: 230000002 cycles: 107443389 heartbeat IPC: 2.136 cumulative IPC: 1.897 (Simulation time: 00 hr 23 min 56 sec)
Heartbeat CPU 0 instructions: 240000000 cycles: 111647576 heartbeat IPC: 2.379 cumulative IPC: 1.917 (Simulation time: 00 hr 25 min 00 sec)
Heartbeat CPU 0 instructions: 250000000 cycles: 115976013 heartbeat IPC: 2.31 cumulative IPC: 1.934 (Simulation time: 00 hr 26 min 04 sec)
Heartbeat CPU 0 instructions: 260000000 cycles: 120159516 heartbeat IPC: 2.39 cumulative IPC: 1.951 (Simulation time: 00 hr 27 min 08 sec)
Heartbeat CPU 0 instructions: 270000002 cycles: 124012587 heartbeat IPC: 2.595 cumulative IPC: 1.974 (Simulation time: 00 hr 28 min 10 sec)
Heartbeat CPU 0 instructions: 280000002 cycles: 128175550 heartbeat IPC: 2.402 cumulative IPC: 1.989 (Simulation time: 00 hr 29 min 13 sec)
Heartbeat CPU 0 instructions: 290000001 cycles: 132080738 heartbeat IPC: 2.561 cumulative IPC: 2.008 (Simulation time: 00 hr 30 min 14 sec)
Heartbeat CPU 0 instructions: 300000003 cycles: 135910645 heartbeat IPC: 2.611 cumulative IPC: 2.026 (Simulation time: 00 hr 31 min 15 sec)
Heartbeat CPU 0 instructions: 310000001 cycles: 140055578 heartbeat IPC: 2.413 cumulative IPC: 2.039 (Simulation time: 00 hr 32 min 17 sec)
Heartbeat CPU 0 instructions: 320000003 cycles: 144148167 heartbeat IPC: 2.443 cumulative IPC: 2.051 (Simulation time: 00 hr 33 min 21 sec)
Heartbeat CPU 0 instructions: 330000003 cycles: 148572601 heartbeat IPC: 2.26 cumulative IPC: 2.058 (Simulation time: 00 hr 34 min 26 sec)
Heartbeat CPU 0 instructions: 340000000 cycles: 158935838 heartbeat IPC: 0.9649 cumulative IPC: 1.981 (Simulation time: 00 hr 36 min 19 sec)
Heartbeat CPU 0 instructions: 350000000 cycles: 170537001 heartbeat IPC: 0.862 cumulative IPC: 1.899 (Simulation time: 00 hr 38 min 24 sec)
Heartbeat CPU 0 instructions: 360000004 cycles: 181332440 heartbeat IPC: 0.9263 cumulative IPC: 1.837 (Simulation time: 00 hr 40 min 06 sec)
Heartbeat CPU 0 instructions: 370000000 cycles: 184776501 heartbeat IPC: 2.904 cumulative IPC: 1.858 (Simulation time: 00 hr 40 min 49 sec)
Heartbeat CPU 0 instructions: 380000001 cycles: 188209406 heartbeat IPC: 2.913 cumulative IPC: 1.878 (Simulation time: 00 hr 41 min 32 sec)
Heartbeat CPU 0 instructions: 390000004 cycles: 191955858 heartbeat IPC: 2.669 cumulative IPC: 1.895 (Simulation time: 00 hr 42 min 16 sec)
Heartbeat CPU 0 instructions: 400000004 cycles: 195770051 heartbeat IPC: 2.622 cumulative IPC: 1.91 (Simulation time: 00 hr 43 min 01 sec)
Heartbeat CPU 0 instructions: 410000001 cycles: 199439833 heartbeat IPC: 2.725 cumulative IPC: 1.926 (Simulation time: 00 hr 43 min 44 sec)
Heartbeat CPU 0 instructions: 420000003 cycles: 203527477 heartbeat IPC: 2.446 cumulative IPC: 1.937 (Simulation time: 00 hr 44 min 30 sec)
Heartbeat CPU 0 instructions: 430000001 cycles: 207198614 heartbeat IPC: 2.724 cumulative IPC: 1.952 (Simulation time: 00 hr 45 min 14 sec)
Heartbeat CPU 0 instructions: 440000004 cycles: 211286888 heartbeat IPC: 2.446 cumulative IPC: 1.962 (Simulation time: 00 hr 46 min 01 sec)
Heartbeat CPU 0 instructions: 450000002 cycles: 215020559 heartbeat IPC: 2.678 cumulative IPC: 1.975 (Simulation time: 00 hr 46 min 46 sec)
Heartbeat CPU 0 instructions: 460000000 cycles: 218687591 heartbeat IPC: 2.727 cumulative IPC: 1.989 (Simulation time: 00 hr 47 min 31 sec)
Heartbeat CPU 0 instructions: 470000000 cycles: 222157618 heartbeat IPC: 2.882 cumulative IPC: 2.004 (Simulation time: 00 hr 48 min 14 sec)
Heartbeat CPU 0 instructions: 480000003 cycles: 226013161 heartbeat IPC: 2.594 cumulative IPC: 2.014 (Simulation time: 00 hr 49 min 00 sec)
Heartbeat CPU 0 instructions: 490000000 cycles: 229639269 heartbeat IPC: 2.758 cumulative IPC: 2.027 (Simulation time: 00 hr 49 min 54 sec)
Heartbeat CPU 0 instructions: 500000000 cycles: 233344059 heartbeat IPC: 2.699 cumulative IPC: 2.038 (Simulation time: 00 hr 50 min 40 sec)
Heartbeat CPU 0 instructions: 510000003 cycles: 237046177 heartbeat IPC: 2.701 cumulative IPC: 2.049 (Simulation time: 00 hr 51 min 25 sec)
Heartbeat CPU 0 instructions: 520000001 cycles: 240457753 heartbeat IPC: 2.931 cumulative IPC: 2.062 (Simulation time: 00 hr 52 min 08 sec)
Heartbeat CPU 0 instructions: 530000002 cycles: 244167765 heartbeat IPC: 2.695 cumulative IPC: 2.072 (Simulation time: 00 hr 52 min 52 sec)
Heartbeat CPU 0 instructions: 540000000 cycles: 247701882 heartbeat IPC: 2.83 cumulative IPC: 2.084 (Simulation time: 00 hr 53 min 36 sec)
Heartbeat CPU 0 instructions: 550000001 cycles: 251398132 heartbeat IPC: 2.705 cumulative IPC: 2.093 (Simulation time: 00 hr 54 min 21 sec)
Heartbeat CPU 0 instructions: 560000000 cycles: 255455055 heartbeat IPC: 2.465 cumulative IPC: 2.099 (Simulation time: 00 hr 55 min 06 sec)
Heartbeat CPU 0 instructions: 570000004 cycles: 261929582 heartbeat IPC: 1.545 cumulative IPC: 2.085 (Simulation time: 00 hr 56 min 06 sec)
Heartbeat CPU 0 instructions: 580000003 cycles: 274117857 heartbeat IPC: 0.8205 cumulative IPC: 2.026 (Simulation time: 00 hr 57 min 40 sec)
Heartbeat CPU 0 instructions: 590000002 cycles: 287911223 heartbeat IPC: 0.725 cumulative IPC: 1.961 (Simulation time: 00 hr 59 min 24 sec)
Heartbeat CPU 0 instructions: 600000000 cycles: 291671495 heartbeat IPC: 2.659 cumulative IPC: 1.97 (Simulation time: 01 hr 00 min 08 sec)
Heartbeat CPU 0 instructions: 610000000 cycles: 295534822 heartbeat IPC: 2.588 cumulative IPC: 1.979 (Simulation time: 01 hr 00 min 53 sec)
Heartbeat CPU 0 instructions: 620000001 cycles: 298975108 heartbeat IPC: 2.907 cumulative IPC: 1.99 (Simulation time: 01 hr 01 min 36 sec)
Heartbeat CPU 0 instructions: 630000002 cycles: 303259505 heartbeat IPC: 2.334 cumulative IPC: 1.995 (Simulation time: 01 hr 02 min 21 sec)
Heartbeat CPU 0 instructions: 640000001 cycles: 307157862 heartbeat IPC: 2.565 cumulative IPC: 2.003 (Simulation time: 01 hr 03 min 05 sec)
Heartbeat CPU 0 instructions: 650000000 cycles: 310914912 heartbeat IPC: 2.662 cumulative IPC: 2.011 (Simulation time: 01 hr 03 min 48 sec)
Simulation finished CPU 0 instructions: 600000001 cycles: 298377792 cumulative IPC: 2.011 (Simulation time: 01 hr 03 min 48 sec)
Simulation complete CPU 0 instructions: 600000001 cycles: 298377792 cumulative IPC: 2.011 (Simulation time: 01 hr 03 min 48 sec)

ChampSim completed all CPUs

=== Simulation ===
CPU 0 runs traces/400.perlbench-41B.champsimtrace.xz
Region of Interest Statistics

CPU 0 cumulative IPC: 2.011 instructions: 600000001 cycles: 298377792
CPU 0 Branch Prediction Accuracy: 96.56% MPKI: 7.112 Average ROB Occupancy at Mispredict: 47.35
Branch type MPKI
BRANCH_DIRECT_JUMP: 0.0123
BRANCH_INDIRECT: 0.323
BRANCH_CONDITIONAL: 6.56
BRANCH_DIRECT_CALL: 0.0043
BRANCH_INDIRECT_CALL: 0.2
BRANCH_RETURN: 0.00828

LLC TOTAL        ACCESS:     937604 HIT:     483343 MISS:     454261
LLC LOAD         ACCESS:     400706 HIT:     203499 MISS:     197207
LLC RFO          ACCESS:      32433 HIT:      15652 MISS:      16781
LLC PREFETCH     ACCESS:     400706 HIT:     192497 MISS:     208209
LLC WRITE        ACCESS:      84710 HIT:      71206 MISS:      13504
LLC TRANSLATION  ACCESS:      19049 HIT:        489 MISS:      18560
LLC PREFETCH REQUESTED:     400706 ISSUED:     400706 USEFUL:      83177 USELESS:      74259
LLC AVERAGE MISS LATENCY: 572 cycles
cpu0_DTLB TOTAL        ACCESS:  141899879 HIT:  141211792 MISS:     688087
cpu0_DTLB LOAD         ACCESS:  141899879 HIT:  141211792 MISS:     688087
cpu0_DTLB RFO          ACCESS:          0 HIT:          0 MISS:          0
cpu0_DTLB PREFETCH     ACCESS:          0 HIT:          0 MISS:          0
cpu0_DTLB WRITE        ACCESS:          0 HIT:          0 MISS:          0
cpu0_DTLB TRANSLATION  ACCESS:          0 HIT:          0 MISS:          0
cpu0_DTLB PREFETCH REQUESTED:          0 ISSUED:          0 USEFUL:          0 USELESS:          0
cpu0_DTLB AVERAGE MISS LATENCY: 24.19 cycles
cpu0_ITLB TOTAL        ACCESS:    4856716 HIT:    4803570 MISS:      53146
cpu0_ITLB LOAD         ACCESS:    4856716 HIT:    4803570 MISS:      53146
cpu0_ITLB RFO          ACCESS:          0 HIT:          0 MISS:          0
cpu0_ITLB PREFETCH     ACCESS:          0 HIT:          0 MISS:          0
cpu0_ITLB WRITE        ACCESS:          0 HIT:          0 MISS:          0
cpu0_ITLB TRANSLATION  ACCESS:          0 HIT:          0 MISS:          0
cpu0_ITLB PREFETCH REQUESTED:          0 ISSUED:          0 USEFUL:          0 USELESS:          0
cpu0_ITLB AVERAGE MISS LATENCY: 9.573 cycles
cpu0_L1D TOTAL        ACCESS:  188560521 HIT:  186816515 MISS:    1744006
cpu0_L1D LOAD         ACCESS:  105194034 HIT:  103832532 MISS:    1361502
cpu0_L1D RFO          ACCESS:          0 HIT:          0 MISS:          0
cpu0_L1D PREFETCH     ACCESS:          0 HIT:          0 MISS:          0
cpu0_L1D WRITE        ACCESS:   83342019 HIT:   82982924 MISS:     359095
cpu0_L1D TRANSLATION  ACCESS:      24468 HIT:       1059 MISS:      23409
cpu0_L1D PREFETCH REQUESTED:          0 ISSUED:          0 USEFUL:          0 USELESS:          0
cpu0_L1D AVERAGE MISS LATENCY: 90 cycles
cpu0_L1I TOTAL        ACCESS:    5594793 HIT:    4851332 MISS:     743461
cpu0_L1I LOAD         ACCESS:    5594793 HIT:    4851332 MISS:     743461
cpu0_L1I RFO          ACCESS:          0 HIT:          0 MISS:          0
cpu0_L1I PREFETCH     ACCESS:          0 HIT:          0 MISS:          0
cpu0_L1I WRITE        ACCESS:          0 HIT:          0 MISS:          0
cpu0_L1I TRANSLATION  ACCESS:          0 HIT:          0 MISS:          0
cpu0_L1I PREFETCH REQUESTED:          0 ISSUED:          0 USEFUL:          0 USELESS:          0
cpu0_L1I AVERAGE MISS LATENCY: 13.78 cycles
cpu0_L2C TOTAL        ACCESS:    1665641 HIT:    1211654 MISS:     453987
cpu0_L2C LOAD         ACCESS:    1315956 HIT:     915250 MISS:     400706
cpu0_L2C RFO          ACCESS:      88342 HIT:      55909 MISS:      32433
cpu0_L2C PREFETCH     ACCESS:          0 HIT:          0 MISS:          0
cpu0_L2C WRITE        ACCESS:     238011 HIT:     236212 MISS:       1799
cpu0_L2C TRANSLATION  ACCESS:      23332 HIT:       4283 MISS:      19049
cpu0_L2C PREFETCH REQUESTED:          0 ISSUED:          0 USEFUL:          0 USELESS:          0
cpu0_L2C AVERAGE MISS LATENCY: 349.1 cycles
cpu0_STLB TOTAL        ACCESS:     507370 HIT:     484578 MISS:      22792
cpu0_STLB LOAD         ACCESS:     507370 HIT:     484578 MISS:      22792
cpu0_STLB RFO          ACCESS:          0 HIT:          0 MISS:          0
cpu0_STLB PREFETCH     ACCESS:          0 HIT:          0 MISS:          0
cpu0_STLB WRITE        ACCESS:          0 HIT:          0 MISS:          0
cpu0_STLB TRANSLATION  ACCESS:          0 HIT:          0 MISS:          0
cpu0_STLB PREFETCH REQUESTED:          0 ISSUED:          0 USEFUL:          0 USELESS:          0
cpu0_STLB AVERAGE MISS LATENCY: 626.7 cycles

DRAM Statistics

Channel 0 RQ ROW_BUFFER_HIT:      62772
  ROW_BUFFER_MISS:     312918
 AVG DBUS CONGESTED CYCLE: 3.882
WQ ROW_BUFFER_HIT: Channel 0 
  ROW_BUFFER_MISS:       6709
  FULL:      41272
Final OPTGen Hits: 8583
Final OPTGen Access: 9315
Final OPTGEN Hit Rate: 92.1418
