WARNING: physical memory size is smaller than virtual memory size.

*** ChampSim Multicore Out-of-Order Simulator ***
Warmup Instructions: 50000000
Simulation Instructions: 600000000
Number of CPUs: 1
Page size: 4096

CPU 0 Tage branch predictor
Off-chip DRAM Size: 4 GiB Channels: 1 Width: 64-bit Data Race: 3200 MT/s
Heartbeat CPU 0 instructions: 10000000 cycles: 2500061 heartbeat IPC: 4 cumulative IPC: 4 (Simulation time: 00 hr 00 min 41 sec)
Heartbeat CPU 0 instructions: 20000000 cycles: 5000061 heartbeat IPC: 4 cumulative IPC: 4 (Simulation time: 00 hr 01 min 21 sec)
Heartbeat CPU 0 instructions: 30000000 cycles: 7500061 heartbeat IPC: 4 cumulative IPC: 4 (Simulation time: 00 hr 02 min 01 sec)
Heartbeat CPU 0 instructions: 40000000 cycles: 10000061 heartbeat IPC: 4 cumulative IPC: 4 (Simulation time: 00 hr 02 min 42 sec)
Heartbeat CPU 0 instructions: 50000000 cycles: 12500061 heartbeat IPC: 4 cumulative IPC: 4 (Simulation time: 00 hr 03 min 21 sec)
Warmup finished CPU 0 instructions: 50000000 cycles: 12500062 cumulative IPC: 4 (Simulation time: 00 hr 03 min 21 sec)
Warmup complete CPU 0 instructions: 50000000 cycles: 12500062 cumulative IPC: 4 (Simulation time: 00 hr 03 min 21 sec)
Heartbeat CPU 0 instructions: 60000004 cycles: 15504574 heartbeat IPC: 3.328 cumulative IPC: 3.328 (Simulation time: 00 hr 04 min 08 sec)
Heartbeat CPU 0 instructions: 70000003 cycles: 18375027 heartbeat IPC: 3.484 cumulative IPC: 3.404 (Simulation time: 00 hr 04 min 54 sec)
Heartbeat CPU 0 instructions: 80000002 cycles: 21385455 heartbeat IPC: 3.322 cumulative IPC: 3.376 (Simulation time: 00 hr 05 min 43 sec)
Heartbeat CPU 0 instructions: 90000000 cycles: 24106445 heartbeat IPC: 3.675 cumulative IPC: 3.446 (Simulation time: 00 hr 06 min 28 sec)
Heartbeat CPU 0 instructions: 100000003 cycles: 26861573 heartbeat IPC: 3.63 cumulative IPC: 3.482 (Simulation time: 00 hr 07 min 15 sec)
Heartbeat CPU 0 instructions: 110000001 cycles: 29760716 heartbeat IPC: 3.449 cumulative IPC: 3.476 (Simulation time: 00 hr 08 min 03 sec)
Heartbeat CPU 0 instructions: 120000001 cycles: 32476957 heartbeat IPC: 3.682 cumulative IPC: 3.504 (Simulation time: 00 hr 08 min 49 sec)
Heartbeat CPU 0 instructions: 130000003 cycles: 35373828 heartbeat IPC: 3.452 cumulative IPC: 3.497 (Simulation time: 00 hr 09 min 40 sec)
Heartbeat CPU 0 instructions: 140000002 cycles: 38209923 heartbeat IPC: 3.526 cumulative IPC: 3.501 (Simulation time: 00 hr 10 min 27 sec)
Heartbeat CPU 0 instructions: 150000001 cycles: 40979169 heartbeat IPC: 3.611 cumulative IPC: 3.511 (Simulation time: 00 hr 11 min 15 sec)
Heartbeat CPU 0 instructions: 160000000 cycles: 43896422 heartbeat IPC: 3.428 cumulative IPC: 3.504 (Simulation time: 00 hr 12 min 03 sec)
Heartbeat CPU 0 instructions: 170000001 cycles: 46819705 heartbeat IPC: 3.421 cumulative IPC: 3.497 (Simulation time: 00 hr 12 min 50 sec)
Heartbeat CPU 0 instructions: 180000000 cycles: 49612091 heartbeat IPC: 3.581 cumulative IPC: 3.503 (Simulation time: 00 hr 13 min 40 sec)
Heartbeat CPU 0 instructions: 190000002 cycles: 52318430 heartbeat IPC: 3.695 cumulative IPC: 3.516 (Simulation time: 00 hr 14 min 29 sec)
Heartbeat CPU 0 instructions: 200000002 cycles: 55141199 heartbeat IPC: 3.543 cumulative IPC: 3.518 (Simulation time: 00 hr 15 min 17 sec)
Heartbeat CPU 0 instructions: 210000000 cycles: 58032005 heartbeat IPC: 3.459 cumulative IPC: 3.514 (Simulation time: 00 hr 16 min 04 sec)
Heartbeat CPU 0 instructions: 220000001 cycles: 60781438 heartbeat IPC: 3.637 cumulative IPC: 3.521 (Simulation time: 00 hr 16 min 53 sec)
Heartbeat CPU 0 instructions: 230000002 cycles: 63668564 heartbeat IPC: 3.464 cumulative IPC: 3.518 (Simulation time: 00 hr 17 min 41 sec)
Heartbeat CPU 0 instructions: 240000004 cycles: 66619176 heartbeat IPC: 3.389 cumulative IPC: 3.511 (Simulation time: 00 hr 18 min 30 sec)
Heartbeat CPU 0 instructions: 250000003 cycles: 69510091 heartbeat IPC: 3.459 cumulative IPC: 3.508 (Simulation time: 00 hr 19 min 18 sec)
Heartbeat CPU 0 instructions: 260000001 cycles: 72292913 heartbeat IPC: 3.593 cumulative IPC: 3.512 (Simulation time: 00 hr 20 min 05 sec)
Heartbeat CPU 0 instructions: 270000002 cycles: 78064533 heartbeat IPC: 1.733 cumulative IPC: 3.355 (Simulation time: 00 hr 21 min 06 sec)
Heartbeat CPU 0 instructions: 280000000 cycles: 86592792 heartbeat IPC: 1.173 cumulative IPC: 3.104 (Simulation time: 00 hr 22 min 30 sec)
Heartbeat CPU 0 instructions: 290000000 cycles: 94462192 heartbeat IPC: 1.271 cumulative IPC: 2.928 (Simulation time: 00 hr 23 min 46 sec)
Heartbeat CPU 0 instructions: 300000003 cycles: 100839664 heartbeat IPC: 1.568 cumulative IPC: 2.83 (Simulation time: 00 hr 24 min 55 sec)
Heartbeat CPU 0 instructions: 310000001 cycles: 110539639 heartbeat IPC: 1.031 cumulative IPC: 2.652 (Simulation time: 00 hr 26 min 22 sec)
Heartbeat CPU 0 instructions: 320000004 cycles: 114960103 heartbeat IPC: 2.262 cumulative IPC: 2.635 (Simulation time: 00 hr 27 min 18 sec)
Heartbeat CPU 0 instructions: 330000000 cycles: 118113259 heartbeat IPC: 3.171 cumulative IPC: 2.651 (Simulation time: 00 hr 28 min 06 sec)
Heartbeat CPU 0 instructions: 340000001 cycles: 121319431 heartbeat IPC: 3.119 cumulative IPC: 2.665 (Simulation time: 00 hr 28 min 54 sec)
Heartbeat CPU 0 instructions: 350000000 cycles: 124695072 heartbeat IPC: 2.962 cumulative IPC: 2.674 (Simulation time: 00 hr 29 min 45 sec)
Heartbeat CPU 0 instructions: 360000004 cycles: 127862084 heartbeat IPC: 3.158 cumulative IPC: 2.687 (Simulation time: 00 hr 30 min 35 sec)
Heartbeat CPU 0 instructions: 370000001 cycles: 130913746 heartbeat IPC: 3.277 cumulative IPC: 2.702 (Simulation time: 00 hr 31 min 24 sec)
Heartbeat CPU 0 instructions: 380000004 cycles: 133978712 heartbeat IPC: 3.263 cumulative IPC: 2.717 (Simulation time: 00 hr 32 min 12 sec)
Heartbeat CPU 0 instructions: 390000002 cycles: 137265746 heartbeat IPC: 3.042 cumulative IPC: 2.725 (Simulation time: 00 hr 33 min 00 sec)
Heartbeat CPU 0 instructions: 400000000 cycles: 140636716 heartbeat IPC: 2.967 cumulative IPC: 2.731 (Simulation time: 00 hr 33 min 48 sec)
Heartbeat CPU 0 instructions: 410000000 cycles: 147307976 heartbeat IPC: 1.499 cumulative IPC: 2.67 (Simulation time: 00 hr 34 min 56 sec)
Heartbeat CPU 0 instructions: 420000003 cycles: 156091240 heartbeat IPC: 1.139 cumulative IPC: 2.577 (Simulation time: 00 hr 36 min 20 sec)
Heartbeat CPU 0 instructions: 430000000 cycles: 162609042 heartbeat IPC: 1.534 cumulative IPC: 2.531 (Simulation time: 00 hr 37 min 33 sec)
Heartbeat CPU 0 instructions: 440000004 cycles: 168970197 heartbeat IPC: 1.572 cumulative IPC: 2.492 (Simulation time: 00 hr 38 min 45 sec)
Heartbeat CPU 0 instructions: 450000001 cycles: 174807253 heartbeat IPC: 1.713 cumulative IPC: 2.464 (Simulation time: 00 hr 39 min 54 sec)
Heartbeat CPU 0 instructions: 460000002 cycles: 184960789 heartbeat IPC: 0.9849 cumulative IPC: 2.377 (Simulation time: 00 hr 41 min 27 sec)
Heartbeat CPU 0 instructions: 470000003 cycles: 193454807 heartbeat IPC: 1.177 cumulative IPC: 2.321 (Simulation time: 00 hr 42 min 52 sec)
Heartbeat CPU 0 instructions: 480000000 cycles: 196906819 heartbeat IPC: 2.897 cumulative IPC: 2.332 (Simulation time: 00 hr 43 min 45 sec)
Heartbeat CPU 0 instructions: 490000001 cycles: 200415019 heartbeat IPC: 2.85 cumulative IPC: 2.341 (Simulation time: 00 hr 44 min 38 sec)
Heartbeat CPU 0 instructions: 500000002 cycles: 203832420 heartbeat IPC: 2.926 cumulative IPC: 2.352 (Simulation time: 00 hr 45 min 30 sec)
Heartbeat CPU 0 instructions: 510000000 cycles: 207192148 heartbeat IPC: 2.976 cumulative IPC: 2.363 (Simulation time: 00 hr 46 min 23 sec)
Heartbeat CPU 0 instructions: 520000000 cycles: 210584388 heartbeat IPC: 2.948 cumulative IPC: 2.373 (Simulation time: 00 hr 47 min 16 sec)
Heartbeat CPU 0 instructions: 530000001 cycles: 220513328 heartbeat IPC: 1.007 cumulative IPC: 2.308 (Simulation time: 00 hr 48 min 46 sec)
Heartbeat CPU 0 instructions: 540000000 cycles: 229925386 heartbeat IPC: 1.062 cumulative IPC: 2.254 (Simulation time: 00 hr 50 min 16 sec)
Heartbeat CPU 0 instructions: 550000004 cycles: 241511922 heartbeat IPC: 0.8631 cumulative IPC: 2.183 (Simulation time: 00 hr 51 min 57 sec)
Heartbeat CPU 0 instructions: 560000004 cycles: 245308619 heartbeat IPC: 2.634 cumulative IPC: 2.191 (Simulation time: 00 hr 52 min 49 sec)
Heartbeat CPU 0 instructions: 570000002 cycles: 248133535 heartbeat IPC: 3.54 cumulative IPC: 2.207 (Simulation time: 00 hr 53 min 36 sec)
Heartbeat CPU 0 instructions: 580000000 cycles: 251060840 heartbeat IPC: 3.416 cumulative IPC: 2.222 (Simulation time: 00 hr 54 min 23 sec)
Heartbeat CPU 0 instructions: 590000001 cycles: 253992870 heartbeat IPC: 3.411 cumulative IPC: 2.236 (Simulation time: 00 hr 55 min 10 sec)
Heartbeat CPU 0 instructions: 600000003 cycles: 256685529 heartbeat IPC: 3.714 cumulative IPC: 2.252 (Simulation time: 00 hr 56 min 00 sec)
Heartbeat CPU 0 instructions: 610000001 cycles: 259552867 heartbeat IPC: 3.488 cumulative IPC: 2.267 (Simulation time: 00 hr 56 min 52 sec)
Heartbeat CPU 0 instructions: 620000004 cycles: 262505911 heartbeat IPC: 3.386 cumulative IPC: 2.28 (Simulation time: 00 hr 57 min 42 sec)
Heartbeat CPU 0 instructions: 630000002 cycles: 265318226 heartbeat IPC: 3.556 cumulative IPC: 2.294 (Simulation time: 00 hr 58 min 31 sec)
Heartbeat CPU 0 instructions: 640000004 cycles: 268361518 heartbeat IPC: 3.286 cumulative IPC: 2.306 (Simulation time: 00 hr 59 min 21 sec)
Heartbeat CPU 0 instructions: 650000001 cycles: 271069955 heartbeat IPC: 3.692 cumulative IPC: 2.32 (Simulation time: 01 hr 00 min 06 sec)
Simulation finished CPU 0 instructions: 600000001 cycles: 258569894 cumulative IPC: 2.32 (Simulation time: 01 hr 00 min 06 sec)
Simulation complete CPU 0 instructions: 600000001 cycles: 258569894 cumulative IPC: 2.32 (Simulation time: 01 hr 00 min 06 sec)

ChampSim completed all CPUs

=== Simulation ===
CPU 0 runs traces/400.perlbench-50B.champsimtrace.xz
Region of Interest Statistics

CPU 0 cumulative IPC: 2.32 instructions: 600000001 cycles: 258569894
CPU 0 Branch Prediction Accuracy: 99.01% MPKI: 2.04 Average ROB Occupancy at Mispredict: 95.81
Branch type MPKI
BRANCH_DIRECT_JUMP: 0.0176
BRANCH_INDIRECT: 0.38
BRANCH_CONDITIONAL: 1.19
BRANCH_DIRECT_CALL: 0.0067
BRANCH_INDIRECT_CALL: 0.431
BRANCH_RETURN: 0.0161

LLC TOTAL        ACCESS:     847485 HIT:     474965 MISS:     372520
LLC LOAD         ACCESS:     584758 HIT:     291180 MISS:     293578
LLC RFO          ACCESS:      47259 HIT:      30803 MISS:      16456
LLC PREFETCH     ACCESS:      65534 HIT:      44300 MISS:      21234
LLC WRITE        ACCESS:     127990 HIT:     104017 MISS:      23973
LLC TRANSLATION  ACCESS:      21944 HIT:       4665 MISS:      17279
LLC PREFETCH REQUESTED:      65534 ISSUED:      65534 USEFUL:       9978 USELESS:       7595
LLC AVERAGE MISS LATENCY: 520.9 cycles
cpu0_DTLB TOTAL        ACCESS:  133227458 HIT:  131871635 MISS:    1355823
cpu0_DTLB LOAD         ACCESS:  133227458 HIT:  131871635 MISS:    1355823
cpu0_DTLB RFO          ACCESS:          0 HIT:          0 MISS:          0
cpu0_DTLB PREFETCH     ACCESS:          0 HIT:          0 MISS:          0
cpu0_DTLB WRITE        ACCESS:          0 HIT:          0 MISS:          0
cpu0_DTLB TRANSLATION  ACCESS:          0 HIT:          0 MISS:          0
cpu0_DTLB PREFETCH REQUESTED:          0 ISSUED:          0 USEFUL:          0 USELESS:          0
cpu0_DTLB AVERAGE MISS LATENCY: 13.87 cycles
cpu0_ITLB TOTAL        ACCESS:    9002807 HIT:    8793522 MISS:     209285
cpu0_ITLB LOAD         ACCESS:    9002807 HIT:    8793522 MISS:     209285
cpu0_ITLB RFO          ACCESS:          0 HIT:          0 MISS:          0
cpu0_ITLB PREFETCH     ACCESS:          0 HIT:          0 MISS:          0
cpu0_ITLB WRITE        ACCESS:          0 HIT:          0 MISS:          0
cpu0_ITLB TRANSLATION  ACCESS:          0 HIT:          0 MISS:          0
cpu0_ITLB PREFETCH REQUESTED:          0 ISSUED:          0 USEFUL:          0 USELESS:          0
cpu0_ITLB AVERAGE MISS LATENCY: 3.233 cycles
cpu0_L1D TOTAL        ACCESS:  178236700 HIT:  174455146 MISS:    3781554
cpu0_L1D LOAD         ACCESS:   92717080 HIT:   89605178 MISS:    3111902
cpu0_L1D RFO          ACCESS:          0 HIT:          0 MISS:          0
cpu0_L1D PREFETCH     ACCESS:          0 HIT:          0 MISS:          0
cpu0_L1D WRITE        ACCESS:   85491087 HIT:   84848554 MISS:     642533
cpu0_L1D TRANSLATION  ACCESS:      28533 HIT:       1414 MISS:      27119
cpu0_L1D PREFETCH REQUESTED:          0 ISSUED:          0 USEFUL:          0 USELESS:          0
cpu0_L1D AVERAGE MISS LATENCY: 49.01 cycles
cpu0_L1I TOTAL        ACCESS:   10521739 HIT:    8624976 MISS:    1896763
cpu0_L1I LOAD         ACCESS:   10521739 HIT:    8624976 MISS:    1896763
cpu0_L1I RFO          ACCESS:          0 HIT:          0 MISS:          0
cpu0_L1I PREFETCH     ACCESS:          0 HIT:          0 MISS:          0
cpu0_L1I WRITE        ACCESS:          0 HIT:          0 MISS:          0
cpu0_L1I TRANSLATION  ACCESS:          0 HIT:          0 MISS:          0
cpu0_L1I PREFETCH REQUESTED:          0 ISSUED:          0 USEFUL:          0 USELESS:          0
cpu0_L1I AVERAGE MISS LATENCY: 16.27 cycles
cpu0_L2C TOTAL        ACCESS:    3840386 HIT:    3183099 MISS:     657287
cpu0_L2C LOAD         ACCESS:    3103651 HIT:    2518893 MISS:     584758
cpu0_L2C RFO          ACCESS:     194990 HIT:     147731 MISS:      47259
cpu0_L2C PREFETCH     ACCESS:          0 HIT:          0 MISS:          0
cpu0_L2C WRITE        ACCESS:     514709 HIT:     511383 MISS:       3326
cpu0_L2C TRANSLATION  ACCESS:      27036 HIT:       5092 MISS:      21944
cpu0_L2C PREFETCH REQUESTED:          0 ISSUED:          0 USEFUL:          0 USELESS:          0
cpu0_L2C AVERAGE MISS LATENCY: 298.2 cycles
cpu0_STLB TOTAL        ACCESS:    1010020 HIT:     983326 MISS:      26694
cpu0_STLB LOAD         ACCESS:    1010020 HIT:     983326 MISS:      26694
cpu0_STLB RFO          ACCESS:          0 HIT:          0 MISS:          0
cpu0_STLB PREFETCH     ACCESS:          0 HIT:          0 MISS:          0
cpu0_STLB WRITE        ACCESS:          0 HIT:          0 MISS:          0
cpu0_STLB TRANSLATION  ACCESS:          0 HIT:          0 MISS:          0
cpu0_STLB PREFETCH REQUESTED:          0 ISSUED:          0 USEFUL:          0 USELESS:          0
cpu0_STLB AVERAGE MISS LATENCY: 511.8 cycles

DRAM Statistics

Channel 0 RQ ROW_BUFFER_HIT:      73399
  ROW_BUFFER_MISS:     269530
 AVG DBUS CONGESTED CYCLE: 3.797
WQ ROW_BUFFER_HIT: Channel 0 
  ROW_BUFFER_MISS:       8038
  FULL:      23269
