WARNING: physical memory size is smaller than virtual memory size.

*** ChampSim Multicore Out-of-Order Simulator ***
Warmup Instructions: 50000000
Simulation Instructions: 600000000
Number of CPUs: 1
Page size: 4096

Off-chip DRAM Size: 4 GiB Channels: 1 Width: 64-bit Data Race: 3200 MT/s
Heartbeat CPU 0 instructions: 10000000 cycles: 2500061 heartbeat IPC: 4 cumulative IPC: 4 (Simulation time: 00 hr 00 min 35 sec)
Heartbeat CPU 0 instructions: 20000000 cycles: 5000061 heartbeat IPC: 4 cumulative IPC: 4 (Simulation time: 00 hr 01 min 08 sec)
Heartbeat CPU 0 instructions: 30000000 cycles: 7500061 heartbeat IPC: 4 cumulative IPC: 4 (Simulation time: 00 hr 01 min 40 sec)
Heartbeat CPU 0 instructions: 40000000 cycles: 10000061 heartbeat IPC: 4 cumulative IPC: 4 (Simulation time: 00 hr 02 min 13 sec)
Heartbeat CPU 0 instructions: 50000000 cycles: 12500061 heartbeat IPC: 4 cumulative IPC: 4 (Simulation time: 00 hr 02 min 47 sec)
Warmup finished CPU 0 instructions: 50000000 cycles: 12500062 cumulative IPC: 4 (Simulation time: 00 hr 02 min 47 sec)
Warmup complete CPU 0 instructions: 50000000 cycles: 12500062 cumulative IPC: 4 (Simulation time: 00 hr 02 min 47 sec)
Heartbeat CPU 0 instructions: 60000002 cycles: 16435783 heartbeat IPC: 2.541 cumulative IPC: 2.541 (Simulation time: 00 hr 03 min 33 sec)
Heartbeat CPU 0 instructions: 70000003 cycles: 20749204 heartbeat IPC: 2.318 cumulative IPC: 2.424 (Simulation time: 00 hr 04 min 22 sec)
Heartbeat CPU 0 instructions: 80000003 cycles: 25212938 heartbeat IPC: 2.24 cumulative IPC: 2.36 (Simulation time: 00 hr 05 min 09 sec)
Heartbeat CPU 0 instructions: 90000000 cycles: 28902625 heartbeat IPC: 2.71 cumulative IPC: 2.439 (Simulation time: 00 hr 05 min 55 sec)
Heartbeat CPU 0 instructions: 100000003 cycles: 32797283 heartbeat IPC: 2.568 cumulative IPC: 2.463 (Simulation time: 00 hr 06 min 39 sec)
Heartbeat CPU 0 instructions: 110000002 cycles: 36888882 heartbeat IPC: 2.444 cumulative IPC: 2.46 (Simulation time: 00 hr 07 min 24 sec)
Heartbeat CPU 0 instructions: 120000001 cycles: 40602045 heartbeat IPC: 2.693 cumulative IPC: 2.491 (Simulation time: 00 hr 08 min 08 sec)
Heartbeat CPU 0 instructions: 130000003 cycles: 44366187 heartbeat IPC: 2.657 cumulative IPC: 2.511 (Simulation time: 00 hr 08 min 52 sec)
Heartbeat CPU 0 instructions: 140000002 cycles: 48491614 heartbeat IPC: 2.424 cumulative IPC: 2.501 (Simulation time: 00 hr 09 min 37 sec)
Heartbeat CPU 0 instructions: 150000001 cycles: 52535644 heartbeat IPC: 2.473 cumulative IPC: 2.498 (Simulation time: 00 hr 10 min 22 sec)
Heartbeat CPU 0 instructions: 160000000 cycles: 56184366 heartbeat IPC: 2.741 cumulative IPC: 2.518 (Simulation time: 00 hr 11 min 05 sec)
Heartbeat CPU 0 instructions: 170000001 cycles: 60350038 heartbeat IPC: 2.401 cumulative IPC: 2.508 (Simulation time: 00 hr 11 min 52 sec)
Heartbeat CPU 0 instructions: 180000001 cycles: 63805525 heartbeat IPC: 2.894 cumulative IPC: 2.534 (Simulation time: 00 hr 12 min 35 sec)
Heartbeat CPU 0 instructions: 190000002 cycles: 67382191 heartbeat IPC: 2.796 cumulative IPC: 2.551 (Simulation time: 00 hr 13 min 20 sec)
Heartbeat CPU 0 instructions: 200000002 cycles: 71153161 heartbeat IPC: 2.652 cumulative IPC: 2.557 (Simulation time: 00 hr 14 min 05 sec)
Heartbeat CPU 0 instructions: 210000000 cycles: 74788414 heartbeat IPC: 2.751 cumulative IPC: 2.569 (Simulation time: 00 hr 14 min 49 sec)
Heartbeat CPU 0 instructions: 220000001 cycles: 78657269 heartbeat IPC: 2.585 cumulative IPC: 2.57 (Simulation time: 00 hr 15 min 32 sec)
Heartbeat CPU 0 instructions: 230000002 cycles: 82494392 heartbeat IPC: 2.606 cumulative IPC: 2.572 (Simulation time: 00 hr 16 min 14 sec)
Heartbeat CPU 0 instructions: 240000001 cycles: 86697438 heartbeat IPC: 2.379 cumulative IPC: 2.561 (Simulation time: 00 hr 16 min 58 sec)
Heartbeat CPU 0 instructions: 250000003 cycles: 91259702 heartbeat IPC: 2.192 cumulative IPC: 2.539 (Simulation time: 00 hr 17 min 43 sec)
Heartbeat CPU 0 instructions: 260000000 cycles: 95056483 heartbeat IPC: 2.634 cumulative IPC: 2.544 (Simulation time: 00 hr 18 min 25 sec)
Heartbeat CPU 0 instructions: 270000003 cycles: 101845907 heartbeat IPC: 1.473 cumulative IPC: 2.462 (Simulation time: 00 hr 19 min 23 sec)
Heartbeat CPU 0 instructions: 280000000 cycles: 113517567 heartbeat IPC: 0.8568 cumulative IPC: 2.277 (Simulation time: 00 hr 20 min 48 sec)
Heartbeat CPU 0 instructions: 290000000 cycles: 124112133 heartbeat IPC: 0.9439 cumulative IPC: 2.15 (Simulation time: 00 hr 22 min 08 sec)
Heartbeat CPU 0 instructions: 300000003 cycles: 131751547 heartbeat IPC: 1.309 cumulative IPC: 2.096 (Simulation time: 00 hr 23 min 15 sec)
Heartbeat CPU 0 instructions: 310000004 cycles: 143465579 heartbeat IPC: 0.8537 cumulative IPC: 1.985 (Simulation time: 00 hr 24 min 41 sec)
Heartbeat CPU 0 instructions: 320000004 cycles: 148628197 heartbeat IPC: 1.937 cumulative IPC: 1.983 (Simulation time: 00 hr 25 min 33 sec)
Heartbeat CPU 0 instructions: 330000000 cycles: 152689542 heartbeat IPC: 2.462 cumulative IPC: 1.997 (Simulation time: 00 hr 26 min 17 sec)
Heartbeat CPU 0 instructions: 340000001 cycles: 156929937 heartbeat IPC: 2.358 cumulative IPC: 2.008 (Simulation time: 00 hr 27 min 01 sec)
Heartbeat CPU 0 instructions: 350000004 cycles: 161342431 heartbeat IPC: 2.266 cumulative IPC: 2.016 (Simulation time: 00 hr 27 min 47 sec)
Heartbeat CPU 0 instructions: 360000003 cycles: 165459922 heartbeat IPC: 2.429 cumulative IPC: 2.027 (Simulation time: 00 hr 28 min 32 sec)
Heartbeat CPU 0 instructions: 370000001 cycles: 169481455 heartbeat IPC: 2.487 cumulative IPC: 2.038 (Simulation time: 00 hr 29 min 18 sec)
Heartbeat CPU 0 instructions: 380000004 cycles: 173362657 heartbeat IPC: 2.577 cumulative IPC: 2.051 (Simulation time: 00 hr 30 min 05 sec)
Heartbeat CPU 0 instructions: 390000002 cycles: 177443356 heartbeat IPC: 2.451 cumulative IPC: 2.061 (Simulation time: 00 hr 30 min 52 sec)
Heartbeat CPU 0 instructions: 400000000 cycles: 181815412 heartbeat IPC: 2.287 cumulative IPC: 2.067 (Simulation time: 00 hr 31 min 41 sec)
Heartbeat CPU 0 instructions: 410000000 cycles: 189474438 heartbeat IPC: 1.306 cumulative IPC: 2.034 (Simulation time: 00 hr 32 min 50 sec)
Heartbeat CPU 0 instructions: 420000003 cycles: 200898806 heartbeat IPC: 0.8753 cumulative IPC: 1.964 (Simulation time: 00 hr 34 min 23 sec)
Heartbeat CPU 0 instructions: 430000000 cycles: 208443870 heartbeat IPC: 1.325 cumulative IPC: 1.939 (Simulation time: 00 hr 35 min 34 sec)
Heartbeat CPU 0 instructions: 440000004 cycles: 215432169 heartbeat IPC: 1.431 cumulative IPC: 1.922 (Simulation time: 00 hr 36 min 41 sec)
Heartbeat CPU 0 instructions: 450000001 cycles: 222265259 heartbeat IPC: 1.463 cumulative IPC: 1.907 (Simulation time: 00 hr 37 min 49 sec)
Heartbeat CPU 0 instructions: 460000002 cycles: 233854829 heartbeat IPC: 0.8628 cumulative IPC: 1.852 (Simulation time: 00 hr 39 min 23 sec)
Heartbeat CPU 0 instructions: 470000003 cycles: 243748675 heartbeat IPC: 1.011 cumulative IPC: 1.816 (Simulation time: 00 hr 40 min 47 sec)
Heartbeat CPU 0 instructions: 480000003 cycles: 248017246 heartbeat IPC: 2.343 cumulative IPC: 1.826 (Simulation time: 00 hr 41 min 36 sec)
Heartbeat CPU 0 instructions: 490000001 cycles: 252710779 heartbeat IPC: 2.131 cumulative IPC: 1.832 (Simulation time: 00 hr 42 min 27 sec)
Heartbeat CPU 0 instructions: 500000002 cycles: 257143009 heartbeat IPC: 2.256 cumulative IPC: 1.839 (Simulation time: 00 hr 43 min 16 sec)
Heartbeat CPU 0 instructions: 510000000 cycles: 261416067 heartbeat IPC: 2.34 cumulative IPC: 1.848 (Simulation time: 00 hr 44 min 06 sec)
Heartbeat CPU 0 instructions: 520000000 cycles: 265862858 heartbeat IPC: 2.249 cumulative IPC: 1.855 (Simulation time: 00 hr 44 min 56 sec)
Heartbeat CPU 0 instructions: 530000001 cycles: 277276805 heartbeat IPC: 0.8761 cumulative IPC: 1.813 (Simulation time: 00 hr 46 min 26 sec)
Heartbeat CPU 0 instructions: 540000000 cycles: 288635886 heartbeat IPC: 0.8804 cumulative IPC: 1.774 (Simulation time: 00 hr 47 min 56 sec)
Heartbeat CPU 0 instructions: 550000004 cycles: 301327590 heartbeat IPC: 0.7879 cumulative IPC: 1.731 (Simulation time: 00 hr 49 min 26 sec)
Heartbeat CPU 0 instructions: 560000004 cycles: 305609713 heartbeat IPC: 2.335 cumulative IPC: 1.74 (Simulation time: 00 hr 50 min 15 sec)
Heartbeat CPU 0 instructions: 570000001 cycles: 308738799 heartbeat IPC: 3.196 cumulative IPC: 1.755 (Simulation time: 00 hr 50 min 59 sec)
Heartbeat CPU 0 instructions: 580000003 cycles: 312286513 heartbeat IPC: 2.819 cumulative IPC: 1.768 (Simulation time: 00 hr 51 min 42 sec)
Heartbeat CPU 0 instructions: 590000002 cycles: 315911955 heartbeat IPC: 2.758 cumulative IPC: 1.78 (Simulation time: 00 hr 52 min 28 sec)
Heartbeat CPU 0 instructions: 600000003 cycles: 318980033 heartbeat IPC: 3.259 cumulative IPC: 1.795 (Simulation time: 00 hr 53 min 11 sec)
Heartbeat CPU 0 instructions: 610000001 cycles: 322490025 heartbeat IPC: 2.849 cumulative IPC: 1.807 (Simulation time: 00 hr 53 min 57 sec)
Heartbeat CPU 0 instructions: 620000000 cycles: 326506793 heartbeat IPC: 2.49 cumulative IPC: 1.815 (Simulation time: 00 hr 54 min 42 sec)
Heartbeat CPU 0 instructions: 630000002 cycles: 329871256 heartbeat IPC: 2.972 cumulative IPC: 1.828 (Simulation time: 00 hr 55 min 28 sec)
Heartbeat CPU 0 instructions: 640000004 cycles: 333879107 heartbeat IPC: 2.495 cumulative IPC: 1.836 (Simulation time: 00 hr 56 min 15 sec)
Heartbeat CPU 0 instructions: 650000001 cycles: 337699844 heartbeat IPC: 2.617 cumulative IPC: 1.845 (Simulation time: 00 hr 57 min 03 sec)
Simulation finished CPU 0 instructions: 600000001 cycles: 325199783 cumulative IPC: 1.845 (Simulation time: 00 hr 57 min 03 sec)
Simulation complete CPU 0 instructions: 600000001 cycles: 325199783 cumulative IPC: 1.845 (Simulation time: 00 hr 57 min 03 sec)

ChampSim completed all CPUs

=== Simulation ===
CPU 0 runs traces/400.perlbench-50B.champsimtrace.xz
Region of Interest Statistics

CPU 0 cumulative IPC: 1.845 instructions: 600000001 cycles: 325199783
CPU 0 Branch Prediction Accuracy: 96.2% MPKI: 7.839 Average ROB Occupancy at Mispredict: 43.6
Branch type MPKI
BRANCH_DIRECT_JUMP: 0.0176
BRANCH_INDIRECT: 0.38
BRANCH_CONDITIONAL: 6.99
BRANCH_DIRECT_CALL: 0.0067
BRANCH_INDIRECT_CALL: 0.431
BRANCH_RETURN: 0.0161

LLC TOTAL        ACCESS:    1350884 HIT:     837170 MISS:     513714
LLC LOAD         ACCESS:     577245 HIT:     351248 MISS:     225997
LLC RFO          ACCESS:      47315 HIT:      26356 MISS:      20959
LLC PREFETCH     ACCESS:     577245 HIT:     326752 MISS:     250493
LLC WRITE        ACCESS:     126997 HIT:     123845 MISS:       3152
LLC TRANSLATION  ACCESS:      22082 HIT:       8969 MISS:      13113
LLC PREFETCH REQUESTED:     577245 ISSUED:     577245 USEFUL:      85525 USELESS:     107523
LLC AVERAGE MISS LATENCY: 557.3 cycles
cpu0_DTLB TOTAL        ACCESS:  146504160 HIT:  145198301 MISS:    1305859
cpu0_DTLB LOAD         ACCESS:  146504160 HIT:  145198301 MISS:    1305859
cpu0_DTLB RFO          ACCESS:          0 HIT:          0 MISS:          0
cpu0_DTLB PREFETCH     ACCESS:          0 HIT:          0 MISS:          0
cpu0_DTLB WRITE        ACCESS:          0 HIT:          0 MISS:          0
cpu0_DTLB TRANSLATION  ACCESS:          0 HIT:          0 MISS:          0
cpu0_DTLB PREFETCH REQUESTED:          0 ISSUED:          0 USEFUL:          0 USELESS:          0
cpu0_DTLB AVERAGE MISS LATENCY: 13.25 cycles
cpu0_ITLB TOTAL        ACCESS:    8986599 HIT:    8802092 MISS:     184507
cpu0_ITLB LOAD         ACCESS:    8986599 HIT:    8802092 MISS:     184507
cpu0_ITLB RFO          ACCESS:          0 HIT:          0 MISS:          0
cpu0_ITLB PREFETCH     ACCESS:          0 HIT:          0 MISS:          0
cpu0_ITLB WRITE        ACCESS:          0 HIT:          0 MISS:          0
cpu0_ITLB TRANSLATION  ACCESS:          0 HIT:          0 MISS:          0
cpu0_ITLB PREFETCH REQUESTED:          0 ISSUED:          0 USEFUL:          0 USELESS:          0
cpu0_ITLB AVERAGE MISS LATENCY: 3.902 cycles
cpu0_L1D TOTAL        ACCESS:  193286424 HIT:  189621317 MISS:    3665107
cpu0_L1D LOAD         ACCESS:  107440373 HIT:  104429022 MISS:    3011351
cpu0_L1D RFO          ACCESS:          0 HIT:          0 MISS:          0
cpu0_L1D PREFETCH     ACCESS:          0 HIT:          0 MISS:          0
cpu0_L1D WRITE        ACCESS:   85817526 HIT:   85190866 MISS:     626660
cpu0_L1D TRANSLATION  ACCESS:      28525 HIT:       1429 MISS:      27096
cpu0_L1D PREFETCH REQUESTED:          0 ISSUED:          0 USEFUL:          0 USELESS:          0
cpu0_L1D AVERAGE MISS LATENCY: 47.89 cycles
cpu0_L1I TOTAL        ACCESS:   10421299 HIT:    8659572 MISS:    1761727
cpu0_L1I LOAD         ACCESS:   10421299 HIT:    8659572 MISS:    1761727
cpu0_L1I RFO          ACCESS:          0 HIT:          0 MISS:          0
cpu0_L1I PREFETCH     ACCESS:          0 HIT:          0 MISS:          0
cpu0_L1I WRITE        ACCESS:          0 HIT:          0 MISS:          0
cpu0_L1I TRANSLATION  ACCESS:          0 HIT:          0 MISS:          0
cpu0_L1I PREFETCH REQUESTED:          0 ISSUED:          0 USEFUL:          0 USELESS:          0
cpu0_L1I AVERAGE MISS LATENCY: 12.27 cycles
cpu0_L2C TOTAL        ACCESS:    3834545 HIT:    3184832 MISS:     649713
cpu0_L2C LOAD         ACCESS:    3104911 HIT:    2527666 MISS:     577245
cpu0_L2C RFO          ACCESS:     191547 HIT:     144231 MISS:      47316
cpu0_L2C PREFETCH     ACCESS:          0 HIT:          0 MISS:          0
cpu0_L2C WRITE        ACCESS:     511055 HIT:     507985 MISS:       3070
cpu0_L2C TRANSLATION  ACCESS:      27032 HIT:       4950 MISS:      22082
cpu0_L2C PREFETCH REQUESTED:          0 ISSUED:          0 USEFUL:          0 USELESS:          0
cpu0_L2C AVERAGE MISS LATENCY: 264.3 cycles
cpu0_STLB TOTAL        ACCESS:    1008553 HIT:     981859 MISS:      26694
cpu0_STLB LOAD         ACCESS:    1008553 HIT:     981859 MISS:      26694
cpu0_STLB RFO          ACCESS:          0 HIT:          0 MISS:          0
cpu0_STLB PREFETCH     ACCESS:          0 HIT:          0 MISS:          0
cpu0_STLB WRITE        ACCESS:          0 HIT:          0 MISS:          0
cpu0_STLB TRANSLATION  ACCESS:          0 HIT:          0 MISS:          0
cpu0_STLB PREFETCH REQUESTED:          0 ISSUED:          0 USEFUL:          0 USELESS:          0
cpu0_STLB AVERAGE MISS LATENCY: 433.8 cycles

DRAM Statistics

Channel 0 RQ ROW_BUFFER_HIT:      79622
  ROW_BUFFER_MISS:     357739
 AVG DBUS CONGESTED CYCLE: 3.877
WQ ROW_BUFFER_HIT: Channel 0 
  ROW_BUFFER_MISS:       7538
  FULL:      46450
