WARNING: physical memory size is smaller than virtual memory size.

*** ChampSim Multicore Out-of-Order Simulator ***
Warmup Instructions: 50000000
Simulation Instructions: 600000000
Number of CPUs: 1
Page size: 4096

Off-chip DRAM Size: 4 GiB Channels: 1 Width: 64-bit Data Race: 3200 MT/s
Heartbeat CPU 0 instructions: 10000000 cycles: 2500061 heartbeat IPC: 4 cumulative IPC: 4 (Simulation time: 00 hr 00 min 33 sec)
Heartbeat CPU 0 instructions: 20000000 cycles: 5000061 heartbeat IPC: 4 cumulative IPC: 4 (Simulation time: 00 hr 01 min 06 sec)
Heartbeat CPU 0 instructions: 30000000 cycles: 7500061 heartbeat IPC: 4 cumulative IPC: 4 (Simulation time: 00 hr 01 min 38 sec)
Heartbeat CPU 0 instructions: 40000000 cycles: 10000061 heartbeat IPC: 4 cumulative IPC: 4 (Simulation time: 00 hr 02 min 10 sec)
Heartbeat CPU 0 instructions: 50000000 cycles: 12500061 heartbeat IPC: 4 cumulative IPC: 4 (Simulation time: 00 hr 02 min 42 sec)
Warmup finished CPU 0 instructions: 50000000 cycles: 12500062 cumulative IPC: 4 (Simulation time: 00 hr 02 min 42 sec)
Warmup complete CPU 0 instructions: 50000000 cycles: 12500062 cumulative IPC: 4 (Simulation time: 00 hr 02 min 42 sec)
Heartbeat CPU 0 instructions: 60000002 cycles: 16446623 heartbeat IPC: 2.534 cumulative IPC: 2.534 (Simulation time: 00 hr 03 min 27 sec)
Heartbeat CPU 0 instructions: 70000003 cycles: 20770663 heartbeat IPC: 2.313 cumulative IPC: 2.418 (Simulation time: 00 hr 04 min 14 sec)
Heartbeat CPU 0 instructions: 80000003 cycles: 25247437 heartbeat IPC: 2.234 cumulative IPC: 2.353 (Simulation time: 00 hr 05 min 01 sec)
Heartbeat CPU 0 instructions: 90000000 cycles: 28939876 heartbeat IPC: 2.708 cumulative IPC: 2.433 (Simulation time: 00 hr 05 min 44 sec)
Heartbeat CPU 0 instructions: 100000003 cycles: 32843908 heartbeat IPC: 2.561 cumulative IPC: 2.458 (Simulation time: 00 hr 06 min 29 sec)
Heartbeat CPU 0 instructions: 110000002 cycles: 36950135 heartbeat IPC: 2.435 cumulative IPC: 2.454 (Simulation time: 00 hr 07 min 15 sec)
Heartbeat CPU 0 instructions: 120000001 cycles: 40668359 heartbeat IPC: 2.689 cumulative IPC: 2.485 (Simulation time: 00 hr 08 min 03 sec)
Heartbeat CPU 0 instructions: 130000003 cycles: 44444328 heartbeat IPC: 2.648 cumulative IPC: 2.504 (Simulation time: 00 hr 08 min 53 sec)
Heartbeat CPU 0 instructions: 140000002 cycles: 48579315 heartbeat IPC: 2.418 cumulative IPC: 2.495 (Simulation time: 00 hr 09 min 46 sec)
Heartbeat CPU 0 instructions: 150000001 cycles: 52632664 heartbeat IPC: 2.467 cumulative IPC: 2.492 (Simulation time: 00 hr 10 min 34 sec)
Heartbeat CPU 0 instructions: 160000000 cycles: 56291651 heartbeat IPC: 2.733 cumulative IPC: 2.512 (Simulation time: 00 hr 11 min 19 sec)
Heartbeat CPU 0 instructions: 170000001 cycles: 60472265 heartbeat IPC: 2.392 cumulative IPC: 2.501 (Simulation time: 00 hr 12 min 11 sec)
Heartbeat CPU 0 instructions: 180000001 cycles: 63937266 heartbeat IPC: 2.886 cumulative IPC: 2.527 (Simulation time: 00 hr 13 min 08 sec)
Heartbeat CPU 0 instructions: 190000002 cycles: 67527991 heartbeat IPC: 2.785 cumulative IPC: 2.544 (Simulation time: 00 hr 14 min 08 sec)
Heartbeat CPU 0 instructions: 200000002 cycles: 71313896 heartbeat IPC: 2.641 cumulative IPC: 2.55 (Simulation time: 00 hr 15 min 05 sec)
Heartbeat CPU 0 instructions: 210000000 cycles: 74955829 heartbeat IPC: 2.746 cumulative IPC: 2.562 (Simulation time: 00 hr 16 min 01 sec)
Heartbeat CPU 0 instructions: 220000001 cycles: 78831156 heartbeat IPC: 2.58 cumulative IPC: 2.563 (Simulation time: 00 hr 16 min 59 sec)
Heartbeat CPU 0 instructions: 230000002 cycles: 82674752 heartbeat IPC: 2.602 cumulative IPC: 2.565 (Simulation time: 00 hr 18 min 03 sec)
Heartbeat CPU 0 instructions: 240000001 cycles: 86887213 heartbeat IPC: 2.374 cumulative IPC: 2.554 (Simulation time: 00 hr 19 min 14 sec)
Heartbeat CPU 0 instructions: 250000003 cycles: 91460345 heartbeat IPC: 2.187 cumulative IPC: 2.533 (Simulation time: 00 hr 20 min 25 sec)
Heartbeat CPU 0 instructions: 260000000 cycles: 95258723 heartbeat IPC: 2.633 cumulative IPC: 2.537 (Simulation time: 00 hr 21 min 34 sec)
Heartbeat CPU 0 instructions: 270000003 cycles: 102491388 heartbeat IPC: 1.383 cumulative IPC: 2.445 (Simulation time: 00 hr 23 min 10 sec)
Heartbeat CPU 0 instructions: 280000000 cycles: 113964930 heartbeat IPC: 0.8716 cumulative IPC: 2.267 (Simulation time: 00 hr 25 min 17 sec)
Heartbeat CPU 0 instructions: 290000000 cycles: 124233322 heartbeat IPC: 0.9739 cumulative IPC: 2.148 (Simulation time: 00 hr 27 min 18 sec)
Heartbeat CPU 0 instructions: 300000003 cycles: 131715998 heartbeat IPC: 1.336 cumulative IPC: 2.097 (Simulation time: 00 hr 28 min 55 sec)
Heartbeat CPU 0 instructions: 310000004 cycles: 142592101 heartbeat IPC: 0.9194 cumulative IPC: 1.999 (Simulation time: 00 hr 31 min 00 sec)
Heartbeat CPU 0 instructions: 320000004 cycles: 147643985 heartbeat IPC: 1.979 cumulative IPC: 1.998 (Simulation time: 00 hr 32 min 16 sec)
Heartbeat CPU 0 instructions: 330000000 cycles: 151721907 heartbeat IPC: 2.452 cumulative IPC: 2.011 (Simulation time: 00 hr 33 min 20 sec)
Heartbeat CPU 0 instructions: 340000001 cycles: 156050212 heartbeat IPC: 2.31 cumulative IPC: 2.02 (Simulation time: 00 hr 34 min 24 sec)
Heartbeat CPU 0 instructions: 350000004 cycles: 160524782 heartbeat IPC: 2.235 cumulative IPC: 2.027 (Simulation time: 00 hr 35 min 31 sec)
Heartbeat CPU 0 instructions: 360000003 cycles: 164698342 heartbeat IPC: 2.396 cumulative IPC: 2.037 (Simulation time: 00 hr 36 min 40 sec)
Heartbeat CPU 0 instructions: 370000001 cycles: 168761811 heartbeat IPC: 2.461 cumulative IPC: 2.048 (Simulation time: 00 hr 37 min 45 sec)
Heartbeat CPU 0 instructions: 380000004 cycles: 172687859 heartbeat IPC: 2.547 cumulative IPC: 2.06 (Simulation time: 00 hr 38 min 48 sec)
Heartbeat CPU 0 instructions: 390000002 cycles: 176801261 heartbeat IPC: 2.431 cumulative IPC: 2.069 (Simulation time: 00 hr 39 min 52 sec)
Heartbeat CPU 0 instructions: 400000000 cycles: 181198898 heartbeat IPC: 2.274 cumulative IPC: 2.075 (Simulation time: 00 hr 40 min 57 sec)
Heartbeat CPU 0 instructions: 410000000 cycles: 189312413 heartbeat IPC: 1.233 cumulative IPC: 2.036 (Simulation time: 00 hr 42 min 35 sec)
Heartbeat CPU 0 instructions: 420000003 cycles: 200891597 heartbeat IPC: 0.8636 cumulative IPC: 1.964 (Simulation time: 00 hr 44 min 43 sec)
Heartbeat CPU 0 instructions: 430000000 cycles: 208927917 heartbeat IPC: 1.244 cumulative IPC: 1.935 (Simulation time: 00 hr 46 min 26 sec)
Heartbeat CPU 0 instructions: 440000004 cycles: 215751661 heartbeat IPC: 1.465 cumulative IPC: 1.919 (Simulation time: 00 hr 47 min 58 sec)
Heartbeat CPU 0 instructions: 450000001 cycles: 222654222 heartbeat IPC: 1.449 cumulative IPC: 1.903 (Simulation time: 00 hr 49 min 27 sec)
Heartbeat CPU 0 instructions: 460000002 cycles: 233587553 heartbeat IPC: 0.9146 cumulative IPC: 1.854 (Simulation time: 00 hr 51 min 22 sec)
Heartbeat CPU 0 instructions: 470000003 cycles: 243065071 heartbeat IPC: 1.055 cumulative IPC: 1.822 (Simulation time: 00 hr 53 min 11 sec)
Heartbeat CPU 0 instructions: 480000003 cycles: 247361379 heartbeat IPC: 2.328 cumulative IPC: 1.831 (Simulation time: 00 hr 54 min 16 sec)
Heartbeat CPU 0 instructions: 490000001 cycles: 252118091 heartbeat IPC: 2.102 cumulative IPC: 1.836 (Simulation time: 00 hr 55 min 25 sec)
Heartbeat CPU 0 instructions: 500000002 cycles: 256590334 heartbeat IPC: 2.236 cumulative IPC: 1.844 (Simulation time: 00 hr 56 min 31 sec)
Heartbeat CPU 0 instructions: 510000000 cycles: 260891229 heartbeat IPC: 2.325 cumulative IPC: 1.852 (Simulation time: 00 hr 57 min 42 sec)
Heartbeat CPU 0 instructions: 520000000 cycles: 265386557 heartbeat IPC: 2.225 cumulative IPC: 1.859 (Simulation time: 00 hr 59 min 12 sec)
Heartbeat CPU 0 instructions: 530000001 cycles: 277589553 heartbeat IPC: 0.8195 cumulative IPC: 1.811 (Simulation time: 01 hr 01 min 56 sec)
Heartbeat CPU 0 instructions: 540000000 cycles: 289272549 heartbeat IPC: 0.8559 cumulative IPC: 1.77 (Simulation time: 01 hr 04 min 17 sec)
Heartbeat CPU 0 instructions: 550000004 cycles: 302064575 heartbeat IPC: 0.7817 cumulative IPC: 1.727 (Simulation time: 01 hr 06 min 27 sec)
Heartbeat CPU 0 instructions: 560000004 cycles: 306282042 heartbeat IPC: 2.371 cumulative IPC: 1.736 (Simulation time: 01 hr 07 min 32 sec)
Heartbeat CPU 0 instructions: 570000001 cycles: 309412851 heartbeat IPC: 3.194 cumulative IPC: 1.751 (Simulation time: 01 hr 08 min 32 sec)
Heartbeat CPU 0 instructions: 580000003 cycles: 312963922 heartbeat IPC: 2.816 cumulative IPC: 1.764 (Simulation time: 01 hr 09 min 36 sec)
Heartbeat CPU 0 instructions: 590000002 cycles: 316590932 heartbeat IPC: 2.757 cumulative IPC: 1.776 (Simulation time: 01 hr 10 min 35 sec)
Heartbeat CPU 0 instructions: 600000003 cycles: 319659068 heartbeat IPC: 3.259 cumulative IPC: 1.791 (Simulation time: 01 hr 11 min 36 sec)
Heartbeat CPU 0 instructions: 610000001 cycles: 323170650 heartbeat IPC: 2.848 cumulative IPC: 1.803 (Simulation time: 01 hr 12 min 42 sec)
Heartbeat CPU 0 instructions: 620000000 cycles: 327189924 heartbeat IPC: 2.488 cumulative IPC: 1.811 (Simulation time: 01 hr 13 min 45 sec)
Heartbeat CPU 0 instructions: 630000002 cycles: 330557541 heartbeat IPC: 2.969 cumulative IPC: 1.824 (Simulation time: 01 hr 14 min 45 sec)
Heartbeat CPU 0 instructions: 640000004 cycles: 334572575 heartbeat IPC: 2.491 cumulative IPC: 1.832 (Simulation time: 01 hr 15 min 51 sec)
Heartbeat CPU 0 instructions: 650000001 cycles: 338397487 heartbeat IPC: 2.614 cumulative IPC: 1.841 (Simulation time: 01 hr 16 min 56 sec)
Simulation finished CPU 0 instructions: 600000001 cycles: 325897426 cumulative IPC: 1.841 (Simulation time: 01 hr 16 min 56 sec)
Simulation complete CPU 0 instructions: 600000001 cycles: 325897426 cumulative IPC: 1.841 (Simulation time: 01 hr 16 min 56 sec)

ChampSim completed all CPUs

=== Simulation ===
CPU 0 runs traces/400.perlbench-50B.champsimtrace.xz
Region of Interest Statistics

CPU 0 cumulative IPC: 1.841 instructions: 600000001 cycles: 325897426
CPU 0 Branch Prediction Accuracy: 96.2% MPKI: 7.839 Average ROB Occupancy at Mispredict: 43.8
Branch type MPKI
BRANCH_DIRECT_JUMP: 0.0176
BRANCH_INDIRECT: 0.38
BRANCH_CONDITIONAL: 6.99
BRANCH_DIRECT_CALL: 0.0067
BRANCH_INDIRECT_CALL: 0.431
BRANCH_RETURN: 0.0161

LLC TOTAL        ACCESS:     783122 HIT:     475908 MISS:     307214
LLC LOAD         ACCESS:     585246 HIT:     310590 MISS:     274656
LLC RFO          ACCESS:      47540 HIT:      27121 MISS:      20419
LLC PREFETCH     ACCESS:          0 HIT:          0 MISS:          0
LLC WRITE        ACCESS:     128245 HIT:     127891 MISS:        354
LLC TRANSLATION  ACCESS:      22091 HIT:      10306 MISS:      11785
LLC PREFETCH REQUESTED:          0 ISSUED:          0 USEFUL:          0 USELESS:          0
LLC AVERAGE MISS LATENCY: 548.1 cycles
cpu0_DTLB TOTAL        ACCESS:  146502821 HIT:  145196514 MISS:    1306307
cpu0_DTLB LOAD         ACCESS:  146502821 HIT:  145196514 MISS:    1306307
cpu0_DTLB RFO          ACCESS:          0 HIT:          0 MISS:          0
cpu0_DTLB PREFETCH     ACCESS:          0 HIT:          0 MISS:          0
cpu0_DTLB WRITE        ACCESS:          0 HIT:          0 MISS:          0
cpu0_DTLB TRANSLATION  ACCESS:          0 HIT:          0 MISS:          0
cpu0_DTLB PREFETCH REQUESTED:          0 ISSUED:          0 USEFUL:          0 USELESS:          0
cpu0_DTLB AVERAGE MISS LATENCY: 11.85 cycles
cpu0_ITLB TOTAL        ACCESS:    8990615 HIT:    8806034 MISS:     184581
cpu0_ITLB LOAD         ACCESS:    8990615 HIT:    8806034 MISS:     184581
cpu0_ITLB RFO          ACCESS:          0 HIT:          0 MISS:          0
cpu0_ITLB PREFETCH     ACCESS:          0 HIT:          0 MISS:          0
cpu0_ITLB WRITE        ACCESS:          0 HIT:          0 MISS:          0
cpu0_ITLB TRANSLATION  ACCESS:          0 HIT:          0 MISS:          0
cpu0_ITLB PREFETCH REQUESTED:          0 ISSUED:          0 USEFUL:          0 USELESS:          0
cpu0_ITLB AVERAGE MISS LATENCY: 3.552 cycles
cpu0_L1D TOTAL        ACCESS:  193267972 HIT:  189596594 MISS:    3671378
cpu0_L1D LOAD         ACCESS:  107422869 HIT:  104403095 MISS:    3019774
cpu0_L1D RFO          ACCESS:          0 HIT:          0 MISS:          0
cpu0_L1D PREFETCH     ACCESS:          0 HIT:          0 MISS:          0
cpu0_L1D WRITE        ACCESS:   85816578 HIT:   85192073 MISS:     624505
cpu0_L1D TRANSLATION  ACCESS:      28525 HIT:       1426 MISS:      27099
cpu0_L1D PREFETCH REQUESTED:          0 ISSUED:          0 USEFUL:          0 USELESS:          0
cpu0_L1D AVERAGE MISS LATENCY: 50.62 cycles
cpu0_L1I TOTAL        ACCESS:   10424535 HIT:    8662041 MISS:    1762494
cpu0_L1I LOAD         ACCESS:   10424535 HIT:    8662041 MISS:    1762494
cpu0_L1I RFO          ACCESS:          0 HIT:          0 MISS:          0
cpu0_L1I PREFETCH     ACCESS:          0 HIT:          0 MISS:          0
cpu0_L1I WRITE        ACCESS:          0 HIT:          0 MISS:          0
cpu0_L1I TRANSLATION  ACCESS:          0 HIT:          0 MISS:          0
cpu0_L1I PREFETCH REQUESTED:          0 ISSUED:          0 USEFUL:          0 USELESS:          0
cpu0_L1I AVERAGE MISS LATENCY: 11.71 cycles
cpu0_L2C TOTAL        ACCESS:    3834549 HIT:    3176471 MISS:     658078
cpu0_L2C LOAD         ACCESS:    3104887 HIT:    2519641 MISS:     585246
cpu0_L2C RFO          ACCESS:     191576 HIT:     144036 MISS:      47540
cpu0_L2C PREFETCH     ACCESS:          0 HIT:          0 MISS:          0
cpu0_L2C WRITE        ACCESS:     511050 HIT:     507849 MISS:       3201
cpu0_L2C TRANSLATION  ACCESS:      27036 HIT:       4945 MISS:      22091
cpu0_L2C PREFETCH REQUESTED:          0 ISSUED:          0 USEFUL:          0 USELESS:          0
cpu0_L2C AVERAGE MISS LATENCY: 276.2 cycles
cpu0_STLB TOTAL        ACCESS:    1008819 HIT:     982125 MISS:      26694
cpu0_STLB LOAD         ACCESS:    1008819 HIT:     982125 MISS:      26694
cpu0_STLB RFO          ACCESS:          0 HIT:          0 MISS:          0
cpu0_STLB PREFETCH     ACCESS:          0 HIT:          0 MISS:          0
cpu0_STLB WRITE        ACCESS:          0 HIT:          0 MISS:          0
cpu0_STLB TRANSLATION  ACCESS:          0 HIT:          0 MISS:          0
cpu0_STLB PREFETCH REQUESTED:          0 ISSUED:          0 USEFUL:          0 USELESS:          0
cpu0_STLB AVERAGE MISS LATENCY: 362.1 cycles

DRAM Statistics

Channel 0 RQ ROW_BUFFER_HIT:      55911
  ROW_BUFFER_MISS:     250898
 AVG DBUS CONGESTED CYCLE: 3.804
WQ ROW_BUFFER_HIT: Channel 0 
  ROW_BUFFER_MISS:       8672
  FULL:      39225
