WARNING: physical memory size is smaller than virtual memory size.

*** ChampSim Multicore Out-of-Order Simulator ***
Warmup Instructions: 50000000
Simulation Instructions: 600000000
Number of CPUs: 1
Page size: 4096

Off-chip DRAM Size: 4 GiB Channels: 1 Width: 64-bit Data Race: 3200 MT/s
Heartbeat CPU 0 instructions: 10000001 cycles: 2500318 heartbeat IPC: 3.999 cumulative IPC: 3.999 (Simulation time: 00 hr 00 min 47 sec)
Heartbeat CPU 0 instructions: 20000002 cycles: 5037128 heartbeat IPC: 3.942 cumulative IPC: 3.971 (Simulation time: 00 hr 01 min 39 sec)
Heartbeat CPU 0 instructions: 30000002 cycles: 7537128 heartbeat IPC: 4 cumulative IPC: 3.98 (Simulation time: 00 hr 02 min 25 sec)
Heartbeat CPU 0 instructions: 40000002 cycles: 10037128 heartbeat IPC: 4 cumulative IPC: 3.985 (Simulation time: 00 hr 03 min 13 sec)
Heartbeat CPU 0 instructions: 50000002 cycles: 12537128 heartbeat IPC: 4 cumulative IPC: 3.988 (Simulation time: 00 hr 04 min 01 sec)
Warmup finished CPU 0 instructions: 50000002 cycles: 12537129 cumulative IPC: 3.988 (Simulation time: 00 hr 04 min 01 sec)
Warmup complete CPU 0 instructions: 50000002 cycles: 12537129 cumulative IPC: 3.988 (Simulation time: 00 hr 04 min 01 sec)
Heartbeat CPU 0 instructions: 60000000 cycles: 17718729 heartbeat IPC: 1.93 cumulative IPC: 1.93 (Simulation time: 00 hr 05 min 26 sec)
Heartbeat CPU 0 instructions: 70000002 cycles: 22624878 heartbeat IPC: 2.038 cumulative IPC: 1.983 (Simulation time: 00 hr 06 min 50 sec)
Heartbeat CPU 0 instructions: 80000001 cycles: 28003014 heartbeat IPC: 1.859 cumulative IPC: 1.94 (Simulation time: 00 hr 08 min 10 sec)
Heartbeat CPU 0 instructions: 90000001 cycles: 32896210 heartbeat IPC: 2.044 cumulative IPC: 1.965 (Simulation time: 00 hr 09 min 21 sec)
Heartbeat CPU 0 instructions: 100000000 cycles: 38020510 heartbeat IPC: 1.951 cumulative IPC: 1.962 (Simulation time: 00 hr 10 min 32 sec)
Heartbeat CPU 0 instructions: 110000000 cycles: 42919999 heartbeat IPC: 2.041 cumulative IPC: 1.975 (Simulation time: 00 hr 11 min 39 sec)
Heartbeat CPU 0 instructions: 120000001 cycles: 48124590 heartbeat IPC: 1.921 cumulative IPC: 1.967 (Simulation time: 00 hr 12 min 51 sec)
Heartbeat CPU 0 instructions: 130000001 cycles: 53294598 heartbeat IPC: 1.934 cumulative IPC: 1.963 (Simulation time: 00 hr 14 min 02 sec)
Heartbeat CPU 0 instructions: 140000001 cycles: 58621395 heartbeat IPC: 1.877 cumulative IPC: 1.953 (Simulation time: 00 hr 15 min 11 sec)
Heartbeat CPU 0 instructions: 150000001 cycles: 63954451 heartbeat IPC: 1.875 cumulative IPC: 1.945 (Simulation time: 00 hr 16 min 20 sec)
Heartbeat CPU 0 instructions: 160000004 cycles: 69175278 heartbeat IPC: 1.915 cumulative IPC: 1.942 (Simulation time: 00 hr 17 min 28 sec)
Heartbeat CPU 0 instructions: 170000000 cycles: 79210450 heartbeat IPC: 0.9965 cumulative IPC: 1.8 (Simulation time: 00 hr 19 min 20 sec)
Heartbeat CPU 0 instructions: 180000004 cycles: 89724038 heartbeat IPC: 0.9512 cumulative IPC: 1.684 (Simulation time: 00 hr 21 min 36 sec)
Heartbeat CPU 0 instructions: 190000001 cycles: 100419832 heartbeat IPC: 0.9349 cumulative IPC: 1.593 (Simulation time: 00 hr 23 min 36 sec)
Heartbeat CPU 0 instructions: 200000003 cycles: 105194199 heartbeat IPC: 2.095 cumulative IPC: 1.619 (Simulation time: 00 hr 24 min 44 sec)
Heartbeat CPU 0 instructions: 210000001 cycles: 110119306 heartbeat IPC: 2.03 cumulative IPC: 1.64 (Simulation time: 00 hr 25 min 51 sec)
Heartbeat CPU 0 instructions: 220000000 cycles: 114949882 heartbeat IPC: 2.07 cumulative IPC: 1.66 (Simulation time: 00 hr 26 min 58 sec)
Heartbeat CPU 0 instructions: 230000002 cycles: 120278005 heartbeat IPC: 1.877 cumulative IPC: 1.671 (Simulation time: 00 hr 28 min 11 sec)
Heartbeat CPU 0 instructions: 240000000 cycles: 125129178 heartbeat IPC: 2.061 cumulative IPC: 1.688 (Simulation time: 00 hr 29 min 20 sec)
Heartbeat CPU 0 instructions: 250000000 cycles: 130288246 heartbeat IPC: 1.938 cumulative IPC: 1.698 (Simulation time: 00 hr 30 min 29 sec)
Heartbeat CPU 0 instructions: 260000000 cycles: 135326118 heartbeat IPC: 1.985 cumulative IPC: 1.71 (Simulation time: 00 hr 31 min 34 sec)
Heartbeat CPU 0 instructions: 270000002 cycles: 140221908 heartbeat IPC: 2.043 cumulative IPC: 1.723 (Simulation time: 00 hr 32 min 40 sec)
Heartbeat CPU 0 instructions: 280000002 cycles: 145144229 heartbeat IPC: 2.032 cumulative IPC: 1.734 (Simulation time: 00 hr 33 min 59 sec)
Heartbeat CPU 0 instructions: 290000001 cycles: 150523051 heartbeat IPC: 1.859 cumulative IPC: 1.739 (Simulation time: 00 hr 35 min 22 sec)
Heartbeat CPU 0 instructions: 300000003 cycles: 155595427 heartbeat IPC: 1.971 cumulative IPC: 1.748 (Simulation time: 00 hr 36 min 42 sec)
Heartbeat CPU 0 instructions: 310000001 cycles: 160902667 heartbeat IPC: 1.884 cumulative IPC: 1.752 (Simulation time: 00 hr 38 min 02 sec)
Heartbeat CPU 0 instructions: 320000003 cycles: 166113259 heartbeat IPC: 1.919 cumulative IPC: 1.758 (Simulation time: 00 hr 39 min 15 sec)
Heartbeat CPU 0 instructions: 330000003 cycles: 171414791 heartbeat IPC: 1.886 cumulative IPC: 1.762 (Simulation time: 00 hr 40 min 26 sec)
Heartbeat CPU 0 instructions: 340000000 cycles: 181570354 heartbeat IPC: 0.9847 cumulative IPC: 1.716 (Simulation time: 00 hr 42 min 19 sec)
Heartbeat CPU 0 instructions: 350000000 cycles: 192723618 heartbeat IPC: 0.8966 cumulative IPC: 1.665 (Simulation time: 00 hr 44 min 22 sec)
Heartbeat CPU 0 instructions: 360000004 cycles: 203449553 heartbeat IPC: 0.9323 cumulative IPC: 1.624 (Simulation time: 00 hr 46 min 16 sec)
Heartbeat CPU 0 instructions: 370000000 cycles: 207867899 heartbeat IPC: 2.263 cumulative IPC: 1.638 (Simulation time: 00 hr 47 min 19 sec)
Heartbeat CPU 0 instructions: 380000001 cycles: 212794398 heartbeat IPC: 2.03 cumulative IPC: 1.648 (Simulation time: 00 hr 48 min 26 sec)
Heartbeat CPU 0 instructions: 390000002 cycles: 217622511 heartbeat IPC: 2.071 cumulative IPC: 1.658 (Simulation time: 00 hr 49 min 40 sec)
Heartbeat CPU 0 instructions: 400000004 cycles: 222557180 heartbeat IPC: 2.026 cumulative IPC: 1.667 (Simulation time: 00 hr 51 min 12 sec)
Heartbeat CPU 0 instructions: 410000000 cycles: 227287979 heartbeat IPC: 2.114 cumulative IPC: 1.676 (Simulation time: 00 hr 52 min 35 sec)
Heartbeat CPU 0 instructions: 420000000 cycles: 232402829 heartbeat IPC: 1.955 cumulative IPC: 1.683 (Simulation time: 00 hr 53 min 54 sec)
Heartbeat CPU 0 instructions: 430000001 cycles: 236872729 heartbeat IPC: 2.237 cumulative IPC: 1.694 (Simulation time: 00 hr 55 min 05 sec)
Heartbeat CPU 0 instructions: 440000000 cycles: 242235714 heartbeat IPC: 1.865 cumulative IPC: 1.698 (Simulation time: 00 hr 56 min 19 sec)
Heartbeat CPU 0 instructions: 450000002 cycles: 246909389 heartbeat IPC: 2.14 cumulative IPC: 1.707 (Simulation time: 00 hr 57 min 29 sec)
Heartbeat CPU 0 instructions: 460000000 cycles: 251712447 heartbeat IPC: 2.082 cumulative IPC: 1.714 (Simulation time: 00 hr 58 min 37 sec)
Heartbeat CPU 0 instructions: 470000000 cycles: 256698296 heartbeat IPC: 2.006 cumulative IPC: 1.72 (Simulation time: 00 hr 59 min 44 sec)
Heartbeat CPU 0 instructions: 480000003 cycles: 261487603 heartbeat IPC: 2.088 cumulative IPC: 1.727 (Simulation time: 01 hr 00 min 48 sec)
Heartbeat CPU 0 instructions: 490000000 cycles: 266105456 heartbeat IPC: 2.166 cumulative IPC: 1.735 (Simulation time: 01 hr 01 min 49 sec)
Heartbeat CPU 0 instructions: 500000000 cycles: 271134612 heartbeat IPC: 1.988 cumulative IPC: 1.74 (Simulation time: 01 hr 02 min 53 sec)
Heartbeat CPU 0 instructions: 510000003 cycles: 276757575 heartbeat IPC: 1.778 cumulative IPC: 1.741 (Simulation time: 01 hr 04 min 00 sec)
Heartbeat CPU 0 instructions: 520000001 cycles: 281455853 heartbeat IPC: 2.128 cumulative IPC: 1.748 (Simulation time: 01 hr 05 min 03 sec)
Heartbeat CPU 0 instructions: 530000002 cycles: 286599889 heartbeat IPC: 1.944 cumulative IPC: 1.751 (Simulation time: 01 hr 06 min 07 sec)
Heartbeat CPU 0 instructions: 540000000 cycles: 291720286 heartbeat IPC: 1.953 cumulative IPC: 1.755 (Simulation time: 01 hr 07 min 11 sec)
Heartbeat CPU 0 instructions: 550000001 cycles: 296534185 heartbeat IPC: 2.077 cumulative IPC: 1.761 (Simulation time: 01 hr 08 min 14 sec)
Heartbeat CPU 0 instructions: 560000000 cycles: 301751728 heartbeat IPC: 1.917 cumulative IPC: 1.763 (Simulation time: 01 hr 09 min 19 sec)
Heartbeat CPU 0 instructions: 570000004 cycles: 308865845 heartbeat IPC: 1.406 cumulative IPC: 1.755 (Simulation time: 01 hr 10 min 38 sec)
Heartbeat CPU 0 instructions: 580000003 cycles: 320468025 heartbeat IPC: 0.8619 cumulative IPC: 1.721 (Simulation time: 01 hr 12 min 34 sec)
Heartbeat CPU 0 instructions: 590000002 cycles: 333659015 heartbeat IPC: 0.7581 cumulative IPC: 1.682 (Simulation time: 01 hr 14 min 43 sec)
Heartbeat CPU 0 instructions: 600000000 cycles: 338222759 heartbeat IPC: 2.191 cumulative IPC: 1.689 (Simulation time: 01 hr 15 min 48 sec)
Heartbeat CPU 0 instructions: 610000002 cycles: 342716463 heartbeat IPC: 2.225 cumulative IPC: 1.696 (Simulation time: 01 hr 16 min 54 sec)
Heartbeat CPU 0 instructions: 620000000 cycles: 347524553 heartbeat IPC: 2.08 cumulative IPC: 1.702 (Simulation time: 01 hr 17 min 59 sec)
Heartbeat CPU 0 instructions: 630000002 cycles: 352610390 heartbeat IPC: 1.966 cumulative IPC: 1.706 (Simulation time: 01 hr 19 min 03 sec)
Heartbeat CPU 0 instructions: 640000001 cycles: 357463163 heartbeat IPC: 2.061 cumulative IPC: 1.711 (Simulation time: 01 hr 20 min 03 sec)
Heartbeat CPU 0 instructions: 650000000 cycles: 362019103 heartbeat IPC: 2.195 cumulative IPC: 1.717 (Simulation time: 01 hr 20 min 56 sec)
Simulation finished CPU 0 instructions: 600000001 cycles: 349481976 cumulative IPC: 1.717 (Simulation time: 01 hr 20 min 56 sec)
Simulation complete CPU 0 instructions: 600000001 cycles: 349481976 cumulative IPC: 1.717 (Simulation time: 01 hr 20 min 56 sec)

ChampSim completed all CPUs

=== Simulation ===
CPU 0 runs traces/400.perlbench-41B.champsimtrace.xz
Region of Interest Statistics

CPU 0 cumulative IPC: 1.717 instructions: 600000001 cycles: 349481976
CPU 0 Branch Prediction Accuracy: 93.95% MPKI: 12.5 Average ROB Occupancy at Mispredict: 29.69
Branch type MPKI
BRANCH_DIRECT_JUMP: 0.0123
BRANCH_INDIRECT: 0.323
BRANCH_CONDITIONAL: 12
BRANCH_DIRECT_CALL: 0.0043
BRANCH_INDIRECT_CALL: 0.2
BRANCH_RETURN: 0.00828

LLC TOTAL        ACCESS:     540257 HIT:     283870 MISS:     256387
LLC LOAD         ACCESS:     403071 HIT:     172081 MISS:     230990
LLC RFO          ACCESS:      32586 HIT:      17442 MISS:      15144
LLC PREFETCH     ACCESS:          0 HIT:          0 MISS:          0
LLC WRITE        ACCESS:      85583 HIT:      85248 MISS:        335
LLC TRANSLATION  ACCESS:      19017 HIT:       9099 MISS:       9918
LLC PREFETCH REQUESTED:          0 ISSUED:          0 USEFUL:          0 USELESS:          0
LLC AVERAGE MISS LATENCY: 564.1 cycles
cpu0_DTLB TOTAL        ACCESS:  153672552 HIT:  152994171 MISS:     678381
cpu0_DTLB LOAD         ACCESS:  153672552 HIT:  152994171 MISS:     678381
cpu0_DTLB RFO          ACCESS:          0 HIT:          0 MISS:          0
cpu0_DTLB PREFETCH     ACCESS:          0 HIT:          0 MISS:          0
cpu0_DTLB WRITE        ACCESS:          0 HIT:          0 MISS:          0
cpu0_DTLB TRANSLATION  ACCESS:          0 HIT:          0 MISS:          0
cpu0_DTLB PREFETCH REQUESTED:          0 ISSUED:          0 USEFUL:          0 USELESS:          0
cpu0_DTLB AVERAGE MISS LATENCY: 15.43 cycles
cpu0_ITLB TOTAL        ACCESS:    4835304 HIT:    4777455 MISS:      57849
cpu0_ITLB LOAD         ACCESS:    4835304 HIT:    4777455 MISS:      57849
cpu0_ITLB RFO          ACCESS:          0 HIT:          0 MISS:          0
cpu0_ITLB PREFETCH     ACCESS:          0 HIT:          0 MISS:          0
cpu0_ITLB WRITE        ACCESS:          0 HIT:          0 MISS:          0
cpu0_ITLB TRANSLATION  ACCESS:          0 HIT:          0 MISS:          0
cpu0_ITLB PREFETCH REQUESTED:          0 ISSUED:          0 USEFUL:          0 USELESS:          0
cpu0_ITLB AVERAGE MISS LATENCY: 7.268 cycles
cpu0_L1D TOTAL        ACCESS:  200275841 HIT:  198532151 MISS:    1743690
cpu0_L1D LOAD         ACCESS:  117033649 HIT:  115674152 MISS:    1359497
cpu0_L1D RFO          ACCESS:          0 HIT:          0 MISS:          0
cpu0_L1D PREFETCH     ACCESS:          0 HIT:          0 MISS:          0
cpu0_L1D WRITE        ACCESS:   83217731 HIT:   82856962 MISS:     360769
cpu0_L1D TRANSLATION  ACCESS:      24461 HIT:       1037 MISS:      23424
cpu0_L1D PREFETCH REQUESTED:          0 ISSUED:          0 USEFUL:          0 USELESS:          0
cpu0_L1D AVERAGE MISS LATENCY: 88.25 cycles
cpu0_L1I TOTAL        ACCESS:    5577917 HIT:    4816354 MISS:     761563
cpu0_L1I LOAD         ACCESS:    5577917 HIT:    4816354 MISS:     761563
cpu0_L1I RFO          ACCESS:          0 HIT:          0 MISS:          0
cpu0_L1I PREFETCH     ACCESS:          0 HIT:          0 MISS:          0
cpu0_L1I WRITE        ACCESS:          0 HIT:          0 MISS:          0
cpu0_L1I TRANSLATION  ACCESS:          0 HIT:          0 MISS:          0
cpu0_L1I PREFETCH REQUESTED:          0 ISSUED:          0 USEFUL:          0 USELESS:          0
cpu0_L1I AVERAGE MISS LATENCY: 11.98 cycles
cpu0_L2C TOTAL        ACCESS:    1667870 HIT:    1211419 MISS:     456451
cpu0_L2C LOAD         ACCESS:    1317034 HIT:     913963 MISS:     403071
cpu0_L2C RFO          ACCESS:      88630 HIT:      56044 MISS:      32586
cpu0_L2C PREFETCH     ACCESS:          0 HIT:          0 MISS:          0
cpu0_L2C WRITE        ACCESS:     238864 HIT:     237087 MISS:       1777
cpu0_L2C TRANSLATION  ACCESS:      23342 HIT:       4325 MISS:      19017
cpu0_L2C PREFETCH REQUESTED:          0 ISSUED:          0 USEFUL:          0 USELESS:          0
cpu0_L2C AVERAGE MISS LATENCY: 337.4 cycles
cpu0_STLB TOTAL        ACCESS:     505246 HIT:     482456 MISS:      22790
cpu0_STLB LOAD         ACCESS:     505246 HIT:     482456 MISS:      22790
cpu0_STLB RFO          ACCESS:          0 HIT:          0 MISS:          0
cpu0_STLB PREFETCH     ACCESS:          0 HIT:          0 MISS:          0
cpu0_STLB WRITE        ACCESS:          0 HIT:          0 MISS:          0
cpu0_STLB TRANSLATION  ACCESS:          0 HIT:          0 MISS:          0
cpu0_STLB PREFETCH REQUESTED:          0 ISSUED:          0 USEFUL:          0 USELESS:          0
cpu0_STLB AVERAGE MISS LATENCY: 338.1 cycles

DRAM Statistics

Channel 0 RQ ROW_BUFFER_HIT:      41560
  ROW_BUFFER_MISS:     214477
 AVG DBUS CONGESTED CYCLE: 3.805
WQ ROW_BUFFER_HIT: Channel 0 
  ROW_BUFFER_MISS:       7731
  FULL:      31089
