WARNING: physical memory size is smaller than virtual memory size.

*** ChampSim Multicore Out-of-Order Simulator ***
Warmup Instructions: 50000000
Simulation Instructions: 600000000
Number of CPUs: 1
Page size: 4096

Off-chip DRAM Size: 4 GiB Channels: 1 Width: 64-bit Data Race: 3200 MT/s
Heartbeat CPU 0 instructions: 10000000 cycles: 2500061 heartbeat IPC: 4 cumulative IPC: 4 (Simulation time: 00 hr 00 min 28 sec)
Heartbeat CPU 0 instructions: 20000000 cycles: 5000061 heartbeat IPC: 4 cumulative IPC: 4 (Simulation time: 00 hr 00 min 58 sec)
Heartbeat CPU 0 instructions: 30000000 cycles: 7500061 heartbeat IPC: 4 cumulative IPC: 4 (Simulation time: 00 hr 01 min 31 sec)
Heartbeat CPU 0 instructions: 40000000 cycles: 10000061 heartbeat IPC: 4 cumulative IPC: 4 (Simulation time: 00 hr 02 min 04 sec)
Heartbeat CPU 0 instructions: 50000000 cycles: 12500061 heartbeat IPC: 4 cumulative IPC: 4 (Simulation time: 00 hr 02 min 36 sec)
Warmup finished CPU 0 instructions: 50000000 cycles: 12500062 cumulative IPC: 4 (Simulation time: 00 hr 02 min 36 sec)
Warmup complete CPU 0 instructions: 50000000 cycles: 12500062 cumulative IPC: 4 (Simulation time: 00 hr 02 min 36 sec)
Heartbeat CPU 0 instructions: 60000002 cycles: 16897168 heartbeat IPC: 2.274 cumulative IPC: 2.274 (Simulation time: 00 hr 03 min 23 sec)
Heartbeat CPU 0 instructions: 70000003 cycles: 21874323 heartbeat IPC: 2.009 cumulative IPC: 2.134 (Simulation time: 00 hr 04 min 12 sec)
Heartbeat CPU 0 instructions: 80000001 cycles: 27217652 heartbeat IPC: 1.871 cumulative IPC: 2.038 (Simulation time: 00 hr 05 min 03 sec)
Heartbeat CPU 0 instructions: 90000000 cycles: 31512174 heartbeat IPC: 2.329 cumulative IPC: 2.104 (Simulation time: 00 hr 05 min 49 sec)
Heartbeat CPU 0 instructions: 100000003 cycles: 36360283 heartbeat IPC: 2.063 cumulative IPC: 2.096 (Simulation time: 00 hr 06 min 38 sec)
Heartbeat CPU 0 instructions: 110000002 cycles: 41223823 heartbeat IPC: 2.056 cumulative IPC: 2.089 (Simulation time: 00 hr 07 min 27 sec)
Heartbeat CPU 0 instructions: 120000001 cycles: 46216185 heartbeat IPC: 2.003 cumulative IPC: 2.076 (Simulation time: 00 hr 08 min 18 sec)
Heartbeat CPU 0 instructions: 130000003 cycles: 50774641 heartbeat IPC: 2.194 cumulative IPC: 2.09 (Simulation time: 00 hr 09 min 06 sec)
Heartbeat CPU 0 instructions: 140000002 cycles: 55657510 heartbeat IPC: 2.048 cumulative IPC: 2.085 (Simulation time: 00 hr 09 min 55 sec)
Heartbeat CPU 0 instructions: 150000001 cycles: 60315892 heartbeat IPC: 2.147 cumulative IPC: 2.091 (Simulation time: 00 hr 10 min 44 sec)
Heartbeat CPU 0 instructions: 160000000 cycles: 64944975 heartbeat IPC: 2.16 cumulative IPC: 2.097 (Simulation time: 00 hr 11 min 33 sec)
Heartbeat CPU 0 instructions: 170000000 cycles: 70269954 heartbeat IPC: 1.878 cumulative IPC: 2.077 (Simulation time: 00 hr 12 min 26 sec)
Heartbeat CPU 0 instructions: 180000001 cycles: 75985254 heartbeat IPC: 1.75 cumulative IPC: 2.048 (Simulation time: 00 hr 13 min 21 sec)
Heartbeat CPU 0 instructions: 190000002 cycles: 80447209 heartbeat IPC: 2.241 cumulative IPC: 2.06 (Simulation time: 00 hr 14 min 09 sec)
Heartbeat CPU 0 instructions: 200000002 cycles: 85338937 heartbeat IPC: 2.044 cumulative IPC: 2.059 (Simulation time: 00 hr 14 min 59 sec)
Heartbeat CPU 0 instructions: 210000000 cycles: 90338145 heartbeat IPC: 2 cumulative IPC: 2.056 (Simulation time: 00 hr 15 min 48 sec)
Heartbeat CPU 0 instructions: 220000001 cycles: 95259786 heartbeat IPC: 2.032 cumulative IPC: 2.054 (Simulation time: 00 hr 16 min 38 sec)
Heartbeat CPU 0 instructions: 230000002 cycles: 100498032 heartbeat IPC: 1.909 cumulative IPC: 2.046 (Simulation time: 00 hr 17 min 29 sec)
Heartbeat CPU 0 instructions: 240000001 cycles: 105458360 heartbeat IPC: 2.016 cumulative IPC: 2.044 (Simulation time: 00 hr 18 min 18 sec)
Heartbeat CPU 0 instructions: 250000003 cycles: 110631948 heartbeat IPC: 1.933 cumulative IPC: 2.038 (Simulation time: 00 hr 19 min 08 sec)
Heartbeat CPU 0 instructions: 260000001 cycles: 115497091 heartbeat IPC: 2.055 cumulative IPC: 2.039 (Simulation time: 00 hr 19 min 57 sec)
Heartbeat CPU 0 instructions: 270000000 cycles: 123359249 heartbeat IPC: 1.272 cumulative IPC: 1.984 (Simulation time: 00 hr 21 min 03 sec)
Heartbeat CPU 0 instructions: 280000000 cycles: 137989829 heartbeat IPC: 0.6835 cumulative IPC: 1.833 (Simulation time: 00 hr 22 min 47 sec)
Heartbeat CPU 0 instructions: 290000001 cycles: 154661144 heartbeat IPC: 0.5998 cumulative IPC: 1.688 (Simulation time: 00 hr 24 min 43 sec)
Heartbeat CPU 0 instructions: 300000003 cycles: 165390494 heartbeat IPC: 0.932 cumulative IPC: 1.635 (Simulation time: 00 hr 26 min 11 sec)
Heartbeat CPU 0 instructions: 310000004 cycles: 180439891 heartbeat IPC: 0.6645 cumulative IPC: 1.548 (Simulation time: 00 hr 28 min 03 sec)
Heartbeat CPU 0 instructions: 320000004 cycles: 187721632 heartbeat IPC: 1.373 cumulative IPC: 1.541 (Simulation time: 00 hr 29 min 09 sec)
Heartbeat CPU 0 instructions: 330000000 cycles: 192999228 heartbeat IPC: 1.895 cumulative IPC: 1.551 (Simulation time: 00 hr 30 min 02 sec)
Heartbeat CPU 0 instructions: 340000001 cycles: 198077686 heartbeat IPC: 1.969 cumulative IPC: 1.563 (Simulation time: 00 hr 30 min 54 sec)
Heartbeat CPU 0 instructions: 350000000 cycles: 203177298 heartbeat IPC: 1.961 cumulative IPC: 1.573 (Simulation time: 00 hr 31 min 46 sec)
Heartbeat CPU 0 instructions: 360000003 cycles: 208007280 heartbeat IPC: 2.07 cumulative IPC: 1.586 (Simulation time: 00 hr 32 min 36 sec)
Heartbeat CPU 0 instructions: 370000001 cycles: 212690139 heartbeat IPC: 2.135 cumulative IPC: 1.598 (Simulation time: 00 hr 33 min 25 sec)
Heartbeat CPU 0 instructions: 380000004 cycles: 217675043 heartbeat IPC: 2.006 cumulative IPC: 1.608 (Simulation time: 00 hr 34 min 17 sec)
Heartbeat CPU 0 instructions: 390000002 cycles: 222804521 heartbeat IPC: 1.95 cumulative IPC: 1.617 (Simulation time: 00 hr 35 min 09 sec)
Heartbeat CPU 0 instructions: 400000000 cycles: 228108363 heartbeat IPC: 1.885 cumulative IPC: 1.623 (Simulation time: 00 hr 36 min 02 sec)
Heartbeat CPU 0 instructions: 410000000 cycles: 238517082 heartbeat IPC: 0.9607 cumulative IPC: 1.593 (Simulation time: 00 hr 37 min 25 sec)
Heartbeat CPU 0 instructions: 420000001 cycles: 253935263 heartbeat IPC: 0.6486 cumulative IPC: 1.533 (Simulation time: 00 hr 39 min 13 sec)
Heartbeat CPU 0 instructions: 430000000 cycles: 264408362 heartbeat IPC: 0.9548 cumulative IPC: 1.508 (Simulation time: 00 hr 40 min 37 sec)
Heartbeat CPU 0 instructions: 440000002 cycles: 275515945 heartbeat IPC: 0.9003 cumulative IPC: 1.483 (Simulation time: 00 hr 42 min 05 sec)
Heartbeat CPU 0 instructions: 450000000 cycles: 286634809 heartbeat IPC: 0.8994 cumulative IPC: 1.459 (Simulation time: 00 hr 43 min 35 sec)
Heartbeat CPU 0 instructions: 460000002 cycles: 305010651 heartbeat IPC: 0.5442 cumulative IPC: 1.402 (Simulation time: 00 hr 45 min 45 sec)
Heartbeat CPU 0 instructions: 470000000 cycles: 317996917 heartbeat IPC: 0.77 cumulative IPC: 1.375 (Simulation time: 00 hr 47 min 24 sec)
Heartbeat CPU 0 instructions: 480000000 cycles: 323559290 heartbeat IPC: 1.798 cumulative IPC: 1.382 (Simulation time: 00 hr 48 min 19 sec)
Heartbeat CPU 0 instructions: 490000001 cycles: 328465231 heartbeat IPC: 2.038 cumulative IPC: 1.393 (Simulation time: 00 hr 49 min 09 sec)
Heartbeat CPU 0 instructions: 500000002 cycles: 333413942 heartbeat IPC: 2.021 cumulative IPC: 1.402 (Simulation time: 00 hr 49 min 58 sec)
Heartbeat CPU 0 instructions: 510000000 cycles: 338345949 heartbeat IPC: 2.028 cumulative IPC: 1.412 (Simulation time: 00 hr 50 min 50 sec)
Heartbeat CPU 0 instructions: 520000000 cycles: 343487877 heartbeat IPC: 1.945 cumulative IPC: 1.42 (Simulation time: 00 hr 51 min 42 sec)
Heartbeat CPU 0 instructions: 530000001 cycles: 359293663 heartbeat IPC: 0.6327 cumulative IPC: 1.384 (Simulation time: 00 hr 53 min 33 sec)
Heartbeat CPU 0 instructions: 540000000 cycles: 375589228 heartbeat IPC: 0.6137 cumulative IPC: 1.35 (Simulation time: 00 hr 55 min 34 sec)
Heartbeat CPU 0 instructions: 550000002 cycles: 394723127 heartbeat IPC: 0.5226 cumulative IPC: 1.308 (Simulation time: 00 hr 57 min 46 sec)
Heartbeat CPU 0 instructions: 560000004 cycles: 400101913 heartbeat IPC: 1.859 cumulative IPC: 1.316 (Simulation time: 00 hr 58 min 43 sec)
Heartbeat CPU 0 instructions: 570000001 cycles: 404521531 heartbeat IPC: 2.263 cumulative IPC: 1.326 (Simulation time: 00 hr 59 min 32 sec)
Heartbeat CPU 0 instructions: 580000003 cycles: 408766026 heartbeat IPC: 2.356 cumulative IPC: 1.337 (Simulation time: 01 hr 00 min 18 sec)
Heartbeat CPU 0 instructions: 590000001 cycles: 413671447 heartbeat IPC: 2.039 cumulative IPC: 1.346 (Simulation time: 01 hr 01 min 11 sec)
Heartbeat CPU 0 instructions: 600000003 cycles: 418313246 heartbeat IPC: 2.154 cumulative IPC: 1.355 (Simulation time: 01 hr 02 min 01 sec)
Heartbeat CPU 0 instructions: 610000001 cycles: 423179255 heartbeat IPC: 2.055 cumulative IPC: 1.364 (Simulation time: 01 hr 02 min 51 sec)
Heartbeat CPU 0 instructions: 620000000 cycles: 428248325 heartbeat IPC: 1.973 cumulative IPC: 1.371 (Simulation time: 01 hr 03 min 44 sec)
Heartbeat CPU 0 instructions: 630000002 cycles: 432493521 heartbeat IPC: 2.356 cumulative IPC: 1.381 (Simulation time: 01 hr 04 min 32 sec)
Heartbeat CPU 0 instructions: 640000004 cycles: 437798745 heartbeat IPC: 1.885 cumulative IPC: 1.387 (Simulation time: 01 hr 05 min 25 sec)
Heartbeat CPU 0 instructions: 650000001 cycles: 442553410 heartbeat IPC: 2.103 cumulative IPC: 1.395 (Simulation time: 01 hr 06 min 11 sec)
Simulation finished CPU 0 instructions: 600000001 cycles: 430053349 cumulative IPC: 1.395 (Simulation time: 01 hr 06 min 11 sec)
Simulation complete CPU 0 instructions: 600000001 cycles: 430053349 cumulative IPC: 1.395 (Simulation time: 01 hr 06 min 11 sec)

ChampSim completed all CPUs

=== Simulation ===
CPU 0 runs traces/400.perlbench-50B.champsimtrace.xz
Region of Interest Statistics

CPU 0 cumulative IPC: 1.395 instructions: 600000001 cycles: 430053349
CPU 0 Branch Prediction Accuracy: 93.83% MPKI: 12.71 Average ROB Occupancy at Mispredict: 29.92
Branch type MPKI
BRANCH_DIRECT_JUMP: 0.0176
BRANCH_INDIRECT: 0.38
BRANCH_CONDITIONAL: 11.9
BRANCH_DIRECT_CALL: 0.0067
BRANCH_INDIRECT_CALL: 0.431
BRANCH_RETURN: 0.0161

LLC TOTAL        ACCESS:    1358587 HIT:     453942 MISS:     904645
LLC LOAD         ACCESS:     581112 HIT:     215845 MISS:     365267
LLC RFO          ACCESS:      47359 HIT:      15857 MISS:      31502
LLC PREFETCH     ACCESS:     581112 HIT:     187816 MISS:     393296
LLC WRITE        ACCESS:     127017 HIT:      32996 MISS:      94021
LLC TRANSLATION  ACCESS:      21987 HIT:       1428 MISS:      20559
LLC PREFETCH REQUESTED:     581112 ISSUED:     581112 USEFUL:     112955 USELESS:     200392
LLC AVERAGE MISS LATENCY: 534 cycles
cpu0_DTLB TOTAL        ACCESS:  156748738 HIT:  155444620 MISS:    1304118
cpu0_DTLB LOAD         ACCESS:  156748738 HIT:  155444620 MISS:    1304118
cpu0_DTLB RFO          ACCESS:          0 HIT:          0 MISS:          0
cpu0_DTLB PREFETCH     ACCESS:          0 HIT:          0 MISS:          0
cpu0_DTLB WRITE        ACCESS:          0 HIT:          0 MISS:          0
cpu0_DTLB TRANSLATION  ACCESS:          0 HIT:          0 MISS:          0
cpu0_DTLB PREFETCH REQUESTED:          0 ISSUED:          0 USEFUL:          0 USELESS:          0
cpu0_DTLB AVERAGE MISS LATENCY: 18.01 cycles
cpu0_ITLB TOTAL        ACCESS:    8931603 HIT:    8733181 MISS:     198422
cpu0_ITLB LOAD         ACCESS:    8931603 HIT:    8733181 MISS:     198422
cpu0_ITLB RFO          ACCESS:          0 HIT:          0 MISS:          0
cpu0_ITLB PREFETCH     ACCESS:          0 HIT:          0 MISS:          0
cpu0_ITLB WRITE        ACCESS:          0 HIT:          0 MISS:          0
cpu0_ITLB TRANSLATION  ACCESS:          0 HIT:          0 MISS:          0
cpu0_ITLB PREFETCH REQUESTED:          0 ISSUED:          0 USEFUL:          0 USELESS:          0
cpu0_ITLB AVERAGE MISS LATENCY: 4.432 cycles
cpu0_L1D TOTAL        ACCESS:  203573823 HIT:  199872385 MISS:    3701438
cpu0_L1D LOAD         ACCESS:  117896754 HIT:  114856370 MISS:    3040384
cpu0_L1D RFO          ACCESS:          0 HIT:          0 MISS:          0
cpu0_L1D PREFETCH     ACCESS:          0 HIT:          0 MISS:          0
cpu0_L1D WRITE        ACCESS:   85648529 HIT:   85014621 MISS:     633908
cpu0_L1D TRANSLATION  ACCESS:      28540 HIT:       1394 MISS:      27146
cpu0_L1D PREFETCH REQUESTED:          0 ISSUED:          0 USEFUL:          0 USELESS:          0
cpu0_L1D AVERAGE MISS LATENCY: 66.42 cycles
cpu0_L1I TOTAL        ACCESS:   10370595 HIT:    8573363 MISS:    1797232
cpu0_L1I LOAD         ACCESS:   10370595 HIT:    8573363 MISS:    1797232
cpu0_L1I RFO          ACCESS:          0 HIT:          0 MISS:          0
cpu0_L1I PREFETCH     ACCESS:          0 HIT:          0 MISS:          0
cpu0_L1I WRITE        ACCESS:          0 HIT:          0 MISS:          0
cpu0_L1I TRANSLATION  ACCESS:          0 HIT:          0 MISS:          0
cpu0_L1I PREFETCH REQUESTED:          0 ISSUED:          0 USEFUL:          0 USELESS:          0
cpu0_L1I AVERAGE MISS LATENCY: 30.01 cycles
cpu0_L2C TOTAL        ACCESS:    3836950 HIT:    3183467 MISS:     653483
cpu0_L2C LOAD         ACCESS:    3106434 HIT:    2525322 MISS:     581112
cpu0_L2C RFO          ACCESS:     191763 HIT:     144404 MISS:      47359
cpu0_L2C PREFETCH     ACCESS:          0 HIT:          0 MISS:          0
cpu0_L2C WRITE        ACCESS:     511694 HIT:     508669 MISS:       3025
cpu0_L2C TRANSLATION  ACCESS:      27059 HIT:       5072 MISS:      21987
cpu0_L2C PREFETCH REQUESTED:          0 ISSUED:          0 USEFUL:          0 USELESS:          0
cpu0_L2C AVERAGE MISS LATENCY: 422.5 cycles
cpu0_STLB TOTAL        ACCESS:    1009450 HIT:     982758 MISS:      26692
cpu0_STLB LOAD         ACCESS:    1009450 HIT:     982758 MISS:      26692
cpu0_STLB RFO          ACCESS:          0 HIT:          0 MISS:          0
cpu0_STLB PREFETCH     ACCESS:          0 HIT:          0 MISS:          0
cpu0_STLB WRITE        ACCESS:          0 HIT:          0 MISS:          0
cpu0_STLB TRANSLATION  ACCESS:          0 HIT:          0 MISS:          0
cpu0_STLB PREFETCH REQUESTED:          0 ISSUED:          0 USEFUL:          0 USELESS:          0
cpu0_STLB AVERAGE MISS LATENCY: 680.9 cycles

DRAM Statistics

Channel 0 RQ ROW_BUFFER_HIT:     100642
  ROW_BUFFER_MISS:     611097
 AVG DBUS CONGESTED CYCLE: 3.893
WQ ROW_BUFFER_HIT: Channel 0 
  ROW_BUFFER_MISS:      11557
  FULL:      92326
