WARNING: physical memory size is smaller than virtual memory size.

*** ChampSim Multicore Out-of-Order Simulator ***
Warmup Instructions: 50000000
Simulation Instructions: 600000000
Number of CPUs: 1
Page size: 4096

CPU 0 Tage branch predictor
Off-chip DRAM Size: 4 GiB Channels: 1 Width: 64-bit Data Race: 3200 MT/s
Heartbeat CPU 0 instructions: 10000001 cycles: 2500318 heartbeat IPC: 3.999 cumulative IPC: 3.999 (Simulation time: 00 hr 00 min 48 sec)
Heartbeat CPU 0 instructions: 20000002 cycles: 5037133 heartbeat IPC: 3.942 cumulative IPC: 3.971 (Simulation time: 00 hr 01 min 44 sec)
Heartbeat CPU 0 instructions: 30000002 cycles: 7537133 heartbeat IPC: 4 cumulative IPC: 3.98 (Simulation time: 00 hr 02 min 41 sec)
Heartbeat CPU 0 instructions: 40000002 cycles: 10037133 heartbeat IPC: 4 cumulative IPC: 3.985 (Simulation time: 00 hr 03 min 40 sec)
Heartbeat CPU 0 instructions: 50000002 cycles: 12537133 heartbeat IPC: 4 cumulative IPC: 3.988 (Simulation time: 00 hr 04 min 36 sec)
Warmup finished CPU 0 instructions: 50000002 cycles: 12537134 cumulative IPC: 3.988 (Simulation time: 00 hr 04 min 36 sec)
Warmup complete CPU 0 instructions: 50000002 cycles: 12537134 cumulative IPC: 3.988 (Simulation time: 00 hr 04 min 36 sec)
Heartbeat CPU 0 instructions: 60000001 cycles: 15515300 heartbeat IPC: 3.358 cumulative IPC: 3.358 (Simulation time: 00 hr 05 min 40 sec)
Heartbeat CPU 0 instructions: 70000004 cycles: 18587016 heartbeat IPC: 3.256 cumulative IPC: 3.306 (Simulation time: 00 hr 06 min 43 sec)
Heartbeat CPU 0 instructions: 80000001 cycles: 21632413 heartbeat IPC: 3.284 cumulative IPC: 3.298 (Simulation time: 00 hr 07 min 53 sec)
Heartbeat CPU 0 instructions: 90000001 cycles: 24576602 heartbeat IPC: 3.397 cumulative IPC: 3.322 (Simulation time: 00 hr 08 min 56 sec)
Heartbeat CPU 0 instructions: 100000000 cycles: 27489463 heartbeat IPC: 3.433 cumulative IPC: 3.344 (Simulation time: 00 hr 10 min 00 sec)
Heartbeat CPU 0 instructions: 110000000 cycles: 30430124 heartbeat IPC: 3.401 cumulative IPC: 3.353 (Simulation time: 00 hr 11 min 05 sec)
Heartbeat CPU 0 instructions: 120000001 cycles: 33399589 heartbeat IPC: 3.368 cumulative IPC: 3.355 (Simulation time: 00 hr 12 min 11 sec)
Heartbeat CPU 0 instructions: 130000001 cycles: 36252696 heartbeat IPC: 3.505 cumulative IPC: 3.373 (Simulation time: 00 hr 13 min 19 sec)
Heartbeat CPU 0 instructions: 140000001 cycles: 39293676 heartbeat IPC: 3.288 cumulative IPC: 3.364 (Simulation time: 00 hr 14 min 25 sec)
Heartbeat CPU 0 instructions: 150000001 cycles: 42302424 heartbeat IPC: 3.324 cumulative IPC: 3.36 (Simulation time: 00 hr 15 min 28 sec)
Heartbeat CPU 0 instructions: 160000004 cycles: 45309933 heartbeat IPC: 3.325 cumulative IPC: 3.356 (Simulation time: 00 hr 16 min 34 sec)
Heartbeat CPU 0 instructions: 170000004 cycles: 53359201 heartbeat IPC: 1.242 cumulative IPC: 2.94 (Simulation time: 00 hr 18 min 17 sec)
Heartbeat CPU 0 instructions: 180000004 cycles: 62563196 heartbeat IPC: 1.086 cumulative IPC: 2.599 (Simulation time: 00 hr 20 min 08 sec)
Heartbeat CPU 0 instructions: 190000001 cycles: 71230365 heartbeat IPC: 1.154 cumulative IPC: 2.385 (Simulation time: 00 hr 22 min 00 sec)
Heartbeat CPU 0 instructions: 200000004 cycles: 74189278 heartbeat IPC: 3.38 cumulative IPC: 2.433 (Simulation time: 00 hr 23 min 04 sec)
Heartbeat CPU 0 instructions: 210000001 cycles: 77144467 heartbeat IPC: 3.384 cumulative IPC: 2.476 (Simulation time: 00 hr 24 min 09 sec)
Heartbeat CPU 0 instructions: 220000000 cycles: 80037385 heartbeat IPC: 3.457 cumulative IPC: 2.519 (Simulation time: 00 hr 25 min 13 sec)
Heartbeat CPU 0 instructions: 230000002 cycles: 83055399 heartbeat IPC: 3.313 cumulative IPC: 2.553 (Simulation time: 00 hr 26 min 22 sec)
Heartbeat CPU 0 instructions: 240000003 cycles: 86084894 heartbeat IPC: 3.301 cumulative IPC: 2.583 (Simulation time: 00 hr 27 min 29 sec)
Heartbeat CPU 0 instructions: 250000000 cycles: 89110295 heartbeat IPC: 3.305 cumulative IPC: 2.612 (Simulation time: 00 hr 28 min 35 sec)
Heartbeat CPU 0 instructions: 260000002 cycles: 92076857 heartbeat IPC: 3.371 cumulative IPC: 2.64 (Simulation time: 00 hr 29 min 41 sec)
Heartbeat CPU 0 instructions: 270000002 cycles: 94982836 heartbeat IPC: 3.441 cumulative IPC: 2.668 (Simulation time: 00 hr 30 min 46 sec)
Heartbeat CPU 0 instructions: 280000002 cycles: 97864531 heartbeat IPC: 3.47 cumulative IPC: 2.696 (Simulation time: 00 hr 31 min 54 sec)
Heartbeat CPU 0 instructions: 290000002 cycles: 100820928 heartbeat IPC: 3.382 cumulative IPC: 2.719 (Simulation time: 00 hr 33 min 01 sec)
Heartbeat CPU 0 instructions: 300000003 cycles: 103712293 heartbeat IPC: 3.459 cumulative IPC: 2.742 (Simulation time: 00 hr 34 min 08 sec)
Heartbeat CPU 0 instructions: 310000001 cycles: 106739875 heartbeat IPC: 3.303 cumulative IPC: 2.76 (Simulation time: 00 hr 35 min 14 sec)
Heartbeat CPU 0 instructions: 320000003 cycles: 109747520 heartbeat IPC: 3.325 cumulative IPC: 2.777 (Simulation time: 00 hr 36 min 23 sec)
Heartbeat CPU 0 instructions: 330000003 cycles: 112728639 heartbeat IPC: 3.354 cumulative IPC: 2.795 (Simulation time: 00 hr 37 min 32 sec)
Heartbeat CPU 0 instructions: 340000000 cycles: 120697854 heartbeat IPC: 1.255 cumulative IPC: 2.681 (Simulation time: 00 hr 38 min 58 sec)
Heartbeat CPU 0 instructions: 350000000 cycles: 129767982 heartbeat IPC: 1.103 cumulative IPC: 2.559 (Simulation time: 00 hr 40 min 26 sec)
Heartbeat CPU 0 instructions: 360000004 cycles: 138557891 heartbeat IPC: 1.138 cumulative IPC: 2.46 (Simulation time: 00 hr 41 min 50 sec)
Heartbeat CPU 0 instructions: 370000000 cycles: 141526067 heartbeat IPC: 3.369 cumulative IPC: 2.481 (Simulation time: 00 hr 42 min 37 sec)
Heartbeat CPU 0 instructions: 380000003 cycles: 144441254 heartbeat IPC: 3.43 cumulative IPC: 2.502 (Simulation time: 00 hr 43 min 24 sec)
Heartbeat CPU 0 instructions: 390000002 cycles: 147415430 heartbeat IPC: 3.362 cumulative IPC: 2.521 (Simulation time: 00 hr 44 min 11 sec)
Heartbeat CPU 0 instructions: 400000004 cycles: 150318734 heartbeat IPC: 3.444 cumulative IPC: 2.54 (Simulation time: 00 hr 44 min 59 sec)
Heartbeat CPU 0 instructions: 410000002 cycles: 153255165 heartbeat IPC: 3.405 cumulative IPC: 2.558 (Simulation time: 00 hr 45 min 46 sec)
Heartbeat CPU 0 instructions: 420000003 cycles: 156447141 heartbeat IPC: 3.133 cumulative IPC: 2.571 (Simulation time: 00 hr 46 min 34 sec)
Heartbeat CPU 0 instructions: 430000001 cycles: 159452902 heartbeat IPC: 3.327 cumulative IPC: 2.587 (Simulation time: 00 hr 47 min 22 sec)
Heartbeat CPU 0 instructions: 440000004 cycles: 162583177 heartbeat IPC: 3.195 cumulative IPC: 2.599 (Simulation time: 00 hr 48 min 21 sec)
Heartbeat CPU 0 instructions: 450000002 cycles: 165503992 heartbeat IPC: 3.424 cumulative IPC: 2.615 (Simulation time: 00 hr 49 min 11 sec)
Heartbeat CPU 0 instructions: 460000000 cycles: 168433169 heartbeat IPC: 3.414 cumulative IPC: 2.63 (Simulation time: 00 hr 50 min 00 sec)
Heartbeat CPU 0 instructions: 470000001 cycles: 171281896 heartbeat IPC: 3.51 cumulative IPC: 2.646 (Simulation time: 00 hr 50 min 48 sec)
Heartbeat CPU 0 instructions: 480000003 cycles: 174379720 heartbeat IPC: 3.228 cumulative IPC: 2.657 (Simulation time: 00 hr 51 min 37 sec)
Heartbeat CPU 0 instructions: 490000004 cycles: 177208314 heartbeat IPC: 3.535 cumulative IPC: 2.672 (Simulation time: 00 hr 52 min 25 sec)
Heartbeat CPU 0 instructions: 500000004 cycles: 180193553 heartbeat IPC: 3.35 cumulative IPC: 2.684 (Simulation time: 00 hr 53 min 13 sec)
Heartbeat CPU 0 instructions: 510000003 cycles: 183287455 heartbeat IPC: 3.232 cumulative IPC: 2.694 (Simulation time: 00 hr 54 min 01 sec)
Heartbeat CPU 0 instructions: 520000001 cycles: 186171171 heartbeat IPC: 3.468 cumulative IPC: 2.707 (Simulation time: 00 hr 54 min 48 sec)
Heartbeat CPU 0 instructions: 530000001 cycles: 189211534 heartbeat IPC: 3.289 cumulative IPC: 2.717 (Simulation time: 00 hr 55 min 35 sec)
Heartbeat CPU 0 instructions: 540000000 cycles: 192167725 heartbeat IPC: 3.383 cumulative IPC: 2.728 (Simulation time: 00 hr 56 min 22 sec)
Heartbeat CPU 0 instructions: 550000001 cycles: 195150588 heartbeat IPC: 3.352 cumulative IPC: 2.738 (Simulation time: 00 hr 57 min 09 sec)
Heartbeat CPU 0 instructions: 560000000 cycles: 198325960 heartbeat IPC: 3.149 cumulative IPC: 2.745 (Simulation time: 00 hr 57 min 58 sec)
Heartbeat CPU 0 instructions: 570000004 cycles: 203459138 heartbeat IPC: 1.948 cumulative IPC: 2.724 (Simulation time: 00 hr 58 min 58 sec)
Heartbeat CPU 0 instructions: 580000003 cycles: 212916422 heartbeat IPC: 1.057 cumulative IPC: 2.645 (Simulation time: 01 hr 00 min 25 sec)
Heartbeat CPU 0 instructions: 590000002 cycles: 224079420 heartbeat IPC: 0.8958 cumulative IPC: 2.553 (Simulation time: 01 hr 02 min 05 sec)
Heartbeat CPU 0 instructions: 600000004 cycles: 227153508 heartbeat IPC: 3.253 cumulative IPC: 2.563 (Simulation time: 01 hr 02 min 53 sec)
Heartbeat CPU 0 instructions: 610000002 cycles: 230123190 heartbeat IPC: 3.367 cumulative IPC: 2.574 (Simulation time: 01 hr 03 min 39 sec)
Heartbeat CPU 0 instructions: 620000001 cycles: 232897817 heartbeat IPC: 3.604 cumulative IPC: 2.587 (Simulation time: 01 hr 04 min 26 sec)
Heartbeat CPU 0 instructions: 630000002 cycles: 235870370 heartbeat IPC: 3.364 cumulative IPC: 2.597 (Simulation time: 01 hr 05 min 12 sec)
Heartbeat CPU 0 instructions: 640000004 cycles: 238820910 heartbeat IPC: 3.389 cumulative IPC: 2.607 (Simulation time: 01 hr 06 min 01 sec)
Heartbeat CPU 0 instructions: 650000000 cycles: 241572368 heartbeat IPC: 3.634 cumulative IPC: 2.62 (Simulation time: 01 hr 06 min 54 sec)
Simulation finished CPU 0 instructions: 600000001 cycles: 229035236 cumulative IPC: 2.62 (Simulation time: 01 hr 06 min 54 sec)
Simulation complete CPU 0 instructions: 600000001 cycles: 229035236 cumulative IPC: 2.62 (Simulation time: 01 hr 06 min 54 sec)

ChampSim completed all CPUs

=== Simulation ===
CPU 0 runs traces/400.perlbench-41B.champsimtrace.xz
Region of Interest Statistics

CPU 0 cumulative IPC: 2.62 instructions: 600000001 cycles: 229035236
CPU 0 Branch Prediction Accuracy: 99.19% MPKI: 1.684 Average ROB Occupancy at Mispredict: 102.5
Branch type MPKI
BRANCH_DIRECT_JUMP: 0.0123
BRANCH_INDIRECT: 0.323
BRANCH_CONDITIONAL: 1.14
BRANCH_DIRECT_CALL: 0.0043
BRANCH_INDIRECT_CALL: 0.2
BRANCH_RETURN: 0.00828

LLC TOTAL        ACCESS:     540496 HIT:     259038 MISS:     281458
LLC LOAD         ACCESS:     403749 HIT:     161838 MISS:     241911
LLC RFO          ACCESS:      32545 HIT:      17690 MISS:      14855
LLC PREFETCH     ACCESS:          0 HIT:          0 MISS:          0
LLC WRITE        ACCESS:      85099 HIT:      70059 MISS:      15040
LLC TRANSLATION  ACCESS:      19103 HIT:       9451 MISS:       9652
LLC PREFETCH REQUESTED:          0 ISSUED:          0 USEFUL:          0 USELESS:          0
LLC AVERAGE MISS LATENCY: 599.3 cycles
cpu0_DTLB TOTAL        ACCESS:  129775342 HIT:  129070312 MISS:     705030
cpu0_DTLB LOAD         ACCESS:  129775342 HIT:  129070312 MISS:     705030
cpu0_DTLB RFO          ACCESS:          0 HIT:          0 MISS:          0
cpu0_DTLB PREFETCH     ACCESS:          0 HIT:          0 MISS:          0
cpu0_DTLB WRITE        ACCESS:          0 HIT:          0 MISS:          0
cpu0_DTLB TRANSLATION  ACCESS:          0 HIT:          0 MISS:          0
cpu0_DTLB PREFETCH REQUESTED:          0 ISSUED:          0 USEFUL:          0 USELESS:          0
cpu0_DTLB AVERAGE MISS LATENCY: 15.22 cycles
cpu0_ITLB TOTAL        ACCESS:    4875534 HIT:    4813388 MISS:      62146
cpu0_ITLB LOAD         ACCESS:    4875534 HIT:    4813388 MISS:      62146
cpu0_ITLB RFO          ACCESS:          0 HIT:          0 MISS:          0
cpu0_ITLB PREFETCH     ACCESS:          0 HIT:          0 MISS:          0
cpu0_ITLB WRITE        ACCESS:          0 HIT:          0 MISS:          0
cpu0_ITLB TRANSLATION  ACCESS:          0 HIT:          0 MISS:          0
cpu0_ITLB PREFETCH REQUESTED:          0 ISSUED:          0 USEFUL:          0 USELESS:          0
cpu0_ITLB AVERAGE MISS LATENCY: 6.219 cycles
cpu0_L1D TOTAL        ACCESS:  174357462 HIT:  172537349 MISS:    1820113
cpu0_L1D LOAD         ACCESS:   91337149 HIT:   89914111 MISS:    1423038
cpu0_L1D RFO          ACCESS:          0 HIT:          0 MISS:          0
cpu0_L1D PREFETCH     ACCESS:          0 HIT:          0 MISS:          0
cpu0_L1D WRITE        ACCESS:   82995853 HIT:   82622176 MISS:     373677
cpu0_L1D TRANSLATION  ACCESS:      24460 HIT:       1062 MISS:      23398
cpu0_L1D PREFETCH REQUESTED:          0 ISSUED:          0 USEFUL:          0 USELESS:          0
cpu0_L1D AVERAGE MISS LATENCY: 92.12 cycles
cpu0_L1I TOTAL        ACCESS:    5654735 HIT:    4850302 MISS:     804433
cpu0_L1I LOAD         ACCESS:    5654735 HIT:    4850302 MISS:     804433
cpu0_L1I RFO          ACCESS:          0 HIT:          0 MISS:          0
cpu0_L1I PREFETCH     ACCESS:          0 HIT:          0 MISS:          0
cpu0_L1I WRITE        ACCESS:          0 HIT:          0 MISS:          0
cpu0_L1I TRANSLATION  ACCESS:          0 HIT:          0 MISS:          0
cpu0_L1I PREFETCH REQUESTED:          0 ISSUED:          0 USEFUL:          0 USELESS:          0
cpu0_L1I AVERAGE MISS LATENCY: 13 cycles
cpu0_L2C TOTAL        ACCESS:    1667938 HIT:    1210704 MISS:     457234
cpu0_L2C LOAD         ACCESS:    1315266 HIT:     911516 MISS:     403750
cpu0_L2C RFO          ACCESS:      89633 HIT:      57087 MISS:      32546
cpu0_L2C PREFETCH     ACCESS:          0 HIT:          0 MISS:          0
cpu0_L2C WRITE        ACCESS:     239717 HIT:     237882 MISS:       1835
cpu0_L2C TRANSLATION  ACCESS:      23322 HIT:       4219 MISS:      19103
cpu0_L2C PREFETCH REQUESTED:          0 ISSUED:          0 USEFUL:          0 USELESS:          0
cpu0_L2C AVERAGE MISS LATENCY: 389.4 cycles
cpu0_STLB TOTAL        ACCESS:     509139 HIT:     486351 MISS:      22788
cpu0_STLB LOAD         ACCESS:     509139 HIT:     486351 MISS:      22788
cpu0_STLB RFO          ACCESS:          0 HIT:          0 MISS:          0
cpu0_STLB PREFETCH     ACCESS:          0 HIT:          0 MISS:          0
cpu0_STLB WRITE        ACCESS:          0 HIT:          0 MISS:          0
cpu0_STLB TRANSLATION  ACCESS:          0 HIT:          0 MISS:          0
cpu0_STLB PREFETCH REQUESTED:          0 ISSUED:          0 USEFUL:          0 USELESS:          0
cpu0_STLB AVERAGE MISS LATENCY: 364.2 cycles

DRAM Statistics

Channel 0 RQ ROW_BUFFER_HIT:      46854
  ROW_BUFFER_MISS:     219469
 AVG DBUS CONGESTED CYCLE: 3.834
WQ ROW_BUFFER_HIT: Channel 0 
  ROW_BUFFER_MISS:       6815
  FULL:      34106
Final OPTGen Hits: 5314
Final OPTGen Access: 9320
Final OPTGEN Hit Rate: 57.0172
