WARNING: physical memory size is smaller than virtual memory size.

*** ChampSim Multicore Out-of-Order Simulator ***
Warmup Instructions: 50000000
Simulation Instructions: 600000000
Number of CPUs: 1
Page size: 4096

Off-chip DRAM Size: 4 GiB Channels: 1 Width: 64-bit Data Race: 3200 MT/s
Heartbeat CPU 0 instructions: 10000000 cycles: 2500061 heartbeat IPC: 4 cumulative IPC: 4 (Simulation time: 00 hr 00 min 33 sec)
Heartbeat CPU 0 instructions: 20000000 cycles: 5000061 heartbeat IPC: 4 cumulative IPC: 4 (Simulation time: 00 hr 01 min 08 sec)
Heartbeat CPU 0 instructions: 30000000 cycles: 7500061 heartbeat IPC: 4 cumulative IPC: 4 (Simulation time: 00 hr 01 min 44 sec)
Heartbeat CPU 0 instructions: 40000000 cycles: 10000061 heartbeat IPC: 4 cumulative IPC: 4 (Simulation time: 00 hr 02 min 22 sec)
Heartbeat CPU 0 instructions: 50000000 cycles: 12500061 heartbeat IPC: 4 cumulative IPC: 4 (Simulation time: 00 hr 03 min 01 sec)
Warmup finished CPU 0 instructions: 50000000 cycles: 12500062 cumulative IPC: 4 (Simulation time: 00 hr 03 min 01 sec)
Warmup complete CPU 0 instructions: 50000000 cycles: 12500062 cumulative IPC: 4 (Simulation time: 00 hr 03 min 01 sec)
Heartbeat CPU 0 instructions: 60000002 cycles: 16911341 heartbeat IPC: 2.267 cumulative IPC: 2.267 (Simulation time: 00 hr 03 min 53 sec)
Heartbeat CPU 0 instructions: 70000003 cycles: 21897820 heartbeat IPC: 2.005 cumulative IPC: 2.128 (Simulation time: 00 hr 04 min 49 sec)
Heartbeat CPU 0 instructions: 80000001 cycles: 27247190 heartbeat IPC: 1.869 cumulative IPC: 2.034 (Simulation time: 00 hr 05 min 49 sec)
Heartbeat CPU 0 instructions: 90000000 cycles: 31546012 heartbeat IPC: 2.326 cumulative IPC: 2.1 (Simulation time: 00 hr 06 min 41 sec)
Heartbeat CPU 0 instructions: 100000003 cycles: 36406147 heartbeat IPC: 2.058 cumulative IPC: 2.092 (Simulation time: 00 hr 07 min 31 sec)
Heartbeat CPU 0 instructions: 110000002 cycles: 41284204 heartbeat IPC: 2.05 cumulative IPC: 2.084 (Simulation time: 00 hr 08 min 21 sec)
Heartbeat CPU 0 instructions: 120000001 cycles: 46280693 heartbeat IPC: 2.001 cumulative IPC: 2.072 (Simulation time: 00 hr 09 min 11 sec)
Heartbeat CPU 0 instructions: 130000003 cycles: 50851474 heartbeat IPC: 2.188 cumulative IPC: 2.086 (Simulation time: 00 hr 09 min 59 sec)
Heartbeat CPU 0 instructions: 140000002 cycles: 55744742 heartbeat IPC: 2.044 cumulative IPC: 2.081 (Simulation time: 00 hr 10 min 48 sec)
Heartbeat CPU 0 instructions: 150000001 cycles: 60416524 heartbeat IPC: 2.141 cumulative IPC: 2.087 (Simulation time: 00 hr 11 min 38 sec)
Heartbeat CPU 0 instructions: 160000000 cycles: 65057180 heartbeat IPC: 2.155 cumulative IPC: 2.093 (Simulation time: 00 hr 12 min 28 sec)
Heartbeat CPU 0 instructions: 170000000 cycles: 70394497 heartbeat IPC: 1.874 cumulative IPC: 2.073 (Simulation time: 00 hr 13 min 20 sec)
Heartbeat CPU 0 instructions: 180000001 cycles: 76116472 heartbeat IPC: 1.748 cumulative IPC: 2.043 (Simulation time: 00 hr 14 min 15 sec)
Heartbeat CPU 0 instructions: 190000002 cycles: 80593267 heartbeat IPC: 2.234 cumulative IPC: 2.056 (Simulation time: 00 hr 15 min 03 sec)
Heartbeat CPU 0 instructions: 200000002 cycles: 85503685 heartbeat IPC: 2.036 cumulative IPC: 2.055 (Simulation time: 00 hr 15 min 53 sec)
Heartbeat CPU 0 instructions: 210000000 cycles: 90509961 heartbeat IPC: 1.997 cumulative IPC: 2.051 (Simulation time: 00 hr 16 min 46 sec)
Heartbeat CPU 0 instructions: 220000001 cycles: 95435925 heartbeat IPC: 2.03 cumulative IPC: 2.05 (Simulation time: 00 hr 17 min 37 sec)
Heartbeat CPU 0 instructions: 230000002 cycles: 100685487 heartbeat IPC: 1.905 cumulative IPC: 2.041 (Simulation time: 00 hr 18 min 28 sec)
Heartbeat CPU 0 instructions: 240000001 cycles: 105653016 heartbeat IPC: 2.013 cumulative IPC: 2.04 (Simulation time: 00 hr 19 min 19 sec)
Heartbeat CPU 0 instructions: 250000003 cycles: 110841288 heartbeat IPC: 1.927 cumulative IPC: 2.034 (Simulation time: 00 hr 20 min 08 sec)
Heartbeat CPU 0 instructions: 260000001 cycles: 115703850 heartbeat IPC: 2.057 cumulative IPC: 2.035 (Simulation time: 00 hr 21 min 01 sec)
Heartbeat CPU 0 instructions: 270000000 cycles: 123461484 heartbeat IPC: 1.289 cumulative IPC: 1.983 (Simulation time: 00 hr 22 min 08 sec)
Heartbeat CPU 0 instructions: 280000000 cycles: 134504303 heartbeat IPC: 0.9056 cumulative IPC: 1.885 (Simulation time: 00 hr 23 min 36 sec)
Heartbeat CPU 0 instructions: 290000001 cycles: 144663376 heartbeat IPC: 0.9843 cumulative IPC: 1.816 (Simulation time: 00 hr 24 min 56 sec)
Heartbeat CPU 0 instructions: 300000003 cycles: 152257807 heartbeat IPC: 1.317 cumulative IPC: 1.789 (Simulation time: 00 hr 26 min 06 sec)
Heartbeat CPU 0 instructions: 310000004 cycles: 163358738 heartbeat IPC: 0.9008 cumulative IPC: 1.723 (Simulation time: 00 hr 27 min 35 sec)
Heartbeat CPU 0 instructions: 320000004 cycles: 169086693 heartbeat IPC: 1.746 cumulative IPC: 1.724 (Simulation time: 00 hr 28 min 32 sec)
Heartbeat CPU 0 instructions: 330000000 cycles: 174396530 heartbeat IPC: 1.883 cumulative IPC: 1.73 (Simulation time: 00 hr 29 min 25 sec)
Heartbeat CPU 0 instructions: 340000001 cycles: 179648644 heartbeat IPC: 1.904 cumulative IPC: 1.735 (Simulation time: 00 hr 30 min 18 sec)
Heartbeat CPU 0 instructions: 350000000 cycles: 185095078 heartbeat IPC: 1.836 cumulative IPC: 1.738 (Simulation time: 00 hr 31 min 12 sec)
Heartbeat CPU 0 instructions: 360000003 cycles: 190297123 heartbeat IPC: 1.922 cumulative IPC: 1.744 (Simulation time: 00 hr 32 min 03 sec)
Heartbeat CPU 0 instructions: 370000001 cycles: 195419798 heartbeat IPC: 1.952 cumulative IPC: 1.749 (Simulation time: 00 hr 32 min 55 sec)
Heartbeat CPU 0 instructions: 380000004 cycles: 200813596 heartbeat IPC: 1.854 cumulative IPC: 1.752 (Simulation time: 00 hr 33 min 48 sec)
Heartbeat CPU 0 instructions: 390000002 cycles: 206247946 heartbeat IPC: 1.84 cumulative IPC: 1.755 (Simulation time: 00 hr 34 min 42 sec)
Heartbeat CPU 0 instructions: 400000000 cycles: 211777394 heartbeat IPC: 1.808 cumulative IPC: 1.756 (Simulation time: 00 hr 35 min 36 sec)
Heartbeat CPU 0 instructions: 410000000 cycles: 219847607 heartbeat IPC: 1.239 cumulative IPC: 1.736 (Simulation time: 00 hr 36 min 46 sec)
Heartbeat CPU 0 instructions: 420000001 cycles: 231243722 heartbeat IPC: 0.8775 cumulative IPC: 1.691 (Simulation time: 00 hr 38 min 16 sec)
Heartbeat CPU 0 instructions: 430000000 cycles: 239050939 heartbeat IPC: 1.281 cumulative IPC: 1.677 (Simulation time: 00 hr 39 min 28 sec)
Heartbeat CPU 0 instructions: 440000002 cycles: 246176607 heartbeat IPC: 1.403 cumulative IPC: 1.669 (Simulation time: 00 hr 40 min 35 sec)
Heartbeat CPU 0 instructions: 450000000 cycles: 253095007 heartbeat IPC: 1.445 cumulative IPC: 1.663 (Simulation time: 00 hr 41 min 40 sec)
Heartbeat CPU 0 instructions: 460000002 cycles: 264103913 heartbeat IPC: 0.9084 cumulative IPC: 1.63 (Simulation time: 00 hr 43 min 09 sec)
Heartbeat CPU 0 instructions: 470000000 cycles: 273948574 heartbeat IPC: 1.016 cumulative IPC: 1.606 (Simulation time: 00 hr 44 min 31 sec)
Heartbeat CPU 0 instructions: 480000000 cycles: 279456072 heartbeat IPC: 1.816 cumulative IPC: 1.611 (Simulation time: 00 hr 45 min 25 sec)
Heartbeat CPU 0 instructions: 490000001 cycles: 285283855 heartbeat IPC: 1.716 cumulative IPC: 1.613 (Simulation time: 00 hr 46 min 21 sec)
Heartbeat CPU 0 instructions: 500000002 cycles: 290958621 heartbeat IPC: 1.762 cumulative IPC: 1.616 (Simulation time: 00 hr 47 min 15 sec)
Heartbeat CPU 0 instructions: 510000000 cycles: 296719550 heartbeat IPC: 1.736 cumulative IPC: 1.618 (Simulation time: 00 hr 48 min 11 sec)
Heartbeat CPU 0 instructions: 520000000 cycles: 302555114 heartbeat IPC: 1.714 cumulative IPC: 1.62 (Simulation time: 00 hr 49 min 08 sec)
Heartbeat CPU 0 instructions: 530000001 cycles: 313958681 heartbeat IPC: 0.8769 cumulative IPC: 1.592 (Simulation time: 00 hr 50 min 36 sec)
Heartbeat CPU 0 instructions: 540000000 cycles: 324860839 heartbeat IPC: 0.9172 cumulative IPC: 1.569 (Simulation time: 00 hr 52 min 05 sec)
Heartbeat CPU 0 instructions: 550000002 cycles: 337971555 heartbeat IPC: 0.7627 cumulative IPC: 1.536 (Simulation time: 00 hr 53 min 42 sec)
Heartbeat CPU 0 instructions: 560000004 cycles: 342772980 heartbeat IPC: 2.083 cumulative IPC: 1.544 (Simulation time: 00 hr 54 min 30 sec)
Heartbeat CPU 0 instructions: 570000001 cycles: 347188240 heartbeat IPC: 2.265 cumulative IPC: 1.554 (Simulation time: 00 hr 55 min 15 sec)
Heartbeat CPU 0 instructions: 580000003 cycles: 351434372 heartbeat IPC: 2.355 cumulative IPC: 1.564 (Simulation time: 00 hr 55 min 56 sec)
Heartbeat CPU 0 instructions: 590000001 cycles: 356342280 heartbeat IPC: 2.038 cumulative IPC: 1.57 (Simulation time: 00 hr 56 min 37 sec)
Heartbeat CPU 0 instructions: 600000003 cycles: 360988026 heartbeat IPC: 2.153 cumulative IPC: 1.578 (Simulation time: 00 hr 57 min 09 sec)
Heartbeat CPU 0 instructions: 610000001 cycles: 365851317 heartbeat IPC: 2.056 cumulative IPC: 1.585 (Simulation time: 00 hr 57 min 38 sec)
Heartbeat CPU 0 instructions: 620000000 cycles: 370919841 heartbeat IPC: 1.973 cumulative IPC: 1.59 (Simulation time: 00 hr 58 min 01 sec)
Heartbeat CPU 0 instructions: 630000002 cycles: 375167595 heartbeat IPC: 2.354 cumulative IPC: 1.599 (Simulation time: 00 hr 58 min 19 sec)
Heartbeat CPU 0 instructions: 640000004 cycles: 380491422 heartbeat IPC: 1.878 cumulative IPC: 1.603 (Simulation time: 00 hr 58 min 38 sec)
Heartbeat CPU 0 instructions: 650000001 cycles: 385255963 heartbeat IPC: 2.099 cumulative IPC: 1.61 (Simulation time: 00 hr 58 min 54 sec)
Simulation finished CPU 0 instructions: 600000001 cycles: 372755902 cumulative IPC: 1.61 (Simulation time: 00 hr 58 min 54 sec)
Simulation complete CPU 0 instructions: 600000001 cycles: 372755902 cumulative IPC: 1.61 (Simulation time: 00 hr 58 min 54 sec)

ChampSim completed all CPUs

=== Simulation ===
CPU 0 runs traces/400.perlbench-50B.champsimtrace.xz
Region of Interest Statistics

CPU 0 cumulative IPC: 1.61 instructions: 600000001 cycles: 372755902
CPU 0 Branch Prediction Accuracy: 93.83% MPKI: 12.71 Average ROB Occupancy at Mispredict: 29.54
Branch type MPKI
BRANCH_DIRECT_JUMP: 0.0176
BRANCH_INDIRECT: 0.38
BRANCH_CONDITIONAL: 11.9
BRANCH_DIRECT_CALL: 0.0067
BRANCH_INDIRECT_CALL: 0.431
BRANCH_RETURN: 0.0161

LLC TOTAL        ACCESS:     785072 HIT:     488003 MISS:     297069
LLC LOAD         ACCESS:     587214 HIT:     320952 MISS:     266262
LLC RFO          ACCESS:      47599 HIT:      28904 MISS:      18695
LLC PREFETCH     ACCESS:          0 HIT:          0 MISS:          0
LLC WRITE        ACCESS:     128291 HIT:     128130 MISS:        161
LLC TRANSLATION  ACCESS:      21968 HIT:      10017 MISS:      11951
LLC PREFETCH REQUESTED:          0 ISSUED:          0 USEFUL:          0 USELESS:          0
LLC AVERAGE MISS LATENCY: 530.3 cycles
cpu0_DTLB TOTAL        ACCESS:  156767678 HIT:  155466130 MISS:    1301548
cpu0_DTLB LOAD         ACCESS:  156767678 HIT:  155466130 MISS:    1301548
cpu0_DTLB RFO          ACCESS:          0 HIT:          0 MISS:          0
cpu0_DTLB PREFETCH     ACCESS:          0 HIT:          0 MISS:          0
cpu0_DTLB WRITE        ACCESS:          0 HIT:          0 MISS:          0
cpu0_DTLB TRANSLATION  ACCESS:          0 HIT:          0 MISS:          0
cpu0_DTLB PREFETCH REQUESTED:          0 ISSUED:          0 USEFUL:          0 USELESS:          0
cpu0_DTLB AVERAGE MISS LATENCY: 12.01 cycles
cpu0_ITLB TOTAL        ACCESS:    8932624 HIT:    8734046 MISS:     198578
cpu0_ITLB LOAD         ACCESS:    8932624 HIT:    8734046 MISS:     198578
cpu0_ITLB RFO          ACCESS:          0 HIT:          0 MISS:          0
cpu0_ITLB PREFETCH     ACCESS:          0 HIT:          0 MISS:          0
cpu0_ITLB WRITE        ACCESS:          0 HIT:          0 MISS:          0
cpu0_ITLB TRANSLATION  ACCESS:          0 HIT:          0 MISS:          0
cpu0_ITLB PREFETCH REQUESTED:          0 ISSUED:          0 USEFUL:          0 USELESS:          0
cpu0_ITLB AVERAGE MISS LATENCY: 3.2 cycles
cpu0_L1D TOTAL        ACCESS:  203604660 HIT:  199928616 MISS:    3676044
cpu0_L1D LOAD         ACCESS:  117928407 HIT:  114908032 MISS:    3020375
cpu0_L1D RFO          ACCESS:          0 HIT:          0 MISS:          0
cpu0_L1D PREFETCH     ACCESS:          0 HIT:          0 MISS:          0
cpu0_L1D WRITE        ACCESS:   85647708 HIT:   85019176 MISS:     628532
cpu0_L1D TRANSLATION  ACCESS:      28545 HIT:       1408 MISS:      27137
cpu0_L1D PREFETCH REQUESTED:          0 ISSUED:          0 USEFUL:          0 USELESS:          0
cpu0_L1D AVERAGE MISS LATENCY: 48.26 cycles
cpu0_L1I TOTAL        ACCESS:   10371314 HIT:    8573818 MISS:    1797496
cpu0_L1I LOAD         ACCESS:   10371314 HIT:    8573818 MISS:    1797496
cpu0_L1I RFO          ACCESS:          0 HIT:          0 MISS:          0
cpu0_L1I PREFETCH     ACCESS:          0 HIT:          0 MISS:          0
cpu0_L1I WRITE        ACCESS:          0 HIT:          0 MISS:          0
cpu0_L1I TRANSLATION  ACCESS:          0 HIT:          0 MISS:          0
cpu0_L1I PREFETCH REQUESTED:          0 ISSUED:          0 USEFUL:          0 USELESS:          0
cpu0_L1I AVERAGE MISS LATENCY: 10.7 cycles
cpu0_L2C TOTAL        ACCESS:    3837140 HIT:    3177157 MISS:     659983
cpu0_L2C LOAD         ACCESS:    3106343 HIT:    2519129 MISS:     587214
cpu0_L2C RFO          ACCESS:     191819 HIT:     144220 MISS:      47599
cpu0_L2C PREFETCH     ACCESS:          0 HIT:          0 MISS:          0
cpu0_L2C WRITE        ACCESS:     511922 HIT:     508720 MISS:       3202
cpu0_L2C TRANSLATION  ACCESS:      27056 HIT:       5088 MISS:      21968
cpu0_L2C PREFETCH REQUESTED:          0 ISSUED:          0 USEFUL:          0 USELESS:          0
cpu0_L2C AVERAGE MISS LATENCY: 259.1 cycles
cpu0_STLB TOTAL        ACCESS:    1009288 HIT:     982596 MISS:      26692
cpu0_STLB LOAD         ACCESS:    1009288 HIT:     982596 MISS:      26692
cpu0_STLB RFO          ACCESS:          0 HIT:          0 MISS:          0
cpu0_STLB PREFETCH     ACCESS:          0 HIT:          0 MISS:          0
cpu0_STLB WRITE        ACCESS:          0 HIT:          0 MISS:          0
cpu0_STLB TRANSLATION  ACCESS:          0 HIT:          0 MISS:          0
cpu0_STLB PREFETCH REQUESTED:          0 ISSUED:          0 USEFUL:          0 USELESS:          0
cpu0_STLB AVERAGE MISS LATENCY: 365.7 cycles

DRAM Statistics

Channel 0 RQ ROW_BUFFER_HIT:      60569
  ROW_BUFFER_MISS:     236323
 AVG DBUS CONGESTED CYCLE: 3.787
WQ ROW_BUFFER_HIT: Channel 0 
  ROW_BUFFER_MISS:       7619
  FULL:      30651
