WARNING: physical memory size is smaller than virtual memory size.

*** ChampSim Multicore Out-of-Order Simulator ***
Warmup Instructions: 50000000
Simulation Instructions: 600000000
Number of CPUs: 1
Page size: 4096

CPU 0 Tage branch predictor
Off-chip DRAM Size: 4 GiB Channels: 1 Width: 64-bit Data Race: 3200 MT/s
Heartbeat CPU 0 instructions: 10000001 cycles: 2500318 heartbeat IPC: 3.999 cumulative IPC: 3.999 (Simulation time: 00 hr 01 min 00 sec)
Heartbeat CPU 0 instructions: 20000002 cycles: 5037133 heartbeat IPC: 3.942 cumulative IPC: 3.971 (Simulation time: 00 hr 02 min 03 sec)
Heartbeat CPU 0 instructions: 30000002 cycles: 7537133 heartbeat IPC: 4 cumulative IPC: 3.98 (Simulation time: 00 hr 03 min 08 sec)
Heartbeat CPU 0 instructions: 40000002 cycles: 10037133 heartbeat IPC: 4 cumulative IPC: 3.985 (Simulation time: 00 hr 04 min 18 sec)
Heartbeat CPU 0 instructions: 50000002 cycles: 12537133 heartbeat IPC: 4 cumulative IPC: 3.988 (Simulation time: 00 hr 05 min 20 sec)
Warmup finished CPU 0 instructions: 50000002 cycles: 12537134 cumulative IPC: 3.988 (Simulation time: 00 hr 05 min 20 sec)
Warmup complete CPU 0 instructions: 50000002 cycles: 12537134 cumulative IPC: 3.988 (Simulation time: 00 hr 05 min 20 sec)
Heartbeat CPU 0 instructions: 60000001 cycles: 15512750 heartbeat IPC: 3.361 cumulative IPC: 3.361 (Simulation time: 00 hr 06 min 37 sec)
Heartbeat CPU 0 instructions: 70000004 cycles: 18584131 heartbeat IPC: 3.256 cumulative IPC: 3.307 (Simulation time: 00 hr 07 min 46 sec)
Heartbeat CPU 0 instructions: 80000001 cycles: 21629018 heartbeat IPC: 3.284 cumulative IPC: 3.3 (Simulation time: 00 hr 08 min 52 sec)
Heartbeat CPU 0 instructions: 90000001 cycles: 24572188 heartbeat IPC: 3.398 cumulative IPC: 3.324 (Simulation time: 00 hr 09 min 56 sec)
Heartbeat CPU 0 instructions: 100000000 cycles: 27485398 heartbeat IPC: 3.433 cumulative IPC: 3.345 (Simulation time: 00 hr 11 min 04 sec)
Heartbeat CPU 0 instructions: 110000000 cycles: 30428954 heartbeat IPC: 3.397 cumulative IPC: 3.353 (Simulation time: 00 hr 12 min 11 sec)
Heartbeat CPU 0 instructions: 120000001 cycles: 33400186 heartbeat IPC: 3.366 cumulative IPC: 3.355 (Simulation time: 00 hr 13 min 16 sec)
Heartbeat CPU 0 instructions: 130000001 cycles: 36255915 heartbeat IPC: 3.502 cumulative IPC: 3.373 (Simulation time: 00 hr 14 min 21 sec)
Heartbeat CPU 0 instructions: 140000001 cycles: 39299319 heartbeat IPC: 3.286 cumulative IPC: 3.363 (Simulation time: 00 hr 15 min 26 sec)
Heartbeat CPU 0 instructions: 150000001 cycles: 42313254 heartbeat IPC: 3.318 cumulative IPC: 3.358 (Simulation time: 00 hr 16 min 31 sec)
Heartbeat CPU 0 instructions: 160000004 cycles: 45324008 heartbeat IPC: 3.321 cumulative IPC: 3.355 (Simulation time: 00 hr 17 min 42 sec)
Heartbeat CPU 0 instructions: 170000000 cycles: 52789548 heartbeat IPC: 1.339 cumulative IPC: 2.981 (Simulation time: 00 hr 19 min 47 sec)
Heartbeat CPU 0 instructions: 180000004 cycles: 61043063 heartbeat IPC: 1.212 cumulative IPC: 2.68 (Simulation time: 00 hr 21 min 49 sec)
Heartbeat CPU 0 instructions: 190000001 cycles: 69072740 heartbeat IPC: 1.245 cumulative IPC: 2.476 (Simulation time: 00 hr 23 min 38 sec)
Heartbeat CPU 0 instructions: 200000004 cycles: 72033551 heartbeat IPC: 3.377 cumulative IPC: 2.521 (Simulation time: 00 hr 24 min 42 sec)
Heartbeat CPU 0 instructions: 210000001 cycles: 74988584 heartbeat IPC: 3.384 cumulative IPC: 2.562 (Simulation time: 00 hr 25 min 50 sec)
Heartbeat CPU 0 instructions: 220000000 cycles: 77881310 heartbeat IPC: 3.457 cumulative IPC: 2.602 (Simulation time: 00 hr 26 min 56 sec)
Heartbeat CPU 0 instructions: 230000002 cycles: 80901453 heartbeat IPC: 3.311 cumulative IPC: 2.633 (Simulation time: 00 hr 28 min 02 sec)
Heartbeat CPU 0 instructions: 240000003 cycles: 83933954 heartbeat IPC: 3.298 cumulative IPC: 2.661 (Simulation time: 00 hr 29 min 09 sec)
Heartbeat CPU 0 instructions: 250000000 cycles: 86958290 heartbeat IPC: 3.307 cumulative IPC: 2.687 (Simulation time: 00 hr 30 min 15 sec)
Heartbeat CPU 0 instructions: 260000002 cycles: 89926144 heartbeat IPC: 3.369 cumulative IPC: 2.714 (Simulation time: 00 hr 31 min 22 sec)
Heartbeat CPU 0 instructions: 270000002 cycles: 92837983 heartbeat IPC: 3.434 cumulative IPC: 2.74 (Simulation time: 00 hr 32 min 37 sec)
Heartbeat CPU 0 instructions: 280000002 cycles: 95723406 heartbeat IPC: 3.466 cumulative IPC: 2.765 (Simulation time: 00 hr 33 min 49 sec)
Heartbeat CPU 0 instructions: 290000002 cycles: 98687600 heartbeat IPC: 3.374 cumulative IPC: 2.786 (Simulation time: 00 hr 35 min 01 sec)
Heartbeat CPU 0 instructions: 300000003 cycles: 101585299 heartbeat IPC: 3.451 cumulative IPC: 2.807 (Simulation time: 00 hr 36 min 16 sec)
Heartbeat CPU 0 instructions: 310000001 cycles: 104616656 heartbeat IPC: 3.299 cumulative IPC: 2.824 (Simulation time: 00 hr 37 min 22 sec)
Heartbeat CPU 0 instructions: 320000003 cycles: 107622145 heartbeat IPC: 3.327 cumulative IPC: 2.84 (Simulation time: 00 hr 38 min 27 sec)
Heartbeat CPU 0 instructions: 330000003 cycles: 110610142 heartbeat IPC: 3.347 cumulative IPC: 2.855 (Simulation time: 00 hr 39 min 31 sec)
Heartbeat CPU 0 instructions: 340000000 cycles: 118289621 heartbeat IPC: 1.302 cumulative IPC: 2.742 (Simulation time: 00 hr 41 min 21 sec)
Heartbeat CPU 0 instructions: 350000000 cycles: 126804928 heartbeat IPC: 1.174 cumulative IPC: 2.625 (Simulation time: 00 hr 43 min 16 sec)
Heartbeat CPU 0 instructions: 360000004 cycles: 134862845 heartbeat IPC: 1.241 cumulative IPC: 2.534 (Simulation time: 00 hr 45 min 05 sec)
Heartbeat CPU 0 instructions: 370000000 cycles: 137832782 heartbeat IPC: 3.367 cumulative IPC: 2.554 (Simulation time: 00 hr 46 min 08 sec)
Heartbeat CPU 0 instructions: 380000003 cycles: 140753274 heartbeat IPC: 3.424 cumulative IPC: 2.574 (Simulation time: 00 hr 47 min 14 sec)
Heartbeat CPU 0 instructions: 390000002 cycles: 143731628 heartbeat IPC: 3.358 cumulative IPC: 2.592 (Simulation time: 00 hr 48 min 32 sec)
Heartbeat CPU 0 instructions: 400000004 cycles: 146634284 heartbeat IPC: 3.445 cumulative IPC: 2.61 (Simulation time: 00 hr 50 min 01 sec)
Heartbeat CPU 0 instructions: 410000002 cycles: 149579045 heartbeat IPC: 3.396 cumulative IPC: 2.627 (Simulation time: 00 hr 51 min 18 sec)
Heartbeat CPU 0 instructions: 420000003 cycles: 152672706 heartbeat IPC: 3.232 cumulative IPC: 2.64 (Simulation time: 00 hr 52 min 32 sec)
Heartbeat CPU 0 instructions: 430000001 cycles: 155679139 heartbeat IPC: 3.326 cumulative IPC: 2.655 (Simulation time: 00 hr 53 min 42 sec)
Heartbeat CPU 0 instructions: 440000004 cycles: 158813517 heartbeat IPC: 3.19 cumulative IPC: 2.666 (Simulation time: 00 hr 54 min 56 sec)
Heartbeat CPU 0 instructions: 450000002 cycles: 161739672 heartbeat IPC: 3.417 cumulative IPC: 2.681 (Simulation time: 00 hr 56 min 08 sec)
Heartbeat CPU 0 instructions: 460000000 cycles: 164671401 heartbeat IPC: 3.411 cumulative IPC: 2.695 (Simulation time: 00 hr 57 min 19 sec)
Heartbeat CPU 0 instructions: 470000001 cycles: 167528058 heartbeat IPC: 3.501 cumulative IPC: 2.71 (Simulation time: 00 hr 58 min 25 sec)
Heartbeat CPU 0 instructions: 480000003 cycles: 170573940 heartbeat IPC: 3.283 cumulative IPC: 2.721 (Simulation time: 00 hr 59 min 29 sec)
Heartbeat CPU 0 instructions: 490000004 cycles: 173403939 heartbeat IPC: 3.534 cumulative IPC: 2.735 (Simulation time: 01 hr 00 min 31 sec)
Heartbeat CPU 0 instructions: 500000004 cycles: 176389220 heartbeat IPC: 3.35 cumulative IPC: 2.746 (Simulation time: 01 hr 01 min 35 sec)
Heartbeat CPU 0 instructions: 510000003 cycles: 179404142 heartbeat IPC: 3.317 cumulative IPC: 2.757 (Simulation time: 01 hr 02 min 37 sec)
Heartbeat CPU 0 instructions: 520000001 cycles: 182289405 heartbeat IPC: 3.466 cumulative IPC: 2.769 (Simulation time: 01 hr 03 min 39 sec)
Heartbeat CPU 0 instructions: 530000001 cycles: 185288404 heartbeat IPC: 3.334 cumulative IPC: 2.779 (Simulation time: 01 hr 04 min 42 sec)
Heartbeat CPU 0 instructions: 540000000 cycles: 188246050 heartbeat IPC: 3.381 cumulative IPC: 2.789 (Simulation time: 01 hr 05 min 44 sec)
Heartbeat CPU 0 instructions: 550000001 cycles: 191231693 heartbeat IPC: 3.349 cumulative IPC: 2.798 (Simulation time: 01 hr 06 min 45 sec)
Heartbeat CPU 0 instructions: 560000000 cycles: 194308637 heartbeat IPC: 3.25 cumulative IPC: 2.806 (Simulation time: 01 hr 07 min 49 sec)
Heartbeat CPU 0 instructions: 570000004 cycles: 199470599 heartbeat IPC: 1.937 cumulative IPC: 2.782 (Simulation time: 01 hr 09 min 14 sec)
Heartbeat CPU 0 instructions: 580000003 cycles: 208290698 heartbeat IPC: 1.134 cumulative IPC: 2.707 (Simulation time: 01 hr 11 min 11 sec)
Heartbeat CPU 0 instructions: 590000002 cycles: 218635604 heartbeat IPC: 0.9667 cumulative IPC: 2.62 (Simulation time: 01 hr 13 min 19 sec)
Heartbeat CPU 0 instructions: 600000004 cycles: 221681990 heartbeat IPC: 3.283 cumulative IPC: 2.63 (Simulation time: 01 hr 14 min 26 sec)
Heartbeat CPU 0 instructions: 610000002 cycles: 224647447 heartbeat IPC: 3.372 cumulative IPC: 2.64 (Simulation time: 01 hr 15 min 31 sec)
Heartbeat CPU 0 instructions: 620000001 cycles: 227421222 heartbeat IPC: 3.605 cumulative IPC: 2.653 (Simulation time: 01 hr 16 min 32 sec)
Heartbeat CPU 0 instructions: 630000002 cycles: 230389769 heartbeat IPC: 3.369 cumulative IPC: 2.662 (Simulation time: 01 hr 17 min 32 sec)
Heartbeat CPU 0 instructions: 640000004 cycles: 233340051 heartbeat IPC: 3.39 cumulative IPC: 2.672 (Simulation time: 01 hr 18 min 28 sec)
Heartbeat CPU 0 instructions: 650000000 cycles: 236089928 heartbeat IPC: 3.637 cumulative IPC: 2.684 (Simulation time: 01 hr 19 min 20 sec)
Simulation finished CPU 0 instructions: 600000001 cycles: 223552796 cumulative IPC: 2.684 (Simulation time: 01 hr 19 min 20 sec)
Simulation complete CPU 0 instructions: 600000001 cycles: 223552796 cumulative IPC: 2.684 (Simulation time: 01 hr 19 min 20 sec)

ChampSim completed all CPUs

=== Simulation ===
CPU 0 runs traces/400.perlbench-41B.champsimtrace.xz
Region of Interest Statistics

CPU 0 cumulative IPC: 2.684 instructions: 600000001 cycles: 223552796
CPU 0 Branch Prediction Accuracy: 99.19% MPKI: 1.684 Average ROB Occupancy at Mispredict: 102.4
Branch type MPKI
BRANCH_DIRECT_JUMP: 0.0123
BRANCH_INDIRECT: 0.323
BRANCH_CONDITIONAL: 1.14
BRANCH_DIRECT_CALL: 0.0043
BRANCH_INDIRECT_CALL: 0.2
BRANCH_RETURN: 0.00828

LLC TOTAL        ACCESS:     540336 HIT:     283968 MISS:     256368
LLC LOAD         ACCESS:     403668 HIT:     172678 MISS:     230990
LLC RFO          ACCESS:      32512 HIT:      17372 MISS:      15140
LLC PREFETCH     ACCESS:          0 HIT:          0 MISS:          0
LLC WRITE        ACCESS:      85052 HIT:      84598 MISS:        454
LLC TRANSLATION  ACCESS:      19104 HIT:       9320 MISS:       9784
LLC PREFETCH REQUESTED:          0 ISSUED:          0 USEFUL:          0 USELESS:          0
LLC AVERAGE MISS LATENCY: 633.3 cycles
cpu0_DTLB TOTAL        ACCESS:  129766157 HIT:  129061848 MISS:     704309
cpu0_DTLB LOAD         ACCESS:  129766157 HIT:  129061848 MISS:     704309
cpu0_DTLB RFO          ACCESS:          0 HIT:          0 MISS:          0
cpu0_DTLB PREFETCH     ACCESS:          0 HIT:          0 MISS:          0
cpu0_DTLB WRITE        ACCESS:          0 HIT:          0 MISS:          0
cpu0_DTLB TRANSLATION  ACCESS:          0 HIT:          0 MISS:          0
cpu0_DTLB PREFETCH REQUESTED:          0 ISSUED:          0 USEFUL:          0 USELESS:          0
cpu0_DTLB AVERAGE MISS LATENCY: 15.12 cycles
cpu0_ITLB TOTAL        ACCESS:    4877272 HIT:    4815173 MISS:      62099
cpu0_ITLB LOAD         ACCESS:    4877272 HIT:    4815173 MISS:      62099
cpu0_ITLB RFO          ACCESS:          0 HIT:          0 MISS:          0
cpu0_ITLB PREFETCH     ACCESS:          0 HIT:          0 MISS:          0
cpu0_ITLB WRITE        ACCESS:          0 HIT:          0 MISS:          0
cpu0_ITLB TRANSLATION  ACCESS:          0 HIT:          0 MISS:          0
cpu0_ITLB PREFETCH REQUESTED:          0 ISSUED:          0 USEFUL:          0 USELESS:          0
cpu0_ITLB AVERAGE MISS LATENCY: 6.826 cycles
cpu0_L1D TOTAL        ACCESS:  174350499 HIT:  172535779 MISS:    1814720
cpu0_L1D LOAD         ACCESS:   91330699 HIT:   89914383 MISS:    1416316
cpu0_L1D RFO          ACCESS:          0 HIT:          0 MISS:          0
cpu0_L1D PREFETCH     ACCESS:          0 HIT:          0 MISS:          0
cpu0_L1D WRITE        ACCESS:   82995341 HIT:   82620333 MISS:     375008
cpu0_L1D TRANSLATION  ACCESS:      24459 HIT:       1063 MISS:      23396
cpu0_L1D PREFETCH REQUESTED:          0 ISSUED:          0 USEFUL:          0 USELESS:          0
cpu0_L1D AVERAGE MISS LATENCY: 89.57 cycles
cpu0_L1I TOTAL        ACCESS:    5656496 HIT:    4851175 MISS:     805321
cpu0_L1I LOAD         ACCESS:    5656496 HIT:    4851175 MISS:     805321
cpu0_L1I RFO          ACCESS:          0 HIT:          0 MISS:          0
cpu0_L1I PREFETCH     ACCESS:          0 HIT:          0 MISS:          0
cpu0_L1I WRITE        ACCESS:          0 HIT:          0 MISS:          0
cpu0_L1I TRANSLATION  ACCESS:          0 HIT:          0 MISS:          0
cpu0_L1I PREFETCH REQUESTED:          0 ISSUED:          0 USEFUL:          0 USELESS:          0
cpu0_L1I AVERAGE MISS LATENCY: 11.16 cycles
cpu0_L2C TOTAL        ACCESS:    1667948 HIT:    1210841 MISS:     457107
cpu0_L2C LOAD         ACCESS:    1315269 HIT:     911600 MISS:     403669
cpu0_L2C RFO          ACCESS:      89635 HIT:      57122 MISS:      32513
cpu0_L2C PREFETCH     ACCESS:          0 HIT:          0 MISS:          0
cpu0_L2C WRITE        ACCESS:     239723 HIT:     237902 MISS:       1821
cpu0_L2C TRANSLATION  ACCESS:      23321 HIT:       4217 MISS:      19104
cpu0_L2C PREFETCH REQUESTED:          0 ISSUED:          0 USEFUL:          0 USELESS:          0
cpu0_L2C AVERAGE MISS LATENCY: 375.7 cycles
cpu0_STLB TOTAL        ACCESS:     509127 HIT:     486340 MISS:      22787
cpu0_STLB LOAD         ACCESS:     509127 HIT:     486340 MISS:      22787
cpu0_STLB RFO          ACCESS:          0 HIT:          0 MISS:          0
cpu0_STLB PREFETCH     ACCESS:          0 HIT:          0 MISS:          0
cpu0_STLB WRITE        ACCESS:          0 HIT:          0 MISS:          0
cpu0_STLB TRANSLATION  ACCESS:          0 HIT:          0 MISS:          0
cpu0_STLB PREFETCH REQUESTED:          0 ISSUED:          0 USEFUL:          0 USELESS:          0
cpu0_STLB AVERAGE MISS LATENCY: 362 cycles

DRAM Statistics

Channel 0 RQ ROW_BUFFER_HIT:      47848
  ROW_BUFFER_MISS:     208042
 AVG DBUS CONGESTED CYCLE: 3.836
WQ ROW_BUFFER_HIT: Channel 0 
  ROW_BUFFER_MISS:       5433
  FULL:      32788
