WARNING: physical memory size is smaller than virtual memory size.

*** ChampSim Multicore Out-of-Order Simulator ***
Warmup Instructions: 50000000
Simulation Instructions: 600000000
Number of CPUs: 1
Page size: 4096

CPU 0 Tage branch predictor
Off-chip DRAM Size: 4 GiB Channels: 1 Width: 64-bit Data Race: 3200 MT/s
Heartbeat CPU 0 instructions: 10000001 cycles: 2500318 heartbeat IPC: 3.999 cumulative IPC: 3.999 (Simulation time: 00 hr 00 min 48 sec)
Heartbeat CPU 0 instructions: 20000002 cycles: 5037121 heartbeat IPC: 3.942 cumulative IPC: 3.971 (Simulation time: 00 hr 01 min 36 sec)
Heartbeat CPU 0 instructions: 30000002 cycles: 7537121 heartbeat IPC: 4 cumulative IPC: 3.98 (Simulation time: 00 hr 02 min 18 sec)
Heartbeat CPU 0 instructions: 40000002 cycles: 10037121 heartbeat IPC: 4 cumulative IPC: 3.985 (Simulation time: 00 hr 02 min 58 sec)
Heartbeat CPU 0 instructions: 50000002 cycles: 12537121 heartbeat IPC: 4 cumulative IPC: 3.988 (Simulation time: 00 hr 03 min 38 sec)
Warmup finished CPU 0 instructions: 50000002 cycles: 12537122 cumulative IPC: 3.988 (Simulation time: 00 hr 03 min 38 sec)
Warmup complete CPU 0 instructions: 50000002 cycles: 12537122 cumulative IPC: 3.988 (Simulation time: 00 hr 03 min 38 sec)
Heartbeat CPU 0 instructions: 60000001 cycles: 15560683 heartbeat IPC: 3.307 cumulative IPC: 3.307 (Simulation time: 00 hr 04 min 30 sec)
Heartbeat CPU 0 instructions: 70000004 cycles: 18657795 heartbeat IPC: 3.229 cumulative IPC: 3.268 (Simulation time: 00 hr 05 min 20 sec)
Heartbeat CPU 0 instructions: 80000001 cycles: 21725158 heartbeat IPC: 3.26 cumulative IPC: 3.265 (Simulation time: 00 hr 06 min 12 sec)
Heartbeat CPU 0 instructions: 90000001 cycles: 24685533 heartbeat IPC: 3.378 cumulative IPC: 3.293 (Simulation time: 00 hr 07 min 02 sec)
Heartbeat CPU 0 instructions: 100000000 cycles: 27620961 heartbeat IPC: 3.407 cumulative IPC: 3.315 (Simulation time: 00 hr 07 min 52 sec)
Heartbeat CPU 0 instructions: 110000000 cycles: 30577821 heartbeat IPC: 3.382 cumulative IPC: 3.326 (Simulation time: 00 hr 08 min 43 sec)
Heartbeat CPU 0 instructions: 120000001 cycles: 33570247 heartbeat IPC: 3.342 cumulative IPC: 3.328 (Simulation time: 00 hr 09 min 34 sec)
Heartbeat CPU 0 instructions: 130000001 cycles: 36451761 heartbeat IPC: 3.47 cumulative IPC: 3.345 (Simulation time: 00 hr 10 min 22 sec)
Heartbeat CPU 0 instructions: 140000001 cycles: 39540079 heartbeat IPC: 3.238 cumulative IPC: 3.333 (Simulation time: 00 hr 11 min 10 sec)
Heartbeat CPU 0 instructions: 150000001 cycles: 42580839 heartbeat IPC: 3.289 cumulative IPC: 3.328 (Simulation time: 00 hr 11 min 58 sec)
Heartbeat CPU 0 instructions: 160000004 cycles: 45632842 heartbeat IPC: 3.277 cumulative IPC: 3.324 (Simulation time: 00 hr 12 min 47 sec)
Heartbeat CPU 0 instructions: 170000000 cycles: 53401433 heartbeat IPC: 1.287 cumulative IPC: 2.937 (Simulation time: 00 hr 14 min 04 sec)
Heartbeat CPU 0 instructions: 180000004 cycles: 61887120 heartbeat IPC: 1.178 cumulative IPC: 2.634 (Simulation time: 00 hr 15 min 28 sec)
Heartbeat CPU 0 instructions: 190000001 cycles: 70513281 heartbeat IPC: 1.159 cumulative IPC: 2.415 (Simulation time: 00 hr 16 min 51 sec)
Heartbeat CPU 0 instructions: 200000004 cycles: 73514003 heartbeat IPC: 3.333 cumulative IPC: 2.46 (Simulation time: 00 hr 17 min 39 sec)
Heartbeat CPU 0 instructions: 210000001 cycles: 76500662 heartbeat IPC: 3.348 cumulative IPC: 2.501 (Simulation time: 00 hr 18 min 26 sec)
Heartbeat CPU 0 instructions: 220000000 cycles: 79407527 heartbeat IPC: 3.44 cumulative IPC: 2.542 (Simulation time: 00 hr 19 min 13 sec)
Heartbeat CPU 0 instructions: 230000002 cycles: 82475186 heartbeat IPC: 3.26 cumulative IPC: 2.574 (Simulation time: 00 hr 20 min 05 sec)
Heartbeat CPU 0 instructions: 240000003 cycles: 85538117 heartbeat IPC: 3.265 cumulative IPC: 2.603 (Simulation time: 00 hr 20 min 52 sec)
Heartbeat CPU 0 instructions: 250000000 cycles: 88587059 heartbeat IPC: 3.28 cumulative IPC: 2.63 (Simulation time: 00 hr 21 min 39 sec)
Heartbeat CPU 0 instructions: 260000002 cycles: 91575784 heartbeat IPC: 3.346 cumulative IPC: 2.657 (Simulation time: 00 hr 22 min 26 sec)
Heartbeat CPU 0 instructions: 270000002 cycles: 94510515 heartbeat IPC: 3.407 cumulative IPC: 2.684 (Simulation time: 00 hr 23 min 13 sec)
Heartbeat CPU 0 instructions: 280000002 cycles: 97411286 heartbeat IPC: 3.447 cumulative IPC: 2.71 (Simulation time: 00 hr 24 min 00 sec)
Heartbeat CPU 0 instructions: 290000002 cycles: 100391563 heartbeat IPC: 3.355 cumulative IPC: 2.732 (Simulation time: 00 hr 24 min 46 sec)
Heartbeat CPU 0 instructions: 300000003 cycles: 103316463 heartbeat IPC: 3.419 cumulative IPC: 2.754 (Simulation time: 00 hr 25 min 33 sec)
Heartbeat CPU 0 instructions: 310000001 cycles: 106400087 heartbeat IPC: 3.243 cumulative IPC: 2.77 (Simulation time: 00 hr 26 min 20 sec)
Heartbeat CPU 0 instructions: 320000003 cycles: 109431909 heartbeat IPC: 3.298 cumulative IPC: 2.787 (Simulation time: 00 hr 27 min 07 sec)
Heartbeat CPU 0 instructions: 330000003 cycles: 112466771 heartbeat IPC: 3.295 cumulative IPC: 2.802 (Simulation time: 00 hr 27 min 53 sec)
Heartbeat CPU 0 instructions: 340000000 cycles: 120480503 heartbeat IPC: 1.248 cumulative IPC: 2.687 (Simulation time: 00 hr 29 min 10 sec)
Heartbeat CPU 0 instructions: 350000000 cycles: 129257374 heartbeat IPC: 1.139 cumulative IPC: 2.57 (Simulation time: 00 hr 32 min 12 sec)
Heartbeat CPU 0 instructions: 360000004 cycles: 137942796 heartbeat IPC: 1.151 cumulative IPC: 2.472 (Simulation time: 00 hr 34 min 46 sec)
Heartbeat CPU 0 instructions: 370000000 cycles: 140925299 heartbeat IPC: 3.353 cumulative IPC: 2.492 (Simulation time: 00 hr 36 min 13 sec)
Heartbeat CPU 0 instructions: 380000003 cycles: 143875529 heartbeat IPC: 3.39 cumulative IPC: 2.513 (Simulation time: 00 hr 37 min 43 sec)
Heartbeat CPU 0 instructions: 390000002 cycles: 146869304 heartbeat IPC: 3.34 cumulative IPC: 2.531 (Simulation time: 00 hr 39 min 11 sec)
Heartbeat CPU 0 instructions: 400000004 cycles: 149778279 heartbeat IPC: 3.438 cumulative IPC: 2.55 (Simulation time: 00 hr 40 min 38 sec)
Heartbeat CPU 0 instructions: 410000002 cycles: 152748362 heartbeat IPC: 3.367 cumulative IPC: 2.568 (Simulation time: 00 hr 42 min 05 sec)
Heartbeat CPU 0 instructions: 420000003 cycles: 155924280 heartbeat IPC: 3.149 cumulative IPC: 2.58 (Simulation time: 00 hr 43 min 35 sec)
Heartbeat CPU 0 instructions: 430000001 cycles: 158950716 heartbeat IPC: 3.304 cumulative IPC: 2.595 (Simulation time: 00 hr 45 min 05 sec)
Heartbeat CPU 0 instructions: 440000004 cycles: 162100416 heartbeat IPC: 3.175 cumulative IPC: 2.608 (Simulation time: 00 hr 46 min 34 sec)
Heartbeat CPU 0 instructions: 450000002 cycles: 165035872 heartbeat IPC: 3.407 cumulative IPC: 2.623 (Simulation time: 00 hr 48 min 07 sec)
Heartbeat CPU 0 instructions: 460000000 cycles: 167978774 heartbeat IPC: 3.398 cumulative IPC: 2.638 (Simulation time: 00 hr 49 min 38 sec)
Heartbeat CPU 0 instructions: 470000001 cycles: 170850468 heartbeat IPC: 3.482 cumulative IPC: 2.653 (Simulation time: 00 hr 51 min 07 sec)
Heartbeat CPU 0 instructions: 480000003 cycles: 173917796 heartbeat IPC: 3.26 cumulative IPC: 2.665 (Simulation time: 00 hr 52 min 38 sec)
Heartbeat CPU 0 instructions: 490000004 cycles: 176750598 heartbeat IPC: 3.53 cumulative IPC: 2.679 (Simulation time: 00 hr 54 min 09 sec)
Heartbeat CPU 0 instructions: 500000004 cycles: 179744259 heartbeat IPC: 3.34 cumulative IPC: 2.691 (Simulation time: 00 hr 55 min 38 sec)
Heartbeat CPU 0 instructions: 510000003 cycles: 182785609 heartbeat IPC: 3.288 cumulative IPC: 2.702 (Simulation time: 00 hr 57 min 08 sec)
Heartbeat CPU 0 instructions: 520000001 cycles: 185686335 heartbeat IPC: 3.447 cumulative IPC: 2.714 (Simulation time: 00 hr 58 min 45 sec)
Heartbeat CPU 0 instructions: 530000001 cycles: 188713725 heartbeat IPC: 3.303 cumulative IPC: 2.725 (Simulation time: 01 hr 00 min 14 sec)
Heartbeat CPU 0 instructions: 540000000 cycles: 191691970 heartbeat IPC: 3.358 cumulative IPC: 2.735 (Simulation time: 01 hr 01 min 42 sec)
Heartbeat CPU 0 instructions: 550000001 cycles: 194686297 heartbeat IPC: 3.34 cumulative IPC: 2.745 (Simulation time: 01 hr 03 min 10 sec)
Heartbeat CPU 0 instructions: 560000000 cycles: 197794857 heartbeat IPC: 3.217 cumulative IPC: 2.753 (Simulation time: 01 hr 04 min 41 sec)
Heartbeat CPU 0 instructions: 570000004 cycles: 203173685 heartbeat IPC: 1.859 cumulative IPC: 2.728 (Simulation time: 01 hr 07 min 07 sec)
Heartbeat CPU 0 instructions: 580000003 cycles: 212242727 heartbeat IPC: 1.103 cumulative IPC: 2.654 (Simulation time: 01 hr 10 min 46 sec)
Heartbeat CPU 0 instructions: 590000002 cycles: 223248234 heartbeat IPC: 0.9086 cumulative IPC: 2.563 (Simulation time: 01 hr 14 min 54 sec)
Heartbeat CPU 0 instructions: 600000004 cycles: 226368022 heartbeat IPC: 3.205 cumulative IPC: 2.572 (Simulation time: 01 hr 16 min 54 sec)
Heartbeat CPU 0 instructions: 610000002 cycles: 229353712 heartbeat IPC: 3.349 cumulative IPC: 2.583 (Simulation time: 01 hr 18 min 39 sec)
Heartbeat CPU 0 instructions: 620000001 cycles: 232141269 heartbeat IPC: 3.587 cumulative IPC: 2.596 (Simulation time: 01 hr 20 min 29 sec)
Heartbeat CPU 0 instructions: 630000002 cycles: 235134348 heartbeat IPC: 3.341 cumulative IPC: 2.606 (Simulation time: 01 hr 22 min 43 sec)
Heartbeat CPU 0 instructions: 640000004 cycles: 238088781 heartbeat IPC: 3.385 cumulative IPC: 2.616 (Simulation time: 01 hr 24 min 53 sec)
Heartbeat CPU 0 instructions: 650000000 cycles: 240844899 heartbeat IPC: 3.628 cumulative IPC: 2.628 (Simulation time: 01 hr 27 min 01 sec)
Simulation finished CPU 0 instructions: 600000001 cycles: 228307779 cumulative IPC: 2.628 (Simulation time: 01 hr 27 min 01 sec)
Simulation complete CPU 0 instructions: 600000001 cycles: 228307779 cumulative IPC: 2.628 (Simulation time: 01 hr 27 min 01 sec)

ChampSim completed all CPUs

=== Simulation ===
CPU 0 runs traces/400.perlbench-41B.champsimtrace.xz
Region of Interest Statistics

CPU 0 cumulative IPC: 2.628 instructions: 600000001 cycles: 228307779
CPU 0 Branch Prediction Accuracy: 99.19% MPKI: 1.684 Average ROB Occupancy at Mispredict: 102.1
Branch type MPKI
BRANCH_DIRECT_JUMP: 0.0123
BRANCH_INDIRECT: 0.323
BRANCH_CONDITIONAL: 1.14
BRANCH_DIRECT_CALL: 0.0043
BRANCH_INDIRECT_CALL: 0.2
BRANCH_RETURN: 0.00828

LLC TOTAL        ACCESS:     939415 HIT:     495555 MISS:     443860
LLC LOAD         ACCESS:     401537 HIT:     199367 MISS:     202170
LLC RFO          ACCESS:      32487 HIT:      15481 MISS:      17006
LLC PREFETCH     ACCESS:     401537 HIT:     188542 MISS:     212995
LLC WRITE        ACCESS:      84729 HIT:      84059 MISS:        670
LLC TRANSLATION  ACCESS:      19125 HIT:       8106 MISS:      11019
LLC PREFETCH REQUESTED:     401537 ISSUED:     401537 USEFUL:      78996 USELESS:      80444
LLC AVERAGE MISS LATENCY: 672.6 cycles
cpu0_DTLB TOTAL        ACCESS:  129766163 HIT:  129062605 MISS:     703558
cpu0_DTLB LOAD         ACCESS:  129766163 HIT:  129062605 MISS:     703558
cpu0_DTLB RFO          ACCESS:          0 HIT:          0 MISS:          0
cpu0_DTLB PREFETCH     ACCESS:          0 HIT:          0 MISS:          0
cpu0_DTLB WRITE        ACCESS:          0 HIT:          0 MISS:          0
cpu0_DTLB TRANSLATION  ACCESS:          0 HIT:          0 MISS:          0
cpu0_DTLB PREFETCH REQUESTED:          0 ISSUED:          0 USEFUL:          0 USELESS:          0
cpu0_DTLB AVERAGE MISS LATENCY: 17.93 cycles
cpu0_ITLB TOTAL        ACCESS:    4870431 HIT:    4808279 MISS:      62152
cpu0_ITLB LOAD         ACCESS:    4870431 HIT:    4808279 MISS:      62152
cpu0_ITLB RFO          ACCESS:          0 HIT:          0 MISS:          0
cpu0_ITLB PREFETCH     ACCESS:          0 HIT:          0 MISS:          0
cpu0_ITLB WRITE        ACCESS:          0 HIT:          0 MISS:          0
cpu0_ITLB TRANSLATION  ACCESS:          0 HIT:          0 MISS:          0
cpu0_ITLB PREFETCH REQUESTED:          0 ISSUED:          0 USEFUL:          0 USELESS:          0
cpu0_ITLB AVERAGE MISS LATENCY: 7.54 cycles
cpu0_L1D TOTAL        ACCESS:  174356322 HIT:  172551761 MISS:    1804561
cpu0_L1D LOAD         ACCESS:   91335488 HIT:   89929947 MISS:    1405541
cpu0_L1D RFO          ACCESS:          0 HIT:          0 MISS:          0
cpu0_L1D PREFETCH     ACCESS:          0 HIT:          0 MISS:          0
cpu0_L1D WRITE        ACCESS:   82996375 HIT:   82620750 MISS:     375625
cpu0_L1D TRANSLATION  ACCESS:      24459 HIT:       1064 MISS:      23395
cpu0_L1D PREFETCH REQUESTED:          0 ISSUED:          0 USEFUL:          0 USELESS:          0
cpu0_L1D AVERAGE MISS LATENCY: 95.67 cycles
cpu0_L1I TOTAL        ACCESS:    5649975 HIT:    4845716 MISS:     804259
cpu0_L1I LOAD         ACCESS:    5649975 HIT:    4845716 MISS:     804259
cpu0_L1I RFO          ACCESS:          0 HIT:          0 MISS:          0
cpu0_L1I PREFETCH     ACCESS:          0 HIT:          0 MISS:          0
cpu0_L1I WRITE        ACCESS:          0 HIT:          0 MISS:          0
cpu0_L1I TRANSLATION  ACCESS:          0 HIT:          0 MISS:          0
cpu0_L1I PREFETCH REQUESTED:          0 ISSUED:          0 USEFUL:          0 USELESS:          0
cpu0_L1I AVERAGE MISS LATENCY: 13.43 cycles
cpu0_L2C TOTAL        ACCESS:    1667911 HIT:    1212961 MISS:     454950
cpu0_L2C LOAD         ACCESS:    1315190 HIT:     913653 MISS:     401537
cpu0_L2C RFO          ACCESS:      89638 HIT:      57151 MISS:      32487
cpu0_L2C PREFETCH     ACCESS:          0 HIT:          0 MISS:          0
cpu0_L2C WRITE        ACCESS:     239765 HIT:     237964 MISS:       1801
cpu0_L2C TRANSLATION  ACCESS:      23318 HIT:       4193 MISS:      19125
cpu0_L2C PREFETCH REQUESTED:          0 ISSUED:          0 USEFUL:          0 USELESS:          0
cpu0_L2C AVERAGE MISS LATENCY: 400.5 cycles
cpu0_STLB TOTAL        ACCESS:     508830 HIT:     486045 MISS:      22785
cpu0_STLB LOAD         ACCESS:     508830 HIT:     486045 MISS:      22785
cpu0_STLB RFO          ACCESS:          0 HIT:          0 MISS:          0
cpu0_STLB PREFETCH     ACCESS:          0 HIT:          0 MISS:          0
cpu0_STLB WRITE        ACCESS:          0 HIT:          0 MISS:          0
cpu0_STLB TRANSLATION  ACCESS:          0 HIT:          0 MISS:          0
cpu0_STLB PREFETCH REQUESTED:          0 ISSUED:          0 USEFUL:          0 USELESS:          0
cpu0_STLB AVERAGE MISS LATENCY: 455 cycles

DRAM Statistics

Channel 0 RQ ROW_BUFFER_HIT:      71479
  ROW_BUFFER_MISS:     293479
 AVG DBUS CONGESTED CYCLE: 3.906
WQ ROW_BUFFER_HIT: Channel 0 
  ROW_BUFFER_MISS:       3850
  FULL:      43929
