WARNING: physical memory size is smaller than virtual memory size.

*** ChampSim Multicore Out-of-Order Simulator ***
Warmup Instructions: 50000000
Simulation Instructions: 600000000
Number of CPUs: 1
Page size: 4096

CPU 0 Tage branch predictor
Off-chip DRAM Size: 4 GiB Channels: 1 Width: 64-bit Data Race: 3200 MT/s
Heartbeat CPU 0 instructions: 10000000 cycles: 2500061 heartbeat IPC: 4 cumulative IPC: 4 (Simulation time: 00 hr 00 min 57 sec)
Heartbeat CPU 0 instructions: 20000000 cycles: 5000061 heartbeat IPC: 4 cumulative IPC: 4 (Simulation time: 00 hr 01 min 54 sec)
Heartbeat CPU 0 instructions: 30000000 cycles: 7500061 heartbeat IPC: 4 cumulative IPC: 4 (Simulation time: 00 hr 03 min 04 sec)
Heartbeat CPU 0 instructions: 40000000 cycles: 10000061 heartbeat IPC: 4 cumulative IPC: 4 (Simulation time: 00 hr 04 min 06 sec)
Heartbeat CPU 0 instructions: 50000000 cycles: 12500061 heartbeat IPC: 4 cumulative IPC: 4 (Simulation time: 00 hr 05 min 11 sec)
Warmup finished CPU 0 instructions: 50000000 cycles: 12500062 cumulative IPC: 4 (Simulation time: 00 hr 05 min 11 sec)
Warmup complete CPU 0 instructions: 50000000 cycles: 12500062 cumulative IPC: 4 (Simulation time: 00 hr 05 min 11 sec)
Heartbeat CPU 0 instructions: 60000004 cycles: 15504574 heartbeat IPC: 3.328 cumulative IPC: 3.328 (Simulation time: 00 hr 06 min 21 sec)
Heartbeat CPU 0 instructions: 70000003 cycles: 18375027 heartbeat IPC: 3.484 cumulative IPC: 3.404 (Simulation time: 00 hr 07 min 28 sec)
Heartbeat CPU 0 instructions: 80000002 cycles: 21385455 heartbeat IPC: 3.322 cumulative IPC: 3.376 (Simulation time: 00 hr 08 min 37 sec)
Heartbeat CPU 0 instructions: 90000000 cycles: 24106445 heartbeat IPC: 3.675 cumulative IPC: 3.446 (Simulation time: 00 hr 09 min 54 sec)
Heartbeat CPU 0 instructions: 100000003 cycles: 26861573 heartbeat IPC: 3.63 cumulative IPC: 3.482 (Simulation time: 00 hr 11 min 01 sec)
Heartbeat CPU 0 instructions: 110000001 cycles: 29760716 heartbeat IPC: 3.449 cumulative IPC: 3.476 (Simulation time: 00 hr 12 min 09 sec)
Heartbeat CPU 0 instructions: 120000001 cycles: 32476957 heartbeat IPC: 3.682 cumulative IPC: 3.504 (Simulation time: 00 hr 13 min 15 sec)
Heartbeat CPU 0 instructions: 130000003 cycles: 35373828 heartbeat IPC: 3.452 cumulative IPC: 3.497 (Simulation time: 00 hr 14 min 22 sec)
Heartbeat CPU 0 instructions: 140000002 cycles: 38209923 heartbeat IPC: 3.526 cumulative IPC: 3.501 (Simulation time: 00 hr 15 min 29 sec)
Heartbeat CPU 0 instructions: 150000001 cycles: 40979169 heartbeat IPC: 3.611 cumulative IPC: 3.511 (Simulation time: 00 hr 16 min 35 sec)
Heartbeat CPU 0 instructions: 160000000 cycles: 43896422 heartbeat IPC: 3.428 cumulative IPC: 3.504 (Simulation time: 00 hr 17 min 43 sec)
Heartbeat CPU 0 instructions: 170000001 cycles: 46819705 heartbeat IPC: 3.421 cumulative IPC: 3.497 (Simulation time: 00 hr 18 min 50 sec)
Heartbeat CPU 0 instructions: 180000000 cycles: 49612091 heartbeat IPC: 3.581 cumulative IPC: 3.503 (Simulation time: 00 hr 19 min 58 sec)
Heartbeat CPU 0 instructions: 190000002 cycles: 52318430 heartbeat IPC: 3.695 cumulative IPC: 3.516 (Simulation time: 00 hr 21 min 05 sec)
Heartbeat CPU 0 instructions: 200000002 cycles: 55141199 heartbeat IPC: 3.543 cumulative IPC: 3.518 (Simulation time: 00 hr 22 min 13 sec)
Heartbeat CPU 0 instructions: 210000000 cycles: 58032005 heartbeat IPC: 3.459 cumulative IPC: 3.514 (Simulation time: 00 hr 23 min 20 sec)
Heartbeat CPU 0 instructions: 220000001 cycles: 60782283 heartbeat IPC: 3.636 cumulative IPC: 3.521 (Simulation time: 00 hr 24 min 27 sec)
Heartbeat CPU 0 instructions: 230000002 cycles: 63670999 heartbeat IPC: 3.462 cumulative IPC: 3.518 (Simulation time: 00 hr 25 min 34 sec)
Heartbeat CPU 0 instructions: 240000004 cycles: 66622491 heartbeat IPC: 3.388 cumulative IPC: 3.511 (Simulation time: 00 hr 26 min 44 sec)
Heartbeat CPU 0 instructions: 250000003 cycles: 69513946 heartbeat IPC: 3.458 cumulative IPC: 3.508 (Simulation time: 00 hr 27 min 51 sec)
Heartbeat CPU 0 instructions: 260000001 cycles: 72297428 heartbeat IPC: 3.593 cumulative IPC: 3.512 (Simulation time: 00 hr 28 min 58 sec)
Heartbeat CPU 0 instructions: 270000002 cycles: 78151073 heartbeat IPC: 1.708 cumulative IPC: 3.351 (Simulation time: 00 hr 30 min 35 sec)
Heartbeat CPU 0 instructions: 280000000 cycles: 87666112 heartbeat IPC: 1.051 cumulative IPC: 3.06 (Simulation time: 00 hr 32 min 49 sec)
Heartbeat CPU 0 instructions: 290000000 cycles: 95841192 heartbeat IPC: 1.223 cumulative IPC: 2.88 (Simulation time: 00 hr 34 min 51 sec)
Heartbeat CPU 0 instructions: 300000003 cycles: 101807031 heartbeat IPC: 1.676 cumulative IPC: 2.799 (Simulation time: 00 hr 36 min 34 sec)
Heartbeat CPU 0 instructions: 310000001 cycles: 110362408 heartbeat IPC: 1.169 cumulative IPC: 2.657 (Simulation time: 00 hr 38 min 43 sec)
Heartbeat CPU 0 instructions: 320000004 cycles: 114207540 heartbeat IPC: 2.601 cumulative IPC: 2.655 (Simulation time: 00 hr 40 min 04 sec)
Heartbeat CPU 0 instructions: 330000000 cycles: 117375365 heartbeat IPC: 3.157 cumulative IPC: 2.67 (Simulation time: 00 hr 41 min 16 sec)
Heartbeat CPU 0 instructions: 340000001 cycles: 120608538 heartbeat IPC: 3.093 cumulative IPC: 2.682 (Simulation time: 00 hr 42 min 29 sec)
Heartbeat CPU 0 instructions: 350000000 cycles: 124020455 heartbeat IPC: 2.931 cumulative IPC: 2.69 (Simulation time: 00 hr 43 min 44 sec)
Heartbeat CPU 0 instructions: 360000004 cycles: 127238335 heartbeat IPC: 3.108 cumulative IPC: 2.702 (Simulation time: 00 hr 44 min 56 sec)
Heartbeat CPU 0 instructions: 370000001 cycles: 130351007 heartbeat IPC: 3.213 cumulative IPC: 2.715 (Simulation time: 00 hr 46 min 08 sec)
Heartbeat CPU 0 instructions: 380000004 cycles: 133479268 heartbeat IPC: 3.197 cumulative IPC: 2.728 (Simulation time: 00 hr 47 min 20 sec)
Heartbeat CPU 0 instructions: 390000002 cycles: 136800790 heartbeat IPC: 3.011 cumulative IPC: 2.735 (Simulation time: 00 hr 48 min 33 sec)
Heartbeat CPU 0 instructions: 400000000 cycles: 140183028 heartbeat IPC: 2.957 cumulative IPC: 2.741 (Simulation time: 00 hr 49 min 48 sec)
Heartbeat CPU 0 instructions: 410000000 cycles: 147151190 heartbeat IPC: 1.435 cumulative IPC: 2.674 (Simulation time: 00 hr 51 min 37 sec)
Heartbeat CPU 0 instructions: 420000003 cycles: 157305408 heartbeat IPC: 0.9848 cumulative IPC: 2.555 (Simulation time: 00 hr 53 min 58 sec)
Heartbeat CPU 0 instructions: 430000000 cycles: 163066145 heartbeat IPC: 1.736 cumulative IPC: 2.524 (Simulation time: 00 hr 55 min 40 sec)
Heartbeat CPU 0 instructions: 440000004 cycles: 168569067 heartbeat IPC: 1.817 cumulative IPC: 2.499 (Simulation time: 00 hr 57 min 19 sec)
Heartbeat CPU 0 instructions: 450000001 cycles: 173679221 heartbeat IPC: 1.957 cumulative IPC: 2.482 (Simulation time: 00 hr 58 min 54 sec)
Heartbeat CPU 0 instructions: 460000002 cycles: 183039661 heartbeat IPC: 1.068 cumulative IPC: 2.404 (Simulation time: 01 hr 01 min 09 sec)
Heartbeat CPU 0 instructions: 470000003 cycles: 190613962 heartbeat IPC: 1.32 cumulative IPC: 2.358 (Simulation time: 01 hr 03 min 07 sec)
Heartbeat CPU 0 instructions: 480000000 cycles: 194094647 heartbeat IPC: 2.873 cumulative IPC: 2.368 (Simulation time: 01 hr 04 min 22 sec)
Heartbeat CPU 0 instructions: 490000001 cycles: 197698825 heartbeat IPC: 2.775 cumulative IPC: 2.376 (Simulation time: 01 hr 05 min 40 sec)
Heartbeat CPU 0 instructions: 500000002 cycles: 201161295 heartbeat IPC: 2.888 cumulative IPC: 2.385 (Simulation time: 01 hr 06 min 55 sec)
Heartbeat CPU 0 instructions: 510000000 cycles: 204583378 heartbeat IPC: 2.922 cumulative IPC: 2.395 (Simulation time: 01 hr 08 min 10 sec)
Heartbeat CPU 0 instructions: 520000000 cycles: 208030613 heartbeat IPC: 2.901 cumulative IPC: 2.404 (Simulation time: 01 hr 09 min 25 sec)
Heartbeat CPU 0 instructions: 530000001 cycles: 218221112 heartbeat IPC: 0.9813 cumulative IPC: 2.333 (Simulation time: 01 hr 11 min 45 sec)
Heartbeat CPU 0 instructions: 540000000 cycles: 227321775 heartbeat IPC: 1.099 cumulative IPC: 2.281 (Simulation time: 01 hr 13 min 59 sec)
Heartbeat CPU 0 instructions: 550000004 cycles: 238386034 heartbeat IPC: 0.9038 cumulative IPC: 2.214 (Simulation time: 01 hr 16 min 30 sec)
Heartbeat CPU 0 instructions: 560000004 cycles: 241968597 heartbeat IPC: 2.791 cumulative IPC: 2.223 (Simulation time: 01 hr 17 min 44 sec)
Heartbeat CPU 0 instructions: 570000002 cycles: 244792571 heartbeat IPC: 3.541 cumulative IPC: 2.239 (Simulation time: 01 hr 18 min 52 sec)
Heartbeat CPU 0 instructions: 580000000 cycles: 247715546 heartbeat IPC: 3.421 cumulative IPC: 2.253 (Simulation time: 01 hr 20 min 01 sec)
Heartbeat CPU 0 instructions: 590000001 cycles: 250638739 heartbeat IPC: 3.421 cumulative IPC: 2.268 (Simulation time: 01 hr 21 min 09 sec)
Heartbeat CPU 0 instructions: 600000003 cycles: 253327666 heartbeat IPC: 3.719 cumulative IPC: 2.284 (Simulation time: 01 hr 22 min 29 sec)
Heartbeat CPU 0 instructions: 610000001 cycles: 256195036 heartbeat IPC: 3.488 cumulative IPC: 2.298 (Simulation time: 01 hr 24 min 10 sec)
Heartbeat CPU 0 instructions: 620000004 cycles: 259146481 heartbeat IPC: 3.388 cumulative IPC: 2.311 (Simulation time: 01 hr 25 min 45 sec)
Heartbeat CPU 0 instructions: 630000002 cycles: 261956448 heartbeat IPC: 3.559 cumulative IPC: 2.325 (Simulation time: 01 hr 27 min 25 sec)
Heartbeat CPU 0 instructions: 640000004 cycles: 265004098 heartbeat IPC: 3.281 cumulative IPC: 2.337 (Simulation time: 01 hr 28 min 51 sec)
Heartbeat CPU 0 instructions: 650000001 cycles: 267715453 heartbeat IPC: 3.688 cumulative IPC: 2.351 (Simulation time: 01 hr 30 min 22 sec)
Simulation finished CPU 0 instructions: 600000001 cycles: 255215392 cumulative IPC: 2.351 (Simulation time: 01 hr 30 min 22 sec)
Simulation complete CPU 0 instructions: 600000001 cycles: 255215392 cumulative IPC: 2.351 (Simulation time: 01 hr 30 min 22 sec)

ChampSim completed all CPUs

=== Simulation ===
CPU 0 runs traces/400.perlbench-50B.champsimtrace.xz
Region of Interest Statistics

CPU 0 cumulative IPC: 2.351 instructions: 600000001 cycles: 255215392
CPU 0 Branch Prediction Accuracy: 99.01% MPKI: 2.04 Average ROB Occupancy at Mispredict: 95.33
Branch type MPKI
BRANCH_DIRECT_JUMP: 0.0176
BRANCH_INDIRECT: 0.38
BRANCH_CONDITIONAL: 1.19
BRANCH_DIRECT_CALL: 0.0067
BRANCH_INDIRECT_CALL: 0.431
BRANCH_RETURN: 0.0161

LLC TOTAL        ACCESS:     847805 HIT:     477092 MISS:     370713
LLC LOAD         ACCESS:     584603 HIT:     296545 MISS:     288058
LLC RFO          ACCESS:      47417 HIT:      26221 MISS:      21196
LLC PREFETCH     ACCESS:      65297 HIT:      34655 MISS:      30642
LLC WRITE        ACCESS:     128386 HIT:     111309 MISS:      17077
LLC TRANSLATION  ACCESS:      22102 HIT:       8362 MISS:      13740
LLC PREFETCH REQUESTED:      65297 ISSUED:      65297 USEFUL:      19627 USELESS:       5562
LLC AVERAGE MISS LATENCY: 573.3 cycles
cpu0_DTLB TOTAL        ACCESS:  133233399 HIT:  131878041 MISS:    1355358
cpu0_DTLB LOAD         ACCESS:  133233399 HIT:  131878041 MISS:    1355358
cpu0_DTLB RFO          ACCESS:          0 HIT:          0 MISS:          0
cpu0_DTLB PREFETCH     ACCESS:          0 HIT:          0 MISS:          0
cpu0_DTLB WRITE        ACCESS:          0 HIT:          0 MISS:          0
cpu0_DTLB TRANSLATION  ACCESS:          0 HIT:          0 MISS:          0
cpu0_DTLB PREFETCH REQUESTED:          0 ISSUED:          0 USEFUL:          0 USELESS:          0
cpu0_DTLB AVERAGE MISS LATENCY: 12.69 cycles
cpu0_ITLB TOTAL        ACCESS:    9001116 HIT:    8791699 MISS:     209417
cpu0_ITLB LOAD         ACCESS:    9001116 HIT:    8791699 MISS:     209417
cpu0_ITLB RFO          ACCESS:          0 HIT:          0 MISS:          0
cpu0_ITLB PREFETCH     ACCESS:          0 HIT:          0 MISS:          0
cpu0_ITLB WRITE        ACCESS:          0 HIT:          0 MISS:          0
cpu0_ITLB TRANSLATION  ACCESS:          0 HIT:          0 MISS:          0
cpu0_ITLB PREFETCH REQUESTED:          0 ISSUED:          0 USEFUL:          0 USELESS:          0
cpu0_ITLB AVERAGE MISS LATENCY: 2.987 cycles
cpu0_L1D TOTAL        ACCESS:  178247182 HIT:  174440359 MISS:    3806823
cpu0_L1D LOAD         ACCESS:   92727623 HIT:   89604851 MISS:    3122772
cpu0_L1D RFO          ACCESS:          0 HIT:          0 MISS:          0
cpu0_L1D PREFETCH     ACCESS:          0 HIT:          0 MISS:          0
cpu0_L1D WRITE        ACCESS:   85491031 HIT:   84834095 MISS:     656936
cpu0_L1D TRANSLATION  ACCESS:      28528 HIT:       1413 MISS:      27115
cpu0_L1D PREFETCH REQUESTED:          0 ISSUED:          0 USEFUL:          0 USELESS:          0
cpu0_L1D AVERAGE MISS LATENCY: 53.51 cycles
cpu0_L1I TOTAL        ACCESS:   10520401 HIT:    8622814 MISS:    1897587
cpu0_L1I LOAD         ACCESS:   10520401 HIT:    8622814 MISS:    1897587
cpu0_L1I RFO          ACCESS:          0 HIT:          0 MISS:          0
cpu0_L1I PREFETCH     ACCESS:          0 HIT:          0 MISS:          0
cpu0_L1I WRITE        ACCESS:          0 HIT:          0 MISS:          0
cpu0_L1I TRANSLATION  ACCESS:          0 HIT:          0 MISS:          0
cpu0_L1I PREFETCH REQUESTED:          0 ISSUED:          0 USEFUL:          0 USELESS:          0
cpu0_L1I AVERAGE MISS LATENCY: 11.2 cycles
cpu0_L2C TOTAL        ACCESS:    3840540 HIT:    3183124 MISS:     657416
cpu0_L2C LOAD         ACCESS:    3103733 HIT:    2519129 MISS:     584604
cpu0_L2C RFO          ACCESS:     195052 HIT:     147635 MISS:      47417
cpu0_L2C PREFETCH     ACCESS:          0 HIT:          0 MISS:          0
cpu0_L2C WRITE        ACCESS:     514718 HIT:     511425 MISS:       3293
cpu0_L2C TRANSLATION  ACCESS:      27037 HIT:       4935 MISS:      22102
cpu0_L2C PREFETCH REQUESTED:          0 ISSUED:          0 USEFUL:          0 USELESS:          0
cpu0_L2C AVERAGE MISS LATENCY: 314.2 cycles
cpu0_STLB TOTAL        ACCESS:    1010003 HIT:     983312 MISS:      26691
cpu0_STLB LOAD         ACCESS:    1010003 HIT:     983312 MISS:      26691
cpu0_STLB RFO          ACCESS:          0 HIT:          0 MISS:          0
cpu0_STLB PREFETCH     ACCESS:          0 HIT:          0 MISS:          0
cpu0_STLB WRITE        ACCESS:          0 HIT:          0 MISS:          0
cpu0_STLB TRANSLATION  ACCESS:          0 HIT:          0 MISS:          0
cpu0_STLB PREFETCH REQUESTED:          0 ISSUED:          0 USEFUL:          0 USELESS:          0
cpu0_STLB AVERAGE MISS LATENCY: 445.8 cycles

DRAM Statistics

Channel 0 RQ ROW_BUFFER_HIT:      72647
  ROW_BUFFER_MISS:     274327
 AVG DBUS CONGESTED CYCLE: 3.838
WQ ROW_BUFFER_HIT: Channel 0 
  ROW_BUFFER_MISS:       7687
  FULL:      42295
Final OPTGen Hits: 6612
Final OPTGen Access: 9836
Final OPTGEN Hit Rate: 67.2225
