WARNING: physical memory size is smaller than virtual memory size.

*** ChampSim Multicore Out-of-Order Simulator ***
Warmup Instructions: 50000000
Simulation Instructions: 600000000
Number of CPUs: 1
Page size: 4096

Off-chip DRAM Size: 4 GiB Channels: 1 Width: 64-bit Data Race: 3200 MT/s
Heartbeat CPU 0 instructions: 10000000 cycles: 2500061 heartbeat IPC: 4 cumulative IPC: 4 (Simulation time: 00 hr 00 min 36 sec)
Heartbeat CPU 0 instructions: 20000000 cycles: 5000061 heartbeat IPC: 4 cumulative IPC: 4 (Simulation time: 00 hr 01 min 10 sec)
Heartbeat CPU 0 instructions: 30000000 cycles: 7500061 heartbeat IPC: 4 cumulative IPC: 4 (Simulation time: 00 hr 01 min 45 sec)
Heartbeat CPU 0 instructions: 40000000 cycles: 10000061 heartbeat IPC: 4 cumulative IPC: 4 (Simulation time: 00 hr 02 min 18 sec)
Heartbeat CPU 0 instructions: 50000000 cycles: 12500061 heartbeat IPC: 4 cumulative IPC: 4 (Simulation time: 00 hr 02 min 52 sec)
Warmup finished CPU 0 instructions: 50000000 cycles: 12500062 cumulative IPC: 4 (Simulation time: 00 hr 02 min 52 sec)
Warmup complete CPU 0 instructions: 50000000 cycles: 12500062 cumulative IPC: 4 (Simulation time: 00 hr 02 min 52 sec)
Heartbeat CPU 0 instructions: 60000002 cycles: 16446623 heartbeat IPC: 2.534 cumulative IPC: 2.534 (Simulation time: 00 hr 03 min 38 sec)
Heartbeat CPU 0 instructions: 70000003 cycles: 20770663 heartbeat IPC: 2.313 cumulative IPC: 2.418 (Simulation time: 00 hr 04 min 24 sec)
Heartbeat CPU 0 instructions: 80000003 cycles: 25247437 heartbeat IPC: 2.234 cumulative IPC: 2.353 (Simulation time: 00 hr 05 min 12 sec)
Heartbeat CPU 0 instructions: 90000000 cycles: 28939876 heartbeat IPC: 2.708 cumulative IPC: 2.433 (Simulation time: 00 hr 05 min 58 sec)
Heartbeat CPU 0 instructions: 100000003 cycles: 32843908 heartbeat IPC: 2.561 cumulative IPC: 2.458 (Simulation time: 00 hr 06 min 43 sec)
Heartbeat CPU 0 instructions: 110000002 cycles: 36950135 heartbeat IPC: 2.435 cumulative IPC: 2.454 (Simulation time: 00 hr 07 min 30 sec)
Heartbeat CPU 0 instructions: 120000001 cycles: 40668359 heartbeat IPC: 2.689 cumulative IPC: 2.485 (Simulation time: 00 hr 08 min 17 sec)
Heartbeat CPU 0 instructions: 130000003 cycles: 44444328 heartbeat IPC: 2.648 cumulative IPC: 2.504 (Simulation time: 00 hr 09 min 00 sec)
Heartbeat CPU 0 instructions: 140000002 cycles: 48579315 heartbeat IPC: 2.418 cumulative IPC: 2.495 (Simulation time: 00 hr 09 min 42 sec)
Heartbeat CPU 0 instructions: 150000001 cycles: 52632664 heartbeat IPC: 2.467 cumulative IPC: 2.492 (Simulation time: 00 hr 10 min 25 sec)
Heartbeat CPU 0 instructions: 160000000 cycles: 56291651 heartbeat IPC: 2.733 cumulative IPC: 2.512 (Simulation time: 00 hr 11 min 08 sec)
Heartbeat CPU 0 instructions: 170000001 cycles: 60472265 heartbeat IPC: 2.392 cumulative IPC: 2.501 (Simulation time: 00 hr 11 min 54 sec)
Heartbeat CPU 0 instructions: 180000001 cycles: 63937266 heartbeat IPC: 2.886 cumulative IPC: 2.527 (Simulation time: 00 hr 12 min 39 sec)
Heartbeat CPU 0 instructions: 190000002 cycles: 67527991 heartbeat IPC: 2.785 cumulative IPC: 2.544 (Simulation time: 00 hr 13 min 27 sec)
Heartbeat CPU 0 instructions: 200000002 cycles: 71313371 heartbeat IPC: 2.642 cumulative IPC: 2.55 (Simulation time: 00 hr 14 min 11 sec)
Heartbeat CPU 0 instructions: 210000000 cycles: 74955304 heartbeat IPC: 2.746 cumulative IPC: 2.562 (Simulation time: 00 hr 14 min 55 sec)
Heartbeat CPU 0 instructions: 220000001 cycles: 78829096 heartbeat IPC: 2.581 cumulative IPC: 2.563 (Simulation time: 00 hr 15 min 39 sec)
Heartbeat CPU 0 instructions: 230000002 cycles: 82672692 heartbeat IPC: 2.602 cumulative IPC: 2.565 (Simulation time: 00 hr 16 min 26 sec)
Heartbeat CPU 0 instructions: 240000001 cycles: 86884983 heartbeat IPC: 2.374 cumulative IPC: 2.554 (Simulation time: 00 hr 17 min 10 sec)
Heartbeat CPU 0 instructions: 250000003 cycles: 91459510 heartbeat IPC: 2.186 cumulative IPC: 2.533 (Simulation time: 00 hr 17 min 55 sec)
Heartbeat CPU 0 instructions: 260000000 cycles: 95257013 heartbeat IPC: 2.633 cumulative IPC: 2.538 (Simulation time: 00 hr 18 min 37 sec)
Heartbeat CPU 0 instructions: 270000003 cycles: 102477793 heartbeat IPC: 1.385 cumulative IPC: 2.445 (Simulation time: 00 hr 19 min 38 sec)
Heartbeat CPU 0 instructions: 280000000 cycles: 114271703 heartbeat IPC: 0.8479 cumulative IPC: 2.26 (Simulation time: 00 hr 21 min 03 sec)
Heartbeat CPU 0 instructions: 290000000 cycles: 124840763 heartbeat IPC: 0.9462 cumulative IPC: 2.136 (Simulation time: 00 hr 22 min 22 sec)
Heartbeat CPU 0 instructions: 300000003 cycles: 132337710 heartbeat IPC: 1.334 cumulative IPC: 2.086 (Simulation time: 00 hr 23 min 28 sec)
Heartbeat CPU 0 instructions: 310000004 cycles: 143687083 heartbeat IPC: 0.8811 cumulative IPC: 1.982 (Simulation time: 00 hr 24 min 51 sec)
Heartbeat CPU 0 instructions: 320000004 cycles: 148786505 heartbeat IPC: 1.961 cumulative IPC: 1.981 (Simulation time: 00 hr 25 min 42 sec)
Heartbeat CPU 0 instructions: 330000000 cycles: 152855839 heartbeat IPC: 2.457 cumulative IPC: 1.995 (Simulation time: 00 hr 26 min 29 sec)
Heartbeat CPU 0 instructions: 340000001 cycles: 157155737 heartbeat IPC: 2.326 cumulative IPC: 2.005 (Simulation time: 00 hr 27 min 17 sec)
Heartbeat CPU 0 instructions: 350000004 cycles: 161629231 heartbeat IPC: 2.235 cumulative IPC: 2.012 (Simulation time: 00 hr 28 min 06 sec)
Heartbeat CPU 0 instructions: 360000003 cycles: 165794477 heartbeat IPC: 2.401 cumulative IPC: 2.022 (Simulation time: 00 hr 28 min 54 sec)
Heartbeat CPU 0 instructions: 370000001 cycles: 169859620 heartbeat IPC: 2.46 cumulative IPC: 2.034 (Simulation time: 00 hr 29 min 44 sec)
Heartbeat CPU 0 instructions: 380000004 cycles: 173785927 heartbeat IPC: 2.547 cumulative IPC: 2.046 (Simulation time: 00 hr 30 min 32 sec)
Heartbeat CPU 0 instructions: 390000002 cycles: 177891570 heartbeat IPC: 2.436 cumulative IPC: 2.056 (Simulation time: 00 hr 31 min 20 sec)
Heartbeat CPU 0 instructions: 400000000 cycles: 182284752 heartbeat IPC: 2.276 cumulative IPC: 2.061 (Simulation time: 00 hr 32 min 09 sec)
Heartbeat CPU 0 instructions: 410000000 cycles: 190217933 heartbeat IPC: 1.261 cumulative IPC: 2.026 (Simulation time: 00 hr 33 min 18 sec)
Heartbeat CPU 0 instructions: 420000003 cycles: 201726605 heartbeat IPC: 0.8689 cumulative IPC: 1.955 (Simulation time: 00 hr 34 min 50 sec)
Heartbeat CPU 0 instructions: 430000000 cycles: 209507454 heartbeat IPC: 1.285 cumulative IPC: 1.929 (Simulation time: 00 hr 36 min 02 sec)
Heartbeat CPU 0 instructions: 440000004 cycles: 216553864 heartbeat IPC: 1.419 cumulative IPC: 1.911 (Simulation time: 00 hr 37 min 09 sec)
Heartbeat CPU 0 instructions: 450000001 cycles: 223571796 heartbeat IPC: 1.425 cumulative IPC: 1.895 (Simulation time: 00 hr 38 min 15 sec)
Heartbeat CPU 0 instructions: 460000002 cycles: 234795124 heartbeat IPC: 0.891 cumulative IPC: 1.844 (Simulation time: 00 hr 39 min 46 sec)
Heartbeat CPU 0 instructions: 470000003 cycles: 244454431 heartbeat IPC: 1.035 cumulative IPC: 1.811 (Simulation time: 00 hr 41 min 06 sec)
Heartbeat CPU 0 instructions: 480000003 cycles: 248732671 heartbeat IPC: 2.337 cumulative IPC: 1.82 (Simulation time: 00 hr 41 min 52 sec)
Heartbeat CPU 0 instructions: 490000001 cycles: 253490704 heartbeat IPC: 2.102 cumulative IPC: 1.826 (Simulation time: 00 hr 42 min 39 sec)
Heartbeat CPU 0 instructions: 500000002 cycles: 257974581 heartbeat IPC: 2.23 cumulative IPC: 1.833 (Simulation time: 00 hr 43 min 25 sec)
Heartbeat CPU 0 instructions: 510000000 cycles: 262276662 heartbeat IPC: 2.324 cumulative IPC: 1.842 (Simulation time: 00 hr 44 min 12 sec)
Heartbeat CPU 0 instructions: 520000000 cycles: 266764952 heartbeat IPC: 2.228 cumulative IPC: 1.848 (Simulation time: 00 hr 45 min 02 sec)
Heartbeat CPU 0 instructions: 530000001 cycles: 278777841 heartbeat IPC: 0.8324 cumulative IPC: 1.803 (Simulation time: 00 hr 46 min 31 sec)
Heartbeat CPU 0 instructions: 540000000 cycles: 290180914 heartbeat IPC: 0.877 cumulative IPC: 1.765 (Simulation time: 00 hr 47 min 59 sec)
Heartbeat CPU 0 instructions: 550000004 cycles: 302968295 heartbeat IPC: 0.782 cumulative IPC: 1.721 (Simulation time: 00 hr 49 min 33 sec)
Heartbeat CPU 0 instructions: 560000004 cycles: 307231984 heartbeat IPC: 2.345 cumulative IPC: 1.73 (Simulation time: 00 hr 50 min 22 sec)
Heartbeat CPU 0 instructions: 570000001 cycles: 310361269 heartbeat IPC: 3.196 cumulative IPC: 1.746 (Simulation time: 00 hr 51 min 06 sec)
Heartbeat CPU 0 instructions: 580000003 cycles: 313910543 heartbeat IPC: 2.817 cumulative IPC: 1.758 (Simulation time: 00 hr 51 min 49 sec)
Heartbeat CPU 0 instructions: 590000002 cycles: 317537357 heartbeat IPC: 2.757 cumulative IPC: 1.77 (Simulation time: 00 hr 52 min 32 sec)
Heartbeat CPU 0 instructions: 600000003 cycles: 320604503 heartbeat IPC: 3.26 cumulative IPC: 1.785 (Simulation time: 00 hr 53 min 13 sec)
Heartbeat CPU 0 instructions: 610000001 cycles: 324112615 heartbeat IPC: 2.851 cumulative IPC: 1.797 (Simulation time: 00 hr 53 min 57 sec)
Heartbeat CPU 0 instructions: 620000000 cycles: 328130226 heartbeat IPC: 2.489 cumulative IPC: 1.806 (Simulation time: 00 hr 54 min 44 sec)
Heartbeat CPU 0 instructions: 630000002 cycles: 331498348 heartbeat IPC: 2.969 cumulative IPC: 1.818 (Simulation time: 00 hr 55 min 30 sec)
Heartbeat CPU 0 instructions: 640000004 cycles: 335510225 heartbeat IPC: 2.493 cumulative IPC: 1.827 (Simulation time: 00 hr 56 min 18 sec)
Heartbeat CPU 0 instructions: 650000001 cycles: 339334145 heartbeat IPC: 2.615 cumulative IPC: 1.836 (Simulation time: 00 hr 57 min 03 sec)
Simulation finished CPU 0 instructions: 600000001 cycles: 326834084 cumulative IPC: 1.836 (Simulation time: 00 hr 57 min 03 sec)
Simulation complete CPU 0 instructions: 600000001 cycles: 326834084 cumulative IPC: 1.836 (Simulation time: 00 hr 57 min 03 sec)

ChampSim completed all CPUs

=== Simulation ===
CPU 0 runs traces/400.perlbench-50B.champsimtrace.xz
Region of Interest Statistics

CPU 0 cumulative IPC: 1.836 instructions: 600000001 cycles: 326834084
CPU 0 Branch Prediction Accuracy: 96.2% MPKI: 7.839 Average ROB Occupancy at Mispredict: 43.86
Branch type MPKI
BRANCH_DIRECT_JUMP: 0.0176
BRANCH_INDIRECT: 0.38
BRANCH_CONDITIONAL: 6.99
BRANCH_DIRECT_CALL: 0.0067
BRANCH_INDIRECT_CALL: 0.431
BRANCH_RETURN: 0.0161

LLC TOTAL        ACCESS:     783493 HIT:     471360 MISS:     312133
LLC LOAD         ACCESS:     585328 HIT:     310620 MISS:     274708
LLC RFO          ACCESS:      47656 HIT:      26823 MISS:      20833
LLC PREFETCH     ACCESS:          0 HIT:          0 MISS:          0
LLC WRITE        ACCESS:     128441 HIT:     124220 MISS:       4221
LLC TRANSLATION  ACCESS:      22068 HIT:       9697 MISS:      12371
LLC PREFETCH REQUESTED:          0 ISSUED:          0 USEFUL:          0 USELESS:          0
LLC AVERAGE MISS LATENCY: 537.1 cycles
cpu0_DTLB TOTAL        ACCESS:  146498145 HIT:  145191748 MISS:    1306397
cpu0_DTLB LOAD         ACCESS:  146498145 HIT:  145191748 MISS:    1306397
cpu0_DTLB RFO          ACCESS:          0 HIT:          0 MISS:          0
cpu0_DTLB PREFETCH     ACCESS:          0 HIT:          0 MISS:          0
cpu0_DTLB WRITE        ACCESS:          0 HIT:          0 MISS:          0
cpu0_DTLB TRANSLATION  ACCESS:          0 HIT:          0 MISS:          0
cpu0_DTLB PREFETCH REQUESTED:          0 ISSUED:          0 USEFUL:          0 USELESS:          0
cpu0_DTLB AVERAGE MISS LATENCY: 12.06 cycles
cpu0_ITLB TOTAL        ACCESS:    8990794 HIT:    8806220 MISS:     184574
cpu0_ITLB LOAD         ACCESS:    8990794 HIT:    8806220 MISS:     184574
cpu0_ITLB RFO          ACCESS:          0 HIT:          0 MISS:          0
cpu0_ITLB PREFETCH     ACCESS:          0 HIT:          0 MISS:          0
cpu0_ITLB WRITE        ACCESS:          0 HIT:          0 MISS:          0
cpu0_ITLB TRANSLATION  ACCESS:          0 HIT:          0 MISS:          0
cpu0_ITLB PREFETCH REQUESTED:          0 ISSUED:          0 USEFUL:          0 USELESS:          0
cpu0_ITLB AVERAGE MISS LATENCY: 3.564 cycles
cpu0_L1D TOTAL        ACCESS:  193261132 HIT:  189589334 MISS:    3671798
cpu0_L1D LOAD         ACCESS:  107416056 HIT:  104395518 MISS:    3020538
cpu0_L1D RFO          ACCESS:          0 HIT:          0 MISS:          0
cpu0_L1D PREFETCH     ACCESS:          0 HIT:          0 MISS:          0
cpu0_L1D WRITE        ACCESS:   85816551 HIT:   85192390 MISS:     624161
cpu0_L1D TRANSLATION  ACCESS:      28525 HIT:       1426 MISS:      27099
cpu0_L1D PREFETCH REQUESTED:          0 ISSUED:          0 USEFUL:          0 USELESS:          0
cpu0_L1D AVERAGE MISS LATENCY: 50.52 cycles
cpu0_L1I TOTAL        ACCESS:   10424804 HIT:    8662299 MISS:    1762505
cpu0_L1I LOAD         ACCESS:   10424804 HIT:    8662299 MISS:    1762505
cpu0_L1I RFO          ACCESS:          0 HIT:          0 MISS:          0
cpu0_L1I PREFETCH     ACCESS:          0 HIT:          0 MISS:          0
cpu0_L1I WRITE        ACCESS:          0 HIT:          0 MISS:          0
cpu0_L1I TRANSLATION  ACCESS:          0 HIT:          0 MISS:          0
cpu0_L1I PREFETCH REQUESTED:          0 ISSUED:          0 USEFUL:          0 USELESS:          0
cpu0_L1I AVERAGE MISS LATENCY: 11.51 cycles
cpu0_L2C TOTAL        ACCESS:    3834528 HIT:    3176243 MISS:     658285
cpu0_L2C LOAD         ACCESS:    3104887 HIT:    2519559 MISS:     585328
cpu0_L2C RFO          ACCESS:     191576 HIT:     143920 MISS:      47656
cpu0_L2C PREFETCH     ACCESS:          0 HIT:          0 MISS:          0
cpu0_L2C WRITE        ACCESS:     511031 HIT:     507798 MISS:       3233
cpu0_L2C TRANSLATION  ACCESS:      27034 HIT:       4966 MISS:      22068
cpu0_L2C PREFETCH REQUESTED:          0 ISSUED:          0 USEFUL:          0 USELESS:          0
cpu0_L2C AVERAGE MISS LATENCY: 275 cycles
cpu0_STLB TOTAL        ACCESS:    1008806 HIT:     982111 MISS:      26695
cpu0_STLB LOAD         ACCESS:    1008806 HIT:     982111 MISS:      26695
cpu0_STLB RFO          ACCESS:          0 HIT:          0 MISS:          0
cpu0_STLB PREFETCH     ACCESS:          0 HIT:          0 MISS:          0
cpu0_STLB WRITE        ACCESS:          0 HIT:          0 MISS:          0
cpu0_STLB TRANSLATION  ACCESS:          0 HIT:          0 MISS:          0
cpu0_STLB PREFETCH REQUESTED:          0 ISSUED:          0 USEFUL:          0 USELESS:          0
cpu0_STLB AVERAGE MISS LATENCY: 372.6 cycles

DRAM Statistics

Channel 0 RQ ROW_BUFFER_HIT:      57083
  ROW_BUFFER_MISS:     250795
 AVG DBUS CONGESTED CYCLE: 3.802
WQ ROW_BUFFER_HIT: Channel 0 
  ROW_BUFFER_MISS:       9515
  FULL:      36708
