WARNING: physical memory size is smaller than virtual memory size.

*** ChampSim Multicore Out-of-Order Simulator ***
Warmup Instructions: 50000000
Simulation Instructions: 600000000
Number of CPUs: 1
Page size: 4096

CPU 0 Tage branch predictor
Off-chip DRAM Size: 4 GiB Channels: 1 Width: 64-bit Data Race: 3200 MT/s
Heartbeat CPU 0 instructions: 10000001 cycles: 2500318 heartbeat IPC: 3.999 cumulative IPC: 3.999 (Simulation time: 00 hr 00 min 42 sec)
Heartbeat CPU 0 instructions: 20000002 cycles: 5037129 heartbeat IPC: 3.942 cumulative IPC: 3.971 (Simulation time: 00 hr 01 min 26 sec)
Heartbeat CPU 0 instructions: 30000002 cycles: 7537129 heartbeat IPC: 4 cumulative IPC: 3.98 (Simulation time: 00 hr 02 min 06 sec)
Heartbeat CPU 0 instructions: 40000002 cycles: 10037129 heartbeat IPC: 4 cumulative IPC: 3.985 (Simulation time: 00 hr 02 min 46 sec)
Heartbeat CPU 0 instructions: 50000002 cycles: 12537129 heartbeat IPC: 4 cumulative IPC: 3.988 (Simulation time: 00 hr 03 min 27 sec)
Warmup finished CPU 0 instructions: 50000002 cycles: 12537130 cumulative IPC: 3.988 (Simulation time: 00 hr 03 min 27 sec)
Warmup complete CPU 0 instructions: 50000002 cycles: 12537130 cumulative IPC: 3.988 (Simulation time: 00 hr 03 min 27 sec)
Heartbeat CPU 0 instructions: 60000001 cycles: 15527023 heartbeat IPC: 3.345 cumulative IPC: 3.345 (Simulation time: 00 hr 04 min 19 sec)
Heartbeat CPU 0 instructions: 70000004 cycles: 18618566 heartbeat IPC: 3.235 cumulative IPC: 3.289 (Simulation time: 00 hr 05 min 10 sec)
Heartbeat CPU 0 instructions: 80000001 cycles: 21683171 heartbeat IPC: 3.263 cumulative IPC: 3.28 (Simulation time: 00 hr 05 min 59 sec)
Heartbeat CPU 0 instructions: 90000001 cycles: 24644166 heartbeat IPC: 3.377 cumulative IPC: 3.304 (Simulation time: 00 hr 06 min 47 sec)
Heartbeat CPU 0 instructions: 100000000 cycles: 27575341 heartbeat IPC: 3.412 cumulative IPC: 3.325 (Simulation time: 00 hr 07 min 35 sec)
Heartbeat CPU 0 instructions: 110000000 cycles: 30528756 heartbeat IPC: 3.386 cumulative IPC: 3.335 (Simulation time: 00 hr 08 min 24 sec)
Heartbeat CPU 0 instructions: 120000001 cycles: 33518133 heartbeat IPC: 3.345 cumulative IPC: 3.336 (Simulation time: 00 hr 09 min 12 sec)
Heartbeat CPU 0 instructions: 130000001 cycles: 36393041 heartbeat IPC: 3.478 cumulative IPC: 3.353 (Simulation time: 00 hr 10 min 00 sec)
Heartbeat CPU 0 instructions: 140000001 cycles: 39467727 heartbeat IPC: 3.252 cumulative IPC: 3.342 (Simulation time: 00 hr 10 min 49 sec)
Heartbeat CPU 0 instructions: 150000001 cycles: 42499172 heartbeat IPC: 3.299 cumulative IPC: 3.338 (Simulation time: 00 hr 11 min 35 sec)
Heartbeat CPU 0 instructions: 160000004 cycles: 45539903 heartbeat IPC: 3.289 cumulative IPC: 3.333 (Simulation time: 00 hr 12 min 23 sec)
Heartbeat CPU 0 instructions: 170000000 cycles: 52116628 heartbeat IPC: 1.521 cumulative IPC: 3.032 (Simulation time: 00 hr 13 min 35 sec)
Heartbeat CPU 0 instructions: 180000004 cycles: 59446048 heartbeat IPC: 1.364 cumulative IPC: 2.771 (Simulation time: 00 hr 14 min 53 sec)
Heartbeat CPU 0 instructions: 190000001 cycles: 68988977 heartbeat IPC: 1.048 cumulative IPC: 2.48 (Simulation time: 00 hr 16 min 23 sec)
Heartbeat CPU 0 instructions: 200000004 cycles: 71971106 heartbeat IPC: 3.353 cumulative IPC: 2.524 (Simulation time: 00 hr 17 min 11 sec)
Heartbeat CPU 0 instructions: 210000001 cycles: 74940712 heartbeat IPC: 3.367 cumulative IPC: 2.564 (Simulation time: 00 hr 17 min 58 sec)
Heartbeat CPU 0 instructions: 220000000 cycles: 77841282 heartbeat IPC: 3.448 cumulative IPC: 2.603 (Simulation time: 00 hr 18 min 45 sec)
Heartbeat CPU 0 instructions: 230000002 cycles: 80880288 heartbeat IPC: 3.291 cumulative IPC: 2.634 (Simulation time: 00 hr 19 min 33 sec)
Heartbeat CPU 0 instructions: 240000003 cycles: 83938667 heartbeat IPC: 3.27 cumulative IPC: 2.661 (Simulation time: 00 hr 20 min 21 sec)
Heartbeat CPU 0 instructions: 250000000 cycles: 86983400 heartbeat IPC: 3.284 cumulative IPC: 2.687 (Simulation time: 00 hr 21 min 09 sec)
Heartbeat CPU 0 instructions: 260000002 cycles: 89970139 heartbeat IPC: 3.348 cumulative IPC: 2.712 (Simulation time: 00 hr 21 min 58 sec)
Heartbeat CPU 0 instructions: 270000002 cycles: 92895394 heartbeat IPC: 3.419 cumulative IPC: 2.738 (Simulation time: 00 hr 22 min 48 sec)
Heartbeat CPU 0 instructions: 280000002 cycles: 95794447 heartbeat IPC: 3.449 cumulative IPC: 2.763 (Simulation time: 00 hr 23 min 37 sec)
Heartbeat CPU 0 instructions: 290000002 cycles: 98773215 heartbeat IPC: 3.357 cumulative IPC: 2.783 (Simulation time: 00 hr 24 min 26 sec)
Heartbeat CPU 0 instructions: 300000003 cycles: 101695117 heartbeat IPC: 3.422 cumulative IPC: 2.804 (Simulation time: 00 hr 25 min 16 sec)
Heartbeat CPU 0 instructions: 310000001 cycles: 104762691 heartbeat IPC: 3.26 cumulative IPC: 2.819 (Simulation time: 00 hr 26 min 05 sec)
Heartbeat CPU 0 instructions: 320000003 cycles: 107792960 heartbeat IPC: 3.3 cumulative IPC: 2.834 (Simulation time: 00 hr 26 min 54 sec)
Heartbeat CPU 0 instructions: 330000003 cycles: 110816619 heartbeat IPC: 3.307 cumulative IPC: 2.849 (Simulation time: 00 hr 27 min 44 sec)
Heartbeat CPU 0 instructions: 340000000 cycles: 117618391 heartbeat IPC: 1.47 cumulative IPC: 2.76 (Simulation time: 00 hr 28 min 58 sec)
Heartbeat CPU 0 instructions: 350000000 cycles: 125487123 heartbeat IPC: 1.271 cumulative IPC: 2.656 (Simulation time: 00 hr 30 min 19 sec)
Heartbeat CPU 0 instructions: 360000004 cycles: 134700115 heartbeat IPC: 1.085 cumulative IPC: 2.538 (Simulation time: 00 hr 31 min 48 sec)
Heartbeat CPU 0 instructions: 370000000 cycles: 137683867 heartbeat IPC: 3.351 cumulative IPC: 2.557 (Simulation time: 00 hr 32 min 37 sec)
Heartbeat CPU 0 instructions: 380000003 cycles: 140611996 heartbeat IPC: 3.415 cumulative IPC: 2.577 (Simulation time: 00 hr 33 min 27 sec)
Heartbeat CPU 0 instructions: 390000002 cycles: 143598673 heartbeat IPC: 3.348 cumulative IPC: 2.594 (Simulation time: 00 hr 34 min 15 sec)
Heartbeat CPU 0 instructions: 400000004 cycles: 146508906 heartbeat IPC: 3.436 cumulative IPC: 2.612 (Simulation time: 00 hr 35 min 03 sec)
Heartbeat CPU 0 instructions: 410000002 cycles: 149472004 heartbeat IPC: 3.375 cumulative IPC: 2.629 (Simulation time: 00 hr 35 min 51 sec)
Heartbeat CPU 0 instructions: 420000003 cycles: 152620477 heartbeat IPC: 3.176 cumulative IPC: 2.641 (Simulation time: 00 hr 36 min 40 sec)
Heartbeat CPU 0 instructions: 430000001 cycles: 155657173 heartbeat IPC: 3.293 cumulative IPC: 2.655 (Simulation time: 00 hr 37 min 29 sec)
Heartbeat CPU 0 instructions: 440000004 cycles: 158809068 heartbeat IPC: 3.173 cumulative IPC: 2.666 (Simulation time: 00 hr 38 min 18 sec)
Heartbeat CPU 0 instructions: 450000002 cycles: 161747087 heartbeat IPC: 3.404 cumulative IPC: 2.681 (Simulation time: 00 hr 39 min 06 sec)
Heartbeat CPU 0 instructions: 460000000 cycles: 164702046 heartbeat IPC: 3.384 cumulative IPC: 2.694 (Simulation time: 00 hr 39 min 55 sec)
Heartbeat CPU 0 instructions: 470000001 cycles: 167573503 heartbeat IPC: 3.483 cumulative IPC: 2.709 (Simulation time: 00 hr 40 min 43 sec)
Heartbeat CPU 0 instructions: 480000003 cycles: 170666536 heartbeat IPC: 3.233 cumulative IPC: 2.719 (Simulation time: 00 hr 41 min 32 sec)
Heartbeat CPU 0 instructions: 490000004 cycles: 173506099 heartbeat IPC: 3.522 cumulative IPC: 2.733 (Simulation time: 00 hr 42 min 19 sec)
Heartbeat CPU 0 instructions: 500000004 cycles: 176504488 heartbeat IPC: 3.335 cumulative IPC: 2.744 (Simulation time: 00 hr 43 min 08 sec)
Heartbeat CPU 0 instructions: 510000003 cycles: 179605703 heartbeat IPC: 3.225 cumulative IPC: 2.753 (Simulation time: 00 hr 43 min 59 sec)
Heartbeat CPU 0 instructions: 520000001 cycles: 182508179 heartbeat IPC: 3.445 cumulative IPC: 2.765 (Simulation time: 00 hr 44 min 48 sec)
Heartbeat CPU 0 instructions: 530000001 cycles: 185561549 heartbeat IPC: 3.275 cumulative IPC: 2.774 (Simulation time: 00 hr 45 min 37 sec)
Heartbeat CPU 0 instructions: 540000000 cycles: 188534760 heartbeat IPC: 3.363 cumulative IPC: 2.784 (Simulation time: 00 hr 46 min 25 sec)
Heartbeat CPU 0 instructions: 550000001 cycles: 191533748 heartbeat IPC: 3.334 cumulative IPC: 2.793 (Simulation time: 00 hr 47 min 15 sec)
Heartbeat CPU 0 instructions: 560000000 cycles: 194699977 heartbeat IPC: 3.158 cumulative IPC: 2.8 (Simulation time: 00 hr 48 min 05 sec)
Heartbeat CPU 0 instructions: 570000004 cycles: 200234778 heartbeat IPC: 1.807 cumulative IPC: 2.77 (Simulation time: 00 hr 49 min 11 sec)
Heartbeat CPU 0 instructions: 580000003 cycles: 206309537 heartbeat IPC: 1.646 cumulative IPC: 2.735 (Simulation time: 00 hr 50 min 22 sec)
Heartbeat CPU 0 instructions: 590000002 cycles: 218316422 heartbeat IPC: 0.8329 cumulative IPC: 2.624 (Simulation time: 00 hr 52 min 09 sec)
Heartbeat CPU 0 instructions: 600000004 cycles: 221467035 heartbeat IPC: 3.174 cumulative IPC: 2.632 (Simulation time: 00 hr 52 min 59 sec)
Heartbeat CPU 0 instructions: 610000002 cycles: 224441423 heartbeat IPC: 3.362 cumulative IPC: 2.643 (Simulation time: 00 hr 53 min 45 sec)
Heartbeat CPU 0 instructions: 620000001 cycles: 227216954 heartbeat IPC: 3.603 cumulative IPC: 2.655 (Simulation time: 00 hr 54 min 32 sec)
Heartbeat CPU 0 instructions: 630000002 cycles: 230193659 heartbeat IPC: 3.359 cumulative IPC: 2.665 (Simulation time: 00 hr 55 min 20 sec)
Heartbeat CPU 0 instructions: 640000004 cycles: 233146850 heartbeat IPC: 3.386 cumulative IPC: 2.674 (Simulation time: 00 hr 56 min 10 sec)
Heartbeat CPU 0 instructions: 650000000 cycles: 235900326 heartbeat IPC: 3.632 cumulative IPC: 2.686 (Simulation time: 00 hr 56 min 56 sec)
Simulation finished CPU 0 instructions: 600000001 cycles: 223363198 cumulative IPC: 2.686 (Simulation time: 00 hr 56 min 56 sec)
Simulation complete CPU 0 instructions: 600000001 cycles: 223363198 cumulative IPC: 2.686 (Simulation time: 00 hr 56 min 56 sec)

ChampSim completed all CPUs

=== Simulation ===
CPU 0 runs traces/400.perlbench-41B.champsimtrace.xz
Region of Interest Statistics

CPU 0 cumulative IPC: 2.686 instructions: 600000001 cycles: 223363198
CPU 0 Branch Prediction Accuracy: 99.19% MPKI: 1.684 Average ROB Occupancy at Mispredict: 102.4
Branch type MPKI
BRANCH_DIRECT_JUMP: 0.0123
BRANCH_INDIRECT: 0.323
BRANCH_CONDITIONAL: 1.14
BRANCH_DIRECT_CALL: 0.0043
BRANCH_INDIRECT_CALL: 0.2
BRANCH_RETURN: 0.00828

LLC TOTAL        ACCESS:     539564 HIT:     274655 MISS:     264909
LLC LOAD         ACCESS:     403117 HIT:     200323 MISS:     202794
LLC RFO          ACCESS:      32529 HIT:      16249 MISS:      16280
LLC PREFETCH     ACCESS:          0 HIT:          0 MISS:          0
LLC WRITE        ACCESS:      84932 HIT:      54664 MISS:      30268
LLC TRANSLATION  ACCESS:      18986 HIT:       3419 MISS:      15567
LLC PREFETCH REQUESTED:          0 ISSUED:          0 USEFUL:          0 USELESS:          0
LLC AVERAGE MISS LATENCY: 556.9 cycles
cpu0_DTLB TOTAL        ACCESS:  129744262 HIT:  129038874 MISS:     705388
cpu0_DTLB LOAD         ACCESS:  129744262 HIT:  129038874 MISS:     705388
cpu0_DTLB RFO          ACCESS:          0 HIT:          0 MISS:          0
cpu0_DTLB PREFETCH     ACCESS:          0 HIT:          0 MISS:          0
cpu0_DTLB WRITE        ACCESS:          0 HIT:          0 MISS:          0
cpu0_DTLB TRANSLATION  ACCESS:          0 HIT:          0 MISS:          0
cpu0_DTLB PREFETCH REQUESTED:          0 ISSUED:          0 USEFUL:          0 USELESS:          0
cpu0_DTLB AVERAGE MISS LATENCY: 19.69 cycles
cpu0_ITLB TOTAL        ACCESS:    4873875 HIT:    4811772 MISS:      62103
cpu0_ITLB LOAD         ACCESS:    4873875 HIT:    4811772 MISS:      62103
cpu0_ITLB RFO          ACCESS:          0 HIT:          0 MISS:          0
cpu0_ITLB PREFETCH     ACCESS:          0 HIT:          0 MISS:          0
cpu0_ITLB WRITE        ACCESS:          0 HIT:          0 MISS:          0
cpu0_ITLB TRANSLATION  ACCESS:          0 HIT:          0 MISS:          0
cpu0_ITLB PREFETCH REQUESTED:          0 ISSUED:          0 USEFUL:          0 USELESS:          0
cpu0_ITLB AVERAGE MISS LATENCY: 6.06 cycles
cpu0_L1D TOTAL        ACCESS:  174336950 HIT:  172538226 MISS:    1798724
cpu0_L1D LOAD         ACCESS:   91316806 HIT:   89909251 MISS:    1407555
cpu0_L1D RFO          ACCESS:          0 HIT:          0 MISS:          0
cpu0_L1D PREFETCH     ACCESS:          0 HIT:          0 MISS:          0
cpu0_L1D WRITE        ACCESS:   82995684 HIT:   82627919 MISS:     367765
cpu0_L1D TRANSLATION  ACCESS:      24460 HIT:       1056 MISS:      23404
cpu0_L1D PREFETCH REQUESTED:          0 ISSUED:          0 USEFUL:          0 USELESS:          0
cpu0_L1D AVERAGE MISS LATENCY: 81.01 cycles
cpu0_L1I TOTAL        ACCESS:    5653360 HIT:    4849141 MISS:     804219
cpu0_L1I LOAD         ACCESS:    5653360 HIT:    4849141 MISS:     804219
cpu0_L1I RFO          ACCESS:          0 HIT:          0 MISS:          0
cpu0_L1I PREFETCH     ACCESS:          0 HIT:          0 MISS:          0
cpu0_L1I WRITE        ACCESS:          0 HIT:          0 MISS:          0
cpu0_L1I TRANSLATION  ACCESS:          0 HIT:          0 MISS:          0
cpu0_L1I PREFETCH REQUESTED:          0 ISSUED:          0 USEFUL:          0 USELESS:          0
cpu0_L1I AVERAGE MISS LATENCY: 17.23 cycles
cpu0_L2C TOTAL        ACCESS:    1667935 HIT:    1211504 MISS:     456431
cpu0_L2C LOAD         ACCESS:    1315261 HIT:     912144 MISS:     403117
cpu0_L2C RFO          ACCESS:      89627 HIT:      57098 MISS:      32529
cpu0_L2C PREFETCH     ACCESS:          0 HIT:          0 MISS:          0
cpu0_L2C WRITE        ACCESS:     239728 HIT:     237929 MISS:       1799
cpu0_L2C TRANSLATION  ACCESS:      23319 HIT:       4333 MISS:      18986
cpu0_L2C PREFETCH REQUESTED:          0 ISSUED:          0 USEFUL:          0 USELESS:          0
cpu0_L2C AVERAGE MISS LATENCY: 343.7 cycles
cpu0_STLB TOTAL        ACCESS:     509055 HIT:     486269 MISS:      22786
cpu0_STLB LOAD         ACCESS:     509055 HIT:     486269 MISS:      22786
cpu0_STLB RFO          ACCESS:          0 HIT:          0 MISS:          0
cpu0_STLB PREFETCH     ACCESS:          0 HIT:          0 MISS:          0
cpu0_STLB WRITE        ACCESS:          0 HIT:          0 MISS:          0
cpu0_STLB TRANSLATION  ACCESS:          0 HIT:          0 MISS:          0
cpu0_STLB PREFETCH REQUESTED:          0 ISSUED:          0 USEFUL:          0 USELESS:          0
cpu0_STLB AVERAGE MISS LATENCY: 516.7 cycles

DRAM Statistics

Channel 0 RQ ROW_BUFFER_HIT:      34222
  ROW_BUFFER_MISS:     200260
 AVG DBUS CONGESTED CYCLE: 3.836
WQ ROW_BUFFER_HIT: Channel 0 
  ROW_BUFFER_MISS:       7688
  FULL:      31693
