WARNING: physical memory size is smaller than virtual memory size.

*** ChampSim Multicore Out-of-Order Simulator ***
Warmup Instructions: 50000000
Simulation Instructions: 600000000
Number of CPUs: 1
Page size: 4096

Off-chip DRAM Size: 4 GiB Channels: 1 Width: 64-bit Data Race: 3200 MT/s
Heartbeat CPU 0 instructions: 10000000 cycles: 2500061 heartbeat IPC: 4 cumulative IPC: 4 (Simulation time: 00 hr 00 min 24 sec)
Heartbeat CPU 0 instructions: 20000000 cycles: 5000061 heartbeat IPC: 4 cumulative IPC: 4 (Simulation time: 00 hr 00 min 52 sec)
Heartbeat CPU 0 instructions: 30000000 cycles: 7500061 heartbeat IPC: 4 cumulative IPC: 4 (Simulation time: 00 hr 01 min 25 sec)
Heartbeat CPU 0 instructions: 40000000 cycles: 10000061 heartbeat IPC: 4 cumulative IPC: 4 (Simulation time: 00 hr 02 min 01 sec)
Heartbeat CPU 0 instructions: 50000000 cycles: 12500061 heartbeat IPC: 4 cumulative IPC: 4 (Simulation time: 00 hr 02 min 40 sec)
Warmup finished CPU 0 instructions: 50000000 cycles: 12500062 cumulative IPC: 4 (Simulation time: 00 hr 02 min 40 sec)
Warmup complete CPU 0 instructions: 50000000 cycles: 12500062 cumulative IPC: 4 (Simulation time: 00 hr 02 min 40 sec)
Heartbeat CPU 0 instructions: 60000002 cycles: 16907366 heartbeat IPC: 2.269 cumulative IPC: 2.269 (Simulation time: 00 hr 03 min 34 sec)
Heartbeat CPU 0 instructions: 70000003 cycles: 21889050 heartbeat IPC: 2.007 cumulative IPC: 2.13 (Simulation time: 00 hr 04 min 31 sec)
Heartbeat CPU 0 instructions: 80000001 cycles: 27230745 heartbeat IPC: 1.872 cumulative IPC: 2.037 (Simulation time: 00 hr 05 min 28 sec)
Heartbeat CPU 0 instructions: 90000000 cycles: 31527294 heartbeat IPC: 2.327 cumulative IPC: 2.102 (Simulation time: 00 hr 06 min 22 sec)
Heartbeat CPU 0 instructions: 100000003 cycles: 36379334 heartbeat IPC: 2.061 cumulative IPC: 2.094 (Simulation time: 00 hr 07 min 19 sec)
Heartbeat CPU 0 instructions: 110000002 cycles: 41247374 heartbeat IPC: 2.054 cumulative IPC: 2.087 (Simulation time: 00 hr 08 min 10 sec)
Heartbeat CPU 0 instructions: 120000001 cycles: 46240828 heartbeat IPC: 2.003 cumulative IPC: 2.075 (Simulation time: 00 hr 09 min 01 sec)
Heartbeat CPU 0 instructions: 130000003 cycles: 50807189 heartbeat IPC: 2.19 cumulative IPC: 2.088 (Simulation time: 00 hr 09 min 48 sec)
Heartbeat CPU 0 instructions: 140000002 cycles: 55694832 heartbeat IPC: 2.046 cumulative IPC: 2.084 (Simulation time: 00 hr 10 min 38 sec)
Heartbeat CPU 0 instructions: 150000001 cycles: 60360024 heartbeat IPC: 2.144 cumulative IPC: 2.089 (Simulation time: 00 hr 11 min 26 sec)
Heartbeat CPU 0 instructions: 160000000 cycles: 64996045 heartbeat IPC: 2.157 cumulative IPC: 2.095 (Simulation time: 00 hr 12 min 16 sec)
Heartbeat CPU 0 instructions: 170000000 cycles: 70325364 heartbeat IPC: 1.876 cumulative IPC: 2.075 (Simulation time: 00 hr 13 min 08 sec)
Heartbeat CPU 0 instructions: 180000001 cycles: 76043102 heartbeat IPC: 1.749 cumulative IPC: 2.046 (Simulation time: 00 hr 14 min 03 sec)
Heartbeat CPU 0 instructions: 190000002 cycles: 80511237 heartbeat IPC: 2.238 cumulative IPC: 2.058 (Simulation time: 00 hr 14 min 52 sec)
Heartbeat CPU 0 instructions: 200000002 cycles: 85411245 heartbeat IPC: 2.041 cumulative IPC: 2.057 (Simulation time: 00 hr 15 min 41 sec)
Heartbeat CPU 0 instructions: 210000000 cycles: 90413026 heartbeat IPC: 1.999 cumulative IPC: 2.054 (Simulation time: 00 hr 16 min 31 sec)
Heartbeat CPU 0 instructions: 220000001 cycles: 95334767 heartbeat IPC: 2.032 cumulative IPC: 2.052 (Simulation time: 00 hr 17 min 22 sec)
Heartbeat CPU 0 instructions: 230000002 cycles: 100579145 heartbeat IPC: 1.907 cumulative IPC: 2.044 (Simulation time: 00 hr 18 min 16 sec)
Heartbeat CPU 0 instructions: 240000001 cycles: 105541301 heartbeat IPC: 2.015 cumulative IPC: 2.042 (Simulation time: 00 hr 19 min 05 sec)
Heartbeat CPU 0 instructions: 250000003 cycles: 110716505 heartbeat IPC: 1.932 cumulative IPC: 2.036 (Simulation time: 00 hr 19 min 57 sec)
Heartbeat CPU 0 instructions: 260000001 cycles: 115572535 heartbeat IPC: 2.059 cumulative IPC: 2.037 (Simulation time: 00 hr 20 min 47 sec)
Heartbeat CPU 0 instructions: 270000000 cycles: 123280199 heartbeat IPC: 1.297 cumulative IPC: 1.986 (Simulation time: 00 hr 21 min 57 sec)
Heartbeat CPU 0 instructions: 280000000 cycles: 134352753 heartbeat IPC: 0.9031 cumulative IPC: 1.888 (Simulation time: 00 hr 23 min 24 sec)
Heartbeat CPU 0 instructions: 290000001 cycles: 144526436 heartbeat IPC: 0.9829 cumulative IPC: 1.818 (Simulation time: 00 hr 24 min 47 sec)
Heartbeat CPU 0 instructions: 300000003 cycles: 152125557 heartbeat IPC: 1.316 cumulative IPC: 1.791 (Simulation time: 00 hr 25 min 58 sec)
Heartbeat CPU 0 instructions: 310000004 cycles: 163155860 heartbeat IPC: 0.9066 cumulative IPC: 1.726 (Simulation time: 00 hr 27 min 27 sec)
Heartbeat CPU 0 instructions: 320000004 cycles: 168872895 heartbeat IPC: 1.749 cumulative IPC: 1.727 (Simulation time: 00 hr 28 min 25 sec)
Heartbeat CPU 0 instructions: 330000000 cycles: 174171610 heartbeat IPC: 1.887 cumulative IPC: 1.732 (Simulation time: 00 hr 29 min 18 sec)
Heartbeat CPU 0 instructions: 340000001 cycles: 179402279 heartbeat IPC: 1.912 cumulative IPC: 1.738 (Simulation time: 00 hr 30 min 10 sec)
Heartbeat CPU 0 instructions: 350000000 cycles: 184828220 heartbeat IPC: 1.843 cumulative IPC: 1.741 (Simulation time: 00 hr 31 min 03 sec)
Heartbeat CPU 0 instructions: 360000003 cycles: 190007418 heartbeat IPC: 1.931 cumulative IPC: 1.746 (Simulation time: 00 hr 31 min 55 sec)
Heartbeat CPU 0 instructions: 370000001 cycles: 195106368 heartbeat IPC: 1.961 cumulative IPC: 1.752 (Simulation time: 00 hr 32 min 47 sec)
Heartbeat CPU 0 instructions: 380000004 cycles: 200475313 heartbeat IPC: 1.863 cumulative IPC: 1.756 (Simulation time: 00 hr 33 min 40 sec)
Heartbeat CPU 0 instructions: 390000002 cycles: 205888809 heartbeat IPC: 1.847 cumulative IPC: 1.758 (Simulation time: 00 hr 34 min 33 sec)
Heartbeat CPU 0 instructions: 400000000 cycles: 211396311 heartbeat IPC: 1.816 cumulative IPC: 1.76 (Simulation time: 00 hr 35 min 26 sec)
Heartbeat CPU 0 instructions: 410000000 cycles: 219482924 heartbeat IPC: 1.237 cumulative IPC: 1.739 (Simulation time: 00 hr 36 min 34 sec)
Heartbeat CPU 0 instructions: 420000001 cycles: 230754632 heartbeat IPC: 0.8872 cumulative IPC: 1.695 (Simulation time: 00 hr 38 min 01 sec)
Heartbeat CPU 0 instructions: 430000000 cycles: 238561687 heartbeat IPC: 1.281 cumulative IPC: 1.681 (Simulation time: 00 hr 39 min 13 sec)
Heartbeat CPU 0 instructions: 440000002 cycles: 245734686 heartbeat IPC: 1.394 cumulative IPC: 1.672 (Simulation time: 00 hr 40 min 20 sec)
Heartbeat CPU 0 instructions: 450000000 cycles: 252632662 heartbeat IPC: 1.45 cumulative IPC: 1.666 (Simulation time: 00 hr 41 min 25 sec)
Heartbeat CPU 0 instructions: 460000002 cycles: 263605603 heartbeat IPC: 0.9113 cumulative IPC: 1.633 (Simulation time: 00 hr 42 min 53 sec)
Heartbeat CPU 0 instructions: 470000000 cycles: 273412955 heartbeat IPC: 1.02 cumulative IPC: 1.61 (Simulation time: 00 hr 44 min 11 sec)
Heartbeat CPU 0 instructions: 480000000 cycles: 278904439 heartbeat IPC: 1.821 cumulative IPC: 1.614 (Simulation time: 00 hr 45 min 05 sec)
Heartbeat CPU 0 instructions: 490000001 cycles: 284678610 heartbeat IPC: 1.732 cumulative IPC: 1.617 (Simulation time: 00 hr 46 min 00 sec)
Heartbeat CPU 0 instructions: 500000002 cycles: 290322296 heartbeat IPC: 1.772 cumulative IPC: 1.62 (Simulation time: 00 hr 46 min 56 sec)
Heartbeat CPU 0 instructions: 510000000 cycles: 296035742 heartbeat IPC: 1.75 cumulative IPC: 1.622 (Simulation time: 00 hr 47 min 50 sec)
Heartbeat CPU 0 instructions: 520000000 cycles: 301838311 heartbeat IPC: 1.723 cumulative IPC: 1.624 (Simulation time: 00 hr 48 min 45 sec)
Heartbeat CPU 0 instructions: 530000001 cycles: 313244676 heartbeat IPC: 0.8767 cumulative IPC: 1.596 (Simulation time: 00 hr 50 min 13 sec)
Heartbeat CPU 0 instructions: 540000000 cycles: 324067534 heartbeat IPC: 0.924 cumulative IPC: 1.573 (Simulation time: 00 hr 51 min 41 sec)
Heartbeat CPU 0 instructions: 550000002 cycles: 337032092 heartbeat IPC: 0.7713 cumulative IPC: 1.541 (Simulation time: 00 hr 53 min 18 sec)
Heartbeat CPU 0 instructions: 560000004 cycles: 341828842 heartbeat IPC: 2.085 cumulative IPC: 1.549 (Simulation time: 00 hr 54 min 09 sec)
Heartbeat CPU 0 instructions: 570000001 cycles: 346241956 heartbeat IPC: 2.266 cumulative IPC: 1.558 (Simulation time: 00 hr 54 min 57 sec)
Heartbeat CPU 0 instructions: 580000003 cycles: 350489127 heartbeat IPC: 2.355 cumulative IPC: 1.568 (Simulation time: 00 hr 55 min 42 sec)
Heartbeat CPU 0 instructions: 590000001 cycles: 355392217 heartbeat IPC: 2.04 cumulative IPC: 1.575 (Simulation time: 00 hr 56 min 27 sec)
Heartbeat CPU 0 instructions: 600000003 cycles: 360033797 heartbeat IPC: 2.154 cumulative IPC: 1.583 (Simulation time: 00 hr 57 min 07 sec)
Heartbeat CPU 0 instructions: 610000001 cycles: 364895985 heartbeat IPC: 2.057 cumulative IPC: 1.589 (Simulation time: 00 hr 57 min 44 sec)
Heartbeat CPU 0 instructions: 620000000 cycles: 369965836 heartbeat IPC: 1.972 cumulative IPC: 1.595 (Simulation time: 00 hr 58 min 15 sec)
Heartbeat CPU 0 instructions: 630000002 cycles: 374212155 heartbeat IPC: 2.355 cumulative IPC: 1.603 (Simulation time: 00 hr 58 min 38 sec)
Heartbeat CPU 0 instructions: 640000004 cycles: 379534923 heartbeat IPC: 1.879 cumulative IPC: 1.607 (Simulation time: 00 hr 58 min 59 sec)
Heartbeat CPU 0 instructions: 650000001 cycles: 384300066 heartbeat IPC: 2.099 cumulative IPC: 1.614 (Simulation time: 00 hr 59 min 17 sec)
Simulation finished CPU 0 instructions: 600000001 cycles: 371800005 cumulative IPC: 1.614 (Simulation time: 00 hr 59 min 17 sec)
Simulation complete CPU 0 instructions: 600000001 cycles: 371800005 cumulative IPC: 1.614 (Simulation time: 00 hr 59 min 17 sec)

ChampSim completed all CPUs

=== Simulation ===
CPU 0 runs traces/400.perlbench-50B.champsimtrace.xz
Region of Interest Statistics

CPU 0 cumulative IPC: 1.614 instructions: 600000001 cycles: 371800005
CPU 0 Branch Prediction Accuracy: 93.83% MPKI: 12.71 Average ROB Occupancy at Mispredict: 29.5
Branch type MPKI
BRANCH_DIRECT_JUMP: 0.0176
BRANCH_INDIRECT: 0.38
BRANCH_CONDITIONAL: 11.9
BRANCH_DIRECT_CALL: 0.0067
BRANCH_INDIRECT_CALL: 0.431
BRANCH_RETURN: 0.0161

LLC TOTAL        ACCESS:     850652 HIT:     537940 MISS:     312712
LLC LOAD         ACCESS:     587242 HIT:     334469 MISS:     252773
LLC RFO          ACCESS:      47515 HIT:      28641 MISS:      18874
LLC PREFETCH     ACCESS:      65667 HIT:      36919 MISS:      28748
LLC WRITE        ACCESS:     128175 HIT:     127949 MISS:        226
LLC TRANSLATION  ACCESS:      22053 HIT:       9962 MISS:      12091
LLC PREFETCH REQUESTED:      65667 ISSUED:      65667 USEFUL:      17836 USELESS:       6832
LLC AVERAGE MISS LATENCY: 539.3 cycles
cpu0_DTLB TOTAL        ACCESS:  156775642 HIT:  155474741 MISS:    1300901
cpu0_DTLB LOAD         ACCESS:  156775642 HIT:  155474741 MISS:    1300901
cpu0_DTLB RFO          ACCESS:          0 HIT:          0 MISS:          0
cpu0_DTLB PREFETCH     ACCESS:          0 HIT:          0 MISS:          0
cpu0_DTLB WRITE        ACCESS:          0 HIT:          0 MISS:          0
cpu0_DTLB TRANSLATION  ACCESS:          0 HIT:          0 MISS:          0
cpu0_DTLB PREFETCH REQUESTED:          0 ISSUED:          0 USEFUL:          0 USELESS:          0
cpu0_DTLB AVERAGE MISS LATENCY: 12.08 cycles
cpu0_ITLB TOTAL        ACCESS:    8933473 HIT:    8734902 MISS:     198571
cpu0_ITLB LOAD         ACCESS:    8933473 HIT:    8734902 MISS:     198571
cpu0_ITLB RFO          ACCESS:          0 HIT:          0 MISS:          0
cpu0_ITLB PREFETCH     ACCESS:          0 HIT:          0 MISS:          0
cpu0_ITLB WRITE        ACCESS:          0 HIT:          0 MISS:          0
cpu0_ITLB TRANSLATION  ACCESS:          0 HIT:          0 MISS:          0
cpu0_ITLB PREFETCH REQUESTED:          0 ISSUED:          0 USEFUL:          0 USELESS:          0
cpu0_ITLB AVERAGE MISS LATENCY: 3.222 cycles
cpu0_L1D TOTAL        ACCESS:  203617092 HIT:  199946445 MISS:    3670647
cpu0_L1D LOAD         ACCESS:  117940473 HIT:  114925901 MISS:    3014572
cpu0_L1D RFO          ACCESS:          0 HIT:          0 MISS:          0
cpu0_L1D PREFETCH     ACCESS:          0 HIT:          0 MISS:          0
cpu0_L1D WRITE        ACCESS:   85648076 HIT:   85019140 MISS:     628936
cpu0_L1D TRANSLATION  ACCESS:      28543 HIT:       1404 MISS:      27139
cpu0_L1D PREFETCH REQUESTED:          0 ISSUED:          0 USEFUL:          0 USELESS:          0
cpu0_L1D AVERAGE MISS LATENCY: 46.69 cycles
cpu0_L1I TOTAL        ACCESS:   10372104 HIT:    8574665 MISS:    1797439
cpu0_L1I LOAD         ACCESS:   10372104 HIT:    8574665 MISS:    1797439
cpu0_L1I RFO          ACCESS:          0 HIT:          0 MISS:          0
cpu0_L1I PREFETCH     ACCESS:          0 HIT:          0 MISS:          0
cpu0_L1I WRITE        ACCESS:          0 HIT:          0 MISS:          0
cpu0_L1I TRANSLATION  ACCESS:          0 HIT:          0 MISS:          0
cpu0_L1I PREFETCH REQUESTED:          0 ISSUED:          0 USEFUL:          0 USELESS:          0
cpu0_L1I AVERAGE MISS LATENCY: 10.91 cycles
cpu0_L2C TOTAL        ACCESS:    3837132 HIT:    3177077 MISS:     660055
cpu0_L2C LOAD         ACCESS:    3106363 HIT:    2519121 MISS:     587242
cpu0_L2C RFO          ACCESS:     191819 HIT:     144304 MISS:      47515
cpu0_L2C PREFETCH     ACCESS:          0 HIT:          0 MISS:          0
cpu0_L2C WRITE        ACCESS:     511893 HIT:     508648 MISS:       3245
cpu0_L2C TRANSLATION  ACCESS:      27057 HIT:       5004 MISS:      22053
cpu0_L2C PREFETCH REQUESTED:          0 ISSUED:          0 USEFUL:          0 USELESS:          0
cpu0_L2C AVERAGE MISS LATENCY: 249.9 cycles
cpu0_STLB TOTAL        ACCESS:    1009288 HIT:     982597 MISS:      26691
cpu0_STLB LOAD         ACCESS:    1009288 HIT:     982597 MISS:      26691
cpu0_STLB RFO          ACCESS:          0 HIT:          0 MISS:          0
cpu0_STLB PREFETCH     ACCESS:          0 HIT:          0 MISS:          0
cpu0_STLB WRITE        ACCESS:          0 HIT:          0 MISS:          0
cpu0_STLB TRANSLATION  ACCESS:          0 HIT:          0 MISS:          0
cpu0_STLB PREFETCH REQUESTED:          0 ISSUED:          0 USEFUL:          0 USELESS:          0
cpu0_STLB AVERAGE MISS LATENCY: 369.3 cycles

DRAM Statistics

Channel 0 RQ ROW_BUFFER_HIT:      63953
  ROW_BUFFER_MISS:     243560
 AVG DBUS CONGESTED CYCLE: 3.803
WQ ROW_BUFFER_HIT: Channel 0 
  ROW_BUFFER_MISS:       7655
  FULL:      32002
