WARNING: physical memory size is smaller than virtual memory size.

*** ChampSim Multicore Out-of-Order Simulator ***
Warmup Instructions: 50000000
Simulation Instructions: 600000000
Number of CPUs: 1
Page size: 4096

Off-chip DRAM Size: 4 GiB Channels: 1 Width: 64-bit Data Race: 3200 MT/s
Heartbeat CPU 0 instructions: 10000001 cycles: 2500318 heartbeat IPC: 3.999 cumulative IPC: 3.999 (Simulation time: 00 hr 00 min 35 sec)
Heartbeat CPU 0 instructions: 20000002 cycles: 5037128 heartbeat IPC: 3.942 cumulative IPC: 3.971 (Simulation time: 00 hr 01 min 13 sec)
Heartbeat CPU 0 instructions: 30000002 cycles: 7537128 heartbeat IPC: 4 cumulative IPC: 3.98 (Simulation time: 00 hr 01 min 46 sec)
Heartbeat CPU 0 instructions: 40000002 cycles: 10037128 heartbeat IPC: 4 cumulative IPC: 3.985 (Simulation time: 00 hr 02 min 19 sec)
Heartbeat CPU 0 instructions: 50000002 cycles: 12537128 heartbeat IPC: 4 cumulative IPC: 3.988 (Simulation time: 00 hr 02 min 52 sec)
Warmup finished CPU 0 instructions: 50000002 cycles: 12537129 cumulative IPC: 3.988 (Simulation time: 00 hr 02 min 52 sec)
Warmup complete CPU 0 instructions: 50000002 cycles: 12537129 cumulative IPC: 3.988 (Simulation time: 00 hr 02 min 52 sec)
Heartbeat CPU 0 instructions: 60000000 cycles: 17725023 heartbeat IPC: 1.928 cumulative IPC: 1.928 (Simulation time: 00 hr 03 min 39 sec)
Heartbeat CPU 0 instructions: 70000002 cycles: 22634998 heartbeat IPC: 2.037 cumulative IPC: 1.981 (Simulation time: 00 hr 04 min 27 sec)
Heartbeat CPU 0 instructions: 80000001 cycles: 28018284 heartbeat IPC: 1.858 cumulative IPC: 1.938 (Simulation time: 00 hr 05 min 18 sec)
Heartbeat CPU 0 instructions: 90000001 cycles: 32915513 heartbeat IPC: 2.042 cumulative IPC: 1.963 (Simulation time: 00 hr 06 min 07 sec)
Heartbeat CPU 0 instructions: 100000000 cycles: 38042103 heartbeat IPC: 1.951 cumulative IPC: 1.96 (Simulation time: 00 hr 06 min 57 sec)
Heartbeat CPU 0 instructions: 110000000 cycles: 42942824 heartbeat IPC: 2.041 cumulative IPC: 1.973 (Simulation time: 00 hr 07 min 47 sec)
Heartbeat CPU 0 instructions: 120000001 cycles: 48148300 heartbeat IPC: 1.921 cumulative IPC: 1.966 (Simulation time: 00 hr 08 min 43 sec)
Heartbeat CPU 0 instructions: 130000001 cycles: 53319945 heartbeat IPC: 1.934 cumulative IPC: 1.962 (Simulation time: 00 hr 09 min 41 sec)
Heartbeat CPU 0 instructions: 140000001 cycles: 58650783 heartbeat IPC: 1.876 cumulative IPC: 1.952 (Simulation time: 00 hr 10 min 40 sec)
Heartbeat CPU 0 instructions: 150000001 cycles: 63980796 heartbeat IPC: 1.876 cumulative IPC: 1.944 (Simulation time: 00 hr 11 min 34 sec)
Heartbeat CPU 0 instructions: 160000004 cycles: 69203558 heartbeat IPC: 1.915 cumulative IPC: 1.941 (Simulation time: 00 hr 12 min 34 sec)
Heartbeat CPU 0 instructions: 170000000 cycles: 79968530 heartbeat IPC: 0.9289 cumulative IPC: 1.78 (Simulation time: 00 hr 14 min 31 sec)
Heartbeat CPU 0 instructions: 180000004 cycles: 90849640 heartbeat IPC: 0.919 cumulative IPC: 1.66 (Simulation time: 00 hr 16 min 28 sec)
Heartbeat CPU 0 instructions: 190000001 cycles: 101716382 heartbeat IPC: 0.9202 cumulative IPC: 1.57 (Simulation time: 00 hr 18 min 29 sec)
Heartbeat CPU 0 instructions: 200000003 cycles: 106497359 heartbeat IPC: 2.092 cumulative IPC: 1.596 (Simulation time: 00 hr 19 min 44 sec)
Heartbeat CPU 0 instructions: 210000001 cycles: 111429540 heartbeat IPC: 2.028 cumulative IPC: 1.618 (Simulation time: 00 hr 20 min 58 sec)
Heartbeat CPU 0 instructions: 220000000 cycles: 116261593 heartbeat IPC: 2.07 cumulative IPC: 1.639 (Simulation time: 00 hr 22 min 15 sec)
Heartbeat CPU 0 instructions: 230000002 cycles: 121599892 heartbeat IPC: 1.873 cumulative IPC: 1.65 (Simulation time: 00 hr 23 min 32 sec)
Heartbeat CPU 0 instructions: 240000000 cycles: 126463413 heartbeat IPC: 2.056 cumulative IPC: 1.668 (Simulation time: 00 hr 24 min 42 sec)
Heartbeat CPU 0 instructions: 250000000 cycles: 131629836 heartbeat IPC: 1.936 cumulative IPC: 1.679 (Simulation time: 00 hr 25 min 52 sec)
Heartbeat CPU 0 instructions: 260000000 cycles: 136674482 heartbeat IPC: 1.982 cumulative IPC: 1.692 (Simulation time: 00 hr 27 min 04 sec)
Heartbeat CPU 0 instructions: 270000002 cycles: 141571928 heartbeat IPC: 2.042 cumulative IPC: 1.705 (Simulation time: 00 hr 28 min 14 sec)
Heartbeat CPU 0 instructions: 280000002 cycles: 146493996 heartbeat IPC: 2.032 cumulative IPC: 1.717 (Simulation time: 00 hr 29 min 21 sec)
Heartbeat CPU 0 instructions: 290000001 cycles: 151872493 heartbeat IPC: 1.859 cumulative IPC: 1.722 (Simulation time: 00 hr 30 min 33 sec)
Heartbeat CPU 0 instructions: 300000003 cycles: 156948487 heartbeat IPC: 1.97 cumulative IPC: 1.731 (Simulation time: 00 hr 31 min 45 sec)
Heartbeat CPU 0 instructions: 310000001 cycles: 162261692 heartbeat IPC: 1.882 cumulative IPC: 1.737 (Simulation time: 00 hr 32 min 56 sec)
Heartbeat CPU 0 instructions: 320000003 cycles: 167480145 heartbeat IPC: 1.916 cumulative IPC: 1.743 (Simulation time: 00 hr 34 min 04 sec)
Heartbeat CPU 0 instructions: 330000003 cycles: 172788626 heartbeat IPC: 1.884 cumulative IPC: 1.747 (Simulation time: 00 hr 35 min 14 sec)
Heartbeat CPU 0 instructions: 340000000 cycles: 183796224 heartbeat IPC: 0.9085 cumulative IPC: 1.693 (Simulation time: 00 hr 37 min 13 sec)
Heartbeat CPU 0 instructions: 350000000 cycles: 195367171 heartbeat IPC: 0.8642 cumulative IPC: 1.641 (Simulation time: 00 hr 39 min 13 sec)
Heartbeat CPU 0 instructions: 360000004 cycles: 206299238 heartbeat IPC: 0.9147 cumulative IPC: 1.6 (Simulation time: 00 hr 41 min 03 sec)
Heartbeat CPU 0 instructions: 370000000 cycles: 210721777 heartbeat IPC: 2.261 cumulative IPC: 1.615 (Simulation time: 00 hr 42 min 03 sec)
Heartbeat CPU 0 instructions: 380000001 cycles: 215656870 heartbeat IPC: 2.026 cumulative IPC: 1.625 (Simulation time: 00 hr 43 min 11 sec)
Heartbeat CPU 0 instructions: 390000002 cycles: 220487576 heartbeat IPC: 2.07 cumulative IPC: 1.635 (Simulation time: 00 hr 44 min 16 sec)
Heartbeat CPU 0 instructions: 400000004 cycles: 225425051 heartbeat IPC: 2.025 cumulative IPC: 1.644 (Simulation time: 00 hr 45 min 19 sec)
Heartbeat CPU 0 instructions: 410000000 cycles: 230158394 heartbeat IPC: 2.113 cumulative IPC: 1.654 (Simulation time: 00 hr 46 min 23 sec)
Heartbeat CPU 0 instructions: 420000000 cycles: 235298727 heartbeat IPC: 1.945 cumulative IPC: 1.661 (Simulation time: 00 hr 47 min 31 sec)
Heartbeat CPU 0 instructions: 430000001 cycles: 239775000 heartbeat IPC: 2.234 cumulative IPC: 1.672 (Simulation time: 00 hr 48 min 38 sec)
Heartbeat CPU 0 instructions: 440000000 cycles: 245139391 heartbeat IPC: 1.864 cumulative IPC: 1.677 (Simulation time: 00 hr 49 min 48 sec)
Heartbeat CPU 0 instructions: 450000002 cycles: 249818839 heartbeat IPC: 2.137 cumulative IPC: 1.686 (Simulation time: 00 hr 50 min 54 sec)
Heartbeat CPU 0 instructions: 460000000 cycles: 254623887 heartbeat IPC: 2.081 cumulative IPC: 1.694 (Simulation time: 00 hr 52 min 01 sec)
Heartbeat CPU 0 instructions: 470000000 cycles: 259608200 heartbeat IPC: 2.006 cumulative IPC: 1.7 (Simulation time: 00 hr 53 min 09 sec)
Heartbeat CPU 0 instructions: 480000003 cycles: 264399648 heartbeat IPC: 2.087 cumulative IPC: 1.707 (Simulation time: 00 hr 54 min 15 sec)
Heartbeat CPU 0 instructions: 490000000 cycles: 269013071 heartbeat IPC: 2.168 cumulative IPC: 1.716 (Simulation time: 00 hr 55 min 21 sec)
Heartbeat CPU 0 instructions: 500000000 cycles: 274044658 heartbeat IPC: 1.987 cumulative IPC: 1.721 (Simulation time: 00 hr 56 min 27 sec)
Heartbeat CPU 0 instructions: 510000003 cycles: 279678591 heartbeat IPC: 1.775 cumulative IPC: 1.722 (Simulation time: 00 hr 57 min 36 sec)
Heartbeat CPU 0 instructions: 520000001 cycles: 284379626 heartbeat IPC: 2.127 cumulative IPC: 1.729 (Simulation time: 00 hr 58 min 52 sec)
Heartbeat CPU 0 instructions: 530000002 cycles: 289535490 heartbeat IPC: 1.94 cumulative IPC: 1.733 (Simulation time: 01 hr 00 min 17 sec)
Heartbeat CPU 0 instructions: 540000000 cycles: 294660693 heartbeat IPC: 1.951 cumulative IPC: 1.737 (Simulation time: 01 hr 01 min 39 sec)
Heartbeat CPU 0 instructions: 550000001 cycles: 299474325 heartbeat IPC: 2.077 cumulative IPC: 1.743 (Simulation time: 01 hr 02 min 50 sec)
Heartbeat CPU 0 instructions: 560000000 cycles: 304698403 heartbeat IPC: 1.914 cumulative IPC: 1.746 (Simulation time: 01 hr 04 min 02 sec)
Heartbeat CPU 0 instructions: 570000004 cycles: 312273358 heartbeat IPC: 1.32 cumulative IPC: 1.735 (Simulation time: 01 hr 05 min 34 sec)
Heartbeat CPU 0 instructions: 580000003 cycles: 324462380 heartbeat IPC: 0.8204 cumulative IPC: 1.699 (Simulation time: 01 hr 07 min 44 sec)
Heartbeat CPU 0 instructions: 590000002 cycles: 338011273 heartbeat IPC: 0.7381 cumulative IPC: 1.659 (Simulation time: 01 hr 10 min 03 sec)
Heartbeat CPU 0 instructions: 600000000 cycles: 342583354 heartbeat IPC: 2.187 cumulative IPC: 1.666 (Simulation time: 01 hr 11 min 08 sec)
Heartbeat CPU 0 instructions: 610000002 cycles: 347082648 heartbeat IPC: 2.223 cumulative IPC: 1.674 (Simulation time: 01 hr 12 min 16 sec)
Heartbeat CPU 0 instructions: 620000000 cycles: 351894078 heartbeat IPC: 2.078 cumulative IPC: 1.68 (Simulation time: 01 hr 13 min 28 sec)
Heartbeat CPU 0 instructions: 630000002 cycles: 356984305 heartbeat IPC: 1.965 cumulative IPC: 1.684 (Simulation time: 01 hr 14 min 39 sec)
Heartbeat CPU 0 instructions: 640000001 cycles: 361838916 heartbeat IPC: 2.06 cumulative IPC: 1.689 (Simulation time: 01 hr 15 min 52 sec)
Heartbeat CPU 0 instructions: 650000000 cycles: 366396839 heartbeat IPC: 2.194 cumulative IPC: 1.696 (Simulation time: 01 hr 16 min 59 sec)
Simulation finished CPU 0 instructions: 600000001 cycles: 353859712 cumulative IPC: 1.696 (Simulation time: 01 hr 16 min 59 sec)
Simulation complete CPU 0 instructions: 600000001 cycles: 353859712 cumulative IPC: 1.696 (Simulation time: 01 hr 16 min 59 sec)

ChampSim completed all CPUs

=== Simulation ===
CPU 0 runs traces/400.perlbench-41B.champsimtrace.xz
Region of Interest Statistics

CPU 0 cumulative IPC: 1.696 instructions: 600000001 cycles: 353859712
CPU 0 Branch Prediction Accuracy: 93.95% MPKI: 12.5 Average ROB Occupancy at Mispredict: 29.73
Branch type MPKI
BRANCH_DIRECT_JUMP: 0.0123
BRANCH_INDIRECT: 0.323
BRANCH_CONDITIONAL: 12
BRANCH_DIRECT_CALL: 0.0043
BRANCH_INDIRECT_CALL: 0.2
BRANCH_RETURN: 0.00828

LLC TOTAL        ACCESS:     540341 HIT:     266296 MISS:     274045
LLC LOAD         ACCESS:     403223 HIT:     156401 MISS:     246822
LLC RFO          ACCESS:      32563 HIT:      16039 MISS:      16524
LLC PREFETCH     ACCESS:          0 HIT:          0 MISS:          0
LLC WRITE        ACCESS:      85551 HIT:      85126 MISS:        425
LLC TRANSLATION  ACCESS:      19004 HIT:       8730 MISS:      10274
LLC PREFETCH REQUESTED:          0 ISSUED:          0 USEFUL:          0 USELESS:          0
LLC AVERAGE MISS LATENCY: 568.7 cycles
cpu0_DTLB TOTAL        ACCESS:  153669937 HIT:  152991308 MISS:     678629
cpu0_DTLB LOAD         ACCESS:  153669937 HIT:  152991308 MISS:     678629
cpu0_DTLB RFO          ACCESS:          0 HIT:          0 MISS:          0
cpu0_DTLB PREFETCH     ACCESS:          0 HIT:          0 MISS:          0
cpu0_DTLB WRITE        ACCESS:          0 HIT:          0 MISS:          0
cpu0_DTLB TRANSLATION  ACCESS:          0 HIT:          0 MISS:          0
cpu0_DTLB PREFETCH REQUESTED:          0 ISSUED:          0 USEFUL:          0 USELESS:          0
cpu0_DTLB AVERAGE MISS LATENCY: 16.06 cycles
cpu0_ITLB TOTAL        ACCESS:    4835211 HIT:    4777369 MISS:      57842
cpu0_ITLB LOAD         ACCESS:    4835211 HIT:    4777369 MISS:      57842
cpu0_ITLB RFO          ACCESS:          0 HIT:          0 MISS:          0
cpu0_ITLB PREFETCH     ACCESS:          0 HIT:          0 MISS:          0
cpu0_ITLB WRITE        ACCESS:          0 HIT:          0 MISS:          0
cpu0_ITLB TRANSLATION  ACCESS:          0 HIT:          0 MISS:          0
cpu0_ITLB PREFETCH REQUESTED:          0 ISSUED:          0 USEFUL:          0 USELESS:          0
cpu0_ITLB AVERAGE MISS LATENCY: 7.515 cycles
cpu0_L1D TOTAL        ACCESS:  200270873 HIT:  198526103 MISS:    1744770
cpu0_L1D LOAD         ACCESS:  117028575 HIT:  115667887 MISS:    1360688
cpu0_L1D RFO          ACCESS:          0 HIT:          0 MISS:          0
cpu0_L1D PREFETCH     ACCESS:          0 HIT:          0 MISS:          0
cpu0_L1D WRITE        ACCESS:   83217833 HIT:   82857176 MISS:     360657
cpu0_L1D TRANSLATION  ACCESS:      24465 HIT:       1040 MISS:      23425
cpu0_L1D PREFETCH REQUESTED:          0 ISSUED:          0 USEFUL:          0 USELESS:          0
cpu0_L1D AVERAGE MISS LATENCY: 93.45 cycles
cpu0_L1I TOTAL        ACCESS:    5577561 HIT:    4815950 MISS:     761611
cpu0_L1I LOAD         ACCESS:    5577561 HIT:    4815950 MISS:     761611
cpu0_L1I RFO          ACCESS:          0 HIT:          0 MISS:          0
cpu0_L1I PREFETCH     ACCESS:          0 HIT:          0 MISS:          0
cpu0_L1I WRITE        ACCESS:          0 HIT:          0 MISS:          0
cpu0_L1I TRANSLATION  ACCESS:          0 HIT:          0 MISS:          0
cpu0_L1I PREFETCH REQUESTED:          0 ISSUED:          0 USEFUL:          0 USELESS:          0
cpu0_L1I AVERAGE MISS LATENCY: 14.47 cycles
cpu0_L2C TOTAL        ACCESS:    1667904 HIT:    1211335 MISS:     456569
cpu0_L2C LOAD         ACCESS:    1317045 HIT:     913822 MISS:     403223
cpu0_L2C RFO          ACCESS:      88640 HIT:      56077 MISS:      32563
cpu0_L2C PREFETCH     ACCESS:          0 HIT:          0 MISS:          0
cpu0_L2C WRITE        ACCESS:     238874 HIT:     237095 MISS:       1779
cpu0_L2C TRANSLATION  ACCESS:      23345 HIT:       4341 MISS:      19004
cpu0_L2C PREFETCH REQUESTED:          0 ISSUED:          0 USEFUL:          0 USELESS:          0
cpu0_L2C AVERAGE MISS LATENCY: 361.9 cycles
cpu0_STLB TOTAL        ACCESS:     505314 HIT:     482523 MISS:      22791
cpu0_STLB LOAD         ACCESS:     505314 HIT:     482523 MISS:      22791
cpu0_STLB RFO          ACCESS:          0 HIT:          0 MISS:          0
cpu0_STLB PREFETCH     ACCESS:          0 HIT:          0 MISS:          0
cpu0_STLB WRITE        ACCESS:          0 HIT:          0 MISS:          0
cpu0_STLB TRANSLATION  ACCESS:          0 HIT:          0 MISS:          0
cpu0_STLB PREFETCH REQUESTED:          0 ISSUED:          0 USEFUL:          0 USELESS:          0
cpu0_STLB AVERAGE MISS LATENCY: 358.7 cycles

DRAM Statistics

Channel 0 RQ ROW_BUFFER_HIT:      41741
  ROW_BUFFER_MISS:     231841
 AVG DBUS CONGESTED CYCLE: 3.814
WQ ROW_BUFFER_HIT: Channel 0 
  ROW_BUFFER_MISS:       7758
  FULL:      37003
