WARNING: physical memory size is smaller than virtual memory size.

*** ChampSim Multicore Out-of-Order Simulator ***
Warmup Instructions: 50000000
Simulation Instructions: 600000000
Number of CPUs: 1
Page size: 4096

Off-chip DRAM Size: 4 GiB Channels: 1 Width: 64-bit Data Race: 3200 MT/s
Heartbeat CPU 0 instructions: 10000001 cycles: 2500318 heartbeat IPC: 3.999 cumulative IPC: 3.999 (Simulation time: 00 hr 00 min 44 sec)
Heartbeat CPU 0 instructions: 20000002 cycles: 5037114 heartbeat IPC: 3.942 cumulative IPC: 3.971 (Simulation time: 00 hr 01 min 52 sec)
Heartbeat CPU 0 instructions: 30000002 cycles: 7537114 heartbeat IPC: 4 cumulative IPC: 3.98 (Simulation time: 00 hr 02 min 54 sec)
Heartbeat CPU 0 instructions: 40000002 cycles: 10037114 heartbeat IPC: 4 cumulative IPC: 3.985 (Simulation time: 00 hr 03 min 44 sec)
Heartbeat CPU 0 instructions: 50000002 cycles: 12537114 heartbeat IPC: 4 cumulative IPC: 3.988 (Simulation time: 00 hr 04 min 32 sec)
Warmup finished CPU 0 instructions: 50000002 cycles: 12537115 cumulative IPC: 3.988 (Simulation time: 00 hr 04 min 32 sec)
Warmup complete CPU 0 instructions: 50000002 cycles: 12537115 cumulative IPC: 3.988 (Simulation time: 00 hr 04 min 32 sec)
Heartbeat CPU 0 instructions: 60000000 cycles: 17721215 heartbeat IPC: 1.929 cumulative IPC: 1.929 (Simulation time: 00 hr 05 min 47 sec)
Heartbeat CPU 0 instructions: 70000002 cycles: 22623975 heartbeat IPC: 2.04 cumulative IPC: 1.983 (Simulation time: 00 hr 07 min 02 sec)
Heartbeat CPU 0 instructions: 80000001 cycles: 27996204 heartbeat IPC: 1.861 cumulative IPC: 1.941 (Simulation time: 00 hr 08 min 19 sec)
Heartbeat CPU 0 instructions: 90000001 cycles: 32874097 heartbeat IPC: 2.05 cumulative IPC: 1.967 (Simulation time: 00 hr 09 min 35 sec)
Heartbeat CPU 0 instructions: 100000000 cycles: 38002243 heartbeat IPC: 1.95 cumulative IPC: 1.963 (Simulation time: 00 hr 10 min 50 sec)
Heartbeat CPU 0 instructions: 110000000 cycles: 42886899 heartbeat IPC: 2.047 cumulative IPC: 1.977 (Simulation time: 00 hr 12 min 04 sec)
Heartbeat CPU 0 instructions: 120000001 cycles: 48085720 heartbeat IPC: 1.924 cumulative IPC: 1.969 (Simulation time: 00 hr 13 min 20 sec)
Heartbeat CPU 0 instructions: 130000001 cycles: 53238574 heartbeat IPC: 1.941 cumulative IPC: 1.966 (Simulation time: 00 hr 14 min 36 sec)
Heartbeat CPU 0 instructions: 140000001 cycles: 58562879 heartbeat IPC: 1.878 cumulative IPC: 1.955 (Simulation time: 00 hr 15 min 54 sec)
Heartbeat CPU 0 instructions: 150000001 cycles: 63888048 heartbeat IPC: 1.878 cumulative IPC: 1.947 (Simulation time: 00 hr 17 min 11 sec)
Heartbeat CPU 0 instructions: 160000004 cycles: 69105364 heartbeat IPC: 1.917 cumulative IPC: 1.945 (Simulation time: 00 hr 18 min 28 sec)
Heartbeat CPU 0 instructions: 170000004 cycles: 79694366 heartbeat IPC: 0.9444 cumulative IPC: 1.787 (Simulation time: 00 hr 20 min 34 sec)
Heartbeat CPU 0 instructions: 180000004 cycles: 90865665 heartbeat IPC: 0.8952 cumulative IPC: 1.66 (Simulation time: 00 hr 22 min 50 sec)
Heartbeat CPU 0 instructions: 190000001 cycles: 101943043 heartbeat IPC: 0.9027 cumulative IPC: 1.566 (Simulation time: 00 hr 25 min 01 sec)
Heartbeat CPU 0 instructions: 200000003 cycles: 106733501 heartbeat IPC: 2.087 cumulative IPC: 1.592 (Simulation time: 00 hr 26 min 14 sec)
Heartbeat CPU 0 instructions: 210000001 cycles: 111661946 heartbeat IPC: 2.029 cumulative IPC: 1.614 (Simulation time: 00 hr 27 min 29 sec)
Heartbeat CPU 0 instructions: 220000000 cycles: 116499131 heartbeat IPC: 2.067 cumulative IPC: 1.635 (Simulation time: 00 hr 28 min 43 sec)
Heartbeat CPU 0 instructions: 230000002 cycles: 121830259 heartbeat IPC: 1.876 cumulative IPC: 1.647 (Simulation time: 00 hr 30 min 00 sec)
Heartbeat CPU 0 instructions: 240000000 cycles: 126682970 heartbeat IPC: 2.061 cumulative IPC: 1.665 (Simulation time: 00 hr 31 min 14 sec)
Heartbeat CPU 0 instructions: 250000000 cycles: 131844411 heartbeat IPC: 1.937 cumulative IPC: 1.676 (Simulation time: 00 hr 32 min 31 sec)
Heartbeat CPU 0 instructions: 260000000 cycles: 136874401 heartbeat IPC: 1.988 cumulative IPC: 1.689 (Simulation time: 00 hr 33 min 46 sec)
Heartbeat CPU 0 instructions: 270000002 cycles: 141768690 heartbeat IPC: 2.043 cumulative IPC: 1.702 (Simulation time: 00 hr 35 min 00 sec)
Heartbeat CPU 0 instructions: 280000002 cycles: 146676176 heartbeat IPC: 2.038 cumulative IPC: 1.715 (Simulation time: 00 hr 36 min 13 sec)
Heartbeat CPU 0 instructions: 290000001 cycles: 152055126 heartbeat IPC: 1.859 cumulative IPC: 1.72 (Simulation time: 00 hr 37 min 33 sec)
Heartbeat CPU 0 instructions: 300000003 cycles: 157124859 heartbeat IPC: 1.972 cumulative IPC: 1.729 (Simulation time: 00 hr 38 min 48 sec)
Heartbeat CPU 0 instructions: 310000001 cycles: 162435399 heartbeat IPC: 1.883 cumulative IPC: 1.735 (Simulation time: 00 hr 40 min 05 sec)
Heartbeat CPU 0 instructions: 320000003 cycles: 167652194 heartbeat IPC: 1.917 cumulative IPC: 1.741 (Simulation time: 00 hr 41 min 22 sec)
Heartbeat CPU 0 instructions: 330000003 cycles: 172964049 heartbeat IPC: 1.883 cumulative IPC: 1.745 (Simulation time: 00 hr 42 min 39 sec)
Heartbeat CPU 0 instructions: 340000000 cycles: 183721916 heartbeat IPC: 0.9296 cumulative IPC: 1.694 (Simulation time: 00 hr 44 min 48 sec)
Heartbeat CPU 0 instructions: 350000000 cycles: 195441843 heartbeat IPC: 0.8532 cumulative IPC: 1.64 (Simulation time: 00 hr 47 min 08 sec)
Heartbeat CPU 0 instructions: 360000004 cycles: 206677196 heartbeat IPC: 0.89 cumulative IPC: 1.597 (Simulation time: 00 hr 49 min 22 sec)
Heartbeat CPU 0 instructions: 370000000 cycles: 211092932 heartbeat IPC: 2.265 cumulative IPC: 1.612 (Simulation time: 00 hr 50 min 31 sec)
Heartbeat CPU 0 instructions: 380000001 cycles: 216033011 heartbeat IPC: 2.024 cumulative IPC: 1.622 (Simulation time: 00 hr 51 min 46 sec)
Heartbeat CPU 0 instructions: 390000002 cycles: 220859643 heartbeat IPC: 2.072 cumulative IPC: 1.632 (Simulation time: 00 hr 53 min 00 sec)
Heartbeat CPU 0 instructions: 400000004 cycles: 225797696 heartbeat IPC: 2.025 cumulative IPC: 1.641 (Simulation time: 00 hr 54 min 14 sec)
Heartbeat CPU 0 instructions: 410000000 cycles: 230531986 heartbeat IPC: 2.112 cumulative IPC: 1.651 (Simulation time: 00 hr 55 min 26 sec)
Heartbeat CPU 0 instructions: 420000000 cycles: 235721361 heartbeat IPC: 1.927 cumulative IPC: 1.658 (Simulation time: 00 hr 56 min 42 sec)
Heartbeat CPU 0 instructions: 430000001 cycles: 240191577 heartbeat IPC: 2.237 cumulative IPC: 1.669 (Simulation time: 00 hr 57 min 53 sec)
Heartbeat CPU 0 instructions: 440000000 cycles: 245544872 heartbeat IPC: 1.868 cumulative IPC: 1.674 (Simulation time: 00 hr 59 min 10 sec)
Heartbeat CPU 0 instructions: 450000002 cycles: 250212787 heartbeat IPC: 2.142 cumulative IPC: 1.683 (Simulation time: 01 hr 00 min 22 sec)
Heartbeat CPU 0 instructions: 460000000 cycles: 255004123 heartbeat IPC: 2.087 cumulative IPC: 1.691 (Simulation time: 01 hr 01 min 34 sec)
Heartbeat CPU 0 instructions: 470000000 cycles: 259983401 heartbeat IPC: 2.008 cumulative IPC: 1.697 (Simulation time: 01 hr 02 min 49 sec)
Heartbeat CPU 0 instructions: 480000003 cycles: 264797238 heartbeat IPC: 2.077 cumulative IPC: 1.705 (Simulation time: 01 hr 04 min 02 sec)
Heartbeat CPU 0 instructions: 490000000 cycles: 269404850 heartbeat IPC: 2.17 cumulative IPC: 1.713 (Simulation time: 01 hr 05 min 13 sec)
Heartbeat CPU 0 instructions: 500000000 cycles: 274426965 heartbeat IPC: 1.991 cumulative IPC: 1.718 (Simulation time: 01 hr 06 min 28 sec)
Heartbeat CPU 0 instructions: 510000003 cycles: 280106277 heartbeat IPC: 1.761 cumulative IPC: 1.719 (Simulation time: 01 hr 07 min 49 sec)
Heartbeat CPU 0 instructions: 520000001 cycles: 284793193 heartbeat IPC: 2.134 cumulative IPC: 1.726 (Simulation time: 01 hr 09 min 03 sec)
Heartbeat CPU 0 instructions: 530000002 cycles: 289973424 heartbeat IPC: 1.93 cumulative IPC: 1.73 (Simulation time: 01 hr 10 min 19 sec)
Heartbeat CPU 0 instructions: 540000000 cycles: 295089020 heartbeat IPC: 1.955 cumulative IPC: 1.734 (Simulation time: 01 hr 11 min 34 sec)
Heartbeat CPU 0 instructions: 550000001 cycles: 299892800 heartbeat IPC: 2.082 cumulative IPC: 1.74 (Simulation time: 01 hr 12 min 48 sec)
Heartbeat CPU 0 instructions: 560000000 cycles: 305181952 heartbeat IPC: 1.891 cumulative IPC: 1.743 (Simulation time: 01 hr 14 min 05 sec)
Heartbeat CPU 0 instructions: 570000004 cycles: 312391089 heartbeat IPC: 1.387 cumulative IPC: 1.734 (Simulation time: 01 hr 15 min 42 sec)
Heartbeat CPU 0 instructions: 580000003 cycles: 324823234 heartbeat IPC: 0.8044 cumulative IPC: 1.697 (Simulation time: 01 hr 18 min 09 sec)
Heartbeat CPU 0 instructions: 590000002 cycles: 338712107 heartbeat IPC: 0.72 cumulative IPC: 1.656 (Simulation time: 01 hr 20 min 48 sec)
Heartbeat CPU 0 instructions: 600000000 cycles: 343302066 heartbeat IPC: 2.179 cumulative IPC: 1.663 (Simulation time: 01 hr 22 min 00 sec)
Heartbeat CPU 0 instructions: 610000002 cycles: 347798539 heartbeat IPC: 2.224 cumulative IPC: 1.67 (Simulation time: 01 hr 23 min 10 sec)
Heartbeat CPU 0 instructions: 620000000 cycles: 352607120 heartbeat IPC: 2.08 cumulative IPC: 1.676 (Simulation time: 01 hr 24 min 26 sec)
Heartbeat CPU 0 instructions: 630000002 cycles: 357696194 heartbeat IPC: 1.965 cumulative IPC: 1.68 (Simulation time: 01 hr 25 min 53 sec)
Heartbeat CPU 0 instructions: 640000001 cycles: 362550640 heartbeat IPC: 2.06 cumulative IPC: 1.686 (Simulation time: 01 hr 27 min 07 sec)
Heartbeat CPU 0 instructions: 650000000 cycles: 367105626 heartbeat IPC: 2.195 cumulative IPC: 1.692 (Simulation time: 01 hr 28 min 19 sec)
Simulation finished CPU 0 instructions: 600000001 cycles: 354568513 cumulative IPC: 1.692 (Simulation time: 01 hr 28 min 19 sec)
Simulation complete CPU 0 instructions: 600000001 cycles: 354568513 cumulative IPC: 1.692 (Simulation time: 01 hr 28 min 19 sec)

ChampSim completed all CPUs

=== Simulation ===
CPU 0 runs traces/400.perlbench-41B.champsimtrace.xz
Region of Interest Statistics

CPU 0 cumulative IPC: 1.692 instructions: 600000001 cycles: 354568513
CPU 0 Branch Prediction Accuracy: 93.95% MPKI: 12.5 Average ROB Occupancy at Mispredict: 29.62
Branch type MPKI
BRANCH_DIRECT_JUMP: 0.0123
BRANCH_INDIRECT: 0.323
BRANCH_CONDITIONAL: 12
BRANCH_DIRECT_CALL: 0.0043
BRANCH_INDIRECT_CALL: 0.2
BRANCH_RETURN: 0.00828

LLC TOTAL        ACCESS:     939153 HIT:     479831 MISS:     459322
LLC LOAD         ACCESS:     401023 HIT:     202076 MISS:     198947
LLC RFO          ACCESS:      32826 HIT:      15807 MISS:      17019
LLC PREFETCH     ACCESS:     401023 HIT:     191717 MISS:     209306
LLC WRITE        ACCESS:      85324 HIT:      69788 MISS:      15536
LLC TRANSLATION  ACCESS:      18957 HIT:        443 MISS:      18514
LLC PREFETCH REQUESTED:     401023 ISSUED:     401023 USEFUL:      79447 USELESS:      74734
LLC AVERAGE MISS LATENCY: 557.7 cycles
cpu0_DTLB TOTAL        ACCESS:  153670487 HIT:  152992255 MISS:     678232
cpu0_DTLB LOAD         ACCESS:  153670487 HIT:  152992255 MISS:     678232
cpu0_DTLB RFO          ACCESS:          0 HIT:          0 MISS:          0
cpu0_DTLB PREFETCH     ACCESS:          0 HIT:          0 MISS:          0
cpu0_DTLB WRITE        ACCESS:          0 HIT:          0 MISS:          0
cpu0_DTLB TRANSLATION  ACCESS:          0 HIT:          0 MISS:          0
cpu0_DTLB PREFETCH REQUESTED:          0 ISSUED:          0 USEFUL:          0 USELESS:          0
cpu0_DTLB AVERAGE MISS LATENCY: 25.28 cycles
cpu0_ITLB TOTAL        ACCESS:    4834976 HIT:    4777069 MISS:      57907
cpu0_ITLB LOAD         ACCESS:    4834976 HIT:    4777069 MISS:      57907
cpu0_ITLB RFO          ACCESS:          0 HIT:          0 MISS:          0
cpu0_ITLB PREFETCH     ACCESS:          0 HIT:          0 MISS:          0
cpu0_ITLB WRITE        ACCESS:          0 HIT:          0 MISS:          0
cpu0_ITLB TRANSLATION  ACCESS:          0 HIT:          0 MISS:          0
cpu0_ITLB PREFETCH REQUESTED:          0 ISSUED:          0 USEFUL:          0 USELESS:          0
cpu0_ITLB AVERAGE MISS LATENCY: 8.879 cycles
cpu0_L1D TOTAL        ACCESS:  200286604 HIT:  198544953 MISS:    1741651
cpu0_L1D LOAD         ACCESS:  117044529 HIT:  115688171 MISS:    1356358
cpu0_L1D RFO          ACCESS:          0 HIT:          0 MISS:          0
cpu0_L1D PREFETCH     ACCESS:          0 HIT:          0 MISS:          0
cpu0_L1D WRITE        ACCESS:   83217605 HIT:   82855753 MISS:     361852
cpu0_L1D TRANSLATION  ACCESS:      24470 HIT:       1029 MISS:      23441
cpu0_L1D PREFETCH REQUESTED:          0 ISSUED:          0 USEFUL:          0 USELESS:          0
cpu0_L1D AVERAGE MISS LATENCY: 88.87 cycles
cpu0_L1I TOTAL        ACCESS:    5577494 HIT:    4816037 MISS:     761457
cpu0_L1I LOAD         ACCESS:    5577494 HIT:    4816037 MISS:     761457
cpu0_L1I RFO          ACCESS:          0 HIT:          0 MISS:          0
cpu0_L1I PREFETCH     ACCESS:          0 HIT:          0 MISS:          0
cpu0_L1I WRITE        ACCESS:          0 HIT:          0 MISS:          0
cpu0_L1I TRANSLATION  ACCESS:          0 HIT:          0 MISS:          0
cpu0_L1I PREFETCH REQUESTED:          0 ISSUED:          0 USEFUL:          0 USELESS:          0
cpu0_L1I AVERAGE MISS LATENCY: 14.11 cycles
cpu0_L2C TOTAL        ACCESS:    1667727 HIT:    1213117 MISS:     454610
cpu0_L2C LOAD         ACCESS:    1317036 HIT:     916013 MISS:     401023
cpu0_L2C RFO          ACCESS:      88613 HIT:      55787 MISS:      32826
cpu0_L2C PREFETCH     ACCESS:          0 HIT:          0 MISS:          0
cpu0_L2C WRITE        ACCESS:     238727 HIT:     236923 MISS:       1804
cpu0_L2C TRANSLATION  ACCESS:      23351 HIT:       4394 MISS:      18957
cpu0_L2C PREFETCH REQUESTED:          0 ISSUED:          0 USEFUL:          0 USELESS:          0
cpu0_L2C AVERAGE MISS LATENCY: 343 cycles
cpu0_STLB TOTAL        ACCESS:     505160 HIT:     482370 MISS:      22790
cpu0_STLB LOAD         ACCESS:     505160 HIT:     482370 MISS:      22790
cpu0_STLB RFO          ACCESS:          0 HIT:          0 MISS:          0
cpu0_STLB PREFETCH     ACCESS:          0 HIT:          0 MISS:          0
cpu0_STLB WRITE        ACCESS:          0 HIT:          0 MISS:          0
cpu0_STLB TRANSLATION  ACCESS:          0 HIT:          0 MISS:          0
cpu0_STLB PREFETCH REQUESTED:          0 ISSUED:          0 USEFUL:          0 USELESS:          0
cpu0_STLB AVERAGE MISS LATENCY: 644 cycles

DRAM Statistics

Channel 0 RQ ROW_BUFFER_HIT:      62375
  ROW_BUFFER_MISS:     314882
 AVG DBUS CONGESTED CYCLE: 3.874
WQ ROW_BUFFER_HIT: Channel 0 
  ROW_BUFFER_MISS:       6634
  FULL:      42407
Final OPTGen Hits: 8354
Final OPTGen Access: 9050
Final OPTGEN Hit Rate: 92.3094
