WARNING: physical memory size is smaller than virtual memory size.

*** ChampSim Multicore Out-of-Order Simulator ***
Warmup Instructions: 50000000
Simulation Instructions: 600000000
Number of CPUs: 1
Page size: 4096

Off-chip DRAM Size: 4 GiB Channels: 1 Width: 64-bit Data Race: 3200 MT/s
Heartbeat CPU 0 instructions: 10000000 cycles: 2500061 heartbeat IPC: 4 cumulative IPC: 4 (Simulation time: 00 hr 00 min 48 sec)
Heartbeat CPU 0 instructions: 20000000 cycles: 5000061 heartbeat IPC: 4 cumulative IPC: 4 (Simulation time: 00 hr 01 min 35 sec)
Heartbeat CPU 0 instructions: 30000000 cycles: 7500061 heartbeat IPC: 4 cumulative IPC: 4 (Simulation time: 00 hr 02 min 25 sec)
Heartbeat CPU 0 instructions: 40000000 cycles: 10000061 heartbeat IPC: 4 cumulative IPC: 4 (Simulation time: 00 hr 03 min 22 sec)
Heartbeat CPU 0 instructions: 50000000 cycles: 12500061 heartbeat IPC: 4 cumulative IPC: 4 (Simulation time: 00 hr 04 min 16 sec)
Warmup finished CPU 0 instructions: 50000000 cycles: 12500062 cumulative IPC: 4 (Simulation time: 00 hr 04 min 16 sec)
Warmup complete CPU 0 instructions: 50000000 cycles: 12500062 cumulative IPC: 4 (Simulation time: 00 hr 04 min 16 sec)
Heartbeat CPU 0 instructions: 60000002 cycles: 16897168 heartbeat IPC: 2.274 cumulative IPC: 2.274 (Simulation time: 00 hr 05 min 30 sec)
Heartbeat CPU 0 instructions: 70000003 cycles: 21874323 heartbeat IPC: 2.009 cumulative IPC: 2.134 (Simulation time: 00 hr 06 min 39 sec)
Heartbeat CPU 0 instructions: 80000001 cycles: 27217652 heartbeat IPC: 1.871 cumulative IPC: 2.038 (Simulation time: 00 hr 07 min 49 sec)
Heartbeat CPU 0 instructions: 90000000 cycles: 31512174 heartbeat IPC: 2.329 cumulative IPC: 2.104 (Simulation time: 00 hr 08 min 53 sec)
Heartbeat CPU 0 instructions: 100000003 cycles: 36360283 heartbeat IPC: 2.063 cumulative IPC: 2.096 (Simulation time: 00 hr 10 min 00 sec)
Heartbeat CPU 0 instructions: 110000002 cycles: 41223823 heartbeat IPC: 2.056 cumulative IPC: 2.089 (Simulation time: 00 hr 11 min 09 sec)
Heartbeat CPU 0 instructions: 120000001 cycles: 46216185 heartbeat IPC: 2.003 cumulative IPC: 2.076 (Simulation time: 00 hr 12 min 16 sec)
Heartbeat CPU 0 instructions: 130000003 cycles: 50774631 heartbeat IPC: 2.194 cumulative IPC: 2.09 (Simulation time: 00 hr 13 min 20 sec)
Heartbeat CPU 0 instructions: 140000002 cycles: 55657500 heartbeat IPC: 2.048 cumulative IPC: 2.085 (Simulation time: 00 hr 14 min 26 sec)
Heartbeat CPU 0 instructions: 150000001 cycles: 60315882 heartbeat IPC: 2.147 cumulative IPC: 2.091 (Simulation time: 00 hr 15 min 30 sec)
Heartbeat CPU 0 instructions: 160000000 cycles: 64944965 heartbeat IPC: 2.16 cumulative IPC: 2.097 (Simulation time: 00 hr 16 min 38 sec)
Heartbeat CPU 0 instructions: 170000000 cycles: 70270269 heartbeat IPC: 1.878 cumulative IPC: 2.077 (Simulation time: 00 hr 18 min 03 sec)
Heartbeat CPU 0 instructions: 180000001 cycles: 75985569 heartbeat IPC: 1.75 cumulative IPC: 2.048 (Simulation time: 00 hr 19 min 28 sec)
Heartbeat CPU 0 instructions: 190000002 cycles: 80446874 heartbeat IPC: 2.241 cumulative IPC: 2.06 (Simulation time: 00 hr 20 min 38 sec)
Heartbeat CPU 0 instructions: 200000002 cycles: 85338682 heartbeat IPC: 2.044 cumulative IPC: 2.059 (Simulation time: 00 hr 21 min 46 sec)
Heartbeat CPU 0 instructions: 210000000 cycles: 90337270 heartbeat IPC: 2.001 cumulative IPC: 2.056 (Simulation time: 00 hr 22 min 54 sec)
Heartbeat CPU 0 instructions: 220000001 cycles: 95260426 heartbeat IPC: 2.031 cumulative IPC: 2.054 (Simulation time: 00 hr 24 min 00 sec)
Heartbeat CPU 0 instructions: 230000002 cycles: 100498510 heartbeat IPC: 1.909 cumulative IPC: 2.045 (Simulation time: 00 hr 25 min 11 sec)
Heartbeat CPU 0 instructions: 240000001 cycles: 105457680 heartbeat IPC: 2.016 cumulative IPC: 2.044 (Simulation time: 00 hr 26 min 21 sec)
Heartbeat CPU 0 instructions: 250000003 cycles: 110638543 heartbeat IPC: 1.93 cumulative IPC: 2.038 (Simulation time: 00 hr 27 min 29 sec)
Heartbeat CPU 0 instructions: 260000001 cycles: 115505367 heartbeat IPC: 2.055 cumulative IPC: 2.039 (Simulation time: 00 hr 28 min 35 sec)
Heartbeat CPU 0 instructions: 270000000 cycles: 122909585 heartbeat IPC: 1.351 cumulative IPC: 1.993 (Simulation time: 00 hr 30 min 04 sec)
Heartbeat CPU 0 instructions: 280000000 cycles: 134197136 heartbeat IPC: 0.8859 cumulative IPC: 1.89 (Simulation time: 00 hr 32 min 29 sec)
Heartbeat CPU 0 instructions: 290000001 cycles: 144104588 heartbeat IPC: 1.009 cumulative IPC: 1.824 (Simulation time: 00 hr 34 min 38 sec)
Heartbeat CPU 0 instructions: 300000003 cycles: 151719107 heartbeat IPC: 1.313 cumulative IPC: 1.796 (Simulation time: 00 hr 36 min 22 sec)
Heartbeat CPU 0 instructions: 310000004 cycles: 163162318 heartbeat IPC: 0.8739 cumulative IPC: 1.726 (Simulation time: 00 hr 38 min 25 sec)
Heartbeat CPU 0 instructions: 320000004 cycles: 169006422 heartbeat IPC: 1.711 cumulative IPC: 1.725 (Simulation time: 00 hr 39 min 45 sec)
Heartbeat CPU 0 instructions: 330000000 cycles: 174296154 heartbeat IPC: 1.89 cumulative IPC: 1.731 (Simulation time: 00 hr 40 min 58 sec)
Heartbeat CPU 0 instructions: 340000001 cycles: 179530714 heartbeat IPC: 1.91 cumulative IPC: 1.736 (Simulation time: 00 hr 42 min 08 sec)
Heartbeat CPU 0 instructions: 350000000 cycles: 184971570 heartbeat IPC: 1.838 cumulative IPC: 1.739 (Simulation time: 00 hr 43 min 21 sec)
Heartbeat CPU 0 instructions: 360000003 cycles: 190183837 heartbeat IPC: 1.919 cumulative IPC: 1.745 (Simulation time: 00 hr 44 min 31 sec)
Heartbeat CPU 0 instructions: 370000001 cycles: 195281752 heartbeat IPC: 1.962 cumulative IPC: 1.751 (Simulation time: 00 hr 45 min 39 sec)
Heartbeat CPU 0 instructions: 380000004 cycles: 200659656 heartbeat IPC: 1.859 cumulative IPC: 1.754 (Simulation time: 00 hr 46 min 54 sec)
Heartbeat CPU 0 instructions: 390000002 cycles: 206116190 heartbeat IPC: 1.833 cumulative IPC: 1.756 (Simulation time: 00 hr 48 min 28 sec)
Heartbeat CPU 0 instructions: 400000000 cycles: 211666659 heartbeat IPC: 1.802 cumulative IPC: 1.757 (Simulation time: 00 hr 50 min 01 sec)
Heartbeat CPU 0 instructions: 410000000 cycles: 220183925 heartbeat IPC: 1.174 cumulative IPC: 1.733 (Simulation time: 00 hr 51 min 53 sec)
Heartbeat CPU 0 instructions: 420000001 cycles: 231741985 heartbeat IPC: 0.8652 cumulative IPC: 1.688 (Simulation time: 00 hr 54 min 08 sec)
Heartbeat CPU 0 instructions: 430000000 cycles: 240025569 heartbeat IPC: 1.207 cumulative IPC: 1.67 (Simulation time: 00 hr 56 min 00 sec)
Heartbeat CPU 0 instructions: 440000002 cycles: 247807801 heartbeat IPC: 1.285 cumulative IPC: 1.657 (Simulation time: 00 hr 57 min 41 sec)
Heartbeat CPU 0 instructions: 450000000 cycles: 255155429 heartbeat IPC: 1.361 cumulative IPC: 1.648 (Simulation time: 00 hr 59 min 13 sec)
Heartbeat CPU 0 instructions: 460000002 cycles: 266918240 heartbeat IPC: 0.8501 cumulative IPC: 1.612 (Simulation time: 01 hr 01 min 18 sec)
Heartbeat CPU 0 instructions: 470000000 cycles: 277450290 heartbeat IPC: 0.9495 cumulative IPC: 1.585 (Simulation time: 01 hr 03 min 12 sec)
Heartbeat CPU 0 instructions: 480000000 cycles: 283034873 heartbeat IPC: 1.791 cumulative IPC: 1.589 (Simulation time: 01 hr 04 min 25 sec)
Heartbeat CPU 0 instructions: 490000001 cycles: 288857591 heartbeat IPC: 1.717 cumulative IPC: 1.592 (Simulation time: 01 hr 05 min 40 sec)
Heartbeat CPU 0 instructions: 500000002 cycles: 294549200 heartbeat IPC: 1.757 cumulative IPC: 1.595 (Simulation time: 01 hr 06 min 53 sec)
Heartbeat CPU 0 instructions: 510000000 cycles: 300317505 heartbeat IPC: 1.734 cumulative IPC: 1.598 (Simulation time: 01 hr 08 min 06 sec)
Heartbeat CPU 0 instructions: 520000000 cycles: 306111454 heartbeat IPC: 1.726 cumulative IPC: 1.601 (Simulation time: 01 hr 09 min 19 sec)
Heartbeat CPU 0 instructions: 530000001 cycles: 318365053 heartbeat IPC: 0.8161 cumulative IPC: 1.569 (Simulation time: 01 hr 11 min 19 sec)
Heartbeat CPU 0 instructions: 540000000 cycles: 330153487 heartbeat IPC: 0.8483 cumulative IPC: 1.543 (Simulation time: 01 hr 13 min 30 sec)
Heartbeat CPU 0 instructions: 550000002 cycles: 344080727 heartbeat IPC: 0.718 cumulative IPC: 1.508 (Simulation time: 01 hr 15 min 48 sec)
Heartbeat CPU 0 instructions: 560000004 cycles: 348986766 heartbeat IPC: 2.038 cumulative IPC: 1.516 (Simulation time: 01 hr 16 min 51 sec)
Heartbeat CPU 0 instructions: 570000001 cycles: 353405896 heartbeat IPC: 2.263 cumulative IPC: 1.525 (Simulation time: 01 hr 17 min 47 sec)
Heartbeat CPU 0 instructions: 580000003 cycles: 357664290 heartbeat IPC: 2.348 cumulative IPC: 1.536 (Simulation time: 01 hr 18 min 38 sec)
Heartbeat CPU 0 instructions: 590000001 cycles: 362582842 heartbeat IPC: 2.033 cumulative IPC: 1.542 (Simulation time: 01 hr 19 min 30 sec)
Heartbeat CPU 0 instructions: 600000003 cycles: 367234013 heartbeat IPC: 2.15 cumulative IPC: 1.55 (Simulation time: 01 hr 20 min 20 sec)
Heartbeat CPU 0 instructions: 610000001 cycles: 372107021 heartbeat IPC: 2.052 cumulative IPC: 1.557 (Simulation time: 01 hr 21 min 04 sec)
Heartbeat CPU 0 instructions: 620000000 cycles: 377182921 heartbeat IPC: 1.97 cumulative IPC: 1.563 (Simulation time: 01 hr 21 min 43 sec)
Heartbeat CPU 0 instructions: 630000002 cycles: 381432036 heartbeat IPC: 2.353 cumulative IPC: 1.572 (Simulation time: 01 hr 22 min 15 sec)
Heartbeat CPU 0 instructions: 640000004 cycles: 386761965 heartbeat IPC: 1.876 cumulative IPC: 1.576 (Simulation time: 01 hr 22 min 45 sec)
Heartbeat CPU 0 instructions: 650000001 cycles: 391524981 heartbeat IPC: 2.1 cumulative IPC: 1.583 (Simulation time: 01 hr 23 min 13 sec)
Simulation finished CPU 0 instructions: 600000001 cycles: 379024920 cumulative IPC: 1.583 (Simulation time: 01 hr 23 min 13 sec)
Simulation complete CPU 0 instructions: 600000001 cycles: 379024920 cumulative IPC: 1.583 (Simulation time: 01 hr 23 min 13 sec)

ChampSim completed all CPUs

=== Simulation ===
CPU 0 runs traces/400.perlbench-50B.champsimtrace.xz
Region of Interest Statistics

CPU 0 cumulative IPC: 1.583 instructions: 600000001 cycles: 379024920
CPU 0 Branch Prediction Accuracy: 93.83% MPKI: 12.71 Average ROB Occupancy at Mispredict: 29.49
Branch type MPKI
BRANCH_DIRECT_JUMP: 0.0176
BRANCH_INDIRECT: 0.38
BRANCH_CONDITIONAL: 11.9
BRANCH_DIRECT_CALL: 0.0067
BRANCH_INDIRECT_CALL: 0.431
BRANCH_RETURN: 0.0161

LLC TOTAL        ACCESS:    1371657 HIT:     825888 MISS:     545769
LLC LOAD         ACCESS:     586538 HIT:     342458 MISS:     244080
LLC RFO          ACCESS:      48190 HIT:      27143 MISS:      21047
LLC PREFETCH     ACCESS:     586538 HIT:     334876 MISS:     251662
LLC WRITE        ACCESS:     128358 HIT:     112685 MISS:      15673
LLC TRANSLATION  ACCESS:      22033 HIT:       8726 MISS:      13307
LLC PREFETCH REQUESTED:     586538 ISSUED:     586538 USEFUL:      81164 USELESS:      69447
LLC AVERAGE MISS LATENCY: 531.4 cycles
cpu0_DTLB TOTAL        ACCESS:  156769449 HIT:  155467027 MISS:    1302422
cpu0_DTLB LOAD         ACCESS:  156769449 HIT:  155467027 MISS:    1302422
cpu0_DTLB RFO          ACCESS:          0 HIT:          0 MISS:          0
cpu0_DTLB PREFETCH     ACCESS:          0 HIT:          0 MISS:          0
cpu0_DTLB WRITE        ACCESS:          0 HIT:          0 MISS:          0
cpu0_DTLB TRANSLATION  ACCESS:          0 HIT:          0 MISS:          0
cpu0_DTLB PREFETCH REQUESTED:          0 ISSUED:          0 USEFUL:          0 USELESS:          0
cpu0_DTLB AVERAGE MISS LATENCY: 13.46 cycles
cpu0_ITLB TOTAL        ACCESS:    8932111 HIT:    8733504 MISS:     198607
cpu0_ITLB LOAD         ACCESS:    8932111 HIT:    8733504 MISS:     198607
cpu0_ITLB RFO          ACCESS:          0 HIT:          0 MISS:          0
cpu0_ITLB PREFETCH     ACCESS:          0 HIT:          0 MISS:          0
cpu0_ITLB WRITE        ACCESS:          0 HIT:          0 MISS:          0
cpu0_ITLB TRANSLATION  ACCESS:          0 HIT:          0 MISS:          0
cpu0_ITLB PREFETCH REQUESTED:          0 ISSUED:          0 USEFUL:          0 USELESS:          0
cpu0_ITLB AVERAGE MISS LATENCY: 3.517 cycles
cpu0_L1D TOTAL        ACCESS:  203614224 HIT:  199939665 MISS:    3674559
cpu0_L1D LOAD         ACCESS:  117937453 HIT:  114920809 MISS:    3016644
cpu0_L1D RFO          ACCESS:          0 HIT:          0 MISS:          0
cpu0_L1D PREFETCH     ACCESS:          0 HIT:          0 MISS:          0
cpu0_L1D WRITE        ACCESS:   85648231 HIT:   85017447 MISS:     630784
cpu0_L1D TRANSLATION  ACCESS:      28540 HIT:       1409 MISS:      27131
cpu0_L1D PREFETCH REQUESTED:          0 ISSUED:          0 USEFUL:          0 USELESS:          0
cpu0_L1D AVERAGE MISS LATENCY: 49.46 cycles
cpu0_L1I TOTAL        ACCESS:   10370913 HIT:    8573962 MISS:    1796951
cpu0_L1I LOAD         ACCESS:   10370913 HIT:    8573962 MISS:    1796951
cpu0_L1I RFO          ACCESS:          0 HIT:          0 MISS:          0
cpu0_L1I PREFETCH     ACCESS:          0 HIT:          0 MISS:          0
cpu0_L1I WRITE        ACCESS:          0 HIT:          0 MISS:          0
cpu0_L1I TRANSLATION  ACCESS:          0 HIT:          0 MISS:          0
cpu0_L1I PREFETCH REQUESTED:          0 ISSUED:          0 USEFUL:          0 USELESS:          0
cpu0_L1I AVERAGE MISS LATENCY: 11.69 cycles
cpu0_L2C TOTAL        ACCESS:    3837084 HIT:    3176950 MISS:     660134
cpu0_L2C LOAD         ACCESS:    3106330 HIT:    2519792 MISS:     586538
cpu0_L2C RFO          ACCESS:     191846 HIT:     143656 MISS:      48190
cpu0_L2C PREFETCH     ACCESS:          0 HIT:          0 MISS:          0
cpu0_L2C WRITE        ACCESS:     511857 HIT:     508484 MISS:       3373
cpu0_L2C TRANSLATION  ACCESS:      27051 HIT:       5018 MISS:      22033
cpu0_L2C PREFETCH REQUESTED:          0 ISSUED:          0 USEFUL:          0 USELESS:          0
cpu0_L2C AVERAGE MISS LATENCY: 268.1 cycles
cpu0_STLB TOTAL        ACCESS:    1009344 HIT:     982654 MISS:      26690
cpu0_STLB LOAD         ACCESS:    1009344 HIT:     982654 MISS:      26690
cpu0_STLB RFO          ACCESS:          0 HIT:          0 MISS:          0
cpu0_STLB PREFETCH     ACCESS:          0 HIT:          0 MISS:          0
cpu0_STLB WRITE        ACCESS:          0 HIT:          0 MISS:          0
cpu0_STLB TRANSLATION  ACCESS:          0 HIT:          0 MISS:          0
cpu0_STLB PREFETCH REQUESTED:          0 ISSUED:          0 USEFUL:          0 USELESS:          0
cpu0_STLB AVERAGE MISS LATENCY: 441.1 cycles

DRAM Statistics

Channel 0 RQ ROW_BUFFER_HIT:      95696
  ROW_BUFFER_MISS:     359538
 AVG DBUS CONGESTED CYCLE: 3.863
WQ ROW_BUFFER_HIT: Channel 0 
  ROW_BUFFER_MISS:       7945
  FULL:      46072
