WARNING: physical memory size is smaller than virtual memory size.

*** ChampSim Multicore Out-of-Order Simulator ***
Warmup Instructions: 50000000
Simulation Instructions: 600000000
Number of CPUs: 1
Page size: 4096

Off-chip DRAM Size: 4 GiB Channels: 1 Width: 64-bit Data Race: 3200 MT/s
Heartbeat CPU 0 instructions: 10000001 cycles: 2500318 heartbeat IPC: 3.999 cumulative IPC: 3.999 (Simulation time: 00 hr 00 min 14 sec)
Heartbeat CPU 0 instructions: 20000002 cycles: 5037092 heartbeat IPC: 3.942 cumulative IPC: 3.971 (Simulation time: 00 hr 00 min 29 sec)
Heartbeat CPU 0 instructions: 30000002 cycles: 7537092 heartbeat IPC: 4 cumulative IPC: 3.98 (Simulation time: 00 hr 00 min 45 sec)
Heartbeat CPU 0 instructions: 40000002 cycles: 10037092 heartbeat IPC: 4 cumulative IPC: 3.985 (Simulation time: 00 hr 01 min 02 sec)
Heartbeat CPU 0 instructions: 50000002 cycles: 12537092 heartbeat IPC: 4 cumulative IPC: 3.988 (Simulation time: 00 hr 01 min 26 sec)
Warmup finished CPU 0 instructions: 50000002 cycles: 12537093 cumulative IPC: 3.988 (Simulation time: 00 hr 01 min 26 sec)
Warmup complete CPU 0 instructions: 50000002 cycles: 12537093 cumulative IPC: 3.988 (Simulation time: 00 hr 01 min 26 sec)
Heartbeat CPU 0 instructions: 60000000 cycles: 17731372 heartbeat IPC: 1.925 cumulative IPC: 1.925 (Simulation time: 00 hr 02 min 07 sec)
Heartbeat CPU 0 instructions: 70000002 cycles: 22643747 heartbeat IPC: 2.036 cumulative IPC: 1.979 (Simulation time: 00 hr 02 min 53 sec)
Heartbeat CPU 0 instructions: 80000001 cycles: 28027705 heartbeat IPC: 1.857 cumulative IPC: 1.937 (Simulation time: 00 hr 03 min 45 sec)
Heartbeat CPU 0 instructions: 90000001 cycles: 32912292 heartbeat IPC: 2.047 cumulative IPC: 1.963 (Simulation time: 00 hr 04 min 34 sec)
Heartbeat CPU 0 instructions: 100000000 cycles: 38045602 heartbeat IPC: 1.948 cumulative IPC: 1.96 (Simulation time: 00 hr 05 min 23 sec)
Heartbeat CPU 0 instructions: 110000000 cycles: 42937055 heartbeat IPC: 2.044 cumulative IPC: 1.974 (Simulation time: 00 hr 06 min 10 sec)
Heartbeat CPU 0 instructions: 120000001 cycles: 48143612 heartbeat IPC: 1.921 cumulative IPC: 1.966 (Simulation time: 00 hr 06 min 59 sec)
Heartbeat CPU 0 instructions: 130000001 cycles: 53315149 heartbeat IPC: 1.934 cumulative IPC: 1.962 (Simulation time: 00 hr 07 min 47 sec)
Heartbeat CPU 0 instructions: 140000001 cycles: 58651246 heartbeat IPC: 1.874 cumulative IPC: 1.952 (Simulation time: 00 hr 08 min 35 sec)
Heartbeat CPU 0 instructions: 150000001 cycles: 63991505 heartbeat IPC: 1.873 cumulative IPC: 1.943 (Simulation time: 00 hr 09 min 23 sec)
Heartbeat CPU 0 instructions: 160000004 cycles: 69222289 heartbeat IPC: 1.912 cumulative IPC: 1.941 (Simulation time: 00 hr 10 min 11 sec)
Heartbeat CPU 0 instructions: 170000000 cycles: 79088950 heartbeat IPC: 1.014 cumulative IPC: 1.803 (Simulation time: 00 hr 11 min 27 sec)
Heartbeat CPU 0 instructions: 180000004 cycles: 89657691 heartbeat IPC: 0.9462 cumulative IPC: 1.686 (Simulation time: 00 hr 12 min 53 sec)
Heartbeat CPU 0 instructions: 190000001 cycles: 101380033 heartbeat IPC: 0.8531 cumulative IPC: 1.576 (Simulation time: 00 hr 14 min 23 sec)
Heartbeat CPU 0 instructions: 200000003 cycles: 106156392 heartbeat IPC: 2.094 cumulative IPC: 1.602 (Simulation time: 00 hr 15 min 17 sec)
Heartbeat CPU 0 instructions: 210000001 cycles: 111080874 heartbeat IPC: 2.031 cumulative IPC: 1.624 (Simulation time: 00 hr 16 min 22 sec)
Heartbeat CPU 0 instructions: 220000000 cycles: 115916313 heartbeat IPC: 2.068 cumulative IPC: 1.644 (Simulation time: 00 hr 17 min 28 sec)
Heartbeat CPU 0 instructions: 230000002 cycles: 121246362 heartbeat IPC: 1.876 cumulative IPC: 1.656 (Simulation time: 00 hr 18 min 33 sec)
Heartbeat CPU 0 instructions: 240000000 cycles: 126097715 heartbeat IPC: 2.061 cumulative IPC: 1.673 (Simulation time: 00 hr 19 min 35 sec)
Heartbeat CPU 0 instructions: 250000000 cycles: 131258095 heartbeat IPC: 1.938 cumulative IPC: 1.685 (Simulation time: 00 hr 20 min 41 sec)
Heartbeat CPU 0 instructions: 260000000 cycles: 136290761 heartbeat IPC: 1.987 cumulative IPC: 1.697 (Simulation time: 00 hr 21 min 50 sec)
Heartbeat CPU 0 instructions: 270000002 cycles: 141184162 heartbeat IPC: 2.044 cumulative IPC: 1.71 (Simulation time: 00 hr 22 min 59 sec)
Heartbeat CPU 0 instructions: 280000002 cycles: 146090422 heartbeat IPC: 2.038 cumulative IPC: 1.722 (Simulation time: 00 hr 24 min 08 sec)
Heartbeat CPU 0 instructions: 290000001 cycles: 151470940 heartbeat IPC: 1.859 cumulative IPC: 1.727 (Simulation time: 00 hr 25 min 27 sec)
Heartbeat CPU 0 instructions: 300000003 cycles: 156535919 heartbeat IPC: 1.974 cumulative IPC: 1.736 (Simulation time: 00 hr 26 min 41 sec)
Heartbeat CPU 0 instructions: 310000001 cycles: 161849497 heartbeat IPC: 1.882 cumulative IPC: 1.741 (Simulation time: 00 hr 27 min 54 sec)
Heartbeat CPU 0 instructions: 320000003 cycles: 167066122 heartbeat IPC: 1.917 cumulative IPC: 1.747 (Simulation time: 00 hr 29 min 06 sec)
Heartbeat CPU 0 instructions: 330000003 cycles: 172377296 heartbeat IPC: 1.883 cumulative IPC: 1.752 (Simulation time: 00 hr 30 min 21 sec)
Heartbeat CPU 0 instructions: 340000000 cycles: 182421690 heartbeat IPC: 0.9956 cumulative IPC: 1.707 (Simulation time: 00 hr 32 min 09 sec)
Heartbeat CPU 0 instructions: 350000000 cycles: 193794642 heartbeat IPC: 0.8793 cumulative IPC: 1.655 (Simulation time: 00 hr 34 min 12 sec)
Heartbeat CPU 0 instructions: 360000004 cycles: 205396630 heartbeat IPC: 0.8619 cumulative IPC: 1.607 (Simulation time: 00 hr 36 min 15 sec)
Heartbeat CPU 0 instructions: 370000000 cycles: 209806927 heartbeat IPC: 2.267 cumulative IPC: 1.622 (Simulation time: 00 hr 37 min 19 sec)
Heartbeat CPU 0 instructions: 380000001 cycles: 214743823 heartbeat IPC: 2.026 cumulative IPC: 1.632 (Simulation time: 00 hr 38 min 28 sec)
Heartbeat CPU 0 instructions: 390000002 cycles: 219563773 heartbeat IPC: 2.075 cumulative IPC: 1.642 (Simulation time: 00 hr 39 min 39 sec)
Heartbeat CPU 0 instructions: 400000004 cycles: 224499661 heartbeat IPC: 2.026 cumulative IPC: 1.651 (Simulation time: 00 hr 40 min 50 sec)
Heartbeat CPU 0 instructions: 410000000 cycles: 229232008 heartbeat IPC: 2.113 cumulative IPC: 1.661 (Simulation time: 00 hr 41 min 56 sec)
Heartbeat CPU 0 instructions: 420000000 cycles: 234407080 heartbeat IPC: 1.932 cumulative IPC: 1.668 (Simulation time: 00 hr 43 min 04 sec)
Heartbeat CPU 0 instructions: 430000001 cycles: 238881638 heartbeat IPC: 2.235 cumulative IPC: 1.679 (Simulation time: 00 hr 44 min 10 sec)
Heartbeat CPU 0 instructions: 440000000 cycles: 244239594 heartbeat IPC: 1.866 cumulative IPC: 1.683 (Simulation time: 00 hr 45 min 17 sec)
Heartbeat CPU 0 instructions: 450000002 cycles: 248906434 heartbeat IPC: 2.143 cumulative IPC: 1.692 (Simulation time: 00 hr 46 min 23 sec)
Heartbeat CPU 0 instructions: 460000000 cycles: 253701534 heartbeat IPC: 2.085 cumulative IPC: 1.7 (Simulation time: 00 hr 47 min 27 sec)
Heartbeat CPU 0 instructions: 470000000 cycles: 258685218 heartbeat IPC: 2.007 cumulative IPC: 1.706 (Simulation time: 00 hr 48 min 31 sec)
Heartbeat CPU 0 instructions: 480000003 cycles: 263499797 heartbeat IPC: 2.077 cumulative IPC: 1.713 (Simulation time: 00 hr 49 min 40 sec)
Heartbeat CPU 0 instructions: 490000000 cycles: 268106321 heartbeat IPC: 2.171 cumulative IPC: 1.722 (Simulation time: 00 hr 50 min 48 sec)
Heartbeat CPU 0 instructions: 500000000 cycles: 273128935 heartbeat IPC: 1.991 cumulative IPC: 1.727 (Simulation time: 00 hr 51 min 57 sec)
Heartbeat CPU 0 instructions: 510000003 cycles: 278819498 heartbeat IPC: 1.757 cumulative IPC: 1.727 (Simulation time: 00 hr 53 min 09 sec)
Heartbeat CPU 0 instructions: 520000001 cycles: 283503274 heartbeat IPC: 2.135 cumulative IPC: 1.735 (Simulation time: 00 hr 54 min 15 sec)
Heartbeat CPU 0 instructions: 530000002 cycles: 288682164 heartbeat IPC: 1.931 cumulative IPC: 1.738 (Simulation time: 00 hr 55 min 25 sec)
Heartbeat CPU 0 instructions: 540000000 cycles: 293805698 heartbeat IPC: 1.952 cumulative IPC: 1.742 (Simulation time: 00 hr 56 min 33 sec)
Heartbeat CPU 0 instructions: 550000001 cycles: 298618448 heartbeat IPC: 2.078 cumulative IPC: 1.748 (Simulation time: 00 hr 57 min 41 sec)
Heartbeat CPU 0 instructions: 560000000 cycles: 303904975 heartbeat IPC: 1.892 cumulative IPC: 1.75 (Simulation time: 00 hr 58 min 51 sec)
Heartbeat CPU 0 instructions: 570000004 cycles: 311198020 heartbeat IPC: 1.371 cumulative IPC: 1.741 (Simulation time: 01 hr 00 min 19 sec)
Heartbeat CPU 0 instructions: 580000003 cycles: 321726179 heartbeat IPC: 0.9498 cumulative IPC: 1.714 (Simulation time: 01 hr 02 min 43 sec)
Heartbeat CPU 0 instructions: 590000002 cycles: 336576883 heartbeat IPC: 0.6734 cumulative IPC: 1.666 (Simulation time: 01 hr 05 min 29 sec)
Heartbeat CPU 0 instructions: 600000000 cycles: 341201496 heartbeat IPC: 2.162 cumulative IPC: 1.673 (Simulation time: 01 hr 06 min 37 sec)
Heartbeat CPU 0 instructions: 610000002 cycles: 345691400 heartbeat IPC: 2.227 cumulative IPC: 1.681 (Simulation time: 01 hr 07 min 42 sec)
Heartbeat CPU 0 instructions: 620000000 cycles: 350498525 heartbeat IPC: 2.08 cumulative IPC: 1.687 (Simulation time: 01 hr 08 min 47 sec)
Heartbeat CPU 0 instructions: 630000002 cycles: 355583947 heartbeat IPC: 1.966 cumulative IPC: 1.691 (Simulation time: 01 hr 09 min 52 sec)
Heartbeat CPU 0 instructions: 640000001 cycles: 360435653 heartbeat IPC: 2.061 cumulative IPC: 1.696 (Simulation time: 01 hr 10 min 59 sec)
Heartbeat CPU 0 instructions: 650000000 cycles: 364991378 heartbeat IPC: 2.195 cumulative IPC: 1.702 (Simulation time: 01 hr 12 min 02 sec)
Simulation finished CPU 0 instructions: 600000001 cycles: 352454287 cumulative IPC: 1.702 (Simulation time: 01 hr 12 min 02 sec)
Simulation complete CPU 0 instructions: 600000001 cycles: 352454287 cumulative IPC: 1.702 (Simulation time: 01 hr 12 min 02 sec)

ChampSim completed all CPUs

=== Simulation ===
CPU 0 runs traces/400.perlbench-41B.champsimtrace.xz
Region of Interest Statistics

CPU 0 cumulative IPC: 1.702 instructions: 600000001 cycles: 352454287
CPU 0 Branch Prediction Accuracy: 93.95% MPKI: 12.5 Average ROB Occupancy at Mispredict: 29.71
Branch type MPKI
BRANCH_DIRECT_JUMP: 0.0123
BRANCH_INDIRECT: 0.323
BRANCH_CONDITIONAL: 12
BRANCH_DIRECT_CALL: 0.0043
BRANCH_INDIRECT_CALL: 0.2
BRANCH_RETURN: 0.00828

LLC TOTAL        ACCESS:     940024 HIT:     501006 MISS:     439018
LLC LOAD         ACCESS:     401452 HIT:     219672 MISS:     181780
LLC RFO          ACCESS:      32772 HIT:      12418 MISS:      20354
LLC PREFETCH     ACCESS:     401452 HIT:     210417 MISS:     191035
LLC WRITE        ACCESS:      85303 HIT:      54611 MISS:      30692
LLC TRANSLATION  ACCESS:      19045 HIT:       3888 MISS:      15157
LLC PREFETCH REQUESTED:     401452 ISSUED:     401452 USEFUL:      59014 USELESS:      88071
LLC AVERAGE MISS LATENCY: 544.7 cycles
cpu0_DTLB TOTAL        ACCESS:  153653156 HIT:  152975177 MISS:     677979
cpu0_DTLB LOAD         ACCESS:  153653156 HIT:  152975177 MISS:     677979
cpu0_DTLB RFO          ACCESS:          0 HIT:          0 MISS:          0
cpu0_DTLB PREFETCH     ACCESS:          0 HIT:          0 MISS:          0
cpu0_DTLB WRITE        ACCESS:          0 HIT:          0 MISS:          0
cpu0_DTLB TRANSLATION  ACCESS:          0 HIT:          0 MISS:          0
cpu0_DTLB PREFETCH REQUESTED:          0 ISSUED:          0 USEFUL:          0 USELESS:          0
cpu0_DTLB AVERAGE MISS LATENCY: 21.76 cycles
cpu0_ITLB TOTAL        ACCESS:    4835219 HIT:    4777342 MISS:      57877
cpu0_ITLB LOAD         ACCESS:    4835219 HIT:    4777342 MISS:      57877
cpu0_ITLB RFO          ACCESS:          0 HIT:          0 MISS:          0
cpu0_ITLB PREFETCH     ACCESS:          0 HIT:          0 MISS:          0
cpu0_ITLB WRITE        ACCESS:          0 HIT:          0 MISS:          0
cpu0_ITLB TRANSLATION  ACCESS:          0 HIT:          0 MISS:          0
cpu0_ITLB PREFETCH REQUESTED:          0 ISSUED:          0 USEFUL:          0 USELESS:          0
cpu0_ITLB AVERAGE MISS LATENCY: 8.238 cycles
cpu0_L1D TOTAL        ACCESS:  200269856 HIT:  198534301 MISS:    1735555
cpu0_L1D LOAD         ACCESS:  117027277 HIT:  115677903 MISS:    1349374
cpu0_L1D RFO          ACCESS:          0 HIT:          0 MISS:          0
cpu0_L1D PREFETCH     ACCESS:          0 HIT:          0 MISS:          0
cpu0_L1D WRITE        ACCESS:   83218115 HIT:   82855366 MISS:     362749
cpu0_L1D TRANSLATION  ACCESS:      24464 HIT:       1032 MISS:      23432
cpu0_L1D PREFETCH REQUESTED:          0 ISSUED:          0 USEFUL:          0 USELESS:          0
cpu0_L1D AVERAGE MISS LATENCY: 82.72 cycles
cpu0_L1I TOTAL        ACCESS:    5577506 HIT:    4816401 MISS:     761105
cpu0_L1I LOAD         ACCESS:    5577506 HIT:    4816401 MISS:     761105
cpu0_L1I RFO          ACCESS:          0 HIT:          0 MISS:          0
cpu0_L1I PREFETCH     ACCESS:          0 HIT:          0 MISS:          0
cpu0_L1I WRITE        ACCESS:          0 HIT:          0 MISS:          0
cpu0_L1I TRANSLATION  ACCESS:          0 HIT:          0 MISS:          0
cpu0_L1I PREFETCH REQUESTED:          0 ISSUED:          0 USEFUL:          0 USELESS:          0
cpu0_L1I AVERAGE MISS LATENCY: 15.48 cycles
cpu0_L2C TOTAL        ACCESS:    1667728 HIT:    1212641 MISS:     455087
cpu0_L2C LOAD         ACCESS:    1317091 HIT:     915639 MISS:     401452
cpu0_L2C RFO          ACCESS:      88615 HIT:      55843 MISS:      32772
cpu0_L2C PREFETCH     ACCESS:          0 HIT:          0 MISS:          0
cpu0_L2C WRITE        ACCESS:     238673 HIT:     236855 MISS:       1818
cpu0_L2C TRANSLATION  ACCESS:      23349 HIT:       4304 MISS:      19045
cpu0_L2C PREFETCH REQUESTED:          0 ISSUED:          0 USEFUL:          0 USELESS:          0
cpu0_L2C AVERAGE MISS LATENCY: 319.4 cycles
cpu0_STLB TOTAL        ACCESS:     505175 HIT:     482385 MISS:      22790
cpu0_STLB LOAD         ACCESS:     505175 HIT:     482385 MISS:      22790
cpu0_STLB RFO          ACCESS:          0 HIT:          0 MISS:          0
cpu0_STLB PREFETCH     ACCESS:          0 HIT:          0 MISS:          0
cpu0_STLB WRITE        ACCESS:          0 HIT:          0 MISS:          0
cpu0_STLB TRANSLATION  ACCESS:          0 HIT:          0 MISS:          0
cpu0_STLB PREFETCH REQUESTED:          0 ISSUED:          0 USEFUL:          0 USELESS:          0
cpu0_STLB AVERAGE MISS LATENCY: 534.1 cycles

DRAM Statistics

Channel 0 RQ ROW_BUFFER_HIT:      49565
  ROW_BUFFER_MISS:     302585
 AVG DBUS CONGESTED CYCLE: 3.882
WQ ROW_BUFFER_HIT: Channel 0 
  ROW_BUFFER_MISS:       7625
  FULL:      47018
