WARNING: physical memory size is smaller than virtual memory size.

*** ChampSim Multicore Out-of-Order Simulator ***
Warmup Instructions: 50000000
Simulation Instructions: 600000000
Number of CPUs: 1
Page size: 4096

CPU 0 Tage branch predictor
Off-chip DRAM Size: 4 GiB Channels: 1 Width: 64-bit Data Race: 3200 MT/s
Heartbeat CPU 0 instructions: 10000000 cycles: 2500061 heartbeat IPC: 4 cumulative IPC: 4 (Simulation time: 00 hr 00 min 21 sec)
Heartbeat CPU 0 instructions: 20000000 cycles: 5000061 heartbeat IPC: 4 cumulative IPC: 4 (Simulation time: 00 hr 00 min 48 sec)
Heartbeat CPU 0 instructions: 30000000 cycles: 7500061 heartbeat IPC: 4 cumulative IPC: 4 (Simulation time: 00 hr 01 min 20 sec)
Heartbeat CPU 0 instructions: 40000000 cycles: 10000061 heartbeat IPC: 4 cumulative IPC: 4 (Simulation time: 00 hr 01 min 55 sec)
Heartbeat CPU 0 instructions: 50000000 cycles: 12500061 heartbeat IPC: 4 cumulative IPC: 4 (Simulation time: 00 hr 02 min 32 sec)
Warmup finished CPU 0 instructions: 50000000 cycles: 12500062 cumulative IPC: 4 (Simulation time: 00 hr 02 min 32 sec)
Warmup complete CPU 0 instructions: 50000000 cycles: 12500062 cumulative IPC: 4 (Simulation time: 00 hr 02 min 32 sec)
Heartbeat CPU 0 instructions: 60000004 cycles: 15504574 heartbeat IPC: 3.328 cumulative IPC: 3.328 (Simulation time: 00 hr 03 min 19 sec)
Heartbeat CPU 0 instructions: 70000003 cycles: 18375027 heartbeat IPC: 3.484 cumulative IPC: 3.404 (Simulation time: 00 hr 04 min 04 sec)
Heartbeat CPU 0 instructions: 80000002 cycles: 21385455 heartbeat IPC: 3.322 cumulative IPC: 3.376 (Simulation time: 00 hr 04 min 49 sec)
Heartbeat CPU 0 instructions: 90000000 cycles: 24106445 heartbeat IPC: 3.675 cumulative IPC: 3.446 (Simulation time: 00 hr 05 min 33 sec)
Heartbeat CPU 0 instructions: 100000003 cycles: 26861573 heartbeat IPC: 3.63 cumulative IPC: 3.482 (Simulation time: 00 hr 06 min 19 sec)
Heartbeat CPU 0 instructions: 110000001 cycles: 29760716 heartbeat IPC: 3.449 cumulative IPC: 3.476 (Simulation time: 00 hr 07 min 03 sec)
Heartbeat CPU 0 instructions: 120000001 cycles: 32476957 heartbeat IPC: 3.682 cumulative IPC: 3.504 (Simulation time: 00 hr 07 min 47 sec)
Heartbeat CPU 0 instructions: 130000003 cycles: 35373828 heartbeat IPC: 3.452 cumulative IPC: 3.497 (Simulation time: 00 hr 08 min 31 sec)
Heartbeat CPU 0 instructions: 140000002 cycles: 38209923 heartbeat IPC: 3.526 cumulative IPC: 3.501 (Simulation time: 00 hr 09 min 15 sec)
Heartbeat CPU 0 instructions: 150000001 cycles: 40979169 heartbeat IPC: 3.611 cumulative IPC: 3.511 (Simulation time: 00 hr 09 min 59 sec)
Heartbeat CPU 0 instructions: 160000000 cycles: 43896422 heartbeat IPC: 3.428 cumulative IPC: 3.504 (Simulation time: 00 hr 10 min 46 sec)
Heartbeat CPU 0 instructions: 170000001 cycles: 46819705 heartbeat IPC: 3.421 cumulative IPC: 3.497 (Simulation time: 00 hr 11 min 34 sec)
Heartbeat CPU 0 instructions: 180000000 cycles: 49612091 heartbeat IPC: 3.581 cumulative IPC: 3.503 (Simulation time: 00 hr 12 min 26 sec)
Heartbeat CPU 0 instructions: 190000002 cycles: 52318430 heartbeat IPC: 3.695 cumulative IPC: 3.516 (Simulation time: 00 hr 13 min 15 sec)
Heartbeat CPU 0 instructions: 200000002 cycles: 55141199 heartbeat IPC: 3.543 cumulative IPC: 3.518 (Simulation time: 00 hr 14 min 05 sec)
Heartbeat CPU 0 instructions: 210000000 cycles: 58032005 heartbeat IPC: 3.459 cumulative IPC: 3.514 (Simulation time: 00 hr 15 min 03 sec)
Heartbeat CPU 0 instructions: 220000001 cycles: 60782283 heartbeat IPC: 3.636 cumulative IPC: 3.521 (Simulation time: 00 hr 16 min 09 sec)
Heartbeat CPU 0 instructions: 230000002 cycles: 63670994 heartbeat IPC: 3.462 cumulative IPC: 3.518 (Simulation time: 00 hr 17 min 15 sec)
Heartbeat CPU 0 instructions: 240000004 cycles: 66622496 heartbeat IPC: 3.388 cumulative IPC: 3.511 (Simulation time: 00 hr 18 min 19 sec)
Heartbeat CPU 0 instructions: 250000003 cycles: 69514331 heartbeat IPC: 3.458 cumulative IPC: 3.508 (Simulation time: 00 hr 19 min 23 sec)
Heartbeat CPU 0 instructions: 260000001 cycles: 72297728 heartbeat IPC: 3.593 cumulative IPC: 3.512 (Simulation time: 00 hr 20 min 28 sec)
Heartbeat CPU 0 instructions: 270000002 cycles: 78259357 heartbeat IPC: 1.677 cumulative IPC: 3.346 (Simulation time: 00 hr 22 min 07 sec)
Heartbeat CPU 0 instructions: 280000000 cycles: 89440683 heartbeat IPC: 0.8943 cumulative IPC: 2.989 (Simulation time: 00 hr 24 min 35 sec)
Heartbeat CPU 0 instructions: 290000000 cycles: 101334105 heartbeat IPC: 0.8408 cumulative IPC: 2.702 (Simulation time: 00 hr 27 min 00 sec)
Heartbeat CPU 0 instructions: 300000003 cycles: 107823221 heartbeat IPC: 1.541 cumulative IPC: 2.623 (Simulation time: 00 hr 28 min 36 sec)
Heartbeat CPU 0 instructions: 310000001 cycles: 117738861 heartbeat IPC: 1.009 cumulative IPC: 2.471 (Simulation time: 00 hr 30 min 40 sec)
Heartbeat CPU 0 instructions: 320000004 cycles: 122050487 heartbeat IPC: 2.319 cumulative IPC: 2.465 (Simulation time: 00 hr 31 min 54 sec)
Heartbeat CPU 0 instructions: 330000000 cycles: 125213217 heartbeat IPC: 3.162 cumulative IPC: 2.484 (Simulation time: 00 hr 32 min 59 sec)
Heartbeat CPU 0 instructions: 340000001 cycles: 128483902 heartbeat IPC: 3.057 cumulative IPC: 2.5 (Simulation time: 00 hr 34 min 06 sec)
Heartbeat CPU 0 instructions: 350000000 cycles: 131782235 heartbeat IPC: 3.032 cumulative IPC: 2.515 (Simulation time: 00 hr 35 min 11 sec)
Heartbeat CPU 0 instructions: 360000004 cycles: 134749935 heartbeat IPC: 3.37 cumulative IPC: 2.536 (Simulation time: 00 hr 36 min 13 sec)
Heartbeat CPU 0 instructions: 370000001 cycles: 137592253 heartbeat IPC: 3.518 cumulative IPC: 2.558 (Simulation time: 00 hr 37 min 14 sec)
Heartbeat CPU 0 instructions: 380000004 cycles: 140435113 heartbeat IPC: 3.518 cumulative IPC: 2.579 (Simulation time: 00 hr 38 min 16 sec)
Heartbeat CPU 0 instructions: 390000002 cycles: 143373673 heartbeat IPC: 3.403 cumulative IPC: 2.598 (Simulation time: 00 hr 39 min 21 sec)
Heartbeat CPU 0 instructions: 400000000 cycles: 146362266 heartbeat IPC: 3.346 cumulative IPC: 2.615 (Simulation time: 00 hr 40 min 25 sec)
Heartbeat CPU 0 instructions: 410000000 cycles: 152645553 heartbeat IPC: 1.592 cumulative IPC: 2.569 (Simulation time: 00 hr 41 min 52 sec)
Heartbeat CPU 0 instructions: 420000003 cycles: 163012175 heartbeat IPC: 0.9646 cumulative IPC: 2.458 (Simulation time: 00 hr 43 min 51 sec)
Heartbeat CPU 0 instructions: 430000000 cycles: 169451422 heartbeat IPC: 1.553 cumulative IPC: 2.421 (Simulation time: 00 hr 45 min 34 sec)
Heartbeat CPU 0 instructions: 440000004 cycles: 176291226 heartbeat IPC: 1.462 cumulative IPC: 2.381 (Simulation time: 00 hr 47 min 16 sec)
Heartbeat CPU 0 instructions: 450000001 cycles: 182993749 heartbeat IPC: 1.492 cumulative IPC: 2.346 (Simulation time: 00 hr 48 min 58 sec)
Heartbeat CPU 0 instructions: 460000002 cycles: 195102595 heartbeat IPC: 0.8258 cumulative IPC: 2.245 (Simulation time: 00 hr 51 min 24 sec)
Heartbeat CPU 0 instructions: 470000003 cycles: 203662009 heartbeat IPC: 1.168 cumulative IPC: 2.197 (Simulation time: 00 hr 53 min 17 sec)
Heartbeat CPU 0 instructions: 480000000 cycles: 207168124 heartbeat IPC: 2.852 cumulative IPC: 2.209 (Simulation time: 00 hr 54 min 28 sec)
Heartbeat CPU 0 instructions: 490000001 cycles: 210642597 heartbeat IPC: 2.878 cumulative IPC: 2.221 (Simulation time: 00 hr 55 min 38 sec)
Heartbeat CPU 0 instructions: 500000002 cycles: 213782507 heartbeat IPC: 3.185 cumulative IPC: 2.236 (Simulation time: 00 hr 56 min 46 sec)
Heartbeat CPU 0 instructions: 510000000 cycles: 216726824 heartbeat IPC: 3.396 cumulative IPC: 2.252 (Simulation time: 00 hr 57 min 52 sec)
Heartbeat CPU 0 instructions: 520000000 cycles: 219683355 heartbeat IPC: 3.382 cumulative IPC: 2.269 (Simulation time: 00 hr 58 min 59 sec)
Heartbeat CPU 0 instructions: 530000001 cycles: 229514208 heartbeat IPC: 1.017 cumulative IPC: 2.212 (Simulation time: 01 hr 01 min 22 sec)
Heartbeat CPU 0 instructions: 540000000 cycles: 240536102 heartbeat IPC: 0.9073 cumulative IPC: 2.149 (Simulation time: 01 hr 04 min 15 sec)
Heartbeat CPU 0 instructions: 550000004 cycles: 253435363 heartbeat IPC: 0.7752 cumulative IPC: 2.075 (Simulation time: 01 hr 06 min 49 sec)
Heartbeat CPU 0 instructions: 560000004 cycles: 257236837 heartbeat IPC: 2.631 cumulative IPC: 2.084 (Simulation time: 01 hr 07 min 59 sec)
Heartbeat CPU 0 instructions: 570000002 cycles: 260063401 heartbeat IPC: 3.538 cumulative IPC: 2.1 (Simulation time: 01 hr 09 min 01 sec)
Heartbeat CPU 0 instructions: 580000000 cycles: 262990770 heartbeat IPC: 3.416 cumulative IPC: 2.116 (Simulation time: 01 hr 10 min 05 sec)
Heartbeat CPU 0 instructions: 590000001 cycles: 265918636 heartbeat IPC: 3.415 cumulative IPC: 2.131 (Simulation time: 01 hr 11 min 08 sec)
Heartbeat CPU 0 instructions: 600000003 cycles: 268610912 heartbeat IPC: 3.714 cumulative IPC: 2.148 (Simulation time: 01 hr 12 min 15 sec)
Heartbeat CPU 0 instructions: 610000001 cycles: 271481047 heartbeat IPC: 3.484 cumulative IPC: 2.162 (Simulation time: 01 hr 13 min 21 sec)
Heartbeat CPU 0 instructions: 620000004 cycles: 274436571 heartbeat IPC: 3.383 cumulative IPC: 2.176 (Simulation time: 01 hr 14 min 31 sec)
Heartbeat CPU 0 instructions: 630000002 cycles: 277248056 heartbeat IPC: 3.557 cumulative IPC: 2.191 (Simulation time: 01 hr 15 min 39 sec)
Heartbeat CPU 0 instructions: 640000004 cycles: 280297812 heartbeat IPC: 3.279 cumulative IPC: 2.203 (Simulation time: 01 hr 16 min 48 sec)
Heartbeat CPU 0 instructions: 650000001 cycles: 283010160 heartbeat IPC: 3.687 cumulative IPC: 2.218 (Simulation time: 01 hr 17 min 55 sec)
Simulation finished CPU 0 instructions: 600000001 cycles: 270510099 cumulative IPC: 2.218 (Simulation time: 01 hr 17 min 55 sec)
Simulation complete CPU 0 instructions: 600000001 cycles: 270510099 cumulative IPC: 2.218 (Simulation time: 01 hr 17 min 55 sec)

ChampSim completed all CPUs

=== Simulation ===
CPU 0 runs traces/400.perlbench-50B.champsimtrace.xz
Region of Interest Statistics

CPU 0 cumulative IPC: 2.218 instructions: 600000001 cycles: 270510099
CPU 0 Branch Prediction Accuracy: 99.01% MPKI: 2.04 Average ROB Occupancy at Mispredict: 96.36
Branch type MPKI
BRANCH_DIRECT_JUMP: 0.0176
BRANCH_INDIRECT: 0.38
BRANCH_CONDITIONAL: 1.19
BRANCH_DIRECT_CALL: 0.0067
BRANCH_INDIRECT_CALL: 0.431
BRANCH_RETURN: 0.0161

LLC TOTAL        ACCESS:     842466 HIT:     409704 MISS:     432762
LLC LOAD         ACCESS:     581553 HIT:     270797 MISS:     310756
LLC RFO          ACCESS:      47492 HIT:      19387 MISS:      28105
LLC PREFETCH     ACCESS:      64347 HIT:      35373 MISS:      28974
LLC WRITE        ACCESS:     127090 HIT:      79769 MISS:      47321
LLC TRANSLATION  ACCESS:      21984 HIT:       4378 MISS:      17606
LLC PREFETCH REQUESTED:      64347 ISSUED:      64347 USEFUL:      16194 USELESS:       7965
LLC AVERAGE MISS LATENCY: 554.5 cycles
cpu0_DTLB TOTAL        ACCESS:  133178996 HIT:  131821362 MISS:    1357634
cpu0_DTLB LOAD         ACCESS:  133178996 HIT:  131821362 MISS:    1357634
cpu0_DTLB RFO          ACCESS:          0 HIT:          0 MISS:          0
cpu0_DTLB PREFETCH     ACCESS:          0 HIT:          0 MISS:          0
cpu0_DTLB WRITE        ACCESS:          0 HIT:          0 MISS:          0
cpu0_DTLB TRANSLATION  ACCESS:          0 HIT:          0 MISS:          0
cpu0_DTLB PREFETCH REQUESTED:          0 ISSUED:          0 USEFUL:          0 USELESS:          0
cpu0_DTLB AVERAGE MISS LATENCY: 14.91 cycles
cpu0_ITLB TOTAL        ACCESS:    8998108 HIT:    8788804 MISS:     209304
cpu0_ITLB LOAD         ACCESS:    8998108 HIT:    8788804 MISS:     209304
cpu0_ITLB RFO          ACCESS:          0 HIT:          0 MISS:          0
cpu0_ITLB PREFETCH     ACCESS:          0 HIT:          0 MISS:          0
cpu0_ITLB WRITE        ACCESS:          0 HIT:          0 MISS:          0
cpu0_ITLB TRANSLATION  ACCESS:          0 HIT:          0 MISS:          0
cpu0_ITLB PREFETCH REQUESTED:          0 ISSUED:          0 USEFUL:          0 USELESS:          0
cpu0_ITLB AVERAGE MISS LATENCY: 3.539 cycles
cpu0_L1D TOTAL        ACCESS:  178188543 HIT:  174382032 MISS:    3806511
cpu0_L1D LOAD         ACCESS:   92670331 HIT:   89548807 MISS:    3121524
cpu0_L1D RFO          ACCESS:          0 HIT:          0 MISS:          0
cpu0_L1D PREFETCH     ACCESS:          0 HIT:          0 MISS:          0
cpu0_L1D WRITE        ACCESS:   85489680 HIT:   84831812 MISS:     657868
cpu0_L1D TRANSLATION  ACCESS:      28532 HIT:       1413 MISS:      27119
cpu0_L1D PREFETCH REQUESTED:          0 ISSUED:          0 USEFUL:          0 USELESS:          0
cpu0_L1D AVERAGE MISS LATENCY: 58.16 cycles
cpu0_L1I TOTAL        ACCESS:   10517437 HIT:    8620411 MISS:    1897026
cpu0_L1I LOAD         ACCESS:   10517437 HIT:    8620411 MISS:    1897026
cpu0_L1I RFO          ACCESS:          0 HIT:          0 MISS:          0
cpu0_L1I PREFETCH     ACCESS:          0 HIT:          0 MISS:          0
cpu0_L1I WRITE        ACCESS:          0 HIT:          0 MISS:          0
cpu0_L1I TRANSLATION  ACCESS:          0 HIT:          0 MISS:          0
cpu0_L1I PREFETCH REQUESTED:          0 ISSUED:          0 USEFUL:          0 USELESS:          0
cpu0_L1I AVERAGE MISS LATENCY: 17.09 cycles
cpu0_L2C TOTAL        ACCESS:    3840200 HIT:    3185860 MISS:     654340
cpu0_L2C LOAD         ACCESS:    3103808 HIT:    2522255 MISS:     581553
cpu0_L2C RFO          ACCESS:     194926 HIT:     147434 MISS:      47492
cpu0_L2C PREFETCH     ACCESS:          0 HIT:          0 MISS:          0
cpu0_L2C WRITE        ACCESS:     514432 HIT:     511121 MISS:       3311
cpu0_L2C TRANSLATION  ACCESS:      27034 HIT:       5050 MISS:      21984
cpu0_L2C PREFETCH REQUESTED:          0 ISSUED:          0 USEFUL:          0 USELESS:          0
cpu0_L2C AVERAGE MISS LATENCY: 360.2 cycles
cpu0_STLB TOTAL        ACCESS:    1010328 HIT:     983638 MISS:      26690
cpu0_STLB LOAD         ACCESS:    1010328 HIT:     983638 MISS:      26690
cpu0_STLB RFO          ACCESS:          0 HIT:          0 MISS:          0
cpu0_STLB PREFETCH     ACCESS:          0 HIT:          0 MISS:          0
cpu0_STLB WRITE        ACCESS:          0 HIT:          0 MISS:          0
cpu0_STLB TRANSLATION  ACCESS:          0 HIT:          0 MISS:          0
cpu0_STLB PREFETCH REQUESTED:          0 ISSUED:          0 USEFUL:          0 USELESS:          0
cpu0_STLB AVERAGE MISS LATENCY: 570.7 cycles

DRAM Statistics

Channel 0 RQ ROW_BUFFER_HIT:      60315
  ROW_BUFFER_MISS:     317652
 AVG DBUS CONGESTED CYCLE: 3.867
WQ ROW_BUFFER_HIT: Channel 0 
  ROW_BUFFER_MISS:       8971
  FULL:      61744
