WARNING: physical memory size is smaller than virtual memory size.

*** ChampSim Multicore Out-of-Order Simulator ***
Warmup Instructions: 50000000
Simulation Instructions: 600000000
Number of CPUs: 1
Page size: 4096

CPU 0 Tage branch predictor
Off-chip DRAM Size: 4 GiB Channels: 1 Width: 64-bit Data Race: 3200 MT/s
Heartbeat CPU 0 instructions: 10000000 cycles: 2500061 heartbeat IPC: 4 cumulative IPC: 4 (Simulation time: 00 hr 00 min 55 sec)
Heartbeat CPU 0 instructions: 20000000 cycles: 5000061 heartbeat IPC: 4 cumulative IPC: 4 (Simulation time: 00 hr 01 min 48 sec)
Heartbeat CPU 0 instructions: 30000000 cycles: 7500061 heartbeat IPC: 4 cumulative IPC: 4 (Simulation time: 00 hr 02 min 39 sec)
Heartbeat CPU 0 instructions: 40000000 cycles: 10000061 heartbeat IPC: 4 cumulative IPC: 4 (Simulation time: 00 hr 03 min 30 sec)
Heartbeat CPU 0 instructions: 50000000 cycles: 12500061 heartbeat IPC: 4 cumulative IPC: 4 (Simulation time: 00 hr 04 min 19 sec)
Warmup finished CPU 0 instructions: 50000000 cycles: 12500062 cumulative IPC: 4 (Simulation time: 00 hr 04 min 19 sec)
Warmup complete CPU 0 instructions: 50000000 cycles: 12500062 cumulative IPC: 4 (Simulation time: 00 hr 04 min 19 sec)
Heartbeat CPU 0 instructions: 60000004 cycles: 15504489 heartbeat IPC: 3.328 cumulative IPC: 3.328 (Simulation time: 00 hr 05 min 12 sec)
Heartbeat CPU 0 instructions: 70000003 cycles: 18370762 heartbeat IPC: 3.489 cumulative IPC: 3.407 (Simulation time: 00 hr 06 min 03 sec)
Heartbeat CPU 0 instructions: 80000002 cycles: 21382300 heartbeat IPC: 3.321 cumulative IPC: 3.378 (Simulation time: 00 hr 06 min 52 sec)
Heartbeat CPU 0 instructions: 90000000 cycles: 24100329 heartbeat IPC: 3.679 cumulative IPC: 3.448 (Simulation time: 00 hr 07 min 36 sec)
Heartbeat CPU 0 instructions: 100000003 cycles: 26857493 heartbeat IPC: 3.627 cumulative IPC: 3.483 (Simulation time: 00 hr 08 min 16 sec)
Heartbeat CPU 0 instructions: 110000001 cycles: 29755202 heartbeat IPC: 3.451 cumulative IPC: 3.477 (Simulation time: 00 hr 08 min 48 sec)
Heartbeat CPU 0 instructions: 120000001 cycles: 32471687 heartbeat IPC: 3.681 cumulative IPC: 3.505 (Simulation time: 00 hr 09 min 20 sec)
Heartbeat CPU 0 instructions: 130000003 cycles: 35371153 heartbeat IPC: 3.449 cumulative IPC: 3.498 (Simulation time: 00 hr 09 min 47 sec)
Heartbeat CPU 0 instructions: 140000002 cycles: 38204957 heartbeat IPC: 3.529 cumulative IPC: 3.501 (Simulation time: 00 hr 10 min 14 sec)
Heartbeat CPU 0 instructions: 150000001 cycles: 40975005 heartbeat IPC: 3.61 cumulative IPC: 3.512 (Simulation time: 00 hr 10 min 36 sec)
Heartbeat CPU 0 instructions: 160000000 cycles: 43892634 heartbeat IPC: 3.427 cumulative IPC: 3.504 (Simulation time: 00 hr 10 min 57 sec)
Heartbeat CPU 0 instructions: 170000001 cycles: 46821114 heartbeat IPC: 3.415 cumulative IPC: 3.496 (Simulation time: 00 hr 11 min 19 sec)
Heartbeat CPU 0 instructions: 180000000 cycles: 49612148 heartbeat IPC: 3.583 cumulative IPC: 3.503 (Simulation time: 00 hr 11 min 39 sec)
Heartbeat CPU 0 instructions: 190000002 cycles: 52319155 heartbeat IPC: 3.694 cumulative IPC: 3.516 (Simulation time: 00 hr 12 min 02 sec)
Heartbeat CPU 0 instructions: 200000002 cycles: 55139904 heartbeat IPC: 3.545 cumulative IPC: 3.518 (Simulation time: 00 hr 12 min 24 sec)
Heartbeat CPU 0 instructions: 210000000 cycles: 58032602 heartbeat IPC: 3.457 cumulative IPC: 3.514 (Simulation time: 00 hr 12 min 48 sec)
Heartbeat CPU 0 instructions: 220000001 cycles: 60784611 heartbeat IPC: 3.634 cumulative IPC: 3.521 (Simulation time: 00 hr 13 min 10 sec)
Heartbeat CPU 0 instructions: 230000002 cycles: 63674430 heartbeat IPC: 3.46 cumulative IPC: 3.517 (Simulation time: 00 hr 13 min 31 sec)
Heartbeat CPU 0 instructions: 240000004 cycles: 66625446 heartbeat IPC: 3.389 cumulative IPC: 3.51 (Simulation time: 00 hr 13 min 53 sec)
Heartbeat CPU 0 instructions: 250000003 cycles: 69516906 heartbeat IPC: 3.458 cumulative IPC: 3.508 (Simulation time: 00 hr 14 min 15 sec)
Heartbeat CPU 0 instructions: 260000001 cycles: 72301348 heartbeat IPC: 3.591 cumulative IPC: 3.512 (Simulation time: 00 hr 14 min 37 sec)
Heartbeat CPU 0 instructions: 270000002 cycles: 78132953 heartbeat IPC: 1.715 cumulative IPC: 3.352 (Simulation time: 00 hr 15 min 09 sec)
Heartbeat CPU 0 instructions: 280000000 cycles: 87407502 heartbeat IPC: 1.078 cumulative IPC: 3.07 (Simulation time: 00 hr 15 min 48 sec)
Heartbeat CPU 0 instructions: 290000000 cycles: 95136547 heartbeat IPC: 1.294 cumulative IPC: 2.904 (Simulation time: 00 hr 16 min 23 sec)
Heartbeat CPU 0 instructions: 300000003 cycles: 100375442 heartbeat IPC: 1.909 cumulative IPC: 2.845 (Simulation time: 00 hr 16 min 54 sec)
Heartbeat CPU 0 instructions: 310000001 cycles: 108463451 heartbeat IPC: 1.236 cumulative IPC: 2.709 (Simulation time: 00 hr 17 min 30 sec)
Heartbeat CPU 0 instructions: 320000004 cycles: 112241802 heartbeat IPC: 2.647 cumulative IPC: 2.707 (Simulation time: 00 hr 17 min 56 sec)
Heartbeat CPU 0 instructions: 330000000 cycles: 115397005 heartbeat IPC: 3.169 cumulative IPC: 2.721 (Simulation time: 00 hr 18 min 19 sec)
Heartbeat CPU 0 instructions: 340000001 cycles: 118576960 heartbeat IPC: 3.145 cumulative IPC: 2.734 (Simulation time: 00 hr 18 min 41 sec)
Heartbeat CPU 0 instructions: 350000000 cycles: 121921292 heartbeat IPC: 2.99 cumulative IPC: 2.742 (Simulation time: 00 hr 19 min 04 sec)
Heartbeat CPU 0 instructions: 360000004 cycles: 125071387 heartbeat IPC: 3.175 cumulative IPC: 2.754 (Simulation time: 00 hr 19 min 27 sec)
Heartbeat CPU 0 instructions: 370000001 cycles: 128152952 heartbeat IPC: 3.245 cumulative IPC: 2.767 (Simulation time: 00 hr 19 min 50 sec)
Heartbeat CPU 0 instructions: 380000004 cycles: 131253410 heartbeat IPC: 3.225 cumulative IPC: 2.779 (Simulation time: 00 hr 20 min 13 sec)
Heartbeat CPU 0 instructions: 390000002 cycles: 134489981 heartbeat IPC: 3.09 cumulative IPC: 2.787 (Simulation time: 00 hr 20 min 36 sec)
Heartbeat CPU 0 instructions: 400000000 cycles: 137785266 heartbeat IPC: 3.035 cumulative IPC: 2.794 (Simulation time: 00 hr 20 min 59 sec)
Heartbeat CPU 0 instructions: 410000000 cycles: 144268175 heartbeat IPC: 1.543 cumulative IPC: 2.732 (Simulation time: 00 hr 21 min 29 sec)
Heartbeat CPU 0 instructions: 420000003 cycles: 153728219 heartbeat IPC: 1.057 cumulative IPC: 2.62 (Simulation time: 00 hr 22 min 07 sec)
Heartbeat CPU 0 instructions: 430000000 cycles: 159785543 heartbeat IPC: 1.651 cumulative IPC: 2.58 (Simulation time: 00 hr 22 min 38 sec)
Heartbeat CPU 0 instructions: 440000004 cycles: 165209678 heartbeat IPC: 1.844 cumulative IPC: 2.554 (Simulation time: 00 hr 23 min 07 sec)
Heartbeat CPU 0 instructions: 450000003 cycles: 170549485 heartbeat IPC: 1.873 cumulative IPC: 2.531 (Simulation time: 00 hr 23 min 37 sec)
Heartbeat CPU 0 instructions: 460000002 cycles: 179291880 heartbeat IPC: 1.144 cumulative IPC: 2.458 (Simulation time: 00 hr 24 min 12 sec)
Heartbeat CPU 0 instructions: 470000003 cycles: 186630331 heartbeat IPC: 1.363 cumulative IPC: 2.412 (Simulation time: 00 hr 24 min 44 sec)
Heartbeat CPU 0 instructions: 480000000 cycles: 190022217 heartbeat IPC: 2.948 cumulative IPC: 2.422 (Simulation time: 00 hr 25 min 06 sec)
Heartbeat CPU 0 instructions: 490000001 cycles: 193633634 heartbeat IPC: 2.769 cumulative IPC: 2.429 (Simulation time: 00 hr 25 min 28 sec)
Heartbeat CPU 0 instructions: 500000002 cycles: 197093049 heartbeat IPC: 2.891 cumulative IPC: 2.438 (Simulation time: 00 hr 25 min 50 sec)
Heartbeat CPU 0 instructions: 510000000 cycles: 200530295 heartbeat IPC: 2.909 cumulative IPC: 2.446 (Simulation time: 00 hr 26 min 12 sec)
Heartbeat CPU 0 instructions: 520000000 cycles: 203996245 heartbeat IPC: 2.885 cumulative IPC: 2.454 (Simulation time: 00 hr 26 min 34 sec)
Heartbeat CPU 0 instructions: 530000001 cycles: 213933717 heartbeat IPC: 1.006 cumulative IPC: 2.383 (Simulation time: 00 hr 27 min 11 sec)
Heartbeat CPU 0 instructions: 540000000 cycles: 223259113 heartbeat IPC: 1.072 cumulative IPC: 2.325 (Simulation time: 00 hr 27 min 48 sec)
Heartbeat CPU 0 instructions: 550000004 cycles: 233816219 heartbeat IPC: 0.9472 cumulative IPC: 2.259 (Simulation time: 00 hr 28 min 26 sec)
Heartbeat CPU 0 instructions: 560000004 cycles: 237340536 heartbeat IPC: 2.837 cumulative IPC: 2.268 (Simulation time: 00 hr 28 min 48 sec)
Heartbeat CPU 0 instructions: 570000002 cycles: 240164391 heartbeat IPC: 3.541 cumulative IPC: 2.284 (Simulation time: 00 hr 29 min 09 sec)
Heartbeat CPU 0 instructions: 580000000 cycles: 243084934 heartbeat IPC: 3.424 cumulative IPC: 2.299 (Simulation time: 00 hr 29 min 29 sec)
Heartbeat CPU 0 instructions: 590000001 cycles: 246010091 heartbeat IPC: 3.419 cumulative IPC: 2.313 (Simulation time: 00 hr 29 min 49 sec)
Heartbeat CPU 0 instructions: 600000003 cycles: 248702282 heartbeat IPC: 3.714 cumulative IPC: 2.329 (Simulation time: 00 hr 30 min 08 sec)
Heartbeat CPU 0 instructions: 610000001 cycles: 251566396 heartbeat IPC: 3.491 cumulative IPC: 2.342 (Simulation time: 00 hr 30 min 28 sec)
Heartbeat CPU 0 instructions: 620000004 cycles: 254518661 heartbeat IPC: 3.387 cumulative IPC: 2.355 (Simulation time: 00 hr 30 min 47 sec)
Heartbeat CPU 0 instructions: 630000002 cycles: 257328546 heartbeat IPC: 3.559 cumulative IPC: 2.369 (Simulation time: 00 hr 31 min 05 sec)
Heartbeat CPU 0 instructions: 640000004 cycles: 260376861 heartbeat IPC: 3.281 cumulative IPC: 2.38 (Simulation time: 00 hr 31 min 22 sec)
Heartbeat CPU 0 instructions: 650000001 cycles: 263086960 heartbeat IPC: 3.69 cumulative IPC: 2.394 (Simulation time: 00 hr 31 min 39 sec)
Simulation finished CPU 0 instructions: 600000001 cycles: 250586899 cumulative IPC: 2.394 (Simulation time: 00 hr 31 min 39 sec)
Simulation complete CPU 0 instructions: 600000001 cycles: 250586899 cumulative IPC: 2.394 (Simulation time: 00 hr 31 min 39 sec)

ChampSim completed all CPUs

=== Simulation ===
CPU 0 runs traces/400.perlbench-50B.champsimtrace.xz
Region of Interest Statistics

CPU 0 cumulative IPC: 2.394 instructions: 600000001 cycles: 250586899
CPU 0 Branch Prediction Accuracy: 99.01% MPKI: 2.04 Average ROB Occupancy at Mispredict: 95.19
Branch type MPKI
BRANCH_DIRECT_JUMP: 0.0176
BRANCH_INDIRECT: 0.38
BRANCH_CONDITIONAL: 1.19
BRANCH_DIRECT_CALL: 0.0067
BRANCH_INDIRECT_CALL: 0.431
BRANCH_RETURN: 0.0161

LLC TOTAL        ACCESS:     769643 HIT:     440881 MISS:     328762
LLC LOAD         ACCESS:     574557 HIT:     287458 MISS:     287099
LLC RFO          ACCESS:      46776 HIT:      26835 MISS:      19941
LLC PREFETCH     ACCESS:          0 HIT:          0 MISS:          0
LLC WRITE        ACCESS:     126276 HIT:     115598 MISS:      10678
LLC TRANSLATION  ACCESS:      22034 HIT:      10990 MISS:      11044
LLC PREFETCH REQUESTED:          0 ISSUED:          0 USEFUL:          0 USELESS:          0
LLC AVERAGE MISS LATENCY: 572.2 cycles
cpu0_DTLB TOTAL        ACCESS:  133229475 HIT:  131874571 MISS:    1354904
cpu0_DTLB LOAD         ACCESS:  133229475 HIT:  131874571 MISS:    1354904
cpu0_DTLB RFO          ACCESS:          0 HIT:          0 MISS:          0
cpu0_DTLB PREFETCH     ACCESS:          0 HIT:          0 MISS:          0
cpu0_DTLB WRITE        ACCESS:          0 HIT:          0 MISS:          0
cpu0_DTLB TRANSLATION  ACCESS:          0 HIT:          0 MISS:          0
cpu0_DTLB PREFETCH REQUESTED:          0 ISSUED:          0 USEFUL:          0 USELESS:          0
cpu0_DTLB AVERAGE MISS LATENCY: 11.38 cycles
cpu0_ITLB TOTAL        ACCESS:    9001616 HIT:    8792219 MISS:     209397
cpu0_ITLB LOAD         ACCESS:    9001616 HIT:    8792219 MISS:     209397
cpu0_ITLB RFO          ACCESS:          0 HIT:          0 MISS:          0
cpu0_ITLB PREFETCH     ACCESS:          0 HIT:          0 MISS:          0
cpu0_ITLB WRITE        ACCESS:          0 HIT:          0 MISS:          0
cpu0_ITLB TRANSLATION  ACCESS:          0 HIT:          0 MISS:          0
cpu0_ITLB PREFETCH REQUESTED:          0 ISSUED:          0 USEFUL:          0 USELESS:          0
cpu0_ITLB AVERAGE MISS LATENCY: 2.8 cycles
cpu0_L1D TOTAL        ACCESS:  178246084 HIT:  174442252 MISS:    3803832
cpu0_L1D LOAD         ACCESS:   92727918 HIT:   89606382 MISS:    3121536
cpu0_L1D RFO          ACCESS:          0 HIT:          0 MISS:          0
cpu0_L1D PREFETCH     ACCESS:          0 HIT:          0 MISS:          0
cpu0_L1D WRITE        ACCESS:   85489643 HIT:   84834453 MISS:     655190
cpu0_L1D TRANSLATION  ACCESS:      28523 HIT:       1417 MISS:      27106
cpu0_L1D PREFETCH REQUESTED:          0 ISSUED:          0 USEFUL:          0 USELESS:          0
cpu0_L1D AVERAGE MISS LATENCY: 51.83 cycles
cpu0_L1I TOTAL        ACCESS:   10520793 HIT:    8622406 MISS:    1898387
cpu0_L1I LOAD         ACCESS:   10520793 HIT:    8622406 MISS:    1898387
cpu0_L1I RFO          ACCESS:          0 HIT:          0 MISS:          0
cpu0_L1I PREFETCH     ACCESS:          0 HIT:          0 MISS:          0
cpu0_L1I WRITE        ACCESS:          0 HIT:          0 MISS:          0
cpu0_L1I TRANSLATION  ACCESS:          0 HIT:          0 MISS:          0
cpu0_L1I PREFETCH REQUESTED:          0 ISSUED:          0 USEFUL:          0 USELESS:          0
cpu0_L1I AVERAGE MISS LATENCY: 10.88 cycles
cpu0_L2C TOTAL        ACCESS:    3840280 HIT:    3193748 MISS:     646532
cpu0_L2C LOAD         ACCESS:    3103712 HIT:    2529155 MISS:     574557
cpu0_L2C RFO          ACCESS:     194880 HIT:     148104 MISS:      46776
cpu0_L2C PREFETCH     ACCESS:          0 HIT:          0 MISS:          0
cpu0_L2C WRITE        ACCESS:     514653 HIT:     511488 MISS:       3165
cpu0_L2C TRANSLATION  ACCESS:      27035 HIT:       5001 MISS:      22034
cpu0_L2C PREFETCH REQUESTED:          0 ISSUED:          0 USEFUL:          0 USELESS:          0
cpu0_L2C AVERAGE MISS LATENCY: 311.4 cycles
cpu0_STLB TOTAL        ACCESS:    1009960 HIT:     983269 MISS:      26691
cpu0_STLB LOAD         ACCESS:    1009960 HIT:     983269 MISS:      26691
cpu0_STLB RFO          ACCESS:          0 HIT:          0 MISS:          0
cpu0_STLB PREFETCH     ACCESS:          0 HIT:          0 MISS:          0
cpu0_STLB WRITE        ACCESS:          0 HIT:          0 MISS:          0
cpu0_STLB TRANSLATION  ACCESS:          0 HIT:          0 MISS:          0
cpu0_STLB PREFETCH REQUESTED:          0 ISSUED:          0 USEFUL:          0 USELESS:          0
cpu0_STLB AVERAGE MISS LATENCY: 374.4 cycles

DRAM Statistics

Channel 0 RQ ROW_BUFFER_HIT:      67186
  ROW_BUFFER_MISS:     250826
 AVG DBUS CONGESTED CYCLE: 3.822
WQ ROW_BUFFER_HIT: Channel 0 
  ROW_BUFFER_MISS:       7333
  FULL:      36554
