WARNING: physical memory size is smaller than virtual memory size.

*** ChampSim Multicore Out-of-Order Simulator ***
Warmup Instructions: 50000000
Simulation Instructions: 600000000
Number of CPUs: 1
Page size: 4096

CPU 0 Tage branch predictor
Off-chip DRAM Size: 4 GiB Channels: 1 Width: 64-bit Data Race: 3200 MT/s
Heartbeat CPU 0 instructions: 10000001 cycles: 2500318 heartbeat IPC: 3.999 cumulative IPC: 3.999 (Simulation time: 00 hr 01 min 51 sec)
Heartbeat CPU 0 instructions: 20000002 cycles: 5037108 heartbeat IPC: 3.942 cumulative IPC: 3.971 (Simulation time: 00 hr 03 min 33 sec)
Heartbeat CPU 0 instructions: 30000002 cycles: 7537108 heartbeat IPC: 4 cumulative IPC: 3.98 (Simulation time: 00 hr 05 min 16 sec)
Heartbeat CPU 0 instructions: 40000002 cycles: 10037108 heartbeat IPC: 4 cumulative IPC: 3.985 (Simulation time: 00 hr 06 min 59 sec)
Heartbeat CPU 0 instructions: 50000002 cycles: 12537108 heartbeat IPC: 4 cumulative IPC: 3.988 (Simulation time: 00 hr 09 min 00 sec)
Warmup finished CPU 0 instructions: 50000002 cycles: 12537109 cumulative IPC: 3.988 (Simulation time: 00 hr 09 min 00 sec)
Warmup complete CPU 0 instructions: 50000002 cycles: 12537109 cumulative IPC: 3.988 (Simulation time: 00 hr 09 min 00 sec)
Heartbeat CPU 0 instructions: 60000001 cycles: 15515834 heartbeat IPC: 3.357 cumulative IPC: 3.357 (Simulation time: 00 hr 10 min 13 sec)
Heartbeat CPU 0 instructions: 70000004 cycles: 18597090 heartbeat IPC: 3.245 cumulative IPC: 3.3 (Simulation time: 00 hr 10 min 57 sec)
Heartbeat CPU 0 instructions: 80000001 cycles: 21647823 heartbeat IPC: 3.278 cumulative IPC: 3.293 (Simulation time: 00 hr 11 min 48 sec)
Heartbeat CPU 0 instructions: 90000001 cycles: 24598527 heartbeat IPC: 3.389 cumulative IPC: 3.316 (Simulation time: 00 hr 12 min 36 sec)
Heartbeat CPU 0 instructions: 100000000 cycles: 27517860 heartbeat IPC: 3.425 cumulative IPC: 3.338 (Simulation time: 00 hr 13 min 24 sec)
Heartbeat CPU 0 instructions: 110000000 cycles: 30469797 heartbeat IPC: 3.388 cumulative IPC: 3.346 (Simulation time: 00 hr 14 min 11 sec)
Heartbeat CPU 0 instructions: 120000001 cycles: 33444969 heartbeat IPC: 3.361 cumulative IPC: 3.348 (Simulation time: 00 hr 15 min 00 sec)
Heartbeat CPU 0 instructions: 130000001 cycles: 36305006 heartbeat IPC: 3.496 cumulative IPC: 3.366 (Simulation time: 00 hr 15 min 48 sec)
Heartbeat CPU 0 instructions: 140000001 cycles: 39354033 heartbeat IPC: 3.28 cumulative IPC: 3.356 (Simulation time: 00 hr 16 min 36 sec)
Heartbeat CPU 0 instructions: 150000001 cycles: 42370540 heartbeat IPC: 3.315 cumulative IPC: 3.352 (Simulation time: 00 hr 17 min 24 sec)
Heartbeat CPU 0 instructions: 160000004 cycles: 45387542 heartbeat IPC: 3.315 cumulative IPC: 3.349 (Simulation time: 00 hr 18 min 12 sec)
Heartbeat CPU 0 instructions: 170000000 cycles: 53504283 heartbeat IPC: 1.232 cumulative IPC: 2.929 (Simulation time: 00 hr 19 min 31 sec)
Heartbeat CPU 0 instructions: 180000004 cycles: 62078236 heartbeat IPC: 1.166 cumulative IPC: 2.624 (Simulation time: 00 hr 20 min 54 sec)
Heartbeat CPU 0 instructions: 190000001 cycles: 70388457 heartbeat IPC: 1.203 cumulative IPC: 2.42 (Simulation time: 00 hr 22 min 16 sec)
Heartbeat CPU 0 instructions: 200000004 cycles: 73354460 heartbeat IPC: 3.372 cumulative IPC: 2.466 (Simulation time: 00 hr 23 min 04 sec)
Heartbeat CPU 0 instructions: 210000001 cycles: 76317409 heartbeat IPC: 3.375 cumulative IPC: 2.509 (Simulation time: 00 hr 23 min 51 sec)
Heartbeat CPU 0 instructions: 220000000 cycles: 79210772 heartbeat IPC: 3.456 cumulative IPC: 2.55 (Simulation time: 00 hr 24 min 37 sec)
Heartbeat CPU 0 instructions: 230000002 cycles: 82241146 heartbeat IPC: 3.3 cumulative IPC: 2.582 (Simulation time: 00 hr 25 min 25 sec)
Heartbeat CPU 0 instructions: 240000003 cycles: 85282358 heartbeat IPC: 3.288 cumulative IPC: 2.612 (Simulation time: 00 hr 26 min 14 sec)
Heartbeat CPU 0 instructions: 250000000 cycles: 88306730 heartbeat IPC: 3.306 cumulative IPC: 2.64 (Simulation time: 00 hr 27 min 02 sec)
Heartbeat CPU 0 instructions: 260000002 cycles: 91282565 heartbeat IPC: 3.36 cumulative IPC: 2.667 (Simulation time: 00 hr 27 min 49 sec)
Heartbeat CPU 0 instructions: 270000002 cycles: 94198394 heartbeat IPC: 3.43 cumulative IPC: 2.694 (Simulation time: 00 hr 28 min 36 sec)
Heartbeat CPU 0 instructions: 280000002 cycles: 97090628 heartbeat IPC: 3.458 cumulative IPC: 2.72 (Simulation time: 00 hr 29 min 24 sec)
Heartbeat CPU 0 instructions: 290000002 cycles: 100051141 heartbeat IPC: 3.378 cumulative IPC: 2.742 (Simulation time: 00 hr 30 min 12 sec)
Heartbeat CPU 0 instructions: 300000003 cycles: 102956617 heartbeat IPC: 3.442 cumulative IPC: 2.765 (Simulation time: 00 hr 31 min 00 sec)
Heartbeat CPU 0 instructions: 310000001 cycles: 105996717 heartbeat IPC: 3.289 cumulative IPC: 2.782 (Simulation time: 00 hr 31 min 47 sec)
Heartbeat CPU 0 instructions: 320000003 cycles: 109011153 heartbeat IPC: 3.317 cumulative IPC: 2.799 (Simulation time: 00 hr 32 min 34 sec)
Heartbeat CPU 0 instructions: 330000003 cycles: 112003716 heartbeat IPC: 3.342 cumulative IPC: 2.815 (Simulation time: 00 hr 33 min 22 sec)
Heartbeat CPU 0 instructions: 340000000 cycles: 120320087 heartbeat IPC: 1.202 cumulative IPC: 2.691 (Simulation time: 00 hr 34 min 43 sec)
Heartbeat CPU 0 instructions: 350000000 cycles: 129143418 heartbeat IPC: 1.133 cumulative IPC: 2.573 (Simulation time: 00 hr 36 min 09 sec)
Heartbeat CPU 0 instructions: 360000004 cycles: 137511026 heartbeat IPC: 1.195 cumulative IPC: 2.481 (Simulation time: 00 hr 37 min 31 sec)
Heartbeat CPU 0 instructions: 370000000 cycles: 140482014 heartbeat IPC: 3.366 cumulative IPC: 2.501 (Simulation time: 00 hr 38 min 17 sec)
Heartbeat CPU 0 instructions: 380000003 cycles: 143401894 heartbeat IPC: 3.425 cumulative IPC: 2.522 (Simulation time: 00 hr 39 min 05 sec)
Heartbeat CPU 0 instructions: 390000002 cycles: 146382982 heartbeat IPC: 3.354 cumulative IPC: 2.54 (Simulation time: 00 hr 39 min 53 sec)
Heartbeat CPU 0 instructions: 400000004 cycles: 149288272 heartbeat IPC: 3.442 cumulative IPC: 2.559 (Simulation time: 00 hr 40 min 39 sec)
Heartbeat CPU 0 instructions: 410000002 cycles: 152230067 heartbeat IPC: 3.399 cumulative IPC: 2.577 (Simulation time: 00 hr 41 min 27 sec)
Heartbeat CPU 0 instructions: 420000003 cycles: 155359939 heartbeat IPC: 3.195 cumulative IPC: 2.591 (Simulation time: 00 hr 42 min 22 sec)
Heartbeat CPU 0 instructions: 430000001 cycles: 158371699 heartbeat IPC: 3.32 cumulative IPC: 2.606 (Simulation time: 00 hr 43 min 35 sec)
Heartbeat CPU 0 instructions: 440000004 cycles: 161513126 heartbeat IPC: 3.183 cumulative IPC: 2.618 (Simulation time: 00 hr 44 min 54 sec)
Heartbeat CPU 0 instructions: 450000002 cycles: 164440989 heartbeat IPC: 3.415 cumulative IPC: 2.633 (Simulation time: 00 hr 46 min 32 sec)
Heartbeat CPU 0 instructions: 460000000 cycles: 167375879 heartbeat IPC: 3.407 cumulative IPC: 2.648 (Simulation time: 00 hr 49 min 10 sec)
Heartbeat CPU 0 instructions: 470000001 cycles: 170231530 heartbeat IPC: 3.502 cumulative IPC: 2.663 (Simulation time: 00 hr 50 min 25 sec)
Heartbeat CPU 0 instructions: 480000003 cycles: 173293788 heartbeat IPC: 3.266 cumulative IPC: 2.675 (Simulation time: 00 hr 51 min 41 sec)
Heartbeat CPU 0 instructions: 490000004 cycles: 176125729 heartbeat IPC: 3.531 cumulative IPC: 2.69 (Simulation time: 00 hr 53 min 02 sec)
Heartbeat CPU 0 instructions: 500000004 cycles: 179111429 heartbeat IPC: 3.349 cumulative IPC: 2.701 (Simulation time: 00 hr 54 min 43 sec)
Heartbeat CPU 0 instructions: 510000003 cycles: 182139965 heartbeat IPC: 3.302 cumulative IPC: 2.712 (Simulation time: 00 hr 56 min 46 sec)
Heartbeat CPU 0 instructions: 520000001 cycles: 185028385 heartbeat IPC: 3.462 cumulative IPC: 2.725 (Simulation time: 00 hr 58 min 40 sec)
Heartbeat CPU 0 instructions: 530000001 cycles: 188036006 heartbeat IPC: 3.325 cumulative IPC: 2.735 (Simulation time: 01 hr 00 min 39 sec)
Heartbeat CPU 0 instructions: 540000000 cycles: 190996927 heartbeat IPC: 3.377 cumulative IPC: 2.746 (Simulation time: 01 hr 02 min 28 sec)
Heartbeat CPU 0 instructions: 550000001 cycles: 193979634 heartbeat IPC: 3.353 cumulative IPC: 2.756 (Simulation time: 01 hr 04 min 20 sec)
Heartbeat CPU 0 instructions: 560000000 cycles: 197061635 heartbeat IPC: 3.245 cumulative IPC: 2.764 (Simulation time: 01 hr 05 min 56 sec)
Heartbeat CPU 0 instructions: 570000004 cycles: 202518850 heartbeat IPC: 1.832 cumulative IPC: 2.737 (Simulation time: 01 hr 07 min 42 sec)
Heartbeat CPU 0 instructions: 580000003 cycles: 211868196 heartbeat IPC: 1.07 cumulative IPC: 2.659 (Simulation time: 01 hr 09 min 50 sec)
Heartbeat CPU 0 instructions: 590000002 cycles: 222623051 heartbeat IPC: 0.9298 cumulative IPC: 2.57 (Simulation time: 01 hr 12 min 05 sec)
Heartbeat CPU 0 instructions: 600000004 cycles: 225690756 heartbeat IPC: 3.26 cumulative IPC: 2.58 (Simulation time: 01 hr 13 min 17 sec)
Heartbeat CPU 0 instructions: 610000002 cycles: 228659358 heartbeat IPC: 3.369 cumulative IPC: 2.591 (Simulation time: 01 hr 14 min 32 sec)
Heartbeat CPU 0 instructions: 620000001 cycles: 231432841 heartbeat IPC: 3.606 cumulative IPC: 2.604 (Simulation time: 01 hr 15 min 38 sec)
Heartbeat CPU 0 instructions: 630000002 cycles: 234407568 heartbeat IPC: 3.362 cumulative IPC: 2.614 (Simulation time: 01 hr 16 min 45 sec)
Heartbeat CPU 0 instructions: 640000004 cycles: 237359116 heartbeat IPC: 3.388 cumulative IPC: 2.624 (Simulation time: 01 hr 17 min 57 sec)
Heartbeat CPU 0 instructions: 650000000 cycles: 240110115 heartbeat IPC: 3.635 cumulative IPC: 2.637 (Simulation time: 01 hr 19 min 07 sec)
Simulation finished CPU 0 instructions: 600000001 cycles: 227573008 cumulative IPC: 2.637 (Simulation time: 01 hr 19 min 07 sec)
Simulation complete CPU 0 instructions: 600000001 cycles: 227573008 cumulative IPC: 2.637 (Simulation time: 01 hr 19 min 07 sec)

ChampSim completed all CPUs

=== Simulation ===
CPU 0 runs traces/400.perlbench-41B.champsimtrace.xz
Region of Interest Statistics

CPU 0 cumulative IPC: 2.637 instructions: 600000001 cycles: 227573008
CPU 0 Branch Prediction Accuracy: 99.19% MPKI: 1.684 Average ROB Occupancy at Mispredict: 102.6
Branch type MPKI
BRANCH_DIRECT_JUMP: 0.0123
BRANCH_INDIRECT: 0.323
BRANCH_CONDITIONAL: 1.14
BRANCH_DIRECT_CALL: 0.0043
BRANCH_INDIRECT_CALL: 0.2
BRANCH_RETURN: 0.00828

LLC TOTAL        ACCESS:     593319 HIT:     304043 MISS:     289276
LLC LOAD         ACCESS:     403683 HIT:     170812 MISS:     232871
LLC RFO          ACCESS:      32518 HIT:      15735 MISS:      16783
LLC PREFETCH     ACCESS:      52983 HIT:      24272 MISS:      28711
LLC WRITE        ACCESS:      85038 HIT:      84491 MISS:        547
LLC TRANSLATION  ACCESS:      19097 HIT:       8733 MISS:      10364
LLC PREFETCH REQUESTED:      52983 ISSUED:      52983 USEFUL:      18026 USELESS:       7065
LLC AVERAGE MISS LATENCY: 650.6 cycles
cpu0_DTLB TOTAL        ACCESS:  129772226 HIT:  129067537 MISS:     704689
cpu0_DTLB LOAD         ACCESS:  129772226 HIT:  129067537 MISS:     704689
cpu0_DTLB RFO          ACCESS:          0 HIT:          0 MISS:          0
cpu0_DTLB PREFETCH     ACCESS:          0 HIT:          0 MISS:          0
cpu0_DTLB WRITE        ACCESS:          0 HIT:          0 MISS:          0
cpu0_DTLB TRANSLATION  ACCESS:          0 HIT:          0 MISS:          0
cpu0_DTLB PREFETCH REQUESTED:          0 ISSUED:          0 USEFUL:          0 USELESS:          0
cpu0_DTLB AVERAGE MISS LATENCY: 16.01 cycles
cpu0_ITLB TOTAL        ACCESS:    4878890 HIT:    4816797 MISS:      62093
cpu0_ITLB LOAD         ACCESS:    4878890 HIT:    4816797 MISS:      62093
cpu0_ITLB RFO          ACCESS:          0 HIT:          0 MISS:          0
cpu0_ITLB PREFETCH     ACCESS:          0 HIT:          0 MISS:          0
cpu0_ITLB WRITE        ACCESS:          0 HIT:          0 MISS:          0
cpu0_ITLB TRANSLATION  ACCESS:          0 HIT:          0 MISS:          0
cpu0_ITLB PREFETCH REQUESTED:          0 ISSUED:          0 USEFUL:          0 USELESS:          0
cpu0_ITLB AVERAGE MISS LATENCY: 7.045 cycles
cpu0_L1D TOTAL        ACCESS:  174350997 HIT:  172550532 MISS:    1800465
cpu0_L1D LOAD         ACCESS:   91328712 HIT:   89926708 MISS:    1402004
cpu0_L1D RFO          ACCESS:          0 HIT:          0 MISS:          0
cpu0_L1D PREFETCH     ACCESS:          0 HIT:          0 MISS:          0
cpu0_L1D WRITE        ACCESS:   82997826 HIT:   82622762 MISS:     375064
cpu0_L1D TRANSLATION  ACCESS:      24459 HIT:       1062 MISS:      23397
cpu0_L1D PREFETCH REQUESTED:          0 ISSUED:          0 USEFUL:          0 USELESS:          0
cpu0_L1D AVERAGE MISS LATENCY: 93.65 cycles
cpu0_L1I TOTAL        ACCESS:    5657734 HIT:    4852592 MISS:     805142
cpu0_L1I LOAD         ACCESS:    5657734 HIT:    4852592 MISS:     805142
cpu0_L1I RFO          ACCESS:          0 HIT:          0 MISS:          0
cpu0_L1I PREFETCH     ACCESS:          0 HIT:          0 MISS:          0
cpu0_L1I WRITE        ACCESS:          0 HIT:          0 MISS:          0
cpu0_L1I TRANSLATION  ACCESS:          0 HIT:          0 MISS:          0
cpu0_L1I PREFETCH REQUESTED:          0 ISSUED:          0 USEFUL:          0 USELESS:          0
cpu0_L1I AVERAGE MISS LATENCY: 14.05 cycles
cpu0_L2C TOTAL        ACCESS:    1667857 HIT:    1210736 MISS:     457121
cpu0_L2C LOAD         ACCESS:    1315233 HIT:     911549 MISS:     403684
cpu0_L2C RFO          ACCESS:      89623 HIT:      57104 MISS:      32519
cpu0_L2C PREFETCH     ACCESS:          0 HIT:          0 MISS:          0
cpu0_L2C WRITE        ACCESS:     239681 HIT:     237860 MISS:       1821
cpu0_L2C TRANSLATION  ACCESS:      23320 HIT:       4223 MISS:      19097
cpu0_L2C PREFETCH REQUESTED:          0 ISSUED:          0 USEFUL:          0 USELESS:          0
cpu0_L2C AVERAGE MISS LATENCY: 389.7 cycles
cpu0_STLB TOTAL        ACCESS:     509164 HIT:     486378 MISS:      22786
cpu0_STLB LOAD         ACCESS:     509164 HIT:     486378 MISS:      22786
cpu0_STLB RFO          ACCESS:          0 HIT:          0 MISS:          0
cpu0_STLB PREFETCH     ACCESS:          0 HIT:          0 MISS:          0
cpu0_STLB WRITE        ACCESS:          0 HIT:          0 MISS:          0
cpu0_STLB TRANSLATION  ACCESS:          0 HIT:          0 MISS:          0
cpu0_STLB PREFETCH REQUESTED:          0 ISSUED:          0 USEFUL:          0 USELESS:          0
cpu0_STLB AVERAGE MISS LATENCY: 392.4 cycles

DRAM Statistics

Channel 0 RQ ROW_BUFFER_HIT:      54422
  ROW_BUFFER_MISS:     228214
 AVG DBUS CONGESTED CYCLE: 3.859
WQ ROW_BUFFER_HIT: Channel 0 
  ROW_BUFFER_MISS:       5001
  FULL:      39635
