WARNING: physical memory size is smaller than virtual memory size.

*** ChampSim Multicore Out-of-Order Simulator ***
Warmup Instructions: 50000000
Simulation Instructions: 600000000
Number of CPUs: 1
Page size: 4096

CPU 0 Tage branch predictor
Off-chip DRAM Size: 4 GiB Channels: 1 Width: 64-bit Data Race: 3200 MT/s
Heartbeat CPU 0 instructions: 10000001 cycles: 2500318 heartbeat IPC: 3.999 cumulative IPC: 3.999 (Simulation time: 00 hr 00 min 43 sec)
Heartbeat CPU 0 instructions: 20000002 cycles: 5037126 heartbeat IPC: 3.942 cumulative IPC: 3.971 (Simulation time: 00 hr 01 min 29 sec)
Heartbeat CPU 0 instructions: 30000002 cycles: 7537126 heartbeat IPC: 4 cumulative IPC: 3.98 (Simulation time: 00 hr 02 min 09 sec)
Heartbeat CPU 0 instructions: 40000002 cycles: 10037126 heartbeat IPC: 4 cumulative IPC: 3.985 (Simulation time: 00 hr 02 min 51 sec)
Heartbeat CPU 0 instructions: 50000002 cycles: 12537126 heartbeat IPC: 4 cumulative IPC: 3.988 (Simulation time: 00 hr 03 min 33 sec)
Warmup finished CPU 0 instructions: 50000002 cycles: 12537127 cumulative IPC: 3.988 (Simulation time: 00 hr 03 min 33 sec)
Warmup complete CPU 0 instructions: 50000002 cycles: 12537127 cumulative IPC: 3.988 (Simulation time: 00 hr 03 min 33 sec)
Heartbeat CPU 0 instructions: 60000001 cycles: 15514414 heartbeat IPC: 3.359 cumulative IPC: 3.359 (Simulation time: 00 hr 04 min 21 sec)
Heartbeat CPU 0 instructions: 70000004 cycles: 18586620 heartbeat IPC: 3.255 cumulative IPC: 3.306 (Simulation time: 00 hr 05 min 11 sec)
Heartbeat CPU 0 instructions: 80000001 cycles: 21638399 heartbeat IPC: 3.277 cumulative IPC: 3.296 (Simulation time: 00 hr 06 min 01 sec)
Heartbeat CPU 0 instructions: 90000001 cycles: 24583704 heartbeat IPC: 3.395 cumulative IPC: 3.32 (Simulation time: 00 hr 06 min 50 sec)
Heartbeat CPU 0 instructions: 100000000 cycles: 27496901 heartbeat IPC: 3.433 cumulative IPC: 3.342 (Simulation time: 00 hr 07 min 37 sec)
Heartbeat CPU 0 instructions: 110000000 cycles: 30441502 heartbeat IPC: 3.396 cumulative IPC: 3.351 (Simulation time: 00 hr 08 min 22 sec)
Heartbeat CPU 0 instructions: 120000001 cycles: 33413473 heartbeat IPC: 3.365 cumulative IPC: 3.353 (Simulation time: 00 hr 09 min 11 sec)
Heartbeat CPU 0 instructions: 130000001 cycles: 36272091 heartbeat IPC: 3.498 cumulative IPC: 3.371 (Simulation time: 00 hr 10 min 00 sec)
Heartbeat CPU 0 instructions: 140000001 cycles: 39317768 heartbeat IPC: 3.283 cumulative IPC: 3.361 (Simulation time: 00 hr 10 min 51 sec)
Heartbeat CPU 0 instructions: 150000001 cycles: 42331045 heartbeat IPC: 3.319 cumulative IPC: 3.356 (Simulation time: 00 hr 11 min 39 sec)
Heartbeat CPU 0 instructions: 160000004 cycles: 45339888 heartbeat IPC: 3.324 cumulative IPC: 3.353 (Simulation time: 00 hr 12 min 27 sec)
Heartbeat CPU 0 instructions: 170000004 cycles: 53402210 heartbeat IPC: 1.24 cumulative IPC: 2.936 (Simulation time: 00 hr 13 min 46 sec)
Heartbeat CPU 0 instructions: 180000004 cycles: 62189937 heartbeat IPC: 1.138 cumulative IPC: 2.618 (Simulation time: 00 hr 15 min 11 sec)
Heartbeat CPU 0 instructions: 190000001 cycles: 70284740 heartbeat IPC: 1.235 cumulative IPC: 2.424 (Simulation time: 00 hr 16 min 32 sec)
Heartbeat CPU 0 instructions: 200000004 cycles: 73238438 heartbeat IPC: 3.386 cumulative IPC: 2.471 (Simulation time: 00 hr 17 min 18 sec)
Heartbeat CPU 0 instructions: 210000001 cycles: 76191207 heartbeat IPC: 3.387 cumulative IPC: 2.514 (Simulation time: 00 hr 18 min 04 sec)
Heartbeat CPU 0 instructions: 220000000 cycles: 79081015 heartbeat IPC: 3.46 cumulative IPC: 2.555 (Simulation time: 00 hr 18 min 50 sec)
Heartbeat CPU 0 instructions: 230000002 cycles: 82095963 heartbeat IPC: 3.317 cumulative IPC: 2.588 (Simulation time: 00 hr 19 min 37 sec)
Heartbeat CPU 0 instructions: 240000003 cycles: 85128902 heartbeat IPC: 3.297 cumulative IPC: 2.617 (Simulation time: 00 hr 20 min 24 sec)
Heartbeat CPU 0 instructions: 250000000 cycles: 88158585 heartbeat IPC: 3.301 cumulative IPC: 2.645 (Simulation time: 00 hr 21 min 11 sec)
Heartbeat CPU 0 instructions: 260000002 cycles: 91128237 heartbeat IPC: 3.367 cumulative IPC: 2.672 (Simulation time: 00 hr 21 min 59 sec)
Heartbeat CPU 0 instructions: 270000002 cycles: 94040220 heartbeat IPC: 3.434 cumulative IPC: 2.699 (Simulation time: 00 hr 22 min 46 sec)
Heartbeat CPU 0 instructions: 280000002 cycles: 96932151 heartbeat IPC: 3.458 cumulative IPC: 2.725 (Simulation time: 00 hr 23 min 36 sec)
Heartbeat CPU 0 instructions: 290000002 cycles: 99894888 heartbeat IPC: 3.375 cumulative IPC: 2.747 (Simulation time: 00 hr 24 min 24 sec)
Heartbeat CPU 0 instructions: 300000003 cycles: 102796018 heartbeat IPC: 3.447 cumulative IPC: 2.77 (Simulation time: 00 hr 25 min 13 sec)
Heartbeat CPU 0 instructions: 310000001 cycles: 105833266 heartbeat IPC: 3.292 cumulative IPC: 2.787 (Simulation time: 00 hr 26 min 01 sec)
Heartbeat CPU 0 instructions: 320000003 cycles: 108842454 heartbeat IPC: 3.323 cumulative IPC: 2.804 (Simulation time: 00 hr 26 min 49 sec)
Heartbeat CPU 0 instructions: 330000003 cycles: 111833859 heartbeat IPC: 3.343 cumulative IPC: 2.82 (Simulation time: 00 hr 27 min 37 sec)
Heartbeat CPU 0 instructions: 340000000 cycles: 119910732 heartbeat IPC: 1.238 cumulative IPC: 2.701 (Simulation time: 00 hr 29 min 00 sec)
Heartbeat CPU 0 instructions: 350000000 cycles: 128832735 heartbeat IPC: 1.121 cumulative IPC: 2.58 (Simulation time: 00 hr 30 min 29 sec)
Heartbeat CPU 0 instructions: 360000004 cycles: 137006406 heartbeat IPC: 1.223 cumulative IPC: 2.491 (Simulation time: 00 hr 31 min 49 sec)
Heartbeat CPU 0 instructions: 370000000 cycles: 139974445 heartbeat IPC: 3.369 cumulative IPC: 2.511 (Simulation time: 00 hr 32 min 34 sec)
Heartbeat CPU 0 instructions: 380000003 cycles: 142892649 heartbeat IPC: 3.427 cumulative IPC: 2.532 (Simulation time: 00 hr 33 min 19 sec)
Heartbeat CPU 0 instructions: 390000002 cycles: 145868568 heartbeat IPC: 3.36 cumulative IPC: 2.55 (Simulation time: 00 hr 34 min 05 sec)
Heartbeat CPU 0 instructions: 400000004 cycles: 148772554 heartbeat IPC: 3.444 cumulative IPC: 2.569 (Simulation time: 00 hr 34 min 50 sec)
Heartbeat CPU 0 instructions: 410000002 cycles: 151711637 heartbeat IPC: 3.402 cumulative IPC: 2.587 (Simulation time: 00 hr 35 min 36 sec)
Heartbeat CPU 0 instructions: 420000003 cycles: 154807151 heartbeat IPC: 3.23 cumulative IPC: 2.601 (Simulation time: 00 hr 36 min 22 sec)
Heartbeat CPU 0 instructions: 430000001 cycles: 157818734 heartbeat IPC: 3.321 cumulative IPC: 2.616 (Simulation time: 00 hr 37 min 08 sec)
Heartbeat CPU 0 instructions: 440000004 cycles: 160958507 heartbeat IPC: 3.185 cumulative IPC: 2.628 (Simulation time: 00 hr 37 min 54 sec)
Heartbeat CPU 0 instructions: 450000002 cycles: 163883720 heartbeat IPC: 3.419 cumulative IPC: 2.643 (Simulation time: 00 hr 38 min 42 sec)
Heartbeat CPU 0 instructions: 460000000 cycles: 166819056 heartbeat IPC: 3.407 cumulative IPC: 2.657 (Simulation time: 00 hr 39 min 30 sec)
Heartbeat CPU 0 instructions: 470000001 cycles: 169676065 heartbeat IPC: 3.5 cumulative IPC: 2.673 (Simulation time: 00 hr 40 min 18 sec)
Heartbeat CPU 0 instructions: 480000003 cycles: 172725956 heartbeat IPC: 3.279 cumulative IPC: 2.684 (Simulation time: 00 hr 41 min 06 sec)
Heartbeat CPU 0 instructions: 490000004 cycles: 175556382 heartbeat IPC: 3.533 cumulative IPC: 2.699 (Simulation time: 00 hr 41 min 52 sec)
Heartbeat CPU 0 instructions: 500000004 cycles: 178543962 heartbeat IPC: 3.347 cumulative IPC: 2.711 (Simulation time: 00 hr 42 min 40 sec)
Heartbeat CPU 0 instructions: 510000003 cycles: 181563474 heartbeat IPC: 3.312 cumulative IPC: 2.721 (Simulation time: 00 hr 43 min 29 sec)
Heartbeat CPU 0 instructions: 520000001 cycles: 184452855 heartbeat IPC: 3.461 cumulative IPC: 2.734 (Simulation time: 00 hr 44 min 15 sec)
Heartbeat CPU 0 instructions: 530000001 cycles: 187455263 heartbeat IPC: 3.331 cumulative IPC: 2.744 (Simulation time: 00 hr 45 min 01 sec)
Heartbeat CPU 0 instructions: 540000000 cycles: 190415646 heartbeat IPC: 3.378 cumulative IPC: 2.755 (Simulation time: 00 hr 45 min 47 sec)
Heartbeat CPU 0 instructions: 550000001 cycles: 193403098 heartbeat IPC: 3.347 cumulative IPC: 2.764 (Simulation time: 00 hr 46 min 33 sec)
Heartbeat CPU 0 instructions: 560000000 cycles: 196487370 heartbeat IPC: 3.242 cumulative IPC: 2.772 (Simulation time: 00 hr 47 min 19 sec)
Heartbeat CPU 0 instructions: 570000004 cycles: 201811235 heartbeat IPC: 1.878 cumulative IPC: 2.747 (Simulation time: 00 hr 48 min 19 sec)
Heartbeat CPU 0 instructions: 580000003 cycles: 210930350 heartbeat IPC: 1.097 cumulative IPC: 2.671 (Simulation time: 00 hr 49 min 41 sec)
Heartbeat CPU 0 instructions: 590000002 cycles: 221521128 heartbeat IPC: 0.9442 cumulative IPC: 2.584 (Simulation time: 00 hr 51 min 12 sec)
Heartbeat CPU 0 instructions: 600000004 cycles: 224574396 heartbeat IPC: 3.275 cumulative IPC: 2.594 (Simulation time: 00 hr 51 min 58 sec)
Heartbeat CPU 0 instructions: 610000002 cycles: 227542150 heartbeat IPC: 3.37 cumulative IPC: 2.605 (Simulation time: 00 hr 52 min 42 sec)
Heartbeat CPU 0 instructions: 620000001 cycles: 230318292 heartbeat IPC: 3.602 cumulative IPC: 2.617 (Simulation time: 00 hr 53 min 27 sec)
Heartbeat CPU 0 instructions: 630000002 cycles: 233289615 heartbeat IPC: 3.366 cumulative IPC: 2.627 (Simulation time: 00 hr 54 min 14 sec)
Heartbeat CPU 0 instructions: 640000004 cycles: 236239746 heartbeat IPC: 3.39 cumulative IPC: 2.637 (Simulation time: 00 hr 55 min 00 sec)
Heartbeat CPU 0 instructions: 650000000 cycles: 238990048 heartbeat IPC: 3.636 cumulative IPC: 2.65 (Simulation time: 00 hr 55 min 46 sec)
Simulation finished CPU 0 instructions: 600000001 cycles: 226452923 cumulative IPC: 2.65 (Simulation time: 00 hr 55 min 46 sec)
Simulation complete CPU 0 instructions: 600000001 cycles: 226452923 cumulative IPC: 2.65 (Simulation time: 00 hr 55 min 46 sec)

ChampSim completed all CPUs

=== Simulation ===
CPU 0 runs traces/400.perlbench-41B.champsimtrace.xz
Region of Interest Statistics

CPU 0 cumulative IPC: 2.65 instructions: 600000001 cycles: 226452923
CPU 0 Branch Prediction Accuracy: 99.19% MPKI: 1.684 Average ROB Occupancy at Mispredict: 102.6
Branch type MPKI
BRANCH_DIRECT_JUMP: 0.0123
BRANCH_INDIRECT: 0.323
BRANCH_CONDITIONAL: 1.14
BRANCH_DIRECT_CALL: 0.0043
BRANCH_INDIRECT_CALL: 0.2
BRANCH_RETURN: 0.00828

LLC TOTAL        ACCESS:     539852 HIT:     268507 MISS:     271345
LLC LOAD         ACCESS:     403434 HIT:     164420 MISS:     239014
LLC RFO          ACCESS:      32458 HIT:      16502 MISS:      15956
LLC PREFETCH     ACCESS:          0 HIT:          0 MISS:          0
LLC WRITE        ACCESS:      84966 HIT:      79205 MISS:       5761
LLC TRANSLATION  ACCESS:      18994 HIT:       8380 MISS:      10614
LLC PREFETCH REQUESTED:          0 ISSUED:          0 USEFUL:          0 USELESS:          0
LLC AVERAGE MISS LATENCY: 619.4 cycles
cpu0_DTLB TOTAL        ACCESS:  129762844 HIT:  129058012 MISS:     704832
cpu0_DTLB LOAD         ACCESS:  129762844 HIT:  129058012 MISS:     704832
cpu0_DTLB RFO          ACCESS:          0 HIT:          0 MISS:          0
cpu0_DTLB PREFETCH     ACCESS:          0 HIT:          0 MISS:          0
cpu0_DTLB WRITE        ACCESS:          0 HIT:          0 MISS:          0
cpu0_DTLB TRANSLATION  ACCESS:          0 HIT:          0 MISS:          0
cpu0_DTLB PREFETCH REQUESTED:          0 ISSUED:          0 USEFUL:          0 USELESS:          0
cpu0_DTLB AVERAGE MISS LATENCY: 15.97 cycles
cpu0_ITLB TOTAL        ACCESS:    4877152 HIT:    4815040 MISS:      62112
cpu0_ITLB LOAD         ACCESS:    4877152 HIT:    4815040 MISS:      62112
cpu0_ITLB RFO          ACCESS:          0 HIT:          0 MISS:          0
cpu0_ITLB PREFETCH     ACCESS:          0 HIT:          0 MISS:          0
cpu0_ITLB WRITE        ACCESS:          0 HIT:          0 MISS:          0
cpu0_ITLB TRANSLATION  ACCESS:          0 HIT:          0 MISS:          0
cpu0_ITLB PREFETCH REQUESTED:          0 ISSUED:          0 USEFUL:          0 USELESS:          0
cpu0_ITLB AVERAGE MISS LATENCY: 6.8 cycles
cpu0_L1D TOTAL        ACCESS:  174344986 HIT:  172529361 MISS:    1815625
cpu0_L1D LOAD         ACCESS:   91324894 HIT:   89908059 MISS:    1416835
cpu0_L1D RFO          ACCESS:          0 HIT:          0 MISS:          0
cpu0_L1D PREFETCH     ACCESS:          0 HIT:          0 MISS:          0
cpu0_L1D WRITE        ACCESS:   82995634 HIT:   82620239 MISS:     375395
cpu0_L1D TRANSLATION  ACCESS:      24458 HIT:       1063 MISS:      23395
cpu0_L1D PREFETCH REQUESTED:          0 ISSUED:          0 USEFUL:          0 USELESS:          0
cpu0_L1D AVERAGE MISS LATENCY: 92.15 cycles
cpu0_L1I TOTAL        ACCESS:    5656243 HIT:    4851054 MISS:     805189
cpu0_L1I LOAD         ACCESS:    5656243 HIT:    4851054 MISS:     805189
cpu0_L1I RFO          ACCESS:          0 HIT:          0 MISS:          0
cpu0_L1I PREFETCH     ACCESS:          0 HIT:          0 MISS:          0
cpu0_L1I WRITE        ACCESS:          0 HIT:          0 MISS:          0
cpu0_L1I TRANSLATION  ACCESS:          0 HIT:          0 MISS:          0
cpu0_L1I PREFETCH REQUESTED:          0 ISSUED:          0 USEFUL:          0 USELESS:          0
cpu0_L1I AVERAGE MISS LATENCY: 12.41 cycles
cpu0_L2C TOTAL        ACCESS:    1667903 HIT:    1211210 MISS:     456693
cpu0_L2C LOAD         ACCESS:    1315257 HIT:     911823 MISS:     403434
cpu0_L2C RFO          ACCESS:      89626 HIT:      57167 MISS:      32459
cpu0_L2C PREFETCH     ACCESS:          0 HIT:          0 MISS:          0
cpu0_L2C WRITE        ACCESS:     239700 HIT:     237894 MISS:       1806
cpu0_L2C TRANSLATION  ACCESS:      23320 HIT:       4326 MISS:      18994
cpu0_L2C PREFETCH REQUESTED:          0 ISSUED:          0 USEFUL:          0 USELESS:          0
cpu0_L2C AVERAGE MISS LATENCY: 388.5 cycles
cpu0_STLB TOTAL        ACCESS:     509157 HIT:     486372 MISS:      22785
cpu0_STLB LOAD         ACCESS:     509157 HIT:     486372 MISS:      22785
cpu0_STLB RFO          ACCESS:          0 HIT:          0 MISS:          0
cpu0_STLB PREFETCH     ACCESS:          0 HIT:          0 MISS:          0
cpu0_STLB WRITE        ACCESS:          0 HIT:          0 MISS:          0
cpu0_STLB TRANSLATION  ACCESS:          0 HIT:          0 MISS:          0
cpu0_STLB PREFETCH REQUESTED:          0 ISSUED:          0 USEFUL:          0 USELESS:          0
cpu0_STLB AVERAGE MISS LATENCY: 390.8 cycles

DRAM Statistics

Channel 0 RQ ROW_BUFFER_HIT:      47454
  ROW_BUFFER_MISS:     218086
 AVG DBUS CONGESTED CYCLE: 3.837
WQ ROW_BUFFER_HIT: Channel 0 
  ROW_BUFFER_MISS:       5365
  FULL:      35025
