WARNING: physical memory size is smaller than virtual memory size.

*** ChampSim Multicore Out-of-Order Simulator ***
Warmup Instructions: 50000000
Simulation Instructions: 600000000
Number of CPUs: 1
Page size: 4096

Off-chip DRAM Size: 4 GiB Channels: 1 Width: 64-bit Data Race: 3200 MT/s
Heartbeat CPU 0 instructions: 10000000 cycles: 2500061 heartbeat IPC: 4 cumulative IPC: 4 (Simulation time: 00 hr 00 min 27 sec)
Heartbeat CPU 0 instructions: 20000000 cycles: 5000061 heartbeat IPC: 4 cumulative IPC: 4 (Simulation time: 00 hr 00 min 59 sec)
Heartbeat CPU 0 instructions: 30000000 cycles: 7500061 heartbeat IPC: 4 cumulative IPC: 4 (Simulation time: 00 hr 01 min 35 sec)
Heartbeat CPU 0 instructions: 40000000 cycles: 10000061 heartbeat IPC: 4 cumulative IPC: 4 (Simulation time: 00 hr 02 min 15 sec)
Heartbeat CPU 0 instructions: 50000000 cycles: 12500061 heartbeat IPC: 4 cumulative IPC: 4 (Simulation time: 00 hr 03 min 00 sec)
Warmup finished CPU 0 instructions: 50000000 cycles: 12500062 cumulative IPC: 4 (Simulation time: 00 hr 03 min 00 sec)
Warmup complete CPU 0 instructions: 50000000 cycles: 12500062 cumulative IPC: 4 (Simulation time: 00 hr 03 min 00 sec)
Heartbeat CPU 0 instructions: 60000002 cycles: 16444688 heartbeat IPC: 2.535 cumulative IPC: 2.535 (Simulation time: 00 hr 04 min 06 sec)
Heartbeat CPU 0 instructions: 70000003 cycles: 20760893 heartbeat IPC: 2.317 cumulative IPC: 2.421 (Simulation time: 00 hr 05 min 09 sec)
Heartbeat CPU 0 instructions: 80000003 cycles: 25229157 heartbeat IPC: 2.238 cumulative IPC: 2.357 (Simulation time: 00 hr 06 min 12 sec)
Heartbeat CPU 0 instructions: 90000000 cycles: 28920814 heartbeat IPC: 2.709 cumulative IPC: 2.436 (Simulation time: 00 hr 07 min 15 sec)
Heartbeat CPU 0 instructions: 100000003 cycles: 32818788 heartbeat IPC: 2.565 cumulative IPC: 2.461 (Simulation time: 00 hr 08 min 18 sec)
Heartbeat CPU 0 instructions: 110000002 cycles: 36920325 heartbeat IPC: 2.438 cumulative IPC: 2.457 (Simulation time: 00 hr 09 min 21 sec)
Heartbeat CPU 0 instructions: 120000001 cycles: 40635683 heartbeat IPC: 2.692 cumulative IPC: 2.488 (Simulation time: 00 hr 10 min 21 sec)
Heartbeat CPU 0 instructions: 130000003 cycles: 44404658 heartbeat IPC: 2.653 cumulative IPC: 2.507 (Simulation time: 00 hr 11 min 19 sec)
Heartbeat CPU 0 instructions: 140000002 cycles: 48538024 heartbeat IPC: 2.419 cumulative IPC: 2.497 (Simulation time: 00 hr 12 min 20 sec)
Heartbeat CPU 0 instructions: 150000001 cycles: 52589949 heartbeat IPC: 2.468 cumulative IPC: 2.494 (Simulation time: 00 hr 13 min 23 sec)
Heartbeat CPU 0 instructions: 160000000 cycles: 56247531 heartbeat IPC: 2.734 cumulative IPC: 2.514 (Simulation time: 00 hr 14 min 24 sec)
Heartbeat CPU 0 instructions: 170000001 cycles: 60421737 heartbeat IPC: 2.396 cumulative IPC: 2.504 (Simulation time: 00 hr 15 min 29 sec)
Heartbeat CPU 0 instructions: 180000001 cycles: 63882371 heartbeat IPC: 2.89 cumulative IPC: 2.53 (Simulation time: 00 hr 16 min 28 sec)
Heartbeat CPU 0 instructions: 190000002 cycles: 67465761 heartbeat IPC: 2.791 cumulative IPC: 2.547 (Simulation time: 00 hr 17 min 28 sec)
Heartbeat CPU 0 instructions: 200000002 cycles: 71249566 heartbeat IPC: 2.643 cumulative IPC: 2.553 (Simulation time: 00 hr 18 min 28 sec)
Heartbeat CPU 0 instructions: 210000000 cycles: 74888484 heartbeat IPC: 2.748 cumulative IPC: 2.565 (Simulation time: 00 hr 19 min 26 sec)
Heartbeat CPU 0 instructions: 220000001 cycles: 78756189 heartbeat IPC: 2.586 cumulative IPC: 2.566 (Simulation time: 00 hr 20 min 25 sec)
Heartbeat CPU 0 instructions: 230000002 cycles: 82597897 heartbeat IPC: 2.603 cumulative IPC: 2.568 (Simulation time: 00 hr 21 min 25 sec)
Heartbeat CPU 0 instructions: 240000001 cycles: 86805608 heartbeat IPC: 2.377 cumulative IPC: 2.557 (Simulation time: 00 hr 22 min 28 sec)
Heartbeat CPU 0 instructions: 250000003 cycles: 91370920 heartbeat IPC: 2.19 cumulative IPC: 2.536 (Simulation time: 00 hr 23 min 32 sec)
Heartbeat CPU 0 instructions: 260000000 cycles: 95165788 heartbeat IPC: 2.635 cumulative IPC: 2.54 (Simulation time: 00 hr 24 min 31 sec)
Heartbeat CPU 0 instructions: 270000003 cycles: 102378356 heartbeat IPC: 1.386 cumulative IPC: 2.448 (Simulation time: 00 hr 25 min 52 sec)
Heartbeat CPU 0 instructions: 280000000 cycles: 114007659 heartbeat IPC: 0.8599 cumulative IPC: 2.266 (Simulation time: 00 hr 27 min 46 sec)
Heartbeat CPU 0 instructions: 290000000 cycles: 124756073 heartbeat IPC: 0.9304 cumulative IPC: 2.138 (Simulation time: 00 hr 29 min 34 sec)
Heartbeat CPU 0 instructions: 300000003 cycles: 133047601 heartbeat IPC: 1.206 cumulative IPC: 2.074 (Simulation time: 00 hr 31 min 07 sec)
Heartbeat CPU 0 instructions: 310000004 cycles: 144496199 heartbeat IPC: 0.8735 cumulative IPC: 1.97 (Simulation time: 00 hr 33 min 04 sec)
Heartbeat CPU 0 instructions: 320000004 cycles: 149667386 heartbeat IPC: 1.934 cumulative IPC: 1.968 (Simulation time: 00 hr 34 min 15 sec)
Heartbeat CPU 0 instructions: 330000000 cycles: 153740469 heartbeat IPC: 2.455 cumulative IPC: 1.982 (Simulation time: 00 hr 35 min 20 sec)
Heartbeat CPU 0 instructions: 340000001 cycles: 158117837 heartbeat IPC: 2.284 cumulative IPC: 1.992 (Simulation time: 00 hr 36 min 29 sec)
Heartbeat CPU 0 instructions: 350000004 cycles: 162643313 heartbeat IPC: 2.21 cumulative IPC: 1.998 (Simulation time: 00 hr 37 min 38 sec)
Heartbeat CPU 0 instructions: 360000003 cycles: 166866079 heartbeat IPC: 2.368 cumulative IPC: 2.008 (Simulation time: 00 hr 38 min 44 sec)
Heartbeat CPU 0 instructions: 370000001 cycles: 170942390 heartbeat IPC: 2.453 cumulative IPC: 2.02 (Simulation time: 00 hr 39 min 31 sec)
Heartbeat CPU 0 instructions: 380000004 cycles: 174877576 heartbeat IPC: 2.541 cumulative IPC: 2.032 (Simulation time: 00 hr 40 min 17 sec)
Heartbeat CPU 0 instructions: 390000002 cycles: 179045726 heartbeat IPC: 2.399 cumulative IPC: 2.041 (Simulation time: 00 hr 41 min 04 sec)
Heartbeat CPU 0 instructions: 400000000 cycles: 183537714 heartbeat IPC: 2.226 cumulative IPC: 2.046 (Simulation time: 00 hr 41 min 51 sec)
Heartbeat CPU 0 instructions: 410000000 cycles: 192051732 heartbeat IPC: 1.175 cumulative IPC: 2.005 (Simulation time: 00 hr 42 min 58 sec)
Heartbeat CPU 0 instructions: 420000003 cycles: 204883108 heartbeat IPC: 0.7793 cumulative IPC: 1.923 (Simulation time: 00 hr 44 min 31 sec)
Heartbeat CPU 0 instructions: 430000000 cycles: 213017882 heartbeat IPC: 1.229 cumulative IPC: 1.895 (Simulation time: 00 hr 45 min 46 sec)
Heartbeat CPU 0 instructions: 440000004 cycles: 220474385 heartbeat IPC: 1.341 cumulative IPC: 1.875 (Simulation time: 00 hr 46 min 52 sec)
Heartbeat CPU 0 instructions: 450000001 cycles: 227676672 heartbeat IPC: 1.388 cumulative IPC: 1.859 (Simulation time: 00 hr 47 min 59 sec)
Heartbeat CPU 0 instructions: 460000002 cycles: 239954918 heartbeat IPC: 0.8144 cumulative IPC: 1.803 (Simulation time: 00 hr 49 min 44 sec)
Heartbeat CPU 0 instructions: 470000003 cycles: 249707231 heartbeat IPC: 1.025 cumulative IPC: 1.771 (Simulation time: 00 hr 51 min 07 sec)
Heartbeat CPU 0 instructions: 480000003 cycles: 254060306 heartbeat IPC: 2.297 cumulative IPC: 1.78 (Simulation time: 00 hr 51 min 55 sec)
Heartbeat CPU 0 instructions: 490000001 cycles: 258779686 heartbeat IPC: 2.119 cumulative IPC: 1.787 (Simulation time: 00 hr 52 min 46 sec)
Heartbeat CPU 0 instructions: 500000002 cycles: 263259209 heartbeat IPC: 2.232 cumulative IPC: 1.795 (Simulation time: 00 hr 53 min 35 sec)
Heartbeat CPU 0 instructions: 510000000 cycles: 267517977 heartbeat IPC: 2.348 cumulative IPC: 1.804 (Simulation time: 00 hr 54 min 23 sec)
Heartbeat CPU 0 instructions: 520000000 cycles: 271973522 heartbeat IPC: 2.244 cumulative IPC: 1.811 (Simulation time: 00 hr 55 min 11 sec)
Heartbeat CPU 0 instructions: 530000001 cycles: 284902239 heartbeat IPC: 0.7735 cumulative IPC: 1.762 (Simulation time: 00 hr 56 min 41 sec)
Heartbeat CPU 0 instructions: 540000000 cycles: 296604339 heartbeat IPC: 0.8545 cumulative IPC: 1.725 (Simulation time: 00 hr 58 min 07 sec)
Heartbeat CPU 0 instructions: 550000004 cycles: 310425178 heartbeat IPC: 0.7235 cumulative IPC: 1.678 (Simulation time: 00 hr 59 min 44 sec)
Heartbeat CPU 0 instructions: 560000004 cycles: 314727777 heartbeat IPC: 2.324 cumulative IPC: 1.687 (Simulation time: 01 hr 00 min 31 sec)
Heartbeat CPU 0 instructions: 570000001 cycles: 317858992 heartbeat IPC: 3.194 cumulative IPC: 1.703 (Simulation time: 01 hr 01 min 12 sec)
Heartbeat CPU 0 instructions: 580000003 cycles: 321403456 heartbeat IPC: 2.821 cumulative IPC: 1.716 (Simulation time: 01 hr 01 min 55 sec)
Heartbeat CPU 0 instructions: 590000002 cycles: 325032700 heartbeat IPC: 2.755 cumulative IPC: 1.728 (Simulation time: 01 hr 02 min 40 sec)
Heartbeat CPU 0 instructions: 600000003 cycles: 328098843 heartbeat IPC: 3.261 cumulative IPC: 1.743 (Simulation time: 01 hr 03 min 25 sec)
Heartbeat CPU 0 instructions: 610000001 cycles: 331608711 heartbeat IPC: 2.849 cumulative IPC: 1.755 (Simulation time: 01 hr 04 min 10 sec)
Heartbeat CPU 0 instructions: 620000000 cycles: 335628179 heartbeat IPC: 2.488 cumulative IPC: 1.764 (Simulation time: 01 hr 04 min 56 sec)
Heartbeat CPU 0 instructions: 630000002 cycles: 338996836 heartbeat IPC: 2.969 cumulative IPC: 1.776 (Simulation time: 01 hr 05 min 41 sec)
Heartbeat CPU 0 instructions: 640000004 cycles: 343010430 heartbeat IPC: 2.492 cumulative IPC: 1.785 (Simulation time: 01 hr 06 min 29 sec)
Heartbeat CPU 0 instructions: 650000001 cycles: 346835464 heartbeat IPC: 2.614 cumulative IPC: 1.795 (Simulation time: 01 hr 07 min 17 sec)
Simulation finished CPU 0 instructions: 600000001 cycles: 334335403 cumulative IPC: 1.795 (Simulation time: 01 hr 07 min 17 sec)
Simulation complete CPU 0 instructions: 600000001 cycles: 334335403 cumulative IPC: 1.795 (Simulation time: 01 hr 07 min 17 sec)

ChampSim completed all CPUs

=== Simulation ===
CPU 0 runs traces/400.perlbench-50B.champsimtrace.xz
Region of Interest Statistics

CPU 0 cumulative IPC: 1.795 instructions: 600000001 cycles: 334335403
CPU 0 Branch Prediction Accuracy: 96.2% MPKI: 7.839 Average ROB Occupancy at Mispredict: 43.76
Branch type MPKI
BRANCH_DIRECT_JUMP: 0.0176
BRANCH_INDIRECT: 0.38
BRANCH_CONDITIONAL: 6.99
BRANCH_DIRECT_CALL: 0.0067
BRANCH_INDIRECT_CALL: 0.431
BRANCH_RETURN: 0.0161

LLC TOTAL        ACCESS:     837833 HIT:     469760 MISS:     368073
LLC LOAD         ACCESS:     576912 HIT:     291167 MISS:     285745
LLC RFO          ACCESS:      47442 HIT:      26532 MISS:      20910
LLC PREFETCH     ACCESS:      64290 HIT:      33995 MISS:      30295
LLC WRITE        ACCESS:     127049 HIT:     110129 MISS:      16920
LLC TRANSLATION  ACCESS:      22140 HIT:       7937 MISS:      14203
LLC PREFETCH REQUESTED:      64290 ISSUED:      64290 USEFUL:      19444 USELESS:       5484
LLC AVERAGE MISS LATENCY: 510.6 cycles
cpu0_DTLB TOTAL        ACCESS:  146510391 HIT:  145204116 MISS:    1306275
cpu0_DTLB LOAD         ACCESS:  146510391 HIT:  145204116 MISS:    1306275
cpu0_DTLB RFO          ACCESS:          0 HIT:          0 MISS:          0
cpu0_DTLB PREFETCH     ACCESS:          0 HIT:          0 MISS:          0
cpu0_DTLB WRITE        ACCESS:          0 HIT:          0 MISS:          0
cpu0_DTLB TRANSLATION  ACCESS:          0 HIT:          0 MISS:          0
cpu0_DTLB PREFETCH REQUESTED:          0 ISSUED:          0 USEFUL:          0 USELESS:          0
cpu0_DTLB AVERAGE MISS LATENCY: 12.94 cycles
cpu0_ITLB TOTAL        ACCESS:    8990515 HIT:    8806038 MISS:     184477
cpu0_ITLB LOAD         ACCESS:    8990515 HIT:    8806038 MISS:     184477
cpu0_ITLB RFO          ACCESS:          0 HIT:          0 MISS:          0
cpu0_ITLB PREFETCH     ACCESS:          0 HIT:          0 MISS:          0
cpu0_ITLB WRITE        ACCESS:          0 HIT:          0 MISS:          0
cpu0_ITLB TRANSLATION  ACCESS:          0 HIT:          0 MISS:          0
cpu0_ITLB PREFETCH REQUESTED:          0 ISSUED:          0 USEFUL:          0 USELESS:          0
cpu0_ITLB AVERAGE MISS LATENCY: 3.579 cycles
cpu0_L1D TOTAL        ACCESS:  193279353 HIT:  189605296 MISS:    3674057
cpu0_L1D LOAD         ACCESS:  107433119 HIT:  104412011 MISS:    3021108
cpu0_L1D RFO          ACCESS:          0 HIT:          0 MISS:          0
cpu0_L1D PREFETCH     ACCESS:          0 HIT:          0 MISS:          0
cpu0_L1D WRITE        ACCESS:   85817718 HIT:   85191865 MISS:     625853
cpu0_L1D TRANSLATION  ACCESS:      28516 HIT:       1420 MISS:      27096
cpu0_L1D PREFETCH REQUESTED:          0 ISSUED:          0 USEFUL:          0 USELESS:          0
cpu0_L1D AVERAGE MISS LATENCY: 51.14 cycles
cpu0_L1I TOTAL        ACCESS:   10424615 HIT:    8662218 MISS:    1762397
cpu0_L1I LOAD         ACCESS:   10424615 HIT:    8662218 MISS:    1762397
cpu0_L1I RFO          ACCESS:          0 HIT:          0 MISS:          0
cpu0_L1I PREFETCH     ACCESS:          0 HIT:          0 MISS:          0
cpu0_L1I WRITE        ACCESS:          0 HIT:          0 MISS:          0
cpu0_L1I TRANSLATION  ACCESS:          0 HIT:          0 MISS:          0
cpu0_L1I PREFETCH REQUESTED:          0 ISSUED:          0 USEFUL:          0 USELESS:          0
cpu0_L1I AVERAGE MISS LATENCY: 11.99 cycles
cpu0_L2C TOTAL        ACCESS:    3834551 HIT:    3184847 MISS:     649704
cpu0_L2C LOAD         ACCESS:    3104927 HIT:    2528015 MISS:     576912
cpu0_L2C RFO          ACCESS:     191567 HIT:     144124 MISS:      47443
cpu0_L2C PREFETCH     ACCESS:          0 HIT:          0 MISS:          0
cpu0_L2C WRITE        ACCESS:     511028 HIT:     507819 MISS:       3209
cpu0_L2C TRANSLATION  ACCESS:      27029 HIT:       4889 MISS:      22140
cpu0_L2C PREFETCH REQUESTED:          0 ISSUED:          0 USEFUL:          0 USELESS:          0
cpu0_L2C AVERAGE MISS LATENCY: 282.8 cycles
cpu0_STLB TOTAL        ACCESS:    1008416 HIT:     981724 MISS:      26692
cpu0_STLB LOAD         ACCESS:    1008416 HIT:     981724 MISS:      26692
cpu0_STLB RFO          ACCESS:          0 HIT:          0 MISS:          0
cpu0_STLB PREFETCH     ACCESS:          0 HIT:          0 MISS:          0
cpu0_STLB WRITE        ACCESS:          0 HIT:          0 MISS:          0
cpu0_STLB TRANSLATION  ACCESS:          0 HIT:          0 MISS:          0
cpu0_STLB PREFETCH REQUESTED:          0 ISSUED:          0 USEFUL:          0 USELESS:          0
cpu0_STLB AVERAGE MISS LATENCY: 416.1 cycles

DRAM Statistics

Channel 0 RQ ROW_BUFFER_HIT:      70158
  ROW_BUFFER_MISS:     275208
 AVG DBUS CONGESTED CYCLE: 3.801
WQ ROW_BUFFER_HIT: Channel 0 
  ROW_BUFFER_MISS:      11201
  FULL:      37790
Final OPTGen Hits: 6328
Final OPTGen Access: 9514
Final OPTGEN Hit Rate: 66.5126
