WARNING: physical memory size is smaller than virtual memory size.

*** ChampSim Multicore Out-of-Order Simulator ***
Warmup Instructions: 50000000
Simulation Instructions: 600000000
Number of CPUs: 1
Page size: 4096

CPU 0 Tage branch predictor
Off-chip DRAM Size: 4 GiB Channels: 1 Width: 64-bit Data Race: 3200 MT/s
Heartbeat CPU 0 instructions: 10000001 cycles: 2500318 heartbeat IPC: 3.999 cumulative IPC: 3.999 (Simulation time: 00 hr 00 min 56 sec)
Heartbeat CPU 0 instructions: 20000002 cycles: 5037133 heartbeat IPC: 3.942 cumulative IPC: 3.971 (Simulation time: 00 hr 01 min 53 sec)
Heartbeat CPU 0 instructions: 30000002 cycles: 7537133 heartbeat IPC: 4 cumulative IPC: 3.98 (Simulation time: 00 hr 02 min 48 sec)
Heartbeat CPU 0 instructions: 40000002 cycles: 10037133 heartbeat IPC: 4 cumulative IPC: 3.985 (Simulation time: 00 hr 03 min 42 sec)
Heartbeat CPU 0 instructions: 50000002 cycles: 12537133 heartbeat IPC: 4 cumulative IPC: 3.988 (Simulation time: 00 hr 04 min 32 sec)
Warmup finished CPU 0 instructions: 50000002 cycles: 12537134 cumulative IPC: 3.988 (Simulation time: 00 hr 04 min 32 sec)
Warmup complete CPU 0 instructions: 50000002 cycles: 12537134 cumulative IPC: 3.988 (Simulation time: 00 hr 04 min 32 sec)
Heartbeat CPU 0 instructions: 60000001 cycles: 15517804 heartbeat IPC: 3.355 cumulative IPC: 3.355 (Simulation time: 00 hr 05 min 23 sec)
Heartbeat CPU 0 instructions: 70000004 cycles: 18596941 heartbeat IPC: 3.248 cumulative IPC: 3.3 (Simulation time: 00 hr 06 min 13 sec)
Heartbeat CPU 0 instructions: 80000001 cycles: 21652865 heartbeat IPC: 3.272 cumulative IPC: 3.291 (Simulation time: 00 hr 06 min 57 sec)
Heartbeat CPU 0 instructions: 90000001 cycles: 24604704 heartbeat IPC: 3.388 cumulative IPC: 3.315 (Simulation time: 00 hr 07 min 40 sec)
Heartbeat CPU 0 instructions: 100000000 cycles: 27523638 heartbeat IPC: 3.426 cumulative IPC: 3.336 (Simulation time: 00 hr 08 min 17 sec)
Heartbeat CPU 0 instructions: 110000000 cycles: 30471834 heartbeat IPC: 3.392 cumulative IPC: 3.345 (Simulation time: 00 hr 08 min 50 sec)
Heartbeat CPU 0 instructions: 120000001 cycles: 33452568 heartbeat IPC: 3.355 cumulative IPC: 3.347 (Simulation time: 00 hr 09 min 23 sec)
Heartbeat CPU 0 instructions: 130000001 cycles: 36316926 heartbeat IPC: 3.491 cumulative IPC: 3.364 (Simulation time: 00 hr 09 min 54 sec)
Heartbeat CPU 0 instructions: 140000001 cycles: 39371671 heartbeat IPC: 3.274 cumulative IPC: 3.354 (Simulation time: 00 hr 10 min 22 sec)
Heartbeat CPU 0 instructions: 150000001 cycles: 42387273 heartbeat IPC: 3.316 cumulative IPC: 3.35 (Simulation time: 00 hr 10 min 50 sec)
Heartbeat CPU 0 instructions: 160000004 cycles: 45410183 heartbeat IPC: 3.308 cumulative IPC: 3.346 (Simulation time: 00 hr 11 min 17 sec)
Heartbeat CPU 0 instructions: 170000000 cycles: 53570997 heartbeat IPC: 1.225 cumulative IPC: 2.924 (Simulation time: 00 hr 12 min 01 sec)
Heartbeat CPU 0 instructions: 180000004 cycles: 63138572 heartbeat IPC: 1.045 cumulative IPC: 2.569 (Simulation time: 00 hr 12 min 51 sec)
Heartbeat CPU 0 instructions: 190000001 cycles: 71917779 heartbeat IPC: 1.139 cumulative IPC: 2.358 (Simulation time: 00 hr 13 min 40 sec)
Heartbeat CPU 0 instructions: 200000004 cycles: 74885883 heartbeat IPC: 3.369 cumulative IPC: 2.406 (Simulation time: 00 hr 14 min 06 sec)
Heartbeat CPU 0 instructions: 210000001 cycles: 77844991 heartbeat IPC: 3.379 cumulative IPC: 2.45 (Simulation time: 00 hr 14 min 31 sec)
Heartbeat CPU 0 instructions: 220000000 cycles: 80737030 heartbeat IPC: 3.458 cumulative IPC: 2.493 (Simulation time: 00 hr 14 min 56 sec)
Heartbeat CPU 0 instructions: 230000002 cycles: 83755451 heartbeat IPC: 3.313 cumulative IPC: 2.527 (Simulation time: 00 hr 15 min 22 sec)
Heartbeat CPU 0 instructions: 240000003 cycles: 86790847 heartbeat IPC: 3.294 cumulative IPC: 2.559 (Simulation time: 00 hr 15 min 47 sec)
Heartbeat CPU 0 instructions: 250000000 cycles: 89812840 heartbeat IPC: 3.309 cumulative IPC: 2.588 (Simulation time: 00 hr 16 min 13 sec)
Heartbeat CPU 0 instructions: 260000002 cycles: 92778275 heartbeat IPC: 3.372 cumulative IPC: 2.617 (Simulation time: 00 hr 16 min 39 sec)
Heartbeat CPU 0 instructions: 270000002 cycles: 95687839 heartbeat IPC: 3.437 cumulative IPC: 2.646 (Simulation time: 00 hr 17 min 04 sec)
Heartbeat CPU 0 instructions: 280000002 cycles: 98570012 heartbeat IPC: 3.47 cumulative IPC: 2.673 (Simulation time: 00 hr 17 min 29 sec)
Heartbeat CPU 0 instructions: 290000002 cycles: 101531427 heartbeat IPC: 3.377 cumulative IPC: 2.697 (Simulation time: 00 hr 17 min 54 sec)
Heartbeat CPU 0 instructions: 300000003 cycles: 104431712 heartbeat IPC: 3.448 cumulative IPC: 2.721 (Simulation time: 00 hr 18 min 20 sec)
Heartbeat CPU 0 instructions: 310000001 cycles: 107473011 heartbeat IPC: 3.288 cumulative IPC: 2.739 (Simulation time: 00 hr 18 min 44 sec)
Heartbeat CPU 0 instructions: 320000003 cycles: 110480684 heartbeat IPC: 3.325 cumulative IPC: 2.757 (Simulation time: 00 hr 19 min 08 sec)
Heartbeat CPU 0 instructions: 330000003 cycles: 113467037 heartbeat IPC: 3.349 cumulative IPC: 2.774 (Simulation time: 00 hr 19 min 34 sec)
Heartbeat CPU 0 instructions: 340000000 cycles: 121951872 heartbeat IPC: 1.179 cumulative IPC: 2.65 (Simulation time: 00 hr 20 min 17 sec)
Heartbeat CPU 0 instructions: 350000000 cycles: 131735121 heartbeat IPC: 1.022 cumulative IPC: 2.517 (Simulation time: 00 hr 21 min 04 sec)
Heartbeat CPU 0 instructions: 360000004 cycles: 140750823 heartbeat IPC: 1.109 cumulative IPC: 2.418 (Simulation time: 00 hr 21 min 49 sec)
Heartbeat CPU 0 instructions: 370000000 cycles: 143718417 heartbeat IPC: 3.37 cumulative IPC: 2.439 (Simulation time: 00 hr 22 min 14 sec)
Heartbeat CPU 0 instructions: 380000003 cycles: 146637489 heartbeat IPC: 3.426 cumulative IPC: 2.461 (Simulation time: 00 hr 22 min 38 sec)
Heartbeat CPU 0 instructions: 390000002 cycles: 149616058 heartbeat IPC: 3.357 cumulative IPC: 2.48 (Simulation time: 00 hr 23 min 03 sec)
Heartbeat CPU 0 instructions: 400000004 cycles: 152517342 heartbeat IPC: 3.447 cumulative IPC: 2.5 (Simulation time: 00 hr 23 min 27 sec)
Heartbeat CPU 0 instructions: 410000002 cycles: 155460640 heartbeat IPC: 3.398 cumulative IPC: 2.519 (Simulation time: 00 hr 23 min 52 sec)
Heartbeat CPU 0 instructions: 420000003 cycles: 158640733 heartbeat IPC: 3.145 cumulative IPC: 2.532 (Simulation time: 00 hr 24 min 17 sec)
Heartbeat CPU 0 instructions: 430000001 cycles: 161656832 heartbeat IPC: 3.316 cumulative IPC: 2.548 (Simulation time: 00 hr 24 min 42 sec)
Heartbeat CPU 0 instructions: 440000004 cycles: 164795503 heartbeat IPC: 3.186 cumulative IPC: 2.561 (Simulation time: 00 hr 25 min 07 sec)
Heartbeat CPU 0 instructions: 450000002 cycles: 167721037 heartbeat IPC: 3.418 cumulative IPC: 2.578 (Simulation time: 00 hr 25 min 31 sec)
Heartbeat CPU 0 instructions: 460000000 cycles: 170650411 heartbeat IPC: 3.414 cumulative IPC: 2.593 (Simulation time: 00 hr 25 min 56 sec)
Heartbeat CPU 0 instructions: 470000001 cycles: 173503433 heartbeat IPC: 3.505 cumulative IPC: 2.609 (Simulation time: 00 hr 26 min 20 sec)
Heartbeat CPU 0 instructions: 480000003 cycles: 176582497 heartbeat IPC: 3.248 cumulative IPC: 2.621 (Simulation time: 00 hr 26 min 45 sec)
Heartbeat CPU 0 instructions: 490000004 cycles: 179413967 heartbeat IPC: 3.532 cumulative IPC: 2.637 (Simulation time: 00 hr 27 min 09 sec)
Heartbeat CPU 0 instructions: 500000004 cycles: 182401622 heartbeat IPC: 3.347 cumulative IPC: 2.649 (Simulation time: 00 hr 27 min 35 sec)
Heartbeat CPU 0 instructions: 510000003 cycles: 185474601 heartbeat IPC: 3.254 cumulative IPC: 2.66 (Simulation time: 00 hr 28 min 02 sec)
Heartbeat CPU 0 instructions: 520000001 cycles: 188365984 heartbeat IPC: 3.459 cumulative IPC: 2.673 (Simulation time: 00 hr 28 min 27 sec)
Heartbeat CPU 0 instructions: 530000001 cycles: 191397598 heartbeat IPC: 3.299 cumulative IPC: 2.684 (Simulation time: 00 hr 28 min 51 sec)
Heartbeat CPU 0 instructions: 540000000 cycles: 194359867 heartbeat IPC: 3.376 cumulative IPC: 2.695 (Simulation time: 00 hr 29 min 16 sec)
Heartbeat CPU 0 instructions: 550000001 cycles: 197345553 heartbeat IPC: 3.349 cumulative IPC: 2.706 (Simulation time: 00 hr 29 min 41 sec)
Heartbeat CPU 0 instructions: 560000000 cycles: 200476727 heartbeat IPC: 3.194 cumulative IPC: 2.714 (Simulation time: 00 hr 30 min 07 sec)
Heartbeat CPU 0 instructions: 570000004 cycles: 206076254 heartbeat IPC: 1.786 cumulative IPC: 2.687 (Simulation time: 00 hr 30 min 40 sec)
Heartbeat CPU 0 instructions: 580000003 cycles: 216057142 heartbeat IPC: 1.002 cumulative IPC: 2.604 (Simulation time: 00 hr 31 min 28 sec)
Heartbeat CPU 0 instructions: 590000002 cycles: 227945890 heartbeat IPC: 0.8411 cumulative IPC: 2.507 (Simulation time: 00 hr 32 min 21 sec)
Heartbeat CPU 0 instructions: 600000004 cycles: 231053080 heartbeat IPC: 3.218 cumulative IPC: 2.517 (Simulation time: 00 hr 32 min 46 sec)
Heartbeat CPU 0 instructions: 610000002 cycles: 234020423 heartbeat IPC: 3.37 cumulative IPC: 2.528 (Simulation time: 00 hr 33 min 09 sec)
Heartbeat CPU 0 instructions: 620000001 cycles: 236794437 heartbeat IPC: 3.605 cumulative IPC: 2.542 (Simulation time: 00 hr 33 min 33 sec)
Heartbeat CPU 0 instructions: 630000002 cycles: 239766009 heartbeat IPC: 3.365 cumulative IPC: 2.552 (Simulation time: 00 hr 33 min 58 sec)
Heartbeat CPU 0 instructions: 640000004 cycles: 242715274 heartbeat IPC: 3.391 cumulative IPC: 2.563 (Simulation time: 00 hr 34 min 20 sec)
Heartbeat CPU 0 instructions: 650000000 cycles: 245465103 heartbeat IPC: 3.637 cumulative IPC: 2.576 (Simulation time: 00 hr 34 min 43 sec)
Simulation finished CPU 0 instructions: 600000001 cycles: 232927971 cumulative IPC: 2.576 (Simulation time: 00 hr 34 min 43 sec)
Simulation complete CPU 0 instructions: 600000001 cycles: 232927971 cumulative IPC: 2.576 (Simulation time: 00 hr 34 min 43 sec)

ChampSim completed all CPUs

=== Simulation ===
CPU 0 runs traces/400.perlbench-41B.champsimtrace.xz
Region of Interest Statistics

CPU 0 cumulative IPC: 2.576 instructions: 600000001 cycles: 232927971
CPU 0 Branch Prediction Accuracy: 99.19% MPKI: 1.684 Average ROB Occupancy at Mispredict: 102.9
Branch type MPKI
BRANCH_DIRECT_JUMP: 0.0123
BRANCH_INDIRECT: 0.323
BRANCH_CONDITIONAL: 1.14
BRANCH_DIRECT_CALL: 0.0043
BRANCH_INDIRECT_CALL: 0.2
BRANCH_RETURN: 0.00828

LLC TOTAL        ACCESS:     539819 HIT:     253579 MISS:     286240
LLC LOAD         ACCESS:     403348 HIT:     152533 MISS:     250815
LLC RFO          ACCESS:      32478 HIT:      14827 MISS:      17651
LLC PREFETCH     ACCESS:          0 HIT:          0 MISS:          0
LLC WRITE        ACCESS:      84968 HIT:      78981 MISS:       5987
LLC TRANSLATION  ACCESS:      19025 HIT:       7238 MISS:      11787
LLC PREFETCH REQUESTED:          0 ISSUED:          0 USEFUL:          0 USELESS:          0
LLC AVERAGE MISS LATENCY: 626.8 cycles
cpu0_DTLB TOTAL        ACCESS:  129757970 HIT:  129052845 MISS:     705125
cpu0_DTLB LOAD         ACCESS:  129757970 HIT:  129052845 MISS:     705125
cpu0_DTLB RFO          ACCESS:          0 HIT:          0 MISS:          0
cpu0_DTLB PREFETCH     ACCESS:          0 HIT:          0 MISS:          0
cpu0_DTLB WRITE        ACCESS:          0 HIT:          0 MISS:          0
cpu0_DTLB TRANSLATION  ACCESS:          0 HIT:          0 MISS:          0
cpu0_DTLB PREFETCH REQUESTED:          0 ISSUED:          0 USEFUL:          0 USELESS:          0
cpu0_DTLB AVERAGE MISS LATENCY: 17.43 cycles
cpu0_ITLB TOTAL        ACCESS:    4876087 HIT:    4814029 MISS:      62058
cpu0_ITLB LOAD         ACCESS:    4876087 HIT:    4814029 MISS:      62058
cpu0_ITLB RFO          ACCESS:          0 HIT:          0 MISS:          0
cpu0_ITLB PREFETCH     ACCESS:          0 HIT:          0 MISS:          0
cpu0_ITLB WRITE        ACCESS:          0 HIT:          0 MISS:          0
cpu0_ITLB TRANSLATION  ACCESS:          0 HIT:          0 MISS:          0
cpu0_ITLB PREFETCH REQUESTED:          0 ISSUED:          0 USEFUL:          0 USELESS:          0
cpu0_ITLB AVERAGE MISS LATENCY: 7.199 cycles
cpu0_L1D TOTAL        ACCESS:  174339200 HIT:  172526689 MISS:    1812511
cpu0_L1D LOAD         ACCESS:   91318518 HIT:   89903418 MISS:    1415100
cpu0_L1D RFO          ACCESS:          0 HIT:          0 MISS:          0
cpu0_L1D PREFETCH     ACCESS:          0 HIT:          0 MISS:          0
cpu0_L1D WRITE        ACCESS:   82996224 HIT:   82622210 MISS:     374014
cpu0_L1D TRANSLATION  ACCESS:      24458 HIT:       1061 MISS:      23397
cpu0_L1D PREFETCH REQUESTED:          0 ISSUED:          0 USEFUL:          0 USELESS:          0
cpu0_L1D AVERAGE MISS LATENCY: 96.69 cycles
cpu0_L1I TOTAL        ACCESS:    5654767 HIT:    4850330 MISS:     804437
cpu0_L1I LOAD         ACCESS:    5654767 HIT:    4850330 MISS:     804437
cpu0_L1I RFO          ACCESS:          0 HIT:          0 MISS:          0
cpu0_L1I PREFETCH     ACCESS:          0 HIT:          0 MISS:          0
cpu0_L1I WRITE        ACCESS:          0 HIT:          0 MISS:          0
cpu0_L1I TRANSLATION  ACCESS:          0 HIT:          0 MISS:          0
cpu0_L1I PREFETCH REQUESTED:          0 ISSUED:          0 USEFUL:          0 USELESS:          0
cpu0_L1I AVERAGE MISS LATENCY: 16.89 cycles
cpu0_L2C TOTAL        ACCESS:    1667906 HIT:    1211241 MISS:     456665
cpu0_L2C LOAD         ACCESS:    1315217 HIT:     911869 MISS:     403348
cpu0_L2C RFO          ACCESS:      89648 HIT:      57169 MISS:      32479
cpu0_L2C PREFETCH     ACCESS:          0 HIT:          0 MISS:          0
cpu0_L2C WRITE        ACCESS:     239726 HIT:     237913 MISS:       1813
cpu0_L2C TRANSLATION  ACCESS:      23315 HIT:       4290 MISS:      19025
cpu0_L2C PREFETCH REQUESTED:          0 ISSUED:          0 USEFUL:          0 USELESS:          0
cpu0_L2C AVERAGE MISS LATENCY: 413.4 cycles
cpu0_STLB TOTAL        ACCESS:     509156 HIT:     486372 MISS:      22784
cpu0_STLB LOAD         ACCESS:     509156 HIT:     486372 MISS:      22784
cpu0_STLB RFO          ACCESS:          0 HIT:          0 MISS:          0
cpu0_STLB PREFETCH     ACCESS:          0 HIT:          0 MISS:          0
cpu0_STLB WRITE        ACCESS:          0 HIT:          0 MISS:          0
cpu0_STLB TRANSLATION  ACCESS:          0 HIT:          0 MISS:          0
cpu0_STLB PREFETCH REQUESTED:          0 ISSUED:          0 USEFUL:          0 USELESS:          0
cpu0_STLB AVERAGE MISS LATENCY: 441.2 cycles

DRAM Statistics

Channel 0 RQ ROW_BUFFER_HIT:      44537
  ROW_BUFFER_MISS:     235605
 AVG DBUS CONGESTED CYCLE: 3.851
WQ ROW_BUFFER_HIT: Channel 0 
  ROW_BUFFER_MISS:       5325
  FULL:      43036
