WARNING: physical memory size is smaller than virtual memory size.

*** ChampSim Multicore Out-of-Order Simulator ***
Warmup Instructions: 50000000
Simulation Instructions: 600000000
Number of CPUs: 1
Page size: 4096

Off-chip DRAM Size: 4 GiB Channels: 1 Width: 64-bit Data Race: 3200 MT/s
Heartbeat CPU 0 instructions: 10000000 cycles: 2500061 heartbeat IPC: 4 cumulative IPC: 4 (Simulation time: 00 hr 00 min 44 sec)
Heartbeat CPU 0 instructions: 20000000 cycles: 5000061 heartbeat IPC: 4 cumulative IPC: 4 (Simulation time: 00 hr 01 min 28 sec)
Heartbeat CPU 0 instructions: 30000000 cycles: 7500061 heartbeat IPC: 4 cumulative IPC: 4 (Simulation time: 00 hr 02 min 12 sec)
Heartbeat CPU 0 instructions: 40000000 cycles: 10000061 heartbeat IPC: 4 cumulative IPC: 4 (Simulation time: 00 hr 03 min 01 sec)
Heartbeat CPU 0 instructions: 50000000 cycles: 12500061 heartbeat IPC: 4 cumulative IPC: 4 (Simulation time: 00 hr 03 min 48 sec)
Warmup finished CPU 0 instructions: 50000000 cycles: 12500062 cumulative IPC: 4 (Simulation time: 00 hr 03 min 48 sec)
Warmup complete CPU 0 instructions: 50000000 cycles: 12500062 cumulative IPC: 4 (Simulation time: 00 hr 03 min 48 sec)
Heartbeat CPU 0 instructions: 60000002 cycles: 16435783 heartbeat IPC: 2.541 cumulative IPC: 2.541 (Simulation time: 00 hr 04 min 49 sec)
Heartbeat CPU 0 instructions: 70000003 cycles: 20749204 heartbeat IPC: 2.318 cumulative IPC: 2.424 (Simulation time: 00 hr 05 min 52 sec)
Heartbeat CPU 0 instructions: 80000003 cycles: 25212938 heartbeat IPC: 2.24 cumulative IPC: 2.36 (Simulation time: 00 hr 06 min 55 sec)
Heartbeat CPU 0 instructions: 90000000 cycles: 28902625 heartbeat IPC: 2.71 cumulative IPC: 2.439 (Simulation time: 00 hr 07 min 57 sec)
Heartbeat CPU 0 instructions: 100000003 cycles: 32797283 heartbeat IPC: 2.568 cumulative IPC: 2.463 (Simulation time: 00 hr 09 min 06 sec)
Heartbeat CPU 0 instructions: 110000002 cycles: 36888882 heartbeat IPC: 2.444 cumulative IPC: 2.46 (Simulation time: 00 hr 10 min 26 sec)
Heartbeat CPU 0 instructions: 120000001 cycles: 40602045 heartbeat IPC: 2.693 cumulative IPC: 2.491 (Simulation time: 00 hr 11 min 36 sec)
Heartbeat CPU 0 instructions: 130000003 cycles: 44366187 heartbeat IPC: 2.657 cumulative IPC: 2.511 (Simulation time: 00 hr 12 min 46 sec)
Heartbeat CPU 0 instructions: 140000002 cycles: 48491614 heartbeat IPC: 2.424 cumulative IPC: 2.501 (Simulation time: 00 hr 13 min 51 sec)
Heartbeat CPU 0 instructions: 150000001 cycles: 52535644 heartbeat IPC: 2.473 cumulative IPC: 2.498 (Simulation time: 00 hr 14 min 53 sec)
Heartbeat CPU 0 instructions: 160000000 cycles: 56184366 heartbeat IPC: 2.741 cumulative IPC: 2.518 (Simulation time: 00 hr 15 min 52 sec)
Heartbeat CPU 0 instructions: 170000001 cycles: 60350038 heartbeat IPC: 2.401 cumulative IPC: 2.508 (Simulation time: 00 hr 16 min 55 sec)
Heartbeat CPU 0 instructions: 180000001 cycles: 63805525 heartbeat IPC: 2.894 cumulative IPC: 2.534 (Simulation time: 00 hr 17 min 56 sec)
Heartbeat CPU 0 instructions: 190000002 cycles: 67382642 heartbeat IPC: 2.796 cumulative IPC: 2.551 (Simulation time: 00 hr 18 min 56 sec)
Heartbeat CPU 0 instructions: 200000002 cycles: 71154696 heartbeat IPC: 2.651 cumulative IPC: 2.557 (Simulation time: 00 hr 19 min 55 sec)
Heartbeat CPU 0 instructions: 210000000 cycles: 74790444 heartbeat IPC: 2.75 cumulative IPC: 2.569 (Simulation time: 00 hr 20 min 53 sec)
Heartbeat CPU 0 instructions: 220000001 cycles: 78659499 heartbeat IPC: 2.585 cumulative IPC: 2.57 (Simulation time: 00 hr 21 min 51 sec)
Heartbeat CPU 0 instructions: 230000002 cycles: 82497402 heartbeat IPC: 2.606 cumulative IPC: 2.572 (Simulation time: 00 hr 22 min 51 sec)
Heartbeat CPU 0 instructions: 240000001 cycles: 86703563 heartbeat IPC: 2.377 cumulative IPC: 2.561 (Simulation time: 00 hr 24 min 01 sec)
Heartbeat CPU 0 instructions: 250000003 cycles: 91273921 heartbeat IPC: 2.188 cumulative IPC: 2.539 (Simulation time: 00 hr 25 min 19 sec)
Heartbeat CPU 0 instructions: 260000000 cycles: 95073878 heartbeat IPC: 2.632 cumulative IPC: 2.543 (Simulation time: 00 hr 26 min 29 sec)
Heartbeat CPU 0 instructions: 270000003 cycles: 101914911 heartbeat IPC: 1.462 cumulative IPC: 2.46 (Simulation time: 00 hr 27 min 58 sec)
Heartbeat CPU 0 instructions: 280000000 cycles: 112722222 heartbeat IPC: 0.9253 cumulative IPC: 2.295 (Simulation time: 00 hr 29 min 57 sec)
Heartbeat CPU 0 instructions: 290000000 cycles: 122404086 heartbeat IPC: 1.033 cumulative IPC: 2.184 (Simulation time: 00 hr 31 min 47 sec)
Heartbeat CPU 0 instructions: 300000003 cycles: 129766319 heartbeat IPC: 1.358 cumulative IPC: 2.132 (Simulation time: 00 hr 33 min 17 sec)
Heartbeat CPU 0 instructions: 310000004 cycles: 140580624 heartbeat IPC: 0.9247 cumulative IPC: 2.03 (Simulation time: 00 hr 35 min 08 sec)
Heartbeat CPU 0 instructions: 320000004 cycles: 145600599 heartbeat IPC: 1.992 cumulative IPC: 2.029 (Simulation time: 00 hr 36 min 16 sec)
Heartbeat CPU 0 instructions: 330000000 cycles: 149669729 heartbeat IPC: 2.458 cumulative IPC: 2.041 (Simulation time: 00 hr 37 min 20 sec)
Heartbeat CPU 0 instructions: 340000001 cycles: 153971207 heartbeat IPC: 2.325 cumulative IPC: 2.05 (Simulation time: 00 hr 38 min 38 sec)
Heartbeat CPU 0 instructions: 350000004 cycles: 158405116 heartbeat IPC: 2.255 cumulative IPC: 2.056 (Simulation time: 00 hr 39 min 55 sec)
Heartbeat CPU 0 instructions: 360000003 cycles: 162540414 heartbeat IPC: 2.418 cumulative IPC: 2.066 (Simulation time: 00 hr 41 min 07 sec)
Heartbeat CPU 0 instructions: 370000001 cycles: 166576370 heartbeat IPC: 2.478 cumulative IPC: 2.077 (Simulation time: 00 hr 42 min 18 sec)
Heartbeat CPU 0 instructions: 380000004 cycles: 170476315 heartbeat IPC: 2.564 cumulative IPC: 2.089 (Simulation time: 00 hr 43 min 24 sec)
Heartbeat CPU 0 instructions: 390000002 cycles: 174546625 heartbeat IPC: 2.457 cumulative IPC: 2.098 (Simulation time: 00 hr 44 min 29 sec)
Heartbeat CPU 0 instructions: 400000000 cycles: 178918588 heartbeat IPC: 2.287 cumulative IPC: 2.103 (Simulation time: 00 hr 45 min 34 sec)
Heartbeat CPU 0 instructions: 410000000 cycles: 186358474 heartbeat IPC: 1.344 cumulative IPC: 2.071 (Simulation time: 00 hr 47 min 09 sec)
Heartbeat CPU 0 instructions: 420000003 cycles: 197146213 heartbeat IPC: 0.927 cumulative IPC: 2.004 (Simulation time: 00 hr 49 min 07 sec)
Heartbeat CPU 0 instructions: 430000000 cycles: 204699613 heartbeat IPC: 1.324 cumulative IPC: 1.977 (Simulation time: 00 hr 50 min 42 sec)
Heartbeat CPU 0 instructions: 440000004 cycles: 211400339 heartbeat IPC: 1.492 cumulative IPC: 1.961 (Simulation time: 00 hr 52 min 09 sec)
Heartbeat CPU 0 instructions: 450000001 cycles: 218130089 heartbeat IPC: 1.486 cumulative IPC: 1.945 (Simulation time: 00 hr 53 min 35 sec)
Heartbeat CPU 0 instructions: 460000002 cycles: 228927776 heartbeat IPC: 0.9261 cumulative IPC: 1.894 (Simulation time: 00 hr 56 min 11 sec)
Heartbeat CPU 0 instructions: 470000003 cycles: 238321959 heartbeat IPC: 1.064 cumulative IPC: 1.86 (Simulation time: 00 hr 58 min 18 sec)
Heartbeat CPU 0 instructions: 480000003 cycles: 242602617 heartbeat IPC: 2.336 cumulative IPC: 1.869 (Simulation time: 00 hr 59 min 29 sec)
Heartbeat CPU 0 instructions: 490000001 cycles: 247307594 heartbeat IPC: 2.125 cumulative IPC: 1.874 (Simulation time: 01 hr 00 min 44 sec)
Heartbeat CPU 0 instructions: 500000002 cycles: 251721171 heartbeat IPC: 2.266 cumulative IPC: 1.881 (Simulation time: 01 hr 01 min 59 sec)
Heartbeat CPU 0 instructions: 510000000 cycles: 255979859 heartbeat IPC: 2.348 cumulative IPC: 1.889 (Simulation time: 01 hr 03 min 10 sec)
Heartbeat CPU 0 instructions: 520000000 cycles: 260420440 heartbeat IPC: 2.252 cumulative IPC: 1.896 (Simulation time: 01 hr 04 min 18 sec)
Heartbeat CPU 0 instructions: 530000001 cycles: 271441281 heartbeat IPC: 0.9074 cumulative IPC: 1.854 (Simulation time: 01 hr 06 min 07 sec)
Heartbeat CPU 0 instructions: 540000000 cycles: 282361364 heartbeat IPC: 0.9157 cumulative IPC: 1.816 (Simulation time: 01 hr 07 min 55 sec)
Heartbeat CPU 0 instructions: 550000004 cycles: 294809715 heartbeat IPC: 0.8033 cumulative IPC: 1.771 (Simulation time: 01 hr 09 min 53 sec)
Heartbeat CPU 0 instructions: 560000004 cycles: 299039757 heartbeat IPC: 2.364 cumulative IPC: 1.78 (Simulation time: 01 hr 10 min 57 sec)
Heartbeat CPU 0 instructions: 570000001 cycles: 302168536 heartbeat IPC: 3.196 cumulative IPC: 1.795 (Simulation time: 01 hr 11 min 53 sec)
Heartbeat CPU 0 instructions: 580000003 cycles: 305715263 heartbeat IPC: 2.82 cumulative IPC: 1.808 (Simulation time: 01 hr 12 min 50 sec)
Heartbeat CPU 0 instructions: 590000002 cycles: 309343945 heartbeat IPC: 2.756 cumulative IPC: 1.819 (Simulation time: 01 hr 13 min 48 sec)
Heartbeat CPU 0 instructions: 600000003 cycles: 312412742 heartbeat IPC: 3.259 cumulative IPC: 1.834 (Simulation time: 01 hr 14 min 44 sec)
Heartbeat CPU 0 instructions: 610000001 cycles: 315921731 heartbeat IPC: 2.85 cumulative IPC: 1.846 (Simulation time: 01 hr 15 min 45 sec)
Heartbeat CPU 0 instructions: 620000000 cycles: 319939149 heartbeat IPC: 2.489 cumulative IPC: 1.854 (Simulation time: 01 hr 16 min 47 sec)
Heartbeat CPU 0 instructions: 630000002 cycles: 323302877 heartbeat IPC: 2.973 cumulative IPC: 1.866 (Simulation time: 01 hr 17 min 44 sec)
Heartbeat CPU 0 instructions: 640000004 cycles: 327312765 heartbeat IPC: 2.494 cumulative IPC: 1.874 (Simulation time: 01 hr 18 min 47 sec)
Heartbeat CPU 0 instructions: 650000001 cycles: 331134741 heartbeat IPC: 2.616 cumulative IPC: 1.883 (Simulation time: 01 hr 19 min 47 sec)
Simulation finished CPU 0 instructions: 600000001 cycles: 318634680 cumulative IPC: 1.883 (Simulation time: 01 hr 19 min 47 sec)
Simulation complete CPU 0 instructions: 600000001 cycles: 318634680 cumulative IPC: 1.883 (Simulation time: 01 hr 19 min 47 sec)

ChampSim completed all CPUs

=== Simulation ===
CPU 0 runs traces/400.perlbench-50B.champsimtrace.xz
Region of Interest Statistics

CPU 0 cumulative IPC: 1.883 instructions: 600000001 cycles: 318634680
CPU 0 Branch Prediction Accuracy: 96.2% MPKI: 7.839 Average ROB Occupancy at Mispredict: 43.52
Branch type MPKI
BRANCH_DIRECT_JUMP: 0.0176
BRANCH_INDIRECT: 0.38
BRANCH_CONDITIONAL: 6.99
BRANCH_DIRECT_CALL: 0.0067
BRANCH_INDIRECT_CALL: 0.431
BRANCH_RETURN: 0.0161

LLC TOTAL        ACCESS:    1378365 HIT:     906047 MISS:     472318
LLC LOAD         ACCESS:     590332 HIT:     378901 MISS:     211431
LLC RFO          ACCESS:      47541 HIT:      27084 MISS:      20457
LLC PREFETCH     ACCESS:     590332 HIT:     363739 MISS:     226593
LLC WRITE        ACCESS:     128180 HIT:     127407 MISS:        773
LLC TRANSLATION  ACCESS:      21980 HIT:       8916 MISS:      13064
LLC PREFETCH REQUESTED:     590332 ISSUED:     590332 USEFUL:      86016 USELESS:      85592
LLC AVERAGE MISS LATENCY: 558.3 cycles
cpu0_DTLB TOTAL        ACCESS:  146508179 HIT:  145202344 MISS:    1305835
cpu0_DTLB LOAD         ACCESS:  146508179 HIT:  145202344 MISS:    1305835
cpu0_DTLB RFO          ACCESS:          0 HIT:          0 MISS:          0
cpu0_DTLB PREFETCH     ACCESS:          0 HIT:          0 MISS:          0
cpu0_DTLB WRITE        ACCESS:          0 HIT:          0 MISS:          0
cpu0_DTLB TRANSLATION  ACCESS:          0 HIT:          0 MISS:          0
cpu0_DTLB PREFETCH REQUESTED:          0 ISSUED:          0 USEFUL:          0 USELESS:          0
cpu0_DTLB AVERAGE MISS LATENCY: 12.9 cycles
cpu0_ITLB TOTAL        ACCESS:    8986654 HIT:    8802059 MISS:     184595
cpu0_ITLB LOAD         ACCESS:    8986654 HIT:    8802059 MISS:     184595
cpu0_ITLB RFO          ACCESS:          0 HIT:          0 MISS:          0
cpu0_ITLB PREFETCH     ACCESS:          0 HIT:          0 MISS:          0
cpu0_ITLB WRITE        ACCESS:          0 HIT:          0 MISS:          0
cpu0_ITLB TRANSLATION  ACCESS:          0 HIT:          0 MISS:          0
cpu0_ITLB PREFETCH REQUESTED:          0 ISSUED:          0 USEFUL:          0 USELESS:          0
cpu0_ITLB AVERAGE MISS LATENCY: 3.916 cycles
cpu0_L1D TOTAL        ACCESS:  193290856 HIT:  189627860 MISS:    3662996
cpu0_L1D LOAD         ACCESS:  107445890 HIT:  104436235 MISS:    3009655
cpu0_L1D RFO          ACCESS:          0 HIT:          0 MISS:          0
cpu0_L1D PREFETCH     ACCESS:          0 HIT:          0 MISS:          0
cpu0_L1D WRITE        ACCESS:   85816437 HIT:   85190203 MISS:     626234
cpu0_L1D TRANSLATION  ACCESS:      28529 HIT:       1422 MISS:      27107
cpu0_L1D PREFETCH REQUESTED:          0 ISSUED:          0 USEFUL:          0 USELESS:          0
cpu0_L1D AVERAGE MISS LATENCY: 46 cycles
cpu0_L1I TOTAL        ACCESS:   10421370 HIT:    8659628 MISS:    1761742
cpu0_L1I LOAD         ACCESS:   10421370 HIT:    8659628 MISS:    1761742
cpu0_L1I RFO          ACCESS:          0 HIT:          0 MISS:          0
cpu0_L1I PREFETCH     ACCESS:          0 HIT:          0 MISS:          0
cpu0_L1I WRITE        ACCESS:          0 HIT:          0 MISS:          0
cpu0_L1I TRANSLATION  ACCESS:          0 HIT:          0 MISS:          0
cpu0_L1I PREFETCH REQUESTED:          0 ISSUED:          0 USEFUL:          0 USELESS:          0
cpu0_L1I AVERAGE MISS LATENCY: 10.7 cycles
cpu0_L2C TOTAL        ACCESS:    3834525 HIT:    3171612 MISS:     662913
cpu0_L2C LOAD         ACCESS:    3104872 HIT:    2514540 MISS:     590332
cpu0_L2C RFO          ACCESS:     191563 HIT:     144022 MISS:      47541
cpu0_L2C PREFETCH     ACCESS:          0 HIT:          0 MISS:          0
cpu0_L2C WRITE        ACCESS:     511053 HIT:     507993 MISS:       3060
cpu0_L2C TRANSLATION  ACCESS:      27037 HIT:       5057 MISS:      21980
cpu0_L2C PREFETCH REQUESTED:          0 ISSUED:          0 USEFUL:          0 USELESS:          0
cpu0_L2C AVERAGE MISS LATENCY: 243.9 cycles
cpu0_STLB TOTAL        ACCESS:    1008840 HIT:     982146 MISS:      26694
cpu0_STLB LOAD         ACCESS:    1008840 HIT:     982146 MISS:      26694
cpu0_STLB RFO          ACCESS:          0 HIT:          0 MISS:          0
cpu0_STLB PREFETCH     ACCESS:          0 HIT:          0 MISS:          0
cpu0_STLB WRITE        ACCESS:          0 HIT:          0 MISS:          0
cpu0_STLB TRANSLATION  ACCESS:          0 HIT:          0 MISS:          0
cpu0_STLB PREFETCH REQUESTED:          0 ISSUED:          0 USEFUL:          0 USELESS:          0
cpu0_STLB AVERAGE MISS LATENCY: 415.8 cycles

DRAM Statistics

Channel 0 RQ ROW_BUFFER_HIT:      79097
  ROW_BUFFER_MISS:     324534
 AVG DBUS CONGESTED CYCLE: 3.872
WQ ROW_BUFFER_HIT: Channel 0 
  ROW_BUFFER_MISS:       6989
  FULL:      43373
