WARNING: physical memory size is smaller than virtual memory size.

*** ChampSim Multicore Out-of-Order Simulator ***
Warmup Instructions: 50000000
Simulation Instructions: 600000000
Number of CPUs: 1
Page size: 4096

CPU 0 Tage branch predictor
Off-chip DRAM Size: 4 GiB Channels: 1 Width: 64-bit Data Race: 3200 MT/s
Heartbeat CPU 0 instructions: 10000001 cycles: 2500318 heartbeat IPC: 3.999 cumulative IPC: 3.999 (Simulation time: 00 hr 01 min 08 sec)
Heartbeat CPU 0 instructions: 20000002 cycles: 5037108 heartbeat IPC: 3.942 cumulative IPC: 3.971 (Simulation time: 00 hr 02 min 19 sec)
Heartbeat CPU 0 instructions: 30000002 cycles: 7537108 heartbeat IPC: 4 cumulative IPC: 3.98 (Simulation time: 00 hr 03 min 17 sec)
Heartbeat CPU 0 instructions: 40000002 cycles: 10037108 heartbeat IPC: 4 cumulative IPC: 3.985 (Simulation time: 00 hr 04 min 14 sec)
Heartbeat CPU 0 instructions: 50000002 cycles: 12537108 heartbeat IPC: 4 cumulative IPC: 3.988 (Simulation time: 00 hr 05 min 09 sec)
Warmup finished CPU 0 instructions: 50000002 cycles: 12537109 cumulative IPC: 3.988 (Simulation time: 00 hr 05 min 09 sec)
Warmup complete CPU 0 instructions: 50000002 cycles: 12537109 cumulative IPC: 3.988 (Simulation time: 00 hr 05 min 09 sec)
Heartbeat CPU 0 instructions: 60000001 cycles: 15516108 heartbeat IPC: 3.357 cumulative IPC: 3.357 (Simulation time: 00 hr 06 min 14 sec)
Heartbeat CPU 0 instructions: 70000004 cycles: 18595124 heartbeat IPC: 3.248 cumulative IPC: 3.301 (Simulation time: 00 hr 07 min 23 sec)
Heartbeat CPU 0 instructions: 80000001 cycles: 21641353 heartbeat IPC: 3.283 cumulative IPC: 3.295 (Simulation time: 00 hr 08 min 30 sec)
Heartbeat CPU 0 instructions: 90000001 cycles: 24592787 heartbeat IPC: 3.388 cumulative IPC: 3.318 (Simulation time: 00 hr 09 min 33 sec)
Heartbeat CPU 0 instructions: 100000000 cycles: 27513501 heartbeat IPC: 3.424 cumulative IPC: 3.339 (Simulation time: 00 hr 10 min 36 sec)
Heartbeat CPU 0 instructions: 110000000 cycles: 30465757 heartbeat IPC: 3.387 cumulative IPC: 3.347 (Simulation time: 00 hr 11 min 39 sec)
Heartbeat CPU 0 instructions: 120000001 cycles: 33439037 heartbeat IPC: 3.363 cumulative IPC: 3.349 (Simulation time: 00 hr 12 min 43 sec)
Heartbeat CPU 0 instructions: 130000001 cycles: 36297686 heartbeat IPC: 3.498 cumulative IPC: 3.367 (Simulation time: 00 hr 13 min 58 sec)
Heartbeat CPU 0 instructions: 140000001 cycles: 39344296 heartbeat IPC: 3.282 cumulative IPC: 3.357 (Simulation time: 00 hr 15 min 18 sec)
Heartbeat CPU 0 instructions: 150000001 cycles: 42361775 heartbeat IPC: 3.314 cumulative IPC: 3.353 (Simulation time: 00 hr 16 min 33 sec)
Heartbeat CPU 0 instructions: 160000004 cycles: 45376883 heartbeat IPC: 3.317 cumulative IPC: 3.35 (Simulation time: 00 hr 17 min 42 sec)
Heartbeat CPU 0 instructions: 170000004 cycles: 53683344 heartbeat IPC: 1.204 cumulative IPC: 2.916 (Simulation time: 00 hr 19 min 32 sec)
Heartbeat CPU 0 instructions: 180000004 cycles: 62906488 heartbeat IPC: 1.084 cumulative IPC: 2.581 (Simulation time: 00 hr 21 min 28 sec)
Heartbeat CPU 0 instructions: 190000001 cycles: 71547120 heartbeat IPC: 1.157 cumulative IPC: 2.372 (Simulation time: 00 hr 23 min 26 sec)
Heartbeat CPU 0 instructions: 200000004 cycles: 74508863 heartbeat IPC: 3.376 cumulative IPC: 2.42 (Simulation time: 00 hr 24 min 30 sec)
Heartbeat CPU 0 instructions: 210000001 cycles: 77466402 heartbeat IPC: 3.381 cumulative IPC: 2.464 (Simulation time: 00 hr 25 min 35 sec)
Heartbeat CPU 0 instructions: 220000000 cycles: 80359221 heartbeat IPC: 3.457 cumulative IPC: 2.507 (Simulation time: 00 hr 26 min 40 sec)
Heartbeat CPU 0 instructions: 230000002 cycles: 83379279 heartbeat IPC: 3.311 cumulative IPC: 2.541 (Simulation time: 00 hr 27 min 58 sec)
Heartbeat CPU 0 instructions: 240000003 cycles: 86418014 heartbeat IPC: 3.291 cumulative IPC: 2.572 (Simulation time: 00 hr 29 min 17 sec)
Heartbeat CPU 0 instructions: 250000000 cycles: 89442595 heartbeat IPC: 3.306 cumulative IPC: 2.601 (Simulation time: 00 hr 30 min 32 sec)
Heartbeat CPU 0 instructions: 260000002 cycles: 92410525 heartbeat IPC: 3.369 cumulative IPC: 2.629 (Simulation time: 00 hr 31 min 46 sec)
Heartbeat CPU 0 instructions: 270000002 cycles: 95314922 heartbeat IPC: 3.443 cumulative IPC: 2.658 (Simulation time: 00 hr 32 min 56 sec)
Heartbeat CPU 0 instructions: 280000002 cycles: 98205410 heartbeat IPC: 3.46 cumulative IPC: 2.685 (Simulation time: 00 hr 34 min 02 sec)
Heartbeat CPU 0 instructions: 290000002 cycles: 101159914 heartbeat IPC: 3.385 cumulative IPC: 2.708 (Simulation time: 00 hr 35 min 07 sec)
Heartbeat CPU 0 instructions: 300000003 cycles: 104059677 heartbeat IPC: 3.449 cumulative IPC: 2.732 (Simulation time: 00 hr 36 min 14 sec)
Heartbeat CPU 0 instructions: 310000001 cycles: 107084872 heartbeat IPC: 3.306 cumulative IPC: 2.75 (Simulation time: 00 hr 37 min 23 sec)
Heartbeat CPU 0 instructions: 320000003 cycles: 110088497 heartbeat IPC: 3.329 cumulative IPC: 2.768 (Simulation time: 00 hr 38 min 29 sec)
Heartbeat CPU 0 instructions: 330000003 cycles: 113064908 heartbeat IPC: 3.36 cumulative IPC: 2.785 (Simulation time: 00 hr 39 min 34 sec)
Heartbeat CPU 0 instructions: 340000000 cycles: 121359451 heartbeat IPC: 1.206 cumulative IPC: 2.665 (Simulation time: 00 hr 41 min 23 sec)
Heartbeat CPU 0 instructions: 350000000 cycles: 130901886 heartbeat IPC: 1.048 cumulative IPC: 2.535 (Simulation time: 00 hr 43 min 18 sec)
Heartbeat CPU 0 instructions: 360000004 cycles: 139428966 heartbeat IPC: 1.173 cumulative IPC: 2.443 (Simulation time: 00 hr 45 min 32 sec)
Heartbeat CPU 0 instructions: 370000000 cycles: 142396540 heartbeat IPC: 3.37 cumulative IPC: 2.464 (Simulation time: 00 hr 46 min 49 sec)
Heartbeat CPU 0 instructions: 380000003 cycles: 145314726 heartbeat IPC: 3.427 cumulative IPC: 2.485 (Simulation time: 00 hr 48 min 00 sec)
Heartbeat CPU 0 instructions: 390000002 cycles: 148291182 heartbeat IPC: 3.36 cumulative IPC: 2.505 (Simulation time: 00 hr 49 min 08 sec)
Heartbeat CPU 0 instructions: 400000004 cycles: 151194458 heartbeat IPC: 3.444 cumulative IPC: 2.524 (Simulation time: 00 hr 50 min 15 sec)
Heartbeat CPU 0 instructions: 410000002 cycles: 154135049 heartbeat IPC: 3.401 cumulative IPC: 2.542 (Simulation time: 00 hr 51 min 29 sec)
Heartbeat CPU 0 instructions: 420000003 cycles: 157284186 heartbeat IPC: 3.175 cumulative IPC: 2.556 (Simulation time: 00 hr 52 min 43 sec)
Heartbeat CPU 0 instructions: 430000001 cycles: 160295127 heartbeat IPC: 3.321 cumulative IPC: 2.572 (Simulation time: 00 hr 53 min 51 sec)
Heartbeat CPU 0 instructions: 440000004 cycles: 163433927 heartbeat IPC: 3.186 cumulative IPC: 2.585 (Simulation time: 00 hr 54 min 55 sec)
Heartbeat CPU 0 instructions: 450000002 cycles: 166358240 heartbeat IPC: 3.42 cumulative IPC: 2.6 (Simulation time: 00 hr 55 min 59 sec)
Heartbeat CPU 0 instructions: 460000000 cycles: 169290349 heartbeat IPC: 3.411 cumulative IPC: 2.616 (Simulation time: 00 hr 57 min 02 sec)
Heartbeat CPU 0 instructions: 470000001 cycles: 172141620 heartbeat IPC: 3.507 cumulative IPC: 2.632 (Simulation time: 00 hr 58 min 05 sec)
Heartbeat CPU 0 instructions: 480000003 cycles: 175224429 heartbeat IPC: 3.244 cumulative IPC: 2.643 (Simulation time: 00 hr 59 min 09 sec)
Heartbeat CPU 0 instructions: 490000004 cycles: 178055487 heartbeat IPC: 3.532 cumulative IPC: 2.658 (Simulation time: 01 hr 00 min 11 sec)
Heartbeat CPU 0 instructions: 500000004 cycles: 181038766 heartbeat IPC: 3.352 cumulative IPC: 2.671 (Simulation time: 01 hr 01 min 15 sec)
Heartbeat CPU 0 instructions: 510000003 cycles: 184103064 heartbeat IPC: 3.263 cumulative IPC: 2.681 (Simulation time: 01 hr 02 min 21 sec)
Heartbeat CPU 0 instructions: 520000001 cycles: 186984963 heartbeat IPC: 3.47 cumulative IPC: 2.694 (Simulation time: 01 hr 03 min 26 sec)
Heartbeat CPU 0 instructions: 530000001 cycles: 190011742 heartbeat IPC: 3.304 cumulative IPC: 2.705 (Simulation time: 01 hr 04 min 31 sec)
Heartbeat CPU 0 instructions: 540000000 cycles: 192963307 heartbeat IPC: 3.388 cumulative IPC: 2.716 (Simulation time: 01 hr 05 min 37 sec)
Heartbeat CPU 0 instructions: 550000001 cycles: 195941833 heartbeat IPC: 3.357 cumulative IPC: 2.726 (Simulation time: 01 hr 06 min 42 sec)
Heartbeat CPU 0 instructions: 560000000 cycles: 199079462 heartbeat IPC: 3.187 cumulative IPC: 2.734 (Simulation time: 01 hr 07 min 45 sec)
Heartbeat CPU 0 instructions: 570000004 cycles: 204323317 heartbeat IPC: 1.907 cumulative IPC: 2.711 (Simulation time: 01 hr 09 min 08 sec)
Heartbeat CPU 0 instructions: 580000003 cycles: 214161585 heartbeat IPC: 1.016 cumulative IPC: 2.629 (Simulation time: 01 hr 11 min 07 sec)
Heartbeat CPU 0 instructions: 590000002 cycles: 225469275 heartbeat IPC: 0.8844 cumulative IPC: 2.536 (Simulation time: 01 hr 13 min 15 sec)
Heartbeat CPU 0 instructions: 600000004 cycles: 228538956 heartbeat IPC: 3.258 cumulative IPC: 2.546 (Simulation time: 01 hr 14 min 12 sec)
Heartbeat CPU 0 instructions: 610000002 cycles: 231503612 heartbeat IPC: 3.373 cumulative IPC: 2.557 (Simulation time: 01 hr 15 min 04 sec)
Heartbeat CPU 0 instructions: 620000001 cycles: 234276174 heartbeat IPC: 3.607 cumulative IPC: 2.571 (Simulation time: 01 hr 15 min 53 sec)
Heartbeat CPU 0 instructions: 630000002 cycles: 237246767 heartbeat IPC: 3.366 cumulative IPC: 2.581 (Simulation time: 01 hr 16 min 42 sec)
Heartbeat CPU 0 instructions: 640000004 cycles: 240197416 heartbeat IPC: 3.389 cumulative IPC: 2.592 (Simulation time: 01 hr 17 min 28 sec)
Heartbeat CPU 0 instructions: 650000000 cycles: 242948001 heartbeat IPC: 3.636 cumulative IPC: 2.604 (Simulation time: 01 hr 18 min 05 sec)
Simulation finished CPU 0 instructions: 600000001 cycles: 230410894 cumulative IPC: 2.604 (Simulation time: 01 hr 18 min 05 sec)
Simulation complete CPU 0 instructions: 600000001 cycles: 230410894 cumulative IPC: 2.604 (Simulation time: 01 hr 18 min 05 sec)

ChampSim completed all CPUs

=== Simulation ===
CPU 0 runs traces/400.perlbench-41B.champsimtrace.xz
Region of Interest Statistics

CPU 0 cumulative IPC: 2.604 instructions: 600000001 cycles: 230410894
CPU 0 Branch Prediction Accuracy: 99.19% MPKI: 1.684 Average ROB Occupancy at Mispredict: 102.7
Branch type MPKI
BRANCH_DIRECT_JUMP: 0.0123
BRANCH_INDIRECT: 0.323
BRANCH_CONDITIONAL: 1.14
BRANCH_DIRECT_CALL: 0.0043
BRANCH_INDIRECT_CALL: 0.2
BRANCH_RETURN: 0.00828

LLC TOTAL        ACCESS:     593300 HIT:     285887 MISS:     307413
LLC LOAD         ACCESS:     403694 HIT:     164632 MISS:     239062
LLC RFO          ACCESS:      32525 HIT:      16246 MISS:      16279
LLC PREFETCH     ACCESS:      52898 HIT:      23986 MISS:      28912
LLC WRITE        ACCESS:      85032 HIT:      72552 MISS:      12480
LLC TRANSLATION  ACCESS:      19151 HIT:       8471 MISS:      10680
LLC PREFETCH REQUESTED:      52898 ISSUED:      52898 USEFUL:      17867 USELESS:       6557
LLC AVERAGE MISS LATENCY: 608.9 cycles
cpu0_DTLB TOTAL        ACCESS:  129779041 HIT:  129073773 MISS:     705268
cpu0_DTLB LOAD         ACCESS:  129779041 HIT:  129073773 MISS:     705268
cpu0_DTLB RFO          ACCESS:          0 HIT:          0 MISS:          0
cpu0_DTLB PREFETCH     ACCESS:          0 HIT:          0 MISS:          0
cpu0_DTLB WRITE        ACCESS:          0 HIT:          0 MISS:          0
cpu0_DTLB TRANSLATION  ACCESS:          0 HIT:          0 MISS:          0
cpu0_DTLB PREFETCH REQUESTED:          0 ISSUED:          0 USEFUL:          0 USELESS:          0
cpu0_DTLB AVERAGE MISS LATENCY: 16.09 cycles
cpu0_ITLB TOTAL        ACCESS:    4879021 HIT:    4816884 MISS:      62137
cpu0_ITLB LOAD         ACCESS:    4879021 HIT:    4816884 MISS:      62137
cpu0_ITLB RFO          ACCESS:          0 HIT:          0 MISS:          0
cpu0_ITLB PREFETCH     ACCESS:          0 HIT:          0 MISS:          0
cpu0_ITLB WRITE        ACCESS:          0 HIT:          0 MISS:          0
cpu0_ITLB TRANSLATION  ACCESS:          0 HIT:          0 MISS:          0
cpu0_ITLB PREFETCH REQUESTED:          0 ISSUED:          0 USEFUL:          0 USELESS:          0
cpu0_ITLB AVERAGE MISS LATENCY: 6.894 cycles
cpu0_L1D TOTAL        ACCESS:  174357003 HIT:  172552356 MISS:    1804647
cpu0_L1D LOAD         ACCESS:   91334369 HIT:   89927855 MISS:    1406514
cpu0_L1D RFO          ACCESS:          0 HIT:          0 MISS:          0
cpu0_L1D PREFETCH     ACCESS:          0 HIT:          0 MISS:          0
cpu0_L1D WRITE        ACCESS:   82998171 HIT:   82623438 MISS:     374733
cpu0_L1D TRANSLATION  ACCESS:      24463 HIT:       1063 MISS:      23400
cpu0_L1D PREFETCH REQUESTED:          0 ISSUED:          0 USEFUL:          0 USELESS:          0
cpu0_L1D AVERAGE MISS LATENCY: 93.02 cycles
cpu0_L1I TOTAL        ACCESS:    5657925 HIT:    4853388 MISS:     804537
cpu0_L1I LOAD         ACCESS:    5657925 HIT:    4853388 MISS:     804537
cpu0_L1I RFO          ACCESS:          0 HIT:          0 MISS:          0
cpu0_L1I PREFETCH     ACCESS:          0 HIT:          0 MISS:          0
cpu0_L1I WRITE        ACCESS:          0 HIT:          0 MISS:          0
cpu0_L1I TRANSLATION  ACCESS:          0 HIT:          0 MISS:          0
cpu0_L1I PREFETCH REQUESTED:          0 ISSUED:          0 USEFUL:          0 USELESS:          0
cpu0_L1I AVERAGE MISS LATENCY: 14.09 cycles
cpu0_L2C TOTAL        ACCESS:    1667822 HIT:    1210625 MISS:     457197
cpu0_L2C LOAD         ACCESS:    1315249 HIT:     911554 MISS:     403695
cpu0_L2C RFO          ACCESS:      89610 HIT:      57084 MISS:      32526
cpu0_L2C PREFETCH     ACCESS:          0 HIT:          0 MISS:          0
cpu0_L2C WRITE        ACCESS:     239639 HIT:     237814 MISS:       1825
cpu0_L2C TRANSLATION  ACCESS:      23324 HIT:       4173 MISS:      19151
cpu0_L2C PREFETCH REQUESTED:          0 ISSUED:          0 USEFUL:          0 USELESS:          0
cpu0_L2C AVERAGE MISS LATENCY: 387.3 cycles
cpu0_STLB TOTAL        ACCESS:     509170 HIT:     486382 MISS:      22788
cpu0_STLB LOAD         ACCESS:     509170 HIT:     486382 MISS:      22788
cpu0_STLB RFO          ACCESS:          0 HIT:          0 MISS:          0
cpu0_STLB PREFETCH     ACCESS:          0 HIT:          0 MISS:          0
cpu0_STLB WRITE        ACCESS:          0 HIT:          0 MISS:          0
cpu0_STLB TRANSLATION  ACCESS:          0 HIT:          0 MISS:          0
cpu0_STLB PREFETCH REQUESTED:          0 ISSUED:          0 USEFUL:          0 USELESS:          0
cpu0_STLB AVERAGE MISS LATENCY: 395 cycles

DRAM Statistics

Channel 0 RQ ROW_BUFFER_HIT:      57764
  ROW_BUFFER_MISS:     231148
 AVG DBUS CONGESTED CYCLE: 3.848
WQ ROW_BUFFER_HIT: Channel 0 
  ROW_BUFFER_MISS:       6243
  FULL:      35085
