WARNING: physical memory size is smaller than virtual memory size.

*** ChampSim Multicore Out-of-Order Simulator ***
Warmup Instructions: 50000000
Simulation Instructions: 600000000
Number of CPUs: 1
Page size: 4096

Off-chip DRAM Size: 4 GiB Channels: 1 Width: 64-bit Data Race: 3200 MT/s
Heartbeat CPU 0 instructions: 10000000 cycles: 2500061 heartbeat IPC: 4 cumulative IPC: 4 (Simulation time: 00 hr 00 min 33 sec)
Heartbeat CPU 0 instructions: 20000000 cycles: 5000061 heartbeat IPC: 4 cumulative IPC: 4 (Simulation time: 00 hr 01 min 07 sec)
Heartbeat CPU 0 instructions: 30000000 cycles: 7500061 heartbeat IPC: 4 cumulative IPC: 4 (Simulation time: 00 hr 01 min 39 sec)
Heartbeat CPU 0 instructions: 40000000 cycles: 10000061 heartbeat IPC: 4 cumulative IPC: 4 (Simulation time: 00 hr 02 min 11 sec)
Heartbeat CPU 0 instructions: 50000000 cycles: 12500061 heartbeat IPC: 4 cumulative IPC: 4 (Simulation time: 00 hr 02 min 43 sec)
Warmup finished CPU 0 instructions: 50000000 cycles: 12500062 cumulative IPC: 4 (Simulation time: 00 hr 02 min 43 sec)
Warmup complete CPU 0 instructions: 50000000 cycles: 12500062 cumulative IPC: 4 (Simulation time: 00 hr 02 min 43 sec)
Heartbeat CPU 0 instructions: 60000002 cycles: 16446623 heartbeat IPC: 2.534 cumulative IPC: 2.534 (Simulation time: 00 hr 03 min 25 sec)
Heartbeat CPU 0 instructions: 70000003 cycles: 20770663 heartbeat IPC: 2.313 cumulative IPC: 2.418 (Simulation time: 00 hr 04 min 10 sec)
Heartbeat CPU 0 instructions: 80000003 cycles: 25247437 heartbeat IPC: 2.234 cumulative IPC: 2.353 (Simulation time: 00 hr 04 min 54 sec)
Heartbeat CPU 0 instructions: 90000000 cycles: 28939876 heartbeat IPC: 2.708 cumulative IPC: 2.433 (Simulation time: 00 hr 05 min 35 sec)
Heartbeat CPU 0 instructions: 100000003 cycles: 32843908 heartbeat IPC: 2.561 cumulative IPC: 2.458 (Simulation time: 00 hr 06 min 18 sec)
Heartbeat CPU 0 instructions: 110000002 cycles: 36950135 heartbeat IPC: 2.435 cumulative IPC: 2.454 (Simulation time: 00 hr 07 min 02 sec)
Heartbeat CPU 0 instructions: 120000001 cycles: 40668359 heartbeat IPC: 2.689 cumulative IPC: 2.485 (Simulation time: 00 hr 07 min 48 sec)
Heartbeat CPU 0 instructions: 130000003 cycles: 44444328 heartbeat IPC: 2.648 cumulative IPC: 2.504 (Simulation time: 00 hr 08 min 33 sec)
Heartbeat CPU 0 instructions: 140000002 cycles: 48579315 heartbeat IPC: 2.418 cumulative IPC: 2.495 (Simulation time: 00 hr 09 min 16 sec)
Heartbeat CPU 0 instructions: 150000001 cycles: 52632664 heartbeat IPC: 2.467 cumulative IPC: 2.492 (Simulation time: 00 hr 10 min 01 sec)
Heartbeat CPU 0 instructions: 160000000 cycles: 56291651 heartbeat IPC: 2.733 cumulative IPC: 2.512 (Simulation time: 00 hr 10 min 42 sec)
Heartbeat CPU 0 instructions: 170000001 cycles: 60472265 heartbeat IPC: 2.392 cumulative IPC: 2.501 (Simulation time: 00 hr 11 min 24 sec)
Heartbeat CPU 0 instructions: 180000001 cycles: 63937266 heartbeat IPC: 2.886 cumulative IPC: 2.527 (Simulation time: 00 hr 12 min 05 sec)
Heartbeat CPU 0 instructions: 190000002 cycles: 67527991 heartbeat IPC: 2.785 cumulative IPC: 2.544 (Simulation time: 00 hr 12 min 47 sec)
Heartbeat CPU 0 instructions: 200000002 cycles: 71313371 heartbeat IPC: 2.642 cumulative IPC: 2.55 (Simulation time: 00 hr 13 min 29 sec)
Heartbeat CPU 0 instructions: 210000000 cycles: 74955304 heartbeat IPC: 2.746 cumulative IPC: 2.562 (Simulation time: 00 hr 14 min 10 sec)
Heartbeat CPU 0 instructions: 220000001 cycles: 78829096 heartbeat IPC: 2.581 cumulative IPC: 2.563 (Simulation time: 00 hr 14 min 52 sec)
Heartbeat CPU 0 instructions: 230000002 cycles: 82672692 heartbeat IPC: 2.602 cumulative IPC: 2.565 (Simulation time: 00 hr 15 min 39 sec)
Heartbeat CPU 0 instructions: 240000001 cycles: 86884508 heartbeat IPC: 2.374 cumulative IPC: 2.554 (Simulation time: 00 hr 16 min 26 sec)
Heartbeat CPU 0 instructions: 250000003 cycles: 91457630 heartbeat IPC: 2.187 cumulative IPC: 2.533 (Simulation time: 00 hr 17 min 15 sec)
Heartbeat CPU 0 instructions: 260000000 cycles: 95254458 heartbeat IPC: 2.634 cumulative IPC: 2.538 (Simulation time: 00 hr 18 min 01 sec)
Heartbeat CPU 0 instructions: 270000003 cycles: 102428698 heartbeat IPC: 1.394 cumulative IPC: 2.446 (Simulation time: 00 hr 19 min 05 sec)
Heartbeat CPU 0 instructions: 280000000 cycles: 113119280 heartbeat IPC: 0.9354 cumulative IPC: 2.286 (Simulation time: 00 hr 20 min 28 sec)
Heartbeat CPU 0 instructions: 290000000 cycles: 122924053 heartbeat IPC: 1.02 cumulative IPC: 2.173 (Simulation time: 00 hr 21 min 49 sec)
Heartbeat CPU 0 instructions: 300000003 cycles: 130877364 heartbeat IPC: 1.257 cumulative IPC: 2.112 (Simulation time: 00 hr 23 min 02 sec)
Heartbeat CPU 0 instructions: 310000004 cycles: 142544326 heartbeat IPC: 0.8571 cumulative IPC: 1.999 (Simulation time: 00 hr 24 min 34 sec)
Heartbeat CPU 0 instructions: 320000004 cycles: 147937071 heartbeat IPC: 1.854 cumulative IPC: 1.994 (Simulation time: 00 hr 25 min 30 sec)
Heartbeat CPU 0 instructions: 330000000 cycles: 152009377 heartbeat IPC: 2.456 cumulative IPC: 2.007 (Simulation time: 00 hr 26 min 17 sec)
Heartbeat CPU 0 instructions: 340000001 cycles: 156341565 heartbeat IPC: 2.308 cumulative IPC: 2.016 (Simulation time: 00 hr 27 min 06 sec)
Heartbeat CPU 0 instructions: 350000004 cycles: 160822413 heartbeat IPC: 2.232 cumulative IPC: 2.023 (Simulation time: 00 hr 27 min 55 sec)
Heartbeat CPU 0 instructions: 360000003 cycles: 164983342 heartbeat IPC: 2.403 cumulative IPC: 2.033 (Simulation time: 00 hr 28 min 42 sec)
Heartbeat CPU 0 instructions: 370000001 cycles: 169010700 heartbeat IPC: 2.483 cumulative IPC: 2.045 (Simulation time: 00 hr 29 min 28 sec)
Heartbeat CPU 0 instructions: 380000004 cycles: 172894644 heartbeat IPC: 2.575 cumulative IPC: 2.057 (Simulation time: 00 hr 30 min 14 sec)
Heartbeat CPU 0 instructions: 390000002 cycles: 177015081 heartbeat IPC: 2.427 cumulative IPC: 2.067 (Simulation time: 00 hr 31 min 01 sec)
Heartbeat CPU 0 instructions: 400000000 cycles: 181431509 heartbeat IPC: 2.264 cumulative IPC: 2.072 (Simulation time: 00 hr 31 min 49 sec)
Heartbeat CPU 0 instructions: 410000000 cycles: 189211798 heartbeat IPC: 1.285 cumulative IPC: 2.037 (Simulation time: 00 hr 32 min 55 sec)
Heartbeat CPU 0 instructions: 420000003 cycles: 200030038 heartbeat IPC: 0.9244 cumulative IPC: 1.973 (Simulation time: 00 hr 34 min 16 sec)
Heartbeat CPU 0 instructions: 430000000 cycles: 207978160 heartbeat IPC: 1.258 cumulative IPC: 1.944 (Simulation time: 00 hr 35 min 27 sec)
Heartbeat CPU 0 instructions: 440000004 cycles: 215542191 heartbeat IPC: 1.322 cumulative IPC: 1.921 (Simulation time: 00 hr 36 min 37 sec)
Heartbeat CPU 0 instructions: 450000001 cycles: 222923536 heartbeat IPC: 1.355 cumulative IPC: 1.901 (Simulation time: 00 hr 37 min 45 sec)
Heartbeat CPU 0 instructions: 460000002 cycles: 234743989 heartbeat IPC: 0.846 cumulative IPC: 1.845 (Simulation time: 00 hr 39 min 17 sec)
Heartbeat CPU 0 instructions: 470000003 cycles: 244975262 heartbeat IPC: 0.9774 cumulative IPC: 1.807 (Simulation time: 00 hr 40 min 42 sec)
Heartbeat CPU 0 instructions: 480000003 cycles: 249285409 heartbeat IPC: 2.32 cumulative IPC: 1.816 (Simulation time: 00 hr 41 min 30 sec)
Heartbeat CPU 0 instructions: 490000001 cycles: 253944384 heartbeat IPC: 2.146 cumulative IPC: 1.822 (Simulation time: 00 hr 42 min 21 sec)
Heartbeat CPU 0 instructions: 500000002 cycles: 258373991 heartbeat IPC: 2.258 cumulative IPC: 1.83 (Simulation time: 00 hr 43 min 10 sec)
Heartbeat CPU 0 instructions: 510000000 cycles: 262584167 heartbeat IPC: 2.375 cumulative IPC: 1.839 (Simulation time: 00 hr 43 min 58 sec)
Heartbeat CPU 0 instructions: 520000000 cycles: 266971450 heartbeat IPC: 2.279 cumulative IPC: 1.847 (Simulation time: 00 hr 44 min 49 sec)
Heartbeat CPU 0 instructions: 530000001 cycles: 278681126 heartbeat IPC: 0.854 cumulative IPC: 1.803 (Simulation time: 00 hr 46 min 22 sec)
Heartbeat CPU 0 instructions: 540000000 cycles: 289894883 heartbeat IPC: 0.8918 cumulative IPC: 1.766 (Simulation time: 00 hr 47 min 53 sec)
Heartbeat CPU 0 instructions: 550000004 cycles: 303176488 heartbeat IPC: 0.7529 cumulative IPC: 1.72 (Simulation time: 00 hr 49 min 37 sec)
Heartbeat CPU 0 instructions: 560000004 cycles: 307560357 heartbeat IPC: 2.281 cumulative IPC: 1.728 (Simulation time: 00 hr 50 min 28 sec)
Heartbeat CPU 0 instructions: 570000001 cycles: 310696730 heartbeat IPC: 3.188 cumulative IPC: 1.744 (Simulation time: 00 hr 51 min 12 sec)
Heartbeat CPU 0 instructions: 580000003 cycles: 314242314 heartbeat IPC: 2.82 cumulative IPC: 1.756 (Simulation time: 00 hr 51 min 57 sec)
Heartbeat CPU 0 instructions: 590000002 cycles: 317872905 heartbeat IPC: 2.754 cumulative IPC: 1.768 (Simulation time: 00 hr 52 min 41 sec)
Heartbeat CPU 0 instructions: 600000003 cycles: 320940081 heartbeat IPC: 3.26 cumulative IPC: 1.783 (Simulation time: 00 hr 53 min 24 sec)
Heartbeat CPU 0 instructions: 610000001 cycles: 324450845 heartbeat IPC: 2.848 cumulative IPC: 1.795 (Simulation time: 00 hr 54 min 09 sec)
Heartbeat CPU 0 instructions: 620000000 cycles: 328468571 heartbeat IPC: 2.489 cumulative IPC: 1.804 (Simulation time: 00 hr 54 min 56 sec)
Heartbeat CPU 0 instructions: 630000002 cycles: 331837192 heartbeat IPC: 2.969 cumulative IPC: 1.816 (Simulation time: 00 hr 55 min 36 sec)
Heartbeat CPU 0 instructions: 640000004 cycles: 335851422 heartbeat IPC: 2.491 cumulative IPC: 1.825 (Simulation time: 00 hr 56 min 22 sec)
Heartbeat CPU 0 instructions: 650000001 cycles: 339675232 heartbeat IPC: 2.615 cumulative IPC: 1.834 (Simulation time: 00 hr 57 min 10 sec)
Simulation finished CPU 0 instructions: 600000001 cycles: 327175171 cumulative IPC: 1.834 (Simulation time: 00 hr 57 min 10 sec)
Simulation complete CPU 0 instructions: 600000001 cycles: 327175171 cumulative IPC: 1.834 (Simulation time: 00 hr 57 min 10 sec)

ChampSim completed all CPUs

=== Simulation ===
CPU 0 runs traces/400.perlbench-50B.champsimtrace.xz
Region of Interest Statistics

CPU 0 cumulative IPC: 1.834 instructions: 600000001 cycles: 327175171
CPU 0 Branch Prediction Accuracy: 96.2% MPKI: 7.839 Average ROB Occupancy at Mispredict: 43.84
Branch type MPKI
BRANCH_DIRECT_JUMP: 0.0176
BRANCH_INDIRECT: 0.38
BRANCH_CONDITIONAL: 6.99
BRANCH_DIRECT_CALL: 0.0067
BRANCH_INDIRECT_CALL: 0.431
BRANCH_RETURN: 0.0161

LLC TOTAL        ACCESS:     783620 HIT:     470056 MISS:     313564
LLC LOAD         ACCESS:     585842 HIT:     315643 MISS:     270199
LLC RFO          ACCESS:      47533 HIT:      33892 MISS:      13641
LLC PREFETCH     ACCESS:          0 HIT:          0 MISS:          0
LLC WRITE        ACCESS:     128133 HIT:     114645 MISS:      13488
LLC TRANSLATION  ACCESS:      22112 HIT:       5876 MISS:      16236
LLC PREFETCH REQUESTED:          0 ISSUED:          0 USEFUL:          0 USELESS:          0
LLC AVERAGE MISS LATENCY: 475 cycles
cpu0_DTLB TOTAL        ACCESS:  146503092 HIT:  145196036 MISS:    1307056
cpu0_DTLB LOAD         ACCESS:  146503092 HIT:  145196036 MISS:    1307056
cpu0_DTLB RFO          ACCESS:          0 HIT:          0 MISS:          0
cpu0_DTLB PREFETCH     ACCESS:          0 HIT:          0 MISS:          0
cpu0_DTLB WRITE        ACCESS:          0 HIT:          0 MISS:          0
cpu0_DTLB TRANSLATION  ACCESS:          0 HIT:          0 MISS:          0
cpu0_DTLB PREFETCH REQUESTED:          0 ISSUED:          0 USEFUL:          0 USELESS:          0
cpu0_DTLB AVERAGE MISS LATENCY: 13.36 cycles
cpu0_ITLB TOTAL        ACCESS:    8991297 HIT:    8806729 MISS:     184568
cpu0_ITLB LOAD         ACCESS:    8991297 HIT:    8806729 MISS:     184568
cpu0_ITLB RFO          ACCESS:          0 HIT:          0 MISS:          0
cpu0_ITLB PREFETCH     ACCESS:          0 HIT:          0 MISS:          0
cpu0_ITLB WRITE        ACCESS:          0 HIT:          0 MISS:          0
cpu0_ITLB TRANSLATION  ACCESS:          0 HIT:          0 MISS:          0
cpu0_ITLB PREFETCH REQUESTED:          0 ISSUED:          0 USEFUL:          0 USELESS:          0
cpu0_ITLB AVERAGE MISS LATENCY: 3.663 cycles
cpu0_L1D TOTAL        ACCESS:  193262680 HIT:  189611278 MISS:    3651402
cpu0_L1D LOAD         ACCESS:  107417626 HIT:  104403525 MISS:    3014101
cpu0_L1D RFO          ACCESS:          0 HIT:          0 MISS:          0
cpu0_L1D PREFETCH     ACCESS:          0 HIT:          0 MISS:          0
cpu0_L1D WRITE        ACCESS:   85816529 HIT:   85206334 MISS:     610195
cpu0_L1D TRANSLATION  ACCESS:      28525 HIT:       1419 MISS:      27106
cpu0_L1D PREFETCH REQUESTED:          0 ISSUED:          0 USEFUL:          0 USELESS:          0
cpu0_L1D AVERAGE MISS LATENCY: 44.9 cycles
cpu0_L1I TOTAL        ACCESS:   10425333 HIT:    8663117 MISS:    1762216
cpu0_L1I LOAD         ACCESS:   10425333 HIT:    8663117 MISS:    1762216
cpu0_L1I RFO          ACCESS:          0 HIT:          0 MISS:          0
cpu0_L1I PREFETCH     ACCESS:          0 HIT:          0 MISS:          0
cpu0_L1I WRITE        ACCESS:          0 HIT:          0 MISS:          0
cpu0_L1I TRANSLATION  ACCESS:          0 HIT:          0 MISS:          0
cpu0_L1I PREFETCH REQUESTED:          0 ISSUED:          0 USEFUL:          0 USELESS:          0
cpu0_L1I AVERAGE MISS LATENCY: 13.78 cycles
cpu0_L2C TOTAL        ACCESS:    3834454 HIT:    3175782 MISS:     658672
cpu0_L2C LOAD         ACCESS:    3104934 HIT:    2519092 MISS:     585842
cpu0_L2C RFO          ACCESS:     191532 HIT:     143999 MISS:      47533
cpu0_L2C PREFETCH     ACCESS:          0 HIT:          0 MISS:          0
cpu0_L2C WRITE        ACCESS:     510953 HIT:     507768 MISS:       3185
cpu0_L2C TRANSLATION  ACCESS:      27035 HIT:       4923 MISS:      22112
cpu0_L2C PREFETCH REQUESTED:          0 ISSUED:          0 USEFUL:          0 USELESS:          0
cpu0_L2C AVERAGE MISS LATENCY: 246.5 cycles
cpu0_STLB TOTAL        ACCESS:    1008802 HIT:     982109 MISS:      26693
cpu0_STLB LOAD         ACCESS:    1008802 HIT:     982109 MISS:      26693
cpu0_STLB RFO          ACCESS:          0 HIT:          0 MISS:          0
cpu0_STLB PREFETCH     ACCESS:          0 HIT:          0 MISS:          0
cpu0_STLB WRITE        ACCESS:          0 HIT:          0 MISS:          0
cpu0_STLB TRANSLATION  ACCESS:          0 HIT:          0 MISS:          0
cpu0_STLB PREFETCH REQUESTED:          0 ISSUED:          0 USEFUL:          0 USELESS:          0
cpu0_STLB AVERAGE MISS LATENCY: 438 cycles

DRAM Statistics

Channel 0 RQ ROW_BUFFER_HIT:      70374
  ROW_BUFFER_MISS:     229648
 AVG DBUS CONGESTED CYCLE: 3.723
WQ ROW_BUFFER_HIT: Channel 0 
  ROW_BUFFER_MISS:       6751
  FULL:      11779
