WARNING: physical memory size is smaller than virtual memory size.

*** ChampSim Multicore Out-of-Order Simulator ***
Warmup Instructions: 50000000
Simulation Instructions: 600000000
Number of CPUs: 1
Page size: 4096

Off-chip DRAM Size: 4 GiB Channels: 1 Width: 64-bit Data Race: 3200 MT/s
Heartbeat CPU 0 instructions: 10000001 cycles: 2500318 heartbeat IPC: 3.999 cumulative IPC: 3.999 (Simulation time: 00 hr 00 min 36 sec)
Heartbeat CPU 0 instructions: 20000002 cycles: 5037110 heartbeat IPC: 3.942 cumulative IPC: 3.971 (Simulation time: 00 hr 01 min 13 sec)
Heartbeat CPU 0 instructions: 30000002 cycles: 7537110 heartbeat IPC: 4 cumulative IPC: 3.98 (Simulation time: 00 hr 01 min 46 sec)
Heartbeat CPU 0 instructions: 40000002 cycles: 10037110 heartbeat IPC: 4 cumulative IPC: 3.985 (Simulation time: 00 hr 02 min 20 sec)
Heartbeat CPU 0 instructions: 50000002 cycles: 12537110 heartbeat IPC: 4 cumulative IPC: 3.988 (Simulation time: 00 hr 02 min 54 sec)
Warmup finished CPU 0 instructions: 50000002 cycles: 12537111 cumulative IPC: 3.988 (Simulation time: 00 hr 02 min 54 sec)
Warmup complete CPU 0 instructions: 50000002 cycles: 12537111 cumulative IPC: 3.988 (Simulation time: 00 hr 02 min 54 sec)
Heartbeat CPU 0 instructions: 60000000 cycles: 17716969 heartbeat IPC: 1.931 cumulative IPC: 1.931 (Simulation time: 00 hr 03 min 46 sec)
Heartbeat CPU 0 instructions: 70000002 cycles: 22621568 heartbeat IPC: 2.039 cumulative IPC: 1.983 (Simulation time: 00 hr 04 min 37 sec)
Heartbeat CPU 0 instructions: 80000001 cycles: 28002479 heartbeat IPC: 1.858 cumulative IPC: 1.94 (Simulation time: 00 hr 05 min 30 sec)
Heartbeat CPU 0 instructions: 90000001 cycles: 32891188 heartbeat IPC: 2.046 cumulative IPC: 1.965 (Simulation time: 00 hr 06 min 23 sec)
Heartbeat CPU 0 instructions: 100000000 cycles: 38018046 heartbeat IPC: 1.951 cumulative IPC: 1.962 (Simulation time: 00 hr 07 min 16 sec)
Heartbeat CPU 0 instructions: 110000000 cycles: 42917739 heartbeat IPC: 2.041 cumulative IPC: 1.975 (Simulation time: 00 hr 08 min 07 sec)
Heartbeat CPU 0 instructions: 120000001 cycles: 48118792 heartbeat IPC: 1.923 cumulative IPC: 1.967 (Simulation time: 00 hr 08 min 59 sec)
Heartbeat CPU 0 instructions: 130000001 cycles: 53282061 heartbeat IPC: 1.937 cumulative IPC: 1.963 (Simulation time: 00 hr 09 min 52 sec)
Heartbeat CPU 0 instructions: 140000001 cycles: 58608189 heartbeat IPC: 1.878 cumulative IPC: 1.954 (Simulation time: 00 hr 10 min 46 sec)
Heartbeat CPU 0 instructions: 150000001 cycles: 63948988 heartbeat IPC: 1.872 cumulative IPC: 1.945 (Simulation time: 00 hr 11 min 39 sec)
Heartbeat CPU 0 instructions: 160000004 cycles: 69165103 heartbeat IPC: 1.917 cumulative IPC: 1.943 (Simulation time: 00 hr 12 min 32 sec)
Heartbeat CPU 0 instructions: 170000000 cycles: 78552052 heartbeat IPC: 1.065 cumulative IPC: 1.818 (Simulation time: 00 hr 13 min 51 sec)
Heartbeat CPU 0 instructions: 180000004 cycles: 87350087 heartbeat IPC: 1.137 cumulative IPC: 1.738 (Simulation time: 00 hr 15 min 09 sec)
Heartbeat CPU 0 instructions: 190000001 cycles: 98458318 heartbeat IPC: 0.9002 cumulative IPC: 1.629 (Simulation time: 00 hr 16 min 39 sec)
Heartbeat CPU 0 instructions: 200000003 cycles: 103230969 heartbeat IPC: 2.095 cumulative IPC: 1.654 (Simulation time: 00 hr 17 min 28 sec)
Heartbeat CPU 0 instructions: 210000001 cycles: 108149930 heartbeat IPC: 2.033 cumulative IPC: 1.673 (Simulation time: 00 hr 18 min 19 sec)
Heartbeat CPU 0 instructions: 220000000 cycles: 112982325 heartbeat IPC: 2.069 cumulative IPC: 1.692 (Simulation time: 00 hr 19 min 07 sec)
Heartbeat CPU 0 instructions: 230000002 cycles: 118285871 heartbeat IPC: 1.886 cumulative IPC: 1.702 (Simulation time: 00 hr 19 min 59 sec)
Heartbeat CPU 0 instructions: 240000000 cycles: 123124056 heartbeat IPC: 2.067 cumulative IPC: 1.718 (Simulation time: 00 hr 20 min 50 sec)
Heartbeat CPU 0 instructions: 250000000 cycles: 128268231 heartbeat IPC: 1.944 cumulative IPC: 1.728 (Simulation time: 00 hr 21 min 40 sec)
Heartbeat CPU 0 instructions: 260000000 cycles: 133291879 heartbeat IPC: 1.991 cumulative IPC: 1.739 (Simulation time: 00 hr 22 min 30 sec)
Heartbeat CPU 0 instructions: 270000002 cycles: 138179163 heartbeat IPC: 2.046 cumulative IPC: 1.751 (Simulation time: 00 hr 23 min 21 sec)
Heartbeat CPU 0 instructions: 280000002 cycles: 143078822 heartbeat IPC: 2.041 cumulative IPC: 1.762 (Simulation time: 00 hr 24 min 12 sec)
Heartbeat CPU 0 instructions: 290000001 cycles: 148443205 heartbeat IPC: 1.864 cumulative IPC: 1.766 (Simulation time: 00 hr 25 min 03 sec)
Heartbeat CPU 0 instructions: 300000003 cycles: 153488012 heartbeat IPC: 1.982 cumulative IPC: 1.774 (Simulation time: 00 hr 25 min 52 sec)
Heartbeat CPU 0 instructions: 310000001 cycles: 158776987 heartbeat IPC: 1.891 cumulative IPC: 1.778 (Simulation time: 00 hr 26 min 42 sec)
Heartbeat CPU 0 instructions: 320000003 cycles: 163979005 heartbeat IPC: 1.922 cumulative IPC: 1.783 (Simulation time: 00 hr 27 min 31 sec)
Heartbeat CPU 0 instructions: 330000003 cycles: 169266125 heartbeat IPC: 1.891 cumulative IPC: 1.787 (Simulation time: 00 hr 28 min 21 sec)
Heartbeat CPU 0 instructions: 340000000 cycles: 178690354 heartbeat IPC: 1.061 cumulative IPC: 1.745 (Simulation time: 00 hr 29 min 35 sec)
Heartbeat CPU 0 instructions: 350000000 cycles: 188108803 heartbeat IPC: 1.062 cumulative IPC: 1.709 (Simulation time: 00 hr 30 min 51 sec)
Heartbeat CPU 0 instructions: 360000004 cycles: 198939022 heartbeat IPC: 0.9233 cumulative IPC: 1.663 (Simulation time: 00 hr 32 min 13 sec)
Heartbeat CPU 0 instructions: 370000000 cycles: 203352654 heartbeat IPC: 2.266 cumulative IPC: 1.677 (Simulation time: 00 hr 33 min 00 sec)
Heartbeat CPU 0 instructions: 380000001 cycles: 208270840 heartbeat IPC: 2.033 cumulative IPC: 1.686 (Simulation time: 00 hr 33 min 49 sec)
Heartbeat CPU 0 instructions: 390000002 cycles: 213093645 heartbeat IPC: 2.073 cumulative IPC: 1.695 (Simulation time: 00 hr 34 min 37 sec)
Heartbeat CPU 0 instructions: 400000004 cycles: 218032559 heartbeat IPC: 2.025 cumulative IPC: 1.703 (Simulation time: 00 hr 35 min 26 sec)
Heartbeat CPU 0 instructions: 410000000 cycles: 222753891 heartbeat IPC: 2.118 cumulative IPC: 1.713 (Simulation time: 00 hr 36 min 13 sec)
Heartbeat CPU 0 instructions: 420000000 cycles: 227854222 heartbeat IPC: 1.961 cumulative IPC: 1.718 (Simulation time: 00 hr 37 min 02 sec)
Heartbeat CPU 0 instructions: 430000001 cycles: 232326763 heartbeat IPC: 2.236 cumulative IPC: 1.729 (Simulation time: 00 hr 37 min 48 sec)
Heartbeat CPU 0 instructions: 440000000 cycles: 237681707 heartbeat IPC: 1.867 cumulative IPC: 1.732 (Simulation time: 00 hr 38 min 38 sec)
Heartbeat CPU 0 instructions: 450000002 cycles: 242343604 heartbeat IPC: 2.145 cumulative IPC: 1.741 (Simulation time: 00 hr 39 min 25 sec)
Heartbeat CPU 0 instructions: 460000000 cycles: 247142607 heartbeat IPC: 2.084 cumulative IPC: 1.748 (Simulation time: 00 hr 40 min 13 sec)
Heartbeat CPU 0 instructions: 470000000 cycles: 252122083 heartbeat IPC: 2.008 cumulative IPC: 1.753 (Simulation time: 00 hr 41 min 01 sec)
Heartbeat CPU 0 instructions: 480000003 cycles: 256918567 heartbeat IPC: 2.085 cumulative IPC: 1.76 (Simulation time: 00 hr 41 min 48 sec)
Heartbeat CPU 0 instructions: 490000000 cycles: 261527291 heartbeat IPC: 2.17 cumulative IPC: 1.767 (Simulation time: 00 hr 42 min 35 sec)
Heartbeat CPU 0 instructions: 500000000 cycles: 266550339 heartbeat IPC: 1.991 cumulative IPC: 1.772 (Simulation time: 00 hr 43 min 24 sec)
Heartbeat CPU 0 instructions: 510000003 cycles: 272199865 heartbeat IPC: 1.77 cumulative IPC: 1.772 (Simulation time: 00 hr 44 min 16 sec)
Heartbeat CPU 0 instructions: 520000001 cycles: 276886805 heartbeat IPC: 2.134 cumulative IPC: 1.778 (Simulation time: 00 hr 45 min 03 sec)
Heartbeat CPU 0 instructions: 530000002 cycles: 282037172 heartbeat IPC: 1.942 cumulative IPC: 1.781 (Simulation time: 00 hr 45 min 55 sec)
Heartbeat CPU 0 instructions: 540000000 cycles: 287154914 heartbeat IPC: 1.954 cumulative IPC: 1.784 (Simulation time: 00 hr 46 min 45 sec)
Heartbeat CPU 0 instructions: 550000001 cycles: 291959853 heartbeat IPC: 2.081 cumulative IPC: 1.789 (Simulation time: 00 hr 47 min 34 sec)
Heartbeat CPU 0 instructions: 560000000 cycles: 297204358 heartbeat IPC: 1.907 cumulative IPC: 1.792 (Simulation time: 00 hr 48 min 24 sec)
Heartbeat CPU 0 instructions: 570000004 cycles: 304289945 heartbeat IPC: 1.411 cumulative IPC: 1.782 (Simulation time: 00 hr 49 min 26 sec)
Heartbeat CPU 0 instructions: 580000003 cycles: 313739056 heartbeat IPC: 1.058 cumulative IPC: 1.76 (Simulation time: 00 hr 50 min 44 sec)
Heartbeat CPU 0 instructions: 590000002 cycles: 326740602 heartbeat IPC: 0.7691 cumulative IPC: 1.719 (Simulation time: 00 hr 52 min 17 sec)
Heartbeat CPU 0 instructions: 600000000 cycles: 331333559 heartbeat IPC: 2.177 cumulative IPC: 1.725 (Simulation time: 00 hr 53 min 03 sec)
Heartbeat CPU 0 instructions: 610000002 cycles: 335824645 heartbeat IPC: 2.227 cumulative IPC: 1.732 (Simulation time: 00 hr 53 min 49 sec)
Heartbeat CPU 0 instructions: 620000000 cycles: 340628295 heartbeat IPC: 2.082 cumulative IPC: 1.737 (Simulation time: 00 hr 54 min 36 sec)
Heartbeat CPU 0 instructions: 630000002 cycles: 345712845 heartbeat IPC: 1.967 cumulative IPC: 1.741 (Simulation time: 00 hr 55 min 26 sec)
Heartbeat CPU 0 instructions: 640000001 cycles: 350568711 heartbeat IPC: 2.059 cumulative IPC: 1.745 (Simulation time: 00 hr 56 min 17 sec)
Heartbeat CPU 0 instructions: 650000000 cycles: 355124695 heartbeat IPC: 2.195 cumulative IPC: 1.751 (Simulation time: 00 hr 57 min 06 sec)
Simulation finished CPU 0 instructions: 600000001 cycles: 342587586 cumulative IPC: 1.751 (Simulation time: 00 hr 57 min 06 sec)
Simulation complete CPU 0 instructions: 600000001 cycles: 342587586 cumulative IPC: 1.751 (Simulation time: 00 hr 57 min 06 sec)

ChampSim completed all CPUs

=== Simulation ===
CPU 0 runs traces/400.perlbench-41B.champsimtrace.xz
Region of Interest Statistics

CPU 0 cumulative IPC: 1.751 instructions: 600000001 cycles: 342587586
CPU 0 Branch Prediction Accuracy: 93.95% MPKI: 12.5 Average ROB Occupancy at Mispredict: 29.67
Branch type MPKI
BRANCH_DIRECT_JUMP: 0.0123
BRANCH_INDIRECT: 0.323
BRANCH_CONDITIONAL: 12
BRANCH_DIRECT_CALL: 0.0043
BRANCH_INDIRECT_CALL: 0.2
BRANCH_RETURN: 0.00828

LLC TOTAL        ACCESS:     595837 HIT:     351263 MISS:     244574
LLC LOAD         ACCESS:     403716 HIT:     221262 MISS:     182454
LLC RFO          ACCESS:      32555 HIT:      17077 MISS:      15478
LLC PREFETCH     ACCESS:      54791 HIT:      44307 MISS:      10484
LLC WRITE        ACCESS:      85719 HIT:      63764 MISS:      21955
LLC TRANSLATION  ACCESS:      19056 HIT:       4853 MISS:      14203
LLC PREFETCH REQUESTED:      54791 ISSUED:      54791 USEFUL:       3650 USELESS:       5658
LLC AVERAGE MISS LATENCY: 491.7 cycles
cpu0_DTLB TOTAL        ACCESS:  153667594 HIT:  152989415 MISS:     678179
cpu0_DTLB LOAD         ACCESS:  153667594 HIT:  152989415 MISS:     678179
cpu0_DTLB RFO          ACCESS:          0 HIT:          0 MISS:          0
cpu0_DTLB PREFETCH     ACCESS:          0 HIT:          0 MISS:          0
cpu0_DTLB WRITE        ACCESS:          0 HIT:          0 MISS:          0
cpu0_DTLB TRANSLATION  ACCESS:          0 HIT:          0 MISS:          0
cpu0_DTLB PREFETCH REQUESTED:          0 ISSUED:          0 USEFUL:          0 USELESS:          0
cpu0_DTLB AVERAGE MISS LATENCY: 18.64 cycles
cpu0_ITLB TOTAL        ACCESS:    4839585 HIT:    4781732 MISS:      57853
cpu0_ITLB LOAD         ACCESS:    4839585 HIT:    4781732 MISS:      57853
cpu0_ITLB RFO          ACCESS:          0 HIT:          0 MISS:          0
cpu0_ITLB PREFETCH     ACCESS:          0 HIT:          0 MISS:          0
cpu0_ITLB WRITE        ACCESS:          0 HIT:          0 MISS:          0
cpu0_ITLB TRANSLATION  ACCESS:          0 HIT:          0 MISS:          0
cpu0_ITLB PREFETCH REQUESTED:          0 ISSUED:          0 USEFUL:          0 USELESS:          0
cpu0_ITLB AVERAGE MISS LATENCY: 6.837 cycles
cpu0_L1D TOTAL        ACCESS:  200279580 HIT:  198561474 MISS:    1718106
cpu0_L1D LOAD         ACCESS:  117037061 HIT:  115702338 MISS:    1334723
cpu0_L1D RFO          ACCESS:          0 HIT:          0 MISS:          0
cpu0_L1D PREFETCH     ACCESS:          0 HIT:          0 MISS:          0
cpu0_L1D WRITE        ACCESS:   83218057 HIT:   82858099 MISS:     359958
cpu0_L1D TRANSLATION  ACCESS:      24462 HIT:       1037 MISS:      23425
cpu0_L1D PREFETCH REQUESTED:          0 ISSUED:          0 USEFUL:          0 USELESS:          0
cpu0_L1D AVERAGE MISS LATENCY: 72.96 cycles
cpu0_L1I TOTAL        ACCESS:    5581752 HIT:    4820337 MISS:     761415
cpu0_L1I LOAD         ACCESS:    5581752 HIT:    4820337 MISS:     761415
cpu0_L1I RFO          ACCESS:          0 HIT:          0 MISS:          0
cpu0_L1I PREFETCH     ACCESS:          0 HIT:          0 MISS:          0
cpu0_L1I WRITE        ACCESS:          0 HIT:          0 MISS:          0
cpu0_L1I TRANSLATION  ACCESS:          0 HIT:          0 MISS:          0
cpu0_L1I PREFETCH REQUESTED:          0 ISSUED:          0 USEFUL:          0 USELESS:          0
cpu0_L1I AVERAGE MISS LATENCY: 10.52 cycles
cpu0_L2C TOTAL        ACCESS:    1667888 HIT:    1210743 MISS:     457145
cpu0_L2C LOAD         ACCESS:    1317060 HIT:     913344 MISS:     403716
cpu0_L2C RFO          ACCESS:      88615 HIT:      56060 MISS:      32555
cpu0_L2C PREFETCH     ACCESS:          0 HIT:          0 MISS:          0
cpu0_L2C WRITE        ACCESS:     238869 HIT:     237051 MISS:       1818
cpu0_L2C TRANSLATION  ACCESS:      23344 HIT:       4288 MISS:      19056
cpu0_L2C PREFETCH REQUESTED:          0 ISSUED:          0 USEFUL:          0 USELESS:          0
cpu0_L2C AVERAGE MISS LATENCY: 268.8 cycles
cpu0_STLB TOTAL        ACCESS:     505155 HIT:     482365 MISS:      22790
cpu0_STLB LOAD         ACCESS:     505155 HIT:     482365 MISS:      22790
cpu0_STLB RFO          ACCESS:          0 HIT:          0 MISS:          0
cpu0_STLB PREFETCH     ACCESS:          0 HIT:          0 MISS:          0
cpu0_STLB WRITE        ACCESS:          0 HIT:          0 MISS:          0
cpu0_STLB TRANSLATION  ACCESS:          0 HIT:          0 MISS:          0
cpu0_STLB PREFETCH REQUESTED:          0 ISSUED:          0 USEFUL:          0 USELESS:          0
cpu0_STLB AVERAGE MISS LATENCY: 434 cycles

DRAM Statistics

Channel 0 RQ ROW_BUFFER_HIT:      38513
  ROW_BUFFER_MISS:     182768
 AVG DBUS CONGESTED CYCLE: 3.79
WQ ROW_BUFFER_HIT: Channel 0 
  ROW_BUFFER_MISS:       9288
  FULL:      23325
