WARNING: physical memory size is smaller than virtual memory size.

*** ChampSim Multicore Out-of-Order Simulator ***
Warmup Instructions: 50000000
Simulation Instructions: 600000000
Number of CPUs: 1
Page size: 4096

Off-chip DRAM Size: 4 GiB Channels: 1 Width: 64-bit Data Race: 3200 MT/s
Heartbeat CPU 0 instructions: 10000000 cycles: 2500061 heartbeat IPC: 4 cumulative IPC: 4 (Simulation time: 00 hr 00 min 53 sec)
Heartbeat CPU 0 instructions: 20000000 cycles: 5000061 heartbeat IPC: 4 cumulative IPC: 4 (Simulation time: 00 hr 01 min 41 sec)
Heartbeat CPU 0 instructions: 30000000 cycles: 7500061 heartbeat IPC: 4 cumulative IPC: 4 (Simulation time: 00 hr 02 min 27 sec)
Heartbeat CPU 0 instructions: 40000000 cycles: 10000061 heartbeat IPC: 4 cumulative IPC: 4 (Simulation time: 00 hr 03 min 12 sec)
Heartbeat CPU 0 instructions: 50000000 cycles: 12500061 heartbeat IPC: 4 cumulative IPC: 4 (Simulation time: 00 hr 03 min 57 sec)
Warmup finished CPU 0 instructions: 50000000 cycles: 12500062 cumulative IPC: 4 (Simulation time: 00 hr 03 min 57 sec)
Warmup complete CPU 0 instructions: 50000000 cycles: 12500062 cumulative IPC: 4 (Simulation time: 00 hr 03 min 57 sec)
Heartbeat CPU 0 instructions: 60000002 cycles: 16911341 heartbeat IPC: 2.267 cumulative IPC: 2.267 (Simulation time: 00 hr 05 min 03 sec)
Heartbeat CPU 0 instructions: 70000003 cycles: 21897820 heartbeat IPC: 2.005 cumulative IPC: 2.128 (Simulation time: 00 hr 06 min 13 sec)
Heartbeat CPU 0 instructions: 80000001 cycles: 27247190 heartbeat IPC: 1.869 cumulative IPC: 2.034 (Simulation time: 00 hr 07 min 24 sec)
Heartbeat CPU 0 instructions: 90000000 cycles: 31546012 heartbeat IPC: 2.326 cumulative IPC: 2.1 (Simulation time: 00 hr 08 min 27 sec)
Heartbeat CPU 0 instructions: 100000003 cycles: 36406147 heartbeat IPC: 2.058 cumulative IPC: 2.092 (Simulation time: 00 hr 09 min 33 sec)
Heartbeat CPU 0 instructions: 110000002 cycles: 41284204 heartbeat IPC: 2.05 cumulative IPC: 2.084 (Simulation time: 00 hr 10 min 39 sec)
Heartbeat CPU 0 instructions: 120000001 cycles: 46280693 heartbeat IPC: 2.001 cumulative IPC: 2.072 (Simulation time: 00 hr 11 min 50 sec)
Heartbeat CPU 0 instructions: 130000003 cycles: 50851474 heartbeat IPC: 2.188 cumulative IPC: 2.086 (Simulation time: 00 hr 13 min 10 sec)
Heartbeat CPU 0 instructions: 140000002 cycles: 55744742 heartbeat IPC: 2.044 cumulative IPC: 2.081 (Simulation time: 00 hr 14 min 27 sec)
Heartbeat CPU 0 instructions: 150000001 cycles: 60416524 heartbeat IPC: 2.141 cumulative IPC: 2.087 (Simulation time: 00 hr 15 min 37 sec)
Heartbeat CPU 0 instructions: 160000000 cycles: 65057180 heartbeat IPC: 2.155 cumulative IPC: 2.093 (Simulation time: 00 hr 16 min 45 sec)
Heartbeat CPU 0 instructions: 170000000 cycles: 70394497 heartbeat IPC: 1.874 cumulative IPC: 2.073 (Simulation time: 00 hr 17 min 55 sec)
Heartbeat CPU 0 instructions: 180000001 cycles: 76116472 heartbeat IPC: 1.748 cumulative IPC: 2.043 (Simulation time: 00 hr 19 min 06 sec)
Heartbeat CPU 0 instructions: 190000002 cycles: 80593267 heartbeat IPC: 2.234 cumulative IPC: 2.056 (Simulation time: 00 hr 20 min 12 sec)
Heartbeat CPU 0 instructions: 200000002 cycles: 85503685 heartbeat IPC: 2.036 cumulative IPC: 2.055 (Simulation time: 00 hr 21 min 22 sec)
Heartbeat CPU 0 instructions: 210000000 cycles: 90509961 heartbeat IPC: 1.997 cumulative IPC: 2.051 (Simulation time: 00 hr 22 min 30 sec)
Heartbeat CPU 0 instructions: 220000001 cycles: 95435925 heartbeat IPC: 2.03 cumulative IPC: 2.05 (Simulation time: 00 hr 23 min 34 sec)
Heartbeat CPU 0 instructions: 230000002 cycles: 100684992 heartbeat IPC: 1.905 cumulative IPC: 2.041 (Simulation time: 00 hr 24 min 39 sec)
Heartbeat CPU 0 instructions: 240000001 cycles: 105652781 heartbeat IPC: 2.013 cumulative IPC: 2.04 (Simulation time: 00 hr 25 min 53 sec)
Heartbeat CPU 0 instructions: 250000003 cycles: 110841958 heartbeat IPC: 1.927 cumulative IPC: 2.034 (Simulation time: 00 hr 27 min 11 sec)
Heartbeat CPU 0 instructions: 260000001 cycles: 115705015 heartbeat IPC: 2.056 cumulative IPC: 2.035 (Simulation time: 00 hr 28 min 24 sec)
Heartbeat CPU 0 instructions: 270000000 cycles: 123474078 heartbeat IPC: 1.287 cumulative IPC: 1.982 (Simulation time: 00 hr 29 min 58 sec)
Heartbeat CPU 0 instructions: 280000000 cycles: 135352936 heartbeat IPC: 0.8418 cumulative IPC: 1.872 (Simulation time: 00 hr 32 min 12 sec)
Heartbeat CPU 0 instructions: 290000001 cycles: 145772398 heartbeat IPC: 0.9597 cumulative IPC: 1.801 (Simulation time: 00 hr 33 min 59 sec)
Heartbeat CPU 0 instructions: 300000003 cycles: 153410578 heartbeat IPC: 1.309 cumulative IPC: 1.774 (Simulation time: 00 hr 35 min 32 sec)
Heartbeat CPU 0 instructions: 310000004 cycles: 164526896 heartbeat IPC: 0.8996 cumulative IPC: 1.71 (Simulation time: 00 hr 37 min 29 sec)
Heartbeat CPU 0 instructions: 320000004 cycles: 170254405 heartbeat IPC: 1.746 cumulative IPC: 1.712 (Simulation time: 00 hr 38 min 41 sec)
Heartbeat CPU 0 instructions: 330000000 cycles: 175565713 heartbeat IPC: 1.883 cumulative IPC: 1.717 (Simulation time: 00 hr 39 min 48 sec)
Heartbeat CPU 0 instructions: 340000001 cycles: 180821904 heartbeat IPC: 1.903 cumulative IPC: 1.723 (Simulation time: 00 hr 40 min 54 sec)
Heartbeat CPU 0 instructions: 350000000 cycles: 186274851 heartbeat IPC: 1.834 cumulative IPC: 1.726 (Simulation time: 00 hr 42 min 05 sec)
Heartbeat CPU 0 instructions: 360000003 cycles: 191486213 heartbeat IPC: 1.919 cumulative IPC: 1.732 (Simulation time: 00 hr 43 min 31 sec)
Heartbeat CPU 0 instructions: 370000001 cycles: 196591948 heartbeat IPC: 1.959 cumulative IPC: 1.738 (Simulation time: 00 hr 44 min 54 sec)
Heartbeat CPU 0 instructions: 380000004 cycles: 201973606 heartbeat IPC: 1.858 cumulative IPC: 1.742 (Simulation time: 00 hr 46 min 13 sec)
Heartbeat CPU 0 instructions: 390000002 cycles: 207422417 heartbeat IPC: 1.835 cumulative IPC: 1.744 (Simulation time: 00 hr 47 min 27 sec)
Heartbeat CPU 0 instructions: 400000000 cycles: 212946796 heartbeat IPC: 1.81 cumulative IPC: 1.746 (Simulation time: 00 hr 48 min 40 sec)
Heartbeat CPU 0 instructions: 410000000 cycles: 221591389 heartbeat IPC: 1.157 cumulative IPC: 1.722 (Simulation time: 00 hr 50 min 22 sec)
Heartbeat CPU 0 instructions: 420000001 cycles: 233814073 heartbeat IPC: 0.8182 cumulative IPC: 1.672 (Simulation time: 00 hr 52 min 29 sec)
Heartbeat CPU 0 instructions: 430000000 cycles: 242405517 heartbeat IPC: 1.164 cumulative IPC: 1.653 (Simulation time: 00 hr 54 min 15 sec)
Heartbeat CPU 0 instructions: 440000002 cycles: 250160184 heartbeat IPC: 1.29 cumulative IPC: 1.641 (Simulation time: 00 hr 55 min 49 sec)
Heartbeat CPU 0 instructions: 450000003 cycles: 257586210 heartbeat IPC: 1.347 cumulative IPC: 1.632 (Simulation time: 00 hr 57 min 21 sec)
Heartbeat CPU 0 instructions: 460000002 cycles: 269328037 heartbeat IPC: 0.8517 cumulative IPC: 1.596 (Simulation time: 00 hr 59 min 26 sec)
Heartbeat CPU 0 instructions: 470000000 cycles: 279505049 heartbeat IPC: 0.9826 cumulative IPC: 1.573 (Simulation time: 01 hr 01 min 18 sec)
Heartbeat CPU 0 instructions: 480000000 cycles: 285029432 heartbeat IPC: 1.81 cumulative IPC: 1.578 (Simulation time: 01 hr 02 min 31 sec)
Heartbeat CPU 0 instructions: 490000001 cycles: 290816957 heartbeat IPC: 1.728 cumulative IPC: 1.581 (Simulation time: 01 hr 03 min 48 sec)
Heartbeat CPU 0 instructions: 500000002 cycles: 296490220 heartbeat IPC: 1.763 cumulative IPC: 1.585 (Simulation time: 01 hr 05 min 03 sec)
Heartbeat CPU 0 instructions: 510000000 cycles: 302235905 heartbeat IPC: 1.74 cumulative IPC: 1.588 (Simulation time: 01 hr 06 min 17 sec)
Heartbeat CPU 0 instructions: 520000000 cycles: 308030081 heartbeat IPC: 1.726 cumulative IPC: 1.59 (Simulation time: 01 hr 07 min 34 sec)
Heartbeat CPU 0 instructions: 530000001 cycles: 320634838 heartbeat IPC: 0.7934 cumulative IPC: 1.558 (Simulation time: 01 hr 09 min 47 sec)
Heartbeat CPU 0 instructions: 540000000 cycles: 332445586 heartbeat IPC: 0.8467 cumulative IPC: 1.532 (Simulation time: 01 hr 11 min 46 sec)
Heartbeat CPU 0 instructions: 550000002 cycles: 346303195 heartbeat IPC: 0.7216 cumulative IPC: 1.498 (Simulation time: 01 hr 13 min 43 sec)
Heartbeat CPU 0 instructions: 560000004 cycles: 351152072 heartbeat IPC: 2.062 cumulative IPC: 1.506 (Simulation time: 01 hr 14 min 34 sec)
Heartbeat CPU 0 instructions: 570000001 cycles: 355563545 heartbeat IPC: 2.267 cumulative IPC: 1.516 (Simulation time: 01 hr 15 min 23 sec)
Heartbeat CPU 0 instructions: 580000003 cycles: 359806825 heartbeat IPC: 2.357 cumulative IPC: 1.526 (Simulation time: 01 hr 16 min 07 sec)
Heartbeat CPU 0 instructions: 590000001 cycles: 364712827 heartbeat IPC: 2.038 cumulative IPC: 1.533 (Simulation time: 01 hr 16 min 44 sec)
Heartbeat CPU 0 instructions: 600000003 cycles: 369352866 heartbeat IPC: 2.155 cumulative IPC: 1.541 (Simulation time: 01 hr 17 min 17 sec)
Heartbeat CPU 0 instructions: 610000001 cycles: 374212898 heartbeat IPC: 2.058 cumulative IPC: 1.548 (Simulation time: 01 hr 17 min 48 sec)
Heartbeat CPU 0 instructions: 620000000 cycles: 379281051 heartbeat IPC: 1.973 cumulative IPC: 1.554 (Simulation time: 01 hr 18 min 17 sec)
Heartbeat CPU 0 instructions: 630000002 cycles: 383529593 heartbeat IPC: 2.354 cumulative IPC: 1.563 (Simulation time: 01 hr 18 min 40 sec)
Heartbeat CPU 0 instructions: 640000004 cycles: 388853233 heartbeat IPC: 1.878 cumulative IPC: 1.568 (Simulation time: 01 hr 19 min 03 sec)
Heartbeat CPU 0 instructions: 650000001 cycles: 393617391 heartbeat IPC: 2.099 cumulative IPC: 1.574 (Simulation time: 01 hr 19 min 25 sec)
Simulation finished CPU 0 instructions: 600000001 cycles: 381117330 cumulative IPC: 1.574 (Simulation time: 01 hr 19 min 25 sec)
Simulation complete CPU 0 instructions: 600000001 cycles: 381117330 cumulative IPC: 1.574 (Simulation time: 01 hr 19 min 25 sec)

ChampSim completed all CPUs

=== Simulation ===
CPU 0 runs traces/400.perlbench-50B.champsimtrace.xz
Region of Interest Statistics

CPU 0 cumulative IPC: 1.574 instructions: 600000001 cycles: 381117330
CPU 0 Branch Prediction Accuracy: 93.83% MPKI: 12.71 Average ROB Occupancy at Mispredict: 29.61
Branch type MPKI
BRANCH_DIRECT_JUMP: 0.0176
BRANCH_INDIRECT: 0.38
BRANCH_CONDITIONAL: 11.9
BRANCH_DIRECT_CALL: 0.0067
BRANCH_INDIRECT_CALL: 0.431
BRANCH_RETURN: 0.0161

LLC TOTAL        ACCESS:     786487 HIT:     458505 MISS:     327982
LLC LOAD         ACCESS:     587155 HIT:     300612 MISS:     286543
LLC RFO          ACCESS:      48290 HIT:      28210 MISS:      20080
LLC PREFETCH     ACCESS:          0 HIT:          0 MISS:          0
LLC WRITE        ACCESS:     129002 HIT:     118718 MISS:      10284
LLC TRANSLATION  ACCESS:      22040 HIT:      10965 MISS:      11075
LLC PREFETCH REQUESTED:          0 ISSUED:          0 USEFUL:          0 USELESS:          0
LLC AVERAGE MISS LATENCY: 516.3 cycles
cpu0_DTLB TOTAL        ACCESS:  156762875 HIT:  155459575 MISS:    1303300
cpu0_DTLB LOAD         ACCESS:  156762875 HIT:  155459575 MISS:    1303300
cpu0_DTLB RFO          ACCESS:          0 HIT:          0 MISS:          0
cpu0_DTLB PREFETCH     ACCESS:          0 HIT:          0 MISS:          0
cpu0_DTLB WRITE        ACCESS:          0 HIT:          0 MISS:          0
cpu0_DTLB TRANSLATION  ACCESS:          0 HIT:          0 MISS:          0
cpu0_DTLB PREFETCH REQUESTED:          0 ISSUED:          0 USEFUL:          0 USELESS:          0
cpu0_DTLB AVERAGE MISS LATENCY: 11.72 cycles
cpu0_ITLB TOTAL        ACCESS:    8932592 HIT:    8733994 MISS:     198598
cpu0_ITLB LOAD         ACCESS:    8932592 HIT:    8733994 MISS:     198598
cpu0_ITLB RFO          ACCESS:          0 HIT:          0 MISS:          0
cpu0_ITLB PREFETCH     ACCESS:          0 HIT:          0 MISS:          0
cpu0_ITLB WRITE        ACCESS:          0 HIT:          0 MISS:          0
cpu0_ITLB TRANSLATION  ACCESS:          0 HIT:          0 MISS:          0
cpu0_ITLB PREFETCH REQUESTED:          0 ISSUED:          0 USEFUL:          0 USELESS:          0
cpu0_ITLB AVERAGE MISS LATENCY: 3.07 cycles
cpu0_L1D TOTAL        ACCESS:  203595037 HIT:  199916527 MISS:    3678510
cpu0_L1D LOAD         ACCESS:  117918746 HIT:  114896509 MISS:    3022237
cpu0_L1D RFO          ACCESS:          0 HIT:          0 MISS:          0
cpu0_L1D PREFETCH     ACCESS:          0 HIT:          0 MISS:          0
cpu0_L1D WRITE        ACCESS:   85647752 HIT:   85018609 MISS:     629143
cpu0_L1D TRANSLATION  ACCESS:      28539 HIT:       1409 MISS:      27130
cpu0_L1D PREFETCH REQUESTED:          0 ISSUED:          0 USEFUL:          0 USELESS:          0
cpu0_L1D AVERAGE MISS LATENCY: 50.97 cycles
cpu0_L1I TOTAL        ACCESS:   10371172 HIT:    8574003 MISS:    1797169
cpu0_L1I LOAD         ACCESS:   10371172 HIT:    8574003 MISS:    1797169
cpu0_L1I RFO          ACCESS:          0 HIT:          0 MISS:          0
cpu0_L1I PREFETCH     ACCESS:          0 HIT:          0 MISS:          0
cpu0_L1I WRITE        ACCESS:          0 HIT:          0 MISS:          0
cpu0_L1I TRANSLATION  ACCESS:          0 HIT:          0 MISS:          0
cpu0_L1I PREFETCH REQUESTED:          0 ISSUED:          0 USEFUL:          0 USELESS:          0
cpu0_L1I AVERAGE MISS LATENCY: 11.54 cycles
cpu0_L2C TOTAL        ACCESS:    3837188 HIT:    3176162 MISS:     661026
cpu0_L2C LOAD         ACCESS:    3106356 HIT:    2519201 MISS:     587155
cpu0_L2C RFO          ACCESS:     191830 HIT:     143540 MISS:      48290
cpu0_L2C PREFETCH     ACCESS:          0 HIT:          0 MISS:          0
cpu0_L2C WRITE        ACCESS:     511950 HIT:     508409 MISS:       3541
cpu0_L2C TRANSLATION  ACCESS:      27052 HIT:       5012 MISS:      22040
cpu0_L2C PREFETCH REQUESTED:          0 ISSUED:          0 USEFUL:          0 USELESS:          0
cpu0_L2C AVERAGE MISS LATENCY: 276.6 cycles
cpu0_STLB TOTAL        ACCESS:    1009375 HIT:     982684 MISS:      26691
cpu0_STLB LOAD         ACCESS:    1009375 HIT:     982684 MISS:      26691
cpu0_STLB RFO          ACCESS:          0 HIT:          0 MISS:          0
cpu0_STLB PREFETCH     ACCESS:          0 HIT:          0 MISS:          0
cpu0_STLB WRITE        ACCESS:          0 HIT:          0 MISS:          0
cpu0_STLB TRANSLATION  ACCESS:          0 HIT:          0 MISS:          0
cpu0_STLB PREFETCH REQUESTED:          0 ISSUED:          0 USEFUL:          0 USELESS:          0
cpu0_STLB AVERAGE MISS LATENCY: 351.4 cycles

DRAM Statistics

Channel 0 RQ ROW_BUFFER_HIT:      60843
  ROW_BUFFER_MISS:     256803
 AVG DBUS CONGESTED CYCLE: 3.788
WQ ROW_BUFFER_HIT: Channel 0 
  ROW_BUFFER_MISS:      10237
  FULL:      34628
