WARNING: physical memory size is smaller than virtual memory size.

*** ChampSim Multicore Out-of-Order Simulator ***
Warmup Instructions: 50000000
Simulation Instructions: 600000000
Number of CPUs: 1
Page size: 4096

Off-chip DRAM Size: 4 GiB Channels: 1 Width: 64-bit Data Race: 3200 MT/s
Heartbeat CPU 0 instructions: 10000001 cycles: 2500318 heartbeat IPC: 3.999 cumulative IPC: 3.999 (Simulation time: 00 hr 00 min 29 sec)
Heartbeat CPU 0 instructions: 20000002 cycles: 5037121 heartbeat IPC: 3.942 cumulative IPC: 3.971 (Simulation time: 00 hr 01 min 02 sec)
Heartbeat CPU 0 instructions: 30000002 cycles: 7537121 heartbeat IPC: 4 cumulative IPC: 3.98 (Simulation time: 00 hr 01 min 35 sec)
Heartbeat CPU 0 instructions: 40000002 cycles: 10037121 heartbeat IPC: 4 cumulative IPC: 3.985 (Simulation time: 00 hr 02 min 10 sec)
Heartbeat CPU 0 instructions: 50000002 cycles: 12537121 heartbeat IPC: 4 cumulative IPC: 3.988 (Simulation time: 00 hr 02 min 42 sec)
Warmup finished CPU 0 instructions: 50000002 cycles: 12537122 cumulative IPC: 3.988 (Simulation time: 00 hr 02 min 42 sec)
Warmup complete CPU 0 instructions: 50000002 cycles: 12537122 cumulative IPC: 3.988 (Simulation time: 00 hr 02 min 42 sec)
Heartbeat CPU 0 instructions: 60000000 cycles: 17146651 heartbeat IPC: 2.169 cumulative IPC: 2.169 (Simulation time: 00 hr 03 min 28 sec)
Heartbeat CPU 0 instructions: 70000004 cycles: 21415486 heartbeat IPC: 2.343 cumulative IPC: 2.253 (Simulation time: 00 hr 04 min 13 sec)
Heartbeat CPU 0 instructions: 80000001 cycles: 25995036 heartbeat IPC: 2.184 cumulative IPC: 2.229 (Simulation time: 00 hr 05 min 01 sec)
Heartbeat CPU 0 instructions: 90000001 cycles: 30104968 heartbeat IPC: 2.433 cumulative IPC: 2.277 (Simulation time: 00 hr 05 min 47 sec)
Heartbeat CPU 0 instructions: 100000000 cycles: 34146654 heartbeat IPC: 2.474 cumulative IPC: 2.314 (Simulation time: 00 hr 06 min 33 sec)
Heartbeat CPU 0 instructions: 110000000 cycles: 38368215 heartbeat IPC: 2.369 cumulative IPC: 2.323 (Simulation time: 00 hr 07 min 19 sec)
Heartbeat CPU 0 instructions: 120000001 cycles: 42365118 heartbeat IPC: 2.502 cumulative IPC: 2.347 (Simulation time: 00 hr 08 min 02 sec)
Heartbeat CPU 0 instructions: 130000001 cycles: 46083019 heartbeat IPC: 2.69 cumulative IPC: 2.385 (Simulation time: 00 hr 08 min 45 sec)
Heartbeat CPU 0 instructions: 140000001 cycles: 50244060 heartbeat IPC: 2.403 cumulative IPC: 2.387 (Simulation time: 00 hr 09 min 36 sec)
Heartbeat CPU 0 instructions: 150000001 cycles: 54435327 heartbeat IPC: 2.386 cumulative IPC: 2.387 (Simulation time: 00 hr 10 min 29 sec)
Heartbeat CPU 0 instructions: 160000004 cycles: 58846598 heartbeat IPC: 2.267 cumulative IPC: 2.375 (Simulation time: 00 hr 11 min 25 sec)
Heartbeat CPU 0 instructions: 170000000 cycles: 68492648 heartbeat IPC: 1.037 cumulative IPC: 2.145 (Simulation time: 00 hr 12 min 48 sec)
Heartbeat CPU 0 instructions: 180000004 cycles: 79034489 heartbeat IPC: 0.9486 cumulative IPC: 1.955 (Simulation time: 00 hr 14 min 36 sec)
Heartbeat CPU 0 instructions: 190000001 cycles: 89315080 heartbeat IPC: 0.9727 cumulative IPC: 1.823 (Simulation time: 00 hr 16 min 35 sec)
Heartbeat CPU 0 instructions: 200000004 cycles: 93106728 heartbeat IPC: 2.637 cumulative IPC: 1.862 (Simulation time: 00 hr 17 min 36 sec)
Heartbeat CPU 0 instructions: 210000001 cycles: 97026081 heartbeat IPC: 2.551 cumulative IPC: 1.894 (Simulation time: 00 hr 18 min 38 sec)
Heartbeat CPU 0 instructions: 220000000 cycles: 100987571 heartbeat IPC: 2.524 cumulative IPC: 1.922 (Simulation time: 00 hr 19 min 45 sec)
Heartbeat CPU 0 instructions: 230000002 cycles: 105662387 heartbeat IPC: 2.139 cumulative IPC: 1.933 (Simulation time: 00 hr 20 min 59 sec)
Heartbeat CPU 0 instructions: 240000000 cycles: 109862062 heartbeat IPC: 2.381 cumulative IPC: 1.952 (Simulation time: 00 hr 22 min 08 sec)
Heartbeat CPU 0 instructions: 250000000 cycles: 114180278 heartbeat IPC: 2.316 cumulative IPC: 1.968 (Simulation time: 00 hr 23 min 23 sec)
Heartbeat CPU 0 instructions: 260000000 cycles: 118351164 heartbeat IPC: 2.398 cumulative IPC: 1.985 (Simulation time: 00 hr 24 min 33 sec)
Heartbeat CPU 0 instructions: 270000002 cycles: 122203400 heartbeat IPC: 2.596 cumulative IPC: 2.006 (Simulation time: 00 hr 25 min 39 sec)
Heartbeat CPU 0 instructions: 280000002 cycles: 126363805 heartbeat IPC: 2.404 cumulative IPC: 2.021 (Simulation time: 00 hr 26 min 45 sec)
Heartbeat CPU 0 instructions: 290000001 cycles: 130265651 heartbeat IPC: 2.563 cumulative IPC: 2.039 (Simulation time: 00 hr 27 min 50 sec)
Heartbeat CPU 0 instructions: 300000003 cycles: 134083604 heartbeat IPC: 2.619 cumulative IPC: 2.057 (Simulation time: 00 hr 28 min 56 sec)
Heartbeat CPU 0 instructions: 310000001 cycles: 138218206 heartbeat IPC: 2.419 cumulative IPC: 2.069 (Simulation time: 00 hr 30 min 01 sec)
Heartbeat CPU 0 instructions: 320000003 cycles: 142300046 heartbeat IPC: 2.45 cumulative IPC: 2.081 (Simulation time: 00 hr 31 min 04 sec)
Heartbeat CPU 0 instructions: 330000003 cycles: 146711465 heartbeat IPC: 2.267 cumulative IPC: 2.087 (Simulation time: 00 hr 32 min 11 sec)
Heartbeat CPU 0 instructions: 340000000 cycles: 156642698 heartbeat IPC: 1.007 cumulative IPC: 2.012 (Simulation time: 00 hr 33 min 56 sec)
Heartbeat CPU 0 instructions: 350000000 cycles: 167490918 heartbeat IPC: 0.9218 cumulative IPC: 1.936 (Simulation time: 00 hr 35 min 46 sec)
Heartbeat CPU 0 instructions: 360000004 cycles: 177783538 heartbeat IPC: 0.9716 cumulative IPC: 1.876 (Simulation time: 00 hr 37 min 33 sec)
Heartbeat CPU 0 instructions: 370000000 cycles: 181223356 heartbeat IPC: 2.907 cumulative IPC: 1.897 (Simulation time: 00 hr 38 min 32 sec)
Heartbeat CPU 0 instructions: 380000001 cycles: 184652116 heartbeat IPC: 2.917 cumulative IPC: 1.917 (Simulation time: 00 hr 39 min 29 sec)
Heartbeat CPU 0 instructions: 390000004 cycles: 188395258 heartbeat IPC: 2.672 cumulative IPC: 1.933 (Simulation time: 00 hr 40 min 27 sec)
Heartbeat CPU 0 instructions: 400000004 cycles: 192203887 heartbeat IPC: 2.626 cumulative IPC: 1.948 (Simulation time: 00 hr 41 min 24 sec)
Heartbeat CPU 0 instructions: 410000001 cycles: 195871978 heartbeat IPC: 2.726 cumulative IPC: 1.964 (Simulation time: 00 hr 42 min 21 sec)
Heartbeat CPU 0 instructions: 420000003 cycles: 199925462 heartbeat IPC: 2.467 cumulative IPC: 1.975 (Simulation time: 00 hr 43 min 19 sec)
Heartbeat CPU 0 instructions: 430000001 cycles: 203589133 heartbeat IPC: 2.73 cumulative IPC: 1.989 (Simulation time: 00 hr 44 min 22 sec)
Heartbeat CPU 0 instructions: 440000004 cycles: 207665971 heartbeat IPC: 2.453 cumulative IPC: 1.999 (Simulation time: 00 hr 45 min 27 sec)
Heartbeat CPU 0 instructions: 450000002 cycles: 211393569 heartbeat IPC: 2.683 cumulative IPC: 2.012 (Simulation time: 00 hr 46 min 28 sec)
Heartbeat CPU 0 instructions: 460000000 cycles: 215052646 heartbeat IPC: 2.733 cumulative IPC: 2.025 (Simulation time: 00 hr 47 min 32 sec)
Heartbeat CPU 0 instructions: 470000000 cycles: 218511387 heartbeat IPC: 2.891 cumulative IPC: 2.039 (Simulation time: 00 hr 48 min 34 sec)
Heartbeat CPU 0 instructions: 480000003 cycles: 222323589 heartbeat IPC: 2.623 cumulative IPC: 2.05 (Simulation time: 00 hr 49 min 36 sec)
Heartbeat CPU 0 instructions: 490000000 cycles: 225944331 heartbeat IPC: 2.762 cumulative IPC: 2.062 (Simulation time: 00 hr 50 min 36 sec)
Heartbeat CPU 0 instructions: 500000000 cycles: 229642269 heartbeat IPC: 2.704 cumulative IPC: 2.073 (Simulation time: 00 hr 51 min 36 sec)
Heartbeat CPU 0 instructions: 510000003 cycles: 233277758 heartbeat IPC: 2.751 cumulative IPC: 2.084 (Simulation time: 00 hr 52 min 37 sec)
Heartbeat CPU 0 instructions: 520000001 cycles: 236683521 heartbeat IPC: 2.936 cumulative IPC: 2.097 (Simulation time: 00 hr 53 min 37 sec)
Heartbeat CPU 0 instructions: 530000002 cycles: 240362662 heartbeat IPC: 2.718 cumulative IPC: 2.107 (Simulation time: 00 hr 54 min 36 sec)
Heartbeat CPU 0 instructions: 540000000 cycles: 243892410 heartbeat IPC: 2.833 cumulative IPC: 2.118 (Simulation time: 00 hr 55 min 33 sec)
Heartbeat CPU 0 instructions: 550000001 cycles: 247586447 heartbeat IPC: 2.707 cumulative IPC: 2.127 (Simulation time: 00 hr 56 min 30 sec)
Heartbeat CPU 0 instructions: 560000000 cycles: 251552485 heartbeat IPC: 2.521 cumulative IPC: 2.134 (Simulation time: 00 hr 57 min 29 sec)
Heartbeat CPU 0 instructions: 570000004 cycles: 258050906 heartbeat IPC: 1.539 cumulative IPC: 2.118 (Simulation time: 00 hr 58 min 47 sec)
Heartbeat CPU 0 instructions: 580000003 cycles: 269292576 heartbeat IPC: 0.8895 cumulative IPC: 2.064 (Simulation time: 01 hr 01 min 25 sec)
Heartbeat CPU 0 instructions: 590000002 cycles: 282412185 heartbeat IPC: 0.7622 cumulative IPC: 2.001 (Simulation time: 01 hr 04 min 09 sec)
Heartbeat CPU 0 instructions: 600000000 cycles: 286203041 heartbeat IPC: 2.638 cumulative IPC: 2.01 (Simulation time: 01 hr 05 min 16 sec)
Heartbeat CPU 0 instructions: 610000000 cycles: 290065706 heartbeat IPC: 2.589 cumulative IPC: 2.018 (Simulation time: 01 hr 06 min 21 sec)
Heartbeat CPU 0 instructions: 620000001 cycles: 293506422 heartbeat IPC: 2.906 cumulative IPC: 2.029 (Simulation time: 01 hr 07 min 23 sec)
Heartbeat CPU 0 instructions: 630000002 cycles: 297787559 heartbeat IPC: 2.336 cumulative IPC: 2.033 (Simulation time: 01 hr 08 min 29 sec)
Heartbeat CPU 0 instructions: 640000001 cycles: 301683292 heartbeat IPC: 2.567 cumulative IPC: 2.04 (Simulation time: 01 hr 09 min 35 sec)
Heartbeat CPU 0 instructions: 650000000 cycles: 305436959 heartbeat IPC: 2.664 cumulative IPC: 2.048 (Simulation time: 01 hr 10 min 39 sec)
Simulation finished CPU 0 instructions: 600000001 cycles: 292899839 cumulative IPC: 2.048 (Simulation time: 01 hr 10 min 39 sec)
Simulation complete CPU 0 instructions: 600000001 cycles: 292899839 cumulative IPC: 2.048 (Simulation time: 01 hr 10 min 39 sec)

ChampSim completed all CPUs

=== Simulation ===
CPU 0 runs traces/400.perlbench-41B.champsimtrace.xz
Region of Interest Statistics

CPU 0 cumulative IPC: 2.048 instructions: 600000001 cycles: 292899839
CPU 0 Branch Prediction Accuracy: 96.56% MPKI: 7.112 Average ROB Occupancy at Mispredict: 47.27
Branch type MPKI
BRANCH_DIRECT_JUMP: 0.0123
BRANCH_INDIRECT: 0.323
BRANCH_CONDITIONAL: 6.56
BRANCH_DIRECT_CALL: 0.0043
BRANCH_INDIRECT_CALL: 0.2
BRANCH_RETURN: 0.00828

LLC TOTAL        ACCESS:     937707 HIT:     511023 MISS:     426684
LLC LOAD         ACCESS:     400723 HIT:     208966 MISS:     191757
LLC RFO          ACCESS:      32429 HIT:      15615 MISS:      16814
LLC PREFETCH     ACCESS:     400723 HIT:     194110 MISS:     206613
LLC WRITE        ACCESS:      84760 HIT:      84231 MISS:        529
LLC TRANSLATION  ACCESS:      19072 HIT:       8101 MISS:      10971
LLC PREFETCH REQUESTED:     400723 ISSUED:     400723 USEFUL:      80060 USELESS:      79824
LLC AVERAGE MISS LATENCY: 595.8 cycles
cpu0_DTLB TOTAL        ACCESS:  141905271 HIT:  141218378 MISS:     686893
cpu0_DTLB LOAD         ACCESS:  141905271 HIT:  141218378 MISS:     686893
cpu0_DTLB RFO          ACCESS:          0 HIT:          0 MISS:          0
cpu0_DTLB PREFETCH     ACCESS:          0 HIT:          0 MISS:          0
cpu0_DTLB WRITE        ACCESS:          0 HIT:          0 MISS:          0
cpu0_DTLB TRANSLATION  ACCESS:          0 HIT:          0 MISS:          0
cpu0_DTLB PREFETCH REQUESTED:          0 ISSUED:          0 USEFUL:          0 USELESS:          0
cpu0_DTLB AVERAGE MISS LATENCY: 16.85 cycles
cpu0_ITLB TOTAL        ACCESS:    4857460 HIT:    4804309 MISS:      53151
cpu0_ITLB LOAD         ACCESS:    4857460 HIT:    4804309 MISS:      53151
cpu0_ITLB RFO          ACCESS:          0 HIT:          0 MISS:          0
cpu0_ITLB PREFETCH     ACCESS:          0 HIT:          0 MISS:          0
cpu0_ITLB WRITE        ACCESS:          0 HIT:          0 MISS:          0
cpu0_ITLB TRANSLATION  ACCESS:          0 HIT:          0 MISS:          0
cpu0_ITLB PREFETCH REQUESTED:          0 ISSUED:          0 USEFUL:          0 USELESS:          0
cpu0_ITLB AVERAGE MISS LATENCY: 8.762 cycles
cpu0_L1D TOTAL        ACCESS:  188566936 HIT:  186829149 MISS:    1737787
cpu0_L1D LOAD         ACCESS:  105200323 HIT:  103844565 MISS:    1355758
cpu0_L1D RFO          ACCESS:          0 HIT:          0 MISS:          0
cpu0_L1D PREFETCH     ACCESS:          0 HIT:          0 MISS:          0
cpu0_L1D WRITE        ACCESS:   83342153 HIT:   82983519 MISS:     358634
cpu0_L1D TRANSLATION  ACCESS:      24460 HIT:       1065 MISS:      23395
cpu0_L1D PREFETCH REQUESTED:          0 ISSUED:          0 USEFUL:          0 USELESS:          0
cpu0_L1D AVERAGE MISS LATENCY: 86.36 cycles
cpu0_L1I TOTAL        ACCESS:    5595238 HIT:    4851797 MISS:     743441
cpu0_L1I LOAD         ACCESS:    5595238 HIT:    4851797 MISS:     743441
cpu0_L1I RFO          ACCESS:          0 HIT:          0 MISS:          0
cpu0_L1I PREFETCH     ACCESS:          0 HIT:          0 MISS:          0
cpu0_L1I WRITE        ACCESS:          0 HIT:          0 MISS:          0
cpu0_L1I TRANSLATION  ACCESS:          0 HIT:          0 MISS:          0
cpu0_L1I PREFETCH REQUESTED:          0 ISSUED:          0 USEFUL:          0 USELESS:          0
cpu0_L1I AVERAGE MISS LATENCY: 13.67 cycles
cpu0_L2C TOTAL        ACCESS:    1665713 HIT:    1211697 MISS:     454016
cpu0_L2C LOAD         ACCESS:    1315947 HIT:     915224 MISS:     400723
cpu0_L2C RFO          ACCESS:      88355 HIT:      55926 MISS:      32429
cpu0_L2C PREFETCH     ACCESS:          0 HIT:          0 MISS:          0
cpu0_L2C WRITE        ACCESS:     238083 HIT:     236291 MISS:       1792
cpu0_L2C TRANSLATION  ACCESS:      23328 HIT:       4256 MISS:      19072
cpu0_L2C PREFETCH REQUESTED:          0 ISSUED:          0 USEFUL:          0 USELESS:          0
cpu0_L2C AVERAGE MISS LATENCY: 334 cycles
cpu0_STLB TOTAL        ACCESS:     507406 HIT:     484612 MISS:      22794
cpu0_STLB LOAD         ACCESS:     507406 HIT:     484612 MISS:      22794
cpu0_STLB RFO          ACCESS:          0 HIT:          0 MISS:          0
cpu0_STLB PREFETCH     ACCESS:          0 HIT:          0 MISS:          0
cpu0_STLB WRITE        ACCESS:          0 HIT:          0 MISS:          0
cpu0_STLB TRANSLATION  ACCESS:          0 HIT:          0 MISS:          0
cpu0_STLB PREFETCH REQUESTED:          0 ISSUED:          0 USEFUL:          0 USELESS:          0
cpu0_STLB AVERAGE MISS LATENCY: 391.9 cycles

DRAM Statistics

Channel 0 RQ ROW_BUFFER_HIT:      64611
  ROW_BUFFER_MISS:     298409
 AVG DBUS CONGESTED CYCLE: 3.882
WQ ROW_BUFFER_HIT: Channel 0 
  ROW_BUFFER_MISS:       5342
  FULL:      42144
