WARNING: physical memory size is smaller than virtual memory size.

*** ChampSim Multicore Out-of-Order Simulator ***
Warmup Instructions: 50000000
Simulation Instructions: 600000000
Number of CPUs: 1
Page size: 4096

CPU 0 Tage branch predictor
Off-chip DRAM Size: 4 GiB Channels: 1 Width: 64-bit Data Race: 3200 MT/s
Heartbeat CPU 0 instructions: 10000001 cycles: 2500318 heartbeat IPC: 3.999 cumulative IPC: 3.999 (Simulation time: 00 hr 00 min 46 sec)
Heartbeat CPU 0 instructions: 20000002 cycles: 5037133 heartbeat IPC: 3.942 cumulative IPC: 3.971 (Simulation time: 00 hr 01 min 37 sec)
Heartbeat CPU 0 instructions: 30000002 cycles: 7537133 heartbeat IPC: 4 cumulative IPC: 3.98 (Simulation time: 00 hr 02 min 23 sec)
Heartbeat CPU 0 instructions: 40000002 cycles: 10037133 heartbeat IPC: 4 cumulative IPC: 3.985 (Simulation time: 00 hr 03 min 07 sec)
Heartbeat CPU 0 instructions: 50000002 cycles: 12537133 heartbeat IPC: 4 cumulative IPC: 3.988 (Simulation time: 00 hr 03 min 50 sec)
Warmup finished CPU 0 instructions: 50000002 cycles: 12537134 cumulative IPC: 3.988 (Simulation time: 00 hr 03 min 50 sec)
Warmup complete CPU 0 instructions: 50000002 cycles: 12537134 cumulative IPC: 3.988 (Simulation time: 00 hr 03 min 50 sec)
Heartbeat CPU 0 instructions: 60000001 cycles: 15512044 heartbeat IPC: 3.361 cumulative IPC: 3.361 (Simulation time: 00 hr 04 min 47 sec)
Heartbeat CPU 0 instructions: 70000004 cycles: 18584288 heartbeat IPC: 3.255 cumulative IPC: 3.307 (Simulation time: 00 hr 05 min 41 sec)
Heartbeat CPU 0 instructions: 80000001 cycles: 21630345 heartbeat IPC: 3.283 cumulative IPC: 3.299 (Simulation time: 00 hr 06 min 33 sec)
Heartbeat CPU 0 instructions: 90000001 cycles: 24576444 heartbeat IPC: 3.394 cumulative IPC: 3.322 (Simulation time: 00 hr 07 min 21 sec)
Heartbeat CPU 0 instructions: 100000000 cycles: 27493203 heartbeat IPC: 3.428 cumulative IPC: 3.343 (Simulation time: 00 hr 08 min 09 sec)
Heartbeat CPU 0 instructions: 110000000 cycles: 30437579 heartbeat IPC: 3.396 cumulative IPC: 3.352 (Simulation time: 00 hr 08 min 57 sec)
Heartbeat CPU 0 instructions: 120000001 cycles: 33409348 heartbeat IPC: 3.365 cumulative IPC: 3.354 (Simulation time: 00 hr 09 min 44 sec)
Heartbeat CPU 0 instructions: 130000001 cycles: 36266685 heartbeat IPC: 3.5 cumulative IPC: 3.371 (Simulation time: 00 hr 10 min 34 sec)
Heartbeat CPU 0 instructions: 140000001 cycles: 39310202 heartbeat IPC: 3.286 cumulative IPC: 3.362 (Simulation time: 00 hr 11 min 25 sec)
Heartbeat CPU 0 instructions: 150000001 cycles: 42321844 heartbeat IPC: 3.32 cumulative IPC: 3.357 (Simulation time: 00 hr 12 min 14 sec)
Heartbeat CPU 0 instructions: 160000004 cycles: 45335248 heartbeat IPC: 3.319 cumulative IPC: 3.354 (Simulation time: 00 hr 13 min 02 sec)
Heartbeat CPU 0 instructions: 170000000 cycles: 52949583 heartbeat IPC: 1.313 cumulative IPC: 2.969 (Simulation time: 00 hr 14 min 20 sec)
Heartbeat CPU 0 instructions: 180000004 cycles: 61269593 heartbeat IPC: 1.202 cumulative IPC: 2.668 (Simulation time: 00 hr 15 min 44 sec)
Heartbeat CPU 0 instructions: 190000001 cycles: 69333845 heartbeat IPC: 1.24 cumulative IPC: 2.465 (Simulation time: 00 hr 17 min 06 sec)
Heartbeat CPU 0 instructions: 200000004 cycles: 72299516 heartbeat IPC: 3.372 cumulative IPC: 2.51 (Simulation time: 00 hr 17 min 55 sec)
Heartbeat CPU 0 instructions: 210000001 cycles: 75258116 heartbeat IPC: 3.38 cumulative IPC: 2.551 (Simulation time: 00 hr 18 min 43 sec)
Heartbeat CPU 0 instructions: 220000000 cycles: 78151742 heartbeat IPC: 3.456 cumulative IPC: 2.591 (Simulation time: 00 hr 19 min 30 sec)
Heartbeat CPU 0 instructions: 230000002 cycles: 81172228 heartbeat IPC: 3.311 cumulative IPC: 2.623 (Simulation time: 00 hr 20 min 23 sec)
Heartbeat CPU 0 instructions: 240000003 cycles: 84206599 heartbeat IPC: 3.296 cumulative IPC: 2.651 (Simulation time: 00 hr 21 min 12 sec)
Heartbeat CPU 0 instructions: 250000000 cycles: 87233300 heartbeat IPC: 3.304 cumulative IPC: 2.678 (Simulation time: 00 hr 22 min 02 sec)
Heartbeat CPU 0 instructions: 260000002 cycles: 90200310 heartbeat IPC: 3.37 cumulative IPC: 2.704 (Simulation time: 00 hr 22 min 50 sec)
Heartbeat CPU 0 instructions: 270000002 cycles: 93113348 heartbeat IPC: 3.433 cumulative IPC: 2.73 (Simulation time: 00 hr 23 min 39 sec)
Heartbeat CPU 0 instructions: 280000002 cycles: 96000903 heartbeat IPC: 3.463 cumulative IPC: 2.756 (Simulation time: 00 hr 24 min 27 sec)
Heartbeat CPU 0 instructions: 290000002 cycles: 98964268 heartbeat IPC: 3.375 cumulative IPC: 2.777 (Simulation time: 00 hr 25 min 15 sec)
Heartbeat CPU 0 instructions: 300000003 cycles: 101861429 heartbeat IPC: 3.452 cumulative IPC: 2.799 (Simulation time: 00 hr 26 min 02 sec)
Heartbeat CPU 0 instructions: 310000001 cycles: 104895956 heartbeat IPC: 3.295 cumulative IPC: 2.815 (Simulation time: 00 hr 26 min 51 sec)
Heartbeat CPU 0 instructions: 320000003 cycles: 107904540 heartbeat IPC: 3.324 cumulative IPC: 2.831 (Simulation time: 00 hr 27 min 39 sec)
Heartbeat CPU 0 instructions: 330000003 cycles: 110894629 heartbeat IPC: 3.344 cumulative IPC: 2.847 (Simulation time: 00 hr 28 min 28 sec)
Heartbeat CPU 0 instructions: 340000000 cycles: 118713558 heartbeat IPC: 1.279 cumulative IPC: 2.731 (Simulation time: 00 hr 29 min 46 sec)
Heartbeat CPU 0 instructions: 350000000 cycles: 127216215 heartbeat IPC: 1.176 cumulative IPC: 2.616 (Simulation time: 00 hr 31 min 11 sec)
Heartbeat CPU 0 instructions: 360000004 cycles: 135330223 heartbeat IPC: 1.232 cumulative IPC: 2.525 (Simulation time: 00 hr 32 min 32 sec)
Heartbeat CPU 0 instructions: 370000000 cycles: 138300742 heartbeat IPC: 3.366 cumulative IPC: 2.544 (Simulation time: 00 hr 33 min 19 sec)
Heartbeat CPU 0 instructions: 380000003 cycles: 141221411 heartbeat IPC: 3.424 cumulative IPC: 2.564 (Simulation time: 00 hr 34 min 07 sec)
Heartbeat CPU 0 instructions: 390000002 cycles: 144198960 heartbeat IPC: 3.358 cumulative IPC: 2.582 (Simulation time: 00 hr 34 min 55 sec)
Heartbeat CPU 0 instructions: 400000004 cycles: 147101894 heartbeat IPC: 3.445 cumulative IPC: 2.601 (Simulation time: 00 hr 35 min 42 sec)
Heartbeat CPU 0 instructions: 410000002 cycles: 150045540 heartbeat IPC: 3.397 cumulative IPC: 2.618 (Simulation time: 00 hr 36 min 30 sec)
Heartbeat CPU 0 instructions: 420000003 cycles: 153154931 heartbeat IPC: 3.216 cumulative IPC: 2.631 (Simulation time: 00 hr 37 min 18 sec)
Heartbeat CPU 0 instructions: 430000001 cycles: 156165409 heartbeat IPC: 3.322 cumulative IPC: 2.646 (Simulation time: 00 hr 38 min 08 sec)
Heartbeat CPU 0 instructions: 440000004 cycles: 159297726 heartbeat IPC: 3.193 cumulative IPC: 2.657 (Simulation time: 00 hr 38 min 56 sec)
Heartbeat CPU 0 instructions: 450000002 cycles: 162226222 heartbeat IPC: 3.415 cumulative IPC: 2.672 (Simulation time: 00 hr 39 min 45 sec)
Heartbeat CPU 0 instructions: 460000000 cycles: 165158961 heartbeat IPC: 3.41 cumulative IPC: 2.686 (Simulation time: 00 hr 40 min 33 sec)
Heartbeat CPU 0 instructions: 470000001 cycles: 168015788 heartbeat IPC: 3.5 cumulative IPC: 2.701 (Simulation time: 00 hr 41 min 21 sec)
Heartbeat CPU 0 instructions: 480000003 cycles: 171066451 heartbeat IPC: 3.278 cumulative IPC: 2.712 (Simulation time: 00 hr 42 min 10 sec)
Heartbeat CPU 0 instructions: 490000004 cycles: 173896611 heartbeat IPC: 3.533 cumulative IPC: 2.727 (Simulation time: 00 hr 42 min 58 sec)
Heartbeat CPU 0 instructions: 500000004 cycles: 176882927 heartbeat IPC: 3.349 cumulative IPC: 2.738 (Simulation time: 00 hr 43 min 45 sec)
Heartbeat CPU 0 instructions: 510000003 cycles: 179900332 heartbeat IPC: 3.314 cumulative IPC: 2.749 (Simulation time: 00 hr 44 min 34 sec)
Heartbeat CPU 0 instructions: 520000001 cycles: 182787818 heartbeat IPC: 3.463 cumulative IPC: 2.761 (Simulation time: 00 hr 45 min 21 sec)
Heartbeat CPU 0 instructions: 530000001 cycles: 185788591 heartbeat IPC: 3.332 cumulative IPC: 2.771 (Simulation time: 00 hr 46 min 10 sec)
Heartbeat CPU 0 instructions: 540000000 cycles: 188748126 heartbeat IPC: 3.379 cumulative IPC: 2.781 (Simulation time: 00 hr 46 min 59 sec)
Heartbeat CPU 0 instructions: 550000001 cycles: 191731768 heartbeat IPC: 3.352 cumulative IPC: 2.79 (Simulation time: 00 hr 47 min 47 sec)
Heartbeat CPU 0 instructions: 560000000 cycles: 194810805 heartbeat IPC: 3.248 cumulative IPC: 2.798 (Simulation time: 00 hr 48 min 37 sec)
Heartbeat CPU 0 instructions: 570000004 cycles: 200022709 heartbeat IPC: 1.919 cumulative IPC: 2.774 (Simulation time: 00 hr 49 min 39 sec)
Heartbeat CPU 0 instructions: 580000003 cycles: 208885826 heartbeat IPC: 1.128 cumulative IPC: 2.699 (Simulation time: 00 hr 51 min 05 sec)
Heartbeat CPU 0 instructions: 590000002 cycles: 219396271 heartbeat IPC: 0.9514 cumulative IPC: 2.61 (Simulation time: 00 hr 52 min 41 sec)
Heartbeat CPU 0 instructions: 600000004 cycles: 222446491 heartbeat IPC: 3.278 cumulative IPC: 2.62 (Simulation time: 00 hr 53 min 27 sec)
Heartbeat CPU 0 instructions: 610000002 cycles: 225413082 heartbeat IPC: 3.371 cumulative IPC: 2.631 (Simulation time: 00 hr 54 min 12 sec)
Heartbeat CPU 0 instructions: 620000001 cycles: 228187547 heartbeat IPC: 3.604 cumulative IPC: 2.643 (Simulation time: 00 hr 54 min 55 sec)
Heartbeat CPU 0 instructions: 630000002 cycles: 231158059 heartbeat IPC: 3.366 cumulative IPC: 2.653 (Simulation time: 00 hr 55 min 35 sec)
Heartbeat CPU 0 instructions: 640000004 cycles: 234108241 heartbeat IPC: 3.39 cumulative IPC: 2.663 (Simulation time: 00 hr 56 min 11 sec)
Heartbeat CPU 0 instructions: 650000000 cycles: 236858019 heartbeat IPC: 3.637 cumulative IPC: 2.675 (Simulation time: 00 hr 56 min 42 sec)
Simulation finished CPU 0 instructions: 600000001 cycles: 224320887 cumulative IPC: 2.675 (Simulation time: 00 hr 56 min 42 sec)
Simulation complete CPU 0 instructions: 600000001 cycles: 224320887 cumulative IPC: 2.675 (Simulation time: 00 hr 56 min 42 sec)

ChampSim completed all CPUs

=== Simulation ===
CPU 0 runs traces/400.perlbench-41B.champsimtrace.xz
Region of Interest Statistics

CPU 0 cumulative IPC: 2.675 instructions: 600000001 cycles: 224320887
CPU 0 Branch Prediction Accuracy: 99.19% MPKI: 1.684 Average ROB Occupancy at Mispredict: 102.4
Branch type MPKI
BRANCH_DIRECT_JUMP: 0.0123
BRANCH_INDIRECT: 0.323
BRANCH_CONDITIONAL: 1.14
BRANCH_DIRECT_CALL: 0.0043
BRANCH_INDIRECT_CALL: 0.2
BRANCH_RETURN: 0.00828

LLC TOTAL        ACCESS:     540350 HIT:     280687 MISS:     259663
LLC LOAD         ACCESS:     403667 HIT:     168373 MISS:     235294
LLC RFO          ACCESS:      32515 HIT:      18401 MISS:      14114
LLC PREFETCH     ACCESS:          0 HIT:          0 MISS:          0
LLC WRITE        ACCESS:      85071 HIT:      84953 MISS:        118
LLC TRANSLATION  ACCESS:      19097 HIT:       8960 MISS:      10137
LLC PREFETCH REQUESTED:          0 ISSUED:          0 USEFUL:          0 USELESS:          0
LLC AVERAGE MISS LATENCY: 631 cycles
cpu0_DTLB TOTAL        ACCESS:  129768855 HIT:  129064607 MISS:     704248
cpu0_DTLB LOAD         ACCESS:  129768855 HIT:  129064607 MISS:     704248
cpu0_DTLB RFO          ACCESS:          0 HIT:          0 MISS:          0
cpu0_DTLB PREFETCH     ACCESS:          0 HIT:          0 MISS:          0
cpu0_DTLB WRITE        ACCESS:          0 HIT:          0 MISS:          0
cpu0_DTLB TRANSLATION  ACCESS:          0 HIT:          0 MISS:          0
cpu0_DTLB PREFETCH REQUESTED:          0 ISSUED:          0 USEFUL:          0 USELESS:          0
cpu0_DTLB AVERAGE MISS LATENCY: 15.48 cycles
cpu0_ITLB TOTAL        ACCESS:    4877219 HIT:    4815124 MISS:      62095
cpu0_ITLB LOAD         ACCESS:    4877219 HIT:    4815124 MISS:      62095
cpu0_ITLB RFO          ACCESS:          0 HIT:          0 MISS:          0
cpu0_ITLB PREFETCH     ACCESS:          0 HIT:          0 MISS:          0
cpu0_ITLB WRITE        ACCESS:          0 HIT:          0 MISS:          0
cpu0_ITLB TRANSLATION  ACCESS:          0 HIT:          0 MISS:          0
cpu0_ITLB PREFETCH REQUESTED:          0 ISSUED:          0 USEFUL:          0 USELESS:          0
cpu0_ITLB AVERAGE MISS LATENCY: 6.84 cycles
cpu0_L1D TOTAL        ACCESS:  174352189 HIT:  172537849 MISS:    1814340
cpu0_L1D LOAD         ACCESS:   91332352 HIT:   89915410 MISS:    1416942
cpu0_L1D RFO          ACCESS:          0 HIT:          0 MISS:          0
cpu0_L1D PREFETCH     ACCESS:          0 HIT:          0 MISS:          0
cpu0_L1D WRITE        ACCESS:   82995380 HIT:   82621376 MISS:     374004
cpu0_L1D TRANSLATION  ACCESS:      24457 HIT:       1063 MISS:      23394
cpu0_L1D PREFETCH REQUESTED:          0 ISSUED:          0 USEFUL:          0 USELESS:          0
cpu0_L1D AVERAGE MISS LATENCY: 90.25 cycles
cpu0_L1I TOTAL        ACCESS:    5656404 HIT:    4851157 MISS:     805247
cpu0_L1I LOAD         ACCESS:    5656404 HIT:    4851157 MISS:     805247
cpu0_L1I RFO          ACCESS:          0 HIT:          0 MISS:          0
cpu0_L1I PREFETCH     ACCESS:          0 HIT:          0 MISS:          0
cpu0_L1I WRITE        ACCESS:          0 HIT:          0 MISS:          0
cpu0_L1I TRANSLATION  ACCESS:          0 HIT:          0 MISS:          0
cpu0_L1I PREFETCH REQUESTED:          0 ISSUED:          0 USEFUL:          0 USELESS:          0
cpu0_L1I AVERAGE MISS LATENCY: 11.75 cycles
cpu0_L2C TOTAL        ACCESS:    1667963 HIT:    1210861 MISS:     457102
cpu0_L2C LOAD         ACCESS:    1315284 HIT:     911616 MISS:     403668
cpu0_L2C RFO          ACCESS:      89628 HIT:      57112 MISS:      32516
cpu0_L2C PREFETCH     ACCESS:          0 HIT:          0 MISS:          0
cpu0_L2C WRITE        ACCESS:     239733 HIT:     237912 MISS:       1821
cpu0_L2C TRANSLATION  ACCESS:      23318 HIT:       4221 MISS:      19097
cpu0_L2C PREFETCH REQUESTED:          0 ISSUED:          0 USEFUL:          0 USELESS:          0
cpu0_L2C AVERAGE MISS LATENCY: 378.9 cycles
cpu0_STLB TOTAL        ACCESS:     509085 HIT:     486300 MISS:      22785
cpu0_STLB LOAD         ACCESS:     509085 HIT:     486300 MISS:      22785
cpu0_STLB RFO          ACCESS:          0 HIT:          0 MISS:          0
cpu0_STLB PREFETCH     ACCESS:          0 HIT:          0 MISS:          0
cpu0_STLB WRITE        ACCESS:          0 HIT:          0 MISS:          0
cpu0_STLB TRANSLATION  ACCESS:          0 HIT:          0 MISS:          0
cpu0_STLB PREFETCH REQUESTED:          0 ISSUED:          0 USEFUL:          0 USELESS:          0
cpu0_STLB AVERAGE MISS LATENCY: 373.5 cycles

DRAM Statistics

Channel 0 RQ ROW_BUFFER_HIT:      48259
  ROW_BUFFER_MISS:     211265
 AVG DBUS CONGESTED CYCLE: 3.833
WQ ROW_BUFFER_HIT: Channel 0 
  ROW_BUFFER_MISS:       4950
  FULL:      32031
