WARNING: physical memory size is smaller than virtual memory size.

*** ChampSim Multicore Out-of-Order Simulator ***
Warmup Instructions: 50000000
Simulation Instructions: 600000000
Number of CPUs: 1
Page size: 4096

Off-chip DRAM Size: 4 GiB Channels: 1 Width: 64-bit Data Race: 3200 MT/s
Heartbeat CPU 0 instructions: 10000000 cycles: 2500061 heartbeat IPC: 4 cumulative IPC: 4 (Simulation time: 00 hr 00 min 43 sec)
Heartbeat CPU 0 instructions: 20000000 cycles: 5000061 heartbeat IPC: 4 cumulative IPC: 4 (Simulation time: 00 hr 01 min 27 sec)
Heartbeat CPU 0 instructions: 30000000 cycles: 7500061 heartbeat IPC: 4 cumulative IPC: 4 (Simulation time: 00 hr 02 min 10 sec)
Heartbeat CPU 0 instructions: 40000000 cycles: 10000061 heartbeat IPC: 4 cumulative IPC: 4 (Simulation time: 00 hr 03 min 05 sec)
Heartbeat CPU 0 instructions: 50000000 cycles: 12500061 heartbeat IPC: 4 cumulative IPC: 4 (Simulation time: 00 hr 03 min 50 sec)
Warmup finished CPU 0 instructions: 50000000 cycles: 12500062 cumulative IPC: 4 (Simulation time: 00 hr 03 min 50 sec)
Warmup complete CPU 0 instructions: 50000000 cycles: 12500062 cumulative IPC: 4 (Simulation time: 00 hr 03 min 50 sec)
Heartbeat CPU 0 instructions: 60000002 cycles: 16446623 heartbeat IPC: 2.534 cumulative IPC: 2.534 (Simulation time: 00 hr 04 min 51 sec)
Heartbeat CPU 0 instructions: 70000003 cycles: 20770663 heartbeat IPC: 2.313 cumulative IPC: 2.418 (Simulation time: 00 hr 05 min 54 sec)
Heartbeat CPU 0 instructions: 80000003 cycles: 25247437 heartbeat IPC: 2.234 cumulative IPC: 2.353 (Simulation time: 00 hr 06 min 57 sec)
Heartbeat CPU 0 instructions: 90000000 cycles: 28939876 heartbeat IPC: 2.708 cumulative IPC: 2.433 (Simulation time: 00 hr 07 min 56 sec)
Heartbeat CPU 0 instructions: 100000003 cycles: 32843908 heartbeat IPC: 2.561 cumulative IPC: 2.458 (Simulation time: 00 hr 08 min 56 sec)
Heartbeat CPU 0 instructions: 110000002 cycles: 36950135 heartbeat IPC: 2.435 cumulative IPC: 2.454 (Simulation time: 00 hr 09 min 58 sec)
Heartbeat CPU 0 instructions: 120000001 cycles: 40668359 heartbeat IPC: 2.689 cumulative IPC: 2.485 (Simulation time: 00 hr 10 min 58 sec)
Heartbeat CPU 0 instructions: 130000003 cycles: 44444328 heartbeat IPC: 2.648 cumulative IPC: 2.504 (Simulation time: 00 hr 11 min 58 sec)
Heartbeat CPU 0 instructions: 140000002 cycles: 48579315 heartbeat IPC: 2.418 cumulative IPC: 2.495 (Simulation time: 00 hr 13 min 00 sec)
Heartbeat CPU 0 instructions: 150000001 cycles: 52632664 heartbeat IPC: 2.467 cumulative IPC: 2.492 (Simulation time: 00 hr 14 min 03 sec)
Heartbeat CPU 0 instructions: 160000000 cycles: 56291651 heartbeat IPC: 2.733 cumulative IPC: 2.512 (Simulation time: 00 hr 15 min 03 sec)
Heartbeat CPU 0 instructions: 170000001 cycles: 60472265 heartbeat IPC: 2.392 cumulative IPC: 2.501 (Simulation time: 00 hr 16 min 06 sec)
Heartbeat CPU 0 instructions: 180000001 cycles: 63937266 heartbeat IPC: 2.886 cumulative IPC: 2.527 (Simulation time: 00 hr 17 min 04 sec)
Heartbeat CPU 0 instructions: 190000002 cycles: 67527991 heartbeat IPC: 2.785 cumulative IPC: 2.544 (Simulation time: 00 hr 18 min 03 sec)
Heartbeat CPU 0 instructions: 200000002 cycles: 71313371 heartbeat IPC: 2.642 cumulative IPC: 2.55 (Simulation time: 00 hr 19 min 03 sec)
Heartbeat CPU 0 instructions: 210000000 cycles: 74955304 heartbeat IPC: 2.746 cumulative IPC: 2.562 (Simulation time: 00 hr 20 min 01 sec)
Heartbeat CPU 0 instructions: 220000001 cycles: 78830321 heartbeat IPC: 2.581 cumulative IPC: 2.563 (Simulation time: 00 hr 21 min 01 sec)
Heartbeat CPU 0 instructions: 230000002 cycles: 82673917 heartbeat IPC: 2.602 cumulative IPC: 2.565 (Simulation time: 00 hr 22 min 01 sec)
Heartbeat CPU 0 instructions: 240000001 cycles: 86886053 heartbeat IPC: 2.374 cumulative IPC: 2.554 (Simulation time: 00 hr 23 min 04 sec)
Heartbeat CPU 0 instructions: 250000003 cycles: 91459175 heartbeat IPC: 2.187 cumulative IPC: 2.533 (Simulation time: 00 hr 24 min 07 sec)
Heartbeat CPU 0 instructions: 260000000 cycles: 95257028 heartbeat IPC: 2.633 cumulative IPC: 2.538 (Simulation time: 00 hr 25 min 06 sec)
Heartbeat CPU 0 instructions: 270000003 cycles: 102484968 heartbeat IPC: 1.384 cumulative IPC: 2.445 (Simulation time: 00 hr 26 min 33 sec)
Heartbeat CPU 0 instructions: 280000000 cycles: 114878991 heartbeat IPC: 0.8068 cumulative IPC: 2.247 (Simulation time: 00 hr 28 min 45 sec)
Heartbeat CPU 0 instructions: 290000000 cycles: 126340075 heartbeat IPC: 0.8725 cumulative IPC: 2.108 (Simulation time: 00 hr 30 min 50 sec)
Heartbeat CPU 0 instructions: 300000003 cycles: 134147979 heartbeat IPC: 1.281 cumulative IPC: 2.055 (Simulation time: 00 hr 32 min 27 sec)
Heartbeat CPU 0 instructions: 310000004 cycles: 145973114 heartbeat IPC: 0.8457 cumulative IPC: 1.948 (Simulation time: 00 hr 34 min 39 sec)
Heartbeat CPU 0 instructions: 320000004 cycles: 151190086 heartbeat IPC: 1.917 cumulative IPC: 1.947 (Simulation time: 00 hr 35 min 53 sec)
Heartbeat CPU 0 instructions: 330000000 cycles: 155237682 heartbeat IPC: 2.471 cumulative IPC: 1.962 (Simulation time: 00 hr 37 min 00 sec)
Heartbeat CPU 0 instructions: 340000001 cycles: 159511262 heartbeat IPC: 2.34 cumulative IPC: 1.973 (Simulation time: 00 hr 38 min 05 sec)
Heartbeat CPU 0 instructions: 350000004 cycles: 164005956 heartbeat IPC: 2.225 cumulative IPC: 1.98 (Simulation time: 00 hr 39 min 11 sec)
Heartbeat CPU 0 instructions: 360000003 cycles: 168211838 heartbeat IPC: 2.378 cumulative IPC: 1.991 (Simulation time: 00 hr 40 min 15 sec)
Heartbeat CPU 0 instructions: 370000001 cycles: 172267216 heartbeat IPC: 2.466 cumulative IPC: 2.003 (Simulation time: 00 hr 41 min 17 sec)
Heartbeat CPU 0 instructions: 380000004 cycles: 176194142 heartbeat IPC: 2.547 cumulative IPC: 2.016 (Simulation time: 00 hr 42 min 19 sec)
Heartbeat CPU 0 instructions: 390000002 cycles: 180374775 heartbeat IPC: 2.392 cumulative IPC: 2.025 (Simulation time: 00 hr 43 min 23 sec)
Heartbeat CPU 0 instructions: 400000000 cycles: 184836316 heartbeat IPC: 2.241 cumulative IPC: 2.031 (Simulation time: 00 hr 44 min 28 sec)
Heartbeat CPU 0 instructions: 410000000 cycles: 193205960 heartbeat IPC: 1.195 cumulative IPC: 1.992 (Simulation time: 00 hr 46 min 06 sec)
Heartbeat CPU 0 instructions: 420000003 cycles: 205743703 heartbeat IPC: 0.7976 cumulative IPC: 1.915 (Simulation time: 00 hr 48 min 22 sec)
Heartbeat CPU 0 instructions: 430000000 cycles: 213917077 heartbeat IPC: 1.223 cumulative IPC: 1.887 (Simulation time: 00 hr 50 min 05 sec)
Heartbeat CPU 0 instructions: 440000004 cycles: 221369324 heartbeat IPC: 1.342 cumulative IPC: 1.867 (Simulation time: 00 hr 51 min 41 sec)
Heartbeat CPU 0 instructions: 450000001 cycles: 228688267 heartbeat IPC: 1.366 cumulative IPC: 1.85 (Simulation time: 00 hr 53 min 13 sec)
Heartbeat CPU 0 instructions: 460000002 cycles: 241288746 heartbeat IPC: 0.7936 cumulative IPC: 1.792 (Simulation time: 00 hr 55 min 29 sec)
Heartbeat CPU 0 instructions: 470000003 cycles: 251568467 heartbeat IPC: 0.9728 cumulative IPC: 1.757 (Simulation time: 00 hr 57 min 25 sec)
Heartbeat CPU 0 instructions: 480000003 cycles: 255825987 heartbeat IPC: 2.349 cumulative IPC: 1.767 (Simulation time: 00 hr 58 min 30 sec)
Heartbeat CPU 0 instructions: 490000001 cycles: 260537536 heartbeat IPC: 2.122 cumulative IPC: 1.774 (Simulation time: 00 hr 59 min 40 sec)
Heartbeat CPU 0 instructions: 500000002 cycles: 265061361 heartbeat IPC: 2.211 cumulative IPC: 1.782 (Simulation time: 01 hr 00 min 48 sec)
Heartbeat CPU 0 instructions: 510000000 cycles: 269370974 heartbeat IPC: 2.32 cumulative IPC: 1.791 (Simulation time: 01 hr 01 min 52 sec)
Heartbeat CPU 0 instructions: 520000000 cycles: 273865809 heartbeat IPC: 2.225 cumulative IPC: 1.798 (Simulation time: 01 hr 02 min 59 sec)
Heartbeat CPU 0 instructions: 530000001 cycles: 286901636 heartbeat IPC: 0.7671 cumulative IPC: 1.749 (Simulation time: 01 hr 05 min 15 sec)
Heartbeat CPU 0 instructions: 540000000 cycles: 299595810 heartbeat IPC: 0.7878 cumulative IPC: 1.707 (Simulation time: 01 hr 07 min 33 sec)
Heartbeat CPU 0 instructions: 550000004 cycles: 313703988 heartbeat IPC: 0.7088 cumulative IPC: 1.66 (Simulation time: 01 hr 10 min 02 sec)
Heartbeat CPU 0 instructions: 560000004 cycles: 318169438 heartbeat IPC: 2.239 cumulative IPC: 1.668 (Simulation time: 01 hr 11 min 07 sec)
Heartbeat CPU 0 instructions: 570000001 cycles: 321301521 heartbeat IPC: 3.193 cumulative IPC: 1.684 (Simulation time: 01 hr 12 min 02 sec)
Heartbeat CPU 0 instructions: 580000003 cycles: 324850113 heartbeat IPC: 2.818 cumulative IPC: 1.697 (Simulation time: 01 hr 13 min 00 sec)
Heartbeat CPU 0 instructions: 590000002 cycles: 328475700 heartbeat IPC: 2.758 cumulative IPC: 1.709 (Simulation time: 01 hr 13 min 59 sec)
Heartbeat CPU 0 instructions: 600000003 cycles: 331544005 heartbeat IPC: 3.259 cumulative IPC: 1.724 (Simulation time: 01 hr 14 min 55 sec)
Heartbeat CPU 0 instructions: 610000001 cycles: 335057163 heartbeat IPC: 2.846 cumulative IPC: 1.736 (Simulation time: 01 hr 15 min 43 sec)
Heartbeat CPU 0 instructions: 620000000 cycles: 339075522 heartbeat IPC: 2.489 cumulative IPC: 1.745 (Simulation time: 01 hr 16 min 31 sec)
Heartbeat CPU 0 instructions: 630000002 cycles: 342442463 heartbeat IPC: 2.97 cumulative IPC: 1.758 (Simulation time: 01 hr 17 min 14 sec)
Heartbeat CPU 0 instructions: 640000004 cycles: 346428581 heartbeat IPC: 2.509 cumulative IPC: 1.767 (Simulation time: 01 hr 17 min 56 sec)
Heartbeat CPU 0 instructions: 650000001 cycles: 350244989 heartbeat IPC: 2.62 cumulative IPC: 1.776 (Simulation time: 01 hr 18 min 37 sec)
Simulation finished CPU 0 instructions: 600000001 cycles: 337744928 cumulative IPC: 1.776 (Simulation time: 01 hr 18 min 37 sec)
Simulation complete CPU 0 instructions: 600000001 cycles: 337744928 cumulative IPC: 1.776 (Simulation time: 01 hr 18 min 37 sec)

ChampSim completed all CPUs

=== Simulation ===
CPU 0 runs traces/400.perlbench-50B.champsimtrace.xz
Region of Interest Statistics

CPU 0 cumulative IPC: 1.776 instructions: 600000001 cycles: 337744928
CPU 0 Branch Prediction Accuracy: 96.2% MPKI: 7.839 Average ROB Occupancy at Mispredict: 43.95
Branch type MPKI
BRANCH_DIRECT_JUMP: 0.0176
BRANCH_INDIRECT: 0.38
BRANCH_CONDITIONAL: 6.99
BRANCH_DIRECT_CALL: 0.0067
BRANCH_INDIRECT_CALL: 0.431
BRANCH_RETURN: 0.0161

LLC TOTAL        ACCESS:     783426 HIT:     442650 MISS:     340776
LLC LOAD         ACCESS:     585799 HIT:     288438 MISS:     297361
LLC RFO          ACCESS:      47551 HIT:      25003 MISS:      22548
LLC PREFETCH     ACCESS:          0 HIT:          0 MISS:          0
LLC WRITE        ACCESS:     128001 HIT:     120559 MISS:       7442
LLC TRANSLATION  ACCESS:      22075 HIT:       8650 MISS:      13425
LLC PREFETCH REQUESTED:          0 ISSUED:          0 USEFUL:          0 USELESS:          0
LLC AVERAGE MISS LATENCY: 543.5 cycles
cpu0_DTLB TOTAL        ACCESS:  146491664 HIT:  145185074 MISS:    1306590
cpu0_DTLB LOAD         ACCESS:  146491664 HIT:  145185074 MISS:    1306590
cpu0_DTLB RFO          ACCESS:          0 HIT:          0 MISS:          0
cpu0_DTLB PREFETCH     ACCESS:          0 HIT:          0 MISS:          0
cpu0_DTLB WRITE        ACCESS:          0 HIT:          0 MISS:          0
cpu0_DTLB TRANSLATION  ACCESS:          0 HIT:          0 MISS:          0
cpu0_DTLB PREFETCH REQUESTED:          0 ISSUED:          0 USEFUL:          0 USELESS:          0
cpu0_DTLB AVERAGE MISS LATENCY: 12.8 cycles
cpu0_ITLB TOTAL        ACCESS:    8990460 HIT:    8805887 MISS:     184573
cpu0_ITLB LOAD         ACCESS:    8990460 HIT:    8805887 MISS:     184573
cpu0_ITLB RFO          ACCESS:          0 HIT:          0 MISS:          0
cpu0_ITLB PREFETCH     ACCESS:          0 HIT:          0 MISS:          0
cpu0_ITLB WRITE        ACCESS:          0 HIT:          0 MISS:          0
cpu0_ITLB TRANSLATION  ACCESS:          0 HIT:          0 MISS:          0
cpu0_ITLB PREFETCH REQUESTED:          0 ISSUED:          0 USEFUL:          0 USELESS:          0
cpu0_ITLB AVERAGE MISS LATENCY: 3.604 cycles
cpu0_L1D TOTAL        ACCESS:  193252582 HIT:  189578660 MISS:    3673922
cpu0_L1D LOAD         ACCESS:  107407109 HIT:  104384841 MISS:    3022268
cpu0_L1D RFO          ACCESS:          0 HIT:          0 MISS:          0
cpu0_L1D PREFETCH     ACCESS:          0 HIT:          0 MISS:          0
cpu0_L1D WRITE        ACCESS:   85816957 HIT:   85192397 MISS:     624560
cpu0_L1D TRANSLATION  ACCESS:      28516 HIT:       1422 MISS:      27094
cpu0_L1D PREFETCH REQUESTED:          0 ISSUED:          0 USEFUL:          0 USELESS:          0
cpu0_L1D AVERAGE MISS LATENCY: 53.82 cycles
cpu0_L1I TOTAL        ACCESS:   10424433 HIT:    8662075 MISS:    1762358
cpu0_L1I LOAD         ACCESS:   10424433 HIT:    8662075 MISS:    1762358
cpu0_L1I RFO          ACCESS:          0 HIT:          0 MISS:          0
cpu0_L1I PREFETCH     ACCESS:          0 HIT:          0 MISS:          0
cpu0_L1I WRITE        ACCESS:          0 HIT:          0 MISS:          0
cpu0_L1I TRANSLATION  ACCESS:          0 HIT:          0 MISS:          0
cpu0_L1I PREFETCH REQUESTED:          0 ISSUED:          0 USEFUL:          0 USELESS:          0
cpu0_L1I AVERAGE MISS LATENCY: 14.44 cycles
cpu0_L2C TOTAL        ACCESS:    3834520 HIT:    3175830 MISS:     658690
cpu0_L2C LOAD         ACCESS:    3104880 HIT:    2519081 MISS:     585799
cpu0_L2C RFO          ACCESS:     191575 HIT:     144024 MISS:      47551
cpu0_L2C PREFETCH     ACCESS:          0 HIT:          0 MISS:          0
cpu0_L2C WRITE        ACCESS:     511037 HIT:     507772 MISS:       3265
cpu0_L2C TRANSLATION  ACCESS:      27028 HIT:       4953 MISS:      22075
cpu0_L2C PREFETCH REQUESTED:          0 ISSUED:          0 USEFUL:          0 USELESS:          0
cpu0_L2C AVERAGE MISS LATENCY: 301.6 cycles
cpu0_STLB TOTAL        ACCESS:    1008702 HIT:     982009 MISS:      26693
cpu0_STLB LOAD         ACCESS:    1008702 HIT:     982009 MISS:      26693
cpu0_STLB RFO          ACCESS:          0 HIT:          0 MISS:          0
cpu0_STLB PREFETCH     ACCESS:          0 HIT:          0 MISS:          0
cpu0_STLB WRITE        ACCESS:          0 HIT:          0 MISS:          0
cpu0_STLB TRANSLATION  ACCESS:          0 HIT:          0 MISS:          0
cpu0_STLB PREFETCH REQUESTED:          0 ISSUED:          0 USEFUL:          0 USELESS:          0
cpu0_STLB AVERAGE MISS LATENCY: 411 cycles

DRAM Statistics

Channel 0 RQ ROW_BUFFER_HIT:      53110
  ROW_BUFFER_MISS:     280142
 AVG DBUS CONGESTED CYCLE: 3.817
WQ ROW_BUFFER_HIT: Channel 0 
  ROW_BUFFER_MISS:      10133
  FULL:      46421
