WARNING: physical memory size is smaller than virtual memory size.

*** ChampSim Multicore Out-of-Order Simulator ***
Warmup Instructions: 50000000
Simulation Instructions: 600000000
Number of CPUs: 1
Page size: 4096

CPU 0 Tage branch predictor
Off-chip DRAM Size: 4 GiB Channels: 1 Width: 64-bit Data Race: 3200 MT/s
Heartbeat CPU 0 instructions: 10000001 cycles: 2500318 heartbeat IPC: 3.999 cumulative IPC: 3.999 (Simulation time: 00 hr 00 min 42 sec)
Heartbeat CPU 0 instructions: 20000002 cycles: 5037108 heartbeat IPC: 3.942 cumulative IPC: 3.971 (Simulation time: 00 hr 01 min 26 sec)
Heartbeat CPU 0 instructions: 30000002 cycles: 7537108 heartbeat IPC: 4 cumulative IPC: 3.98 (Simulation time: 00 hr 02 min 05 sec)
Heartbeat CPU 0 instructions: 40000002 cycles: 10037108 heartbeat IPC: 4 cumulative IPC: 3.985 (Simulation time: 00 hr 02 min 44 sec)
Heartbeat CPU 0 instructions: 50000002 cycles: 12537108 heartbeat IPC: 4 cumulative IPC: 3.988 (Simulation time: 00 hr 03 min 23 sec)
Warmup finished CPU 0 instructions: 50000002 cycles: 12537109 cumulative IPC: 3.988 (Simulation time: 00 hr 03 min 23 sec)
Warmup complete CPU 0 instructions: 50000002 cycles: 12537109 cumulative IPC: 3.988 (Simulation time: 00 hr 03 min 23 sec)
Heartbeat CPU 0 instructions: 60000001 cycles: 15513064 heartbeat IPC: 3.36 cumulative IPC: 3.36 (Simulation time: 00 hr 04 min 09 sec)
Heartbeat CPU 0 instructions: 70000004 cycles: 18591354 heartbeat IPC: 3.249 cumulative IPC: 3.303 (Simulation time: 00 hr 04 min 55 sec)
Heartbeat CPU 0 instructions: 80000001 cycles: 21639740 heartbeat IPC: 3.28 cumulative IPC: 3.296 (Simulation time: 00 hr 05 min 43 sec)
Heartbeat CPU 0 instructions: 90000001 cycles: 24589749 heartbeat IPC: 3.39 cumulative IPC: 3.319 (Simulation time: 00 hr 06 min 28 sec)
Heartbeat CPU 0 instructions: 100000000 cycles: 27504471 heartbeat IPC: 3.431 cumulative IPC: 3.341 (Simulation time: 00 hr 07 min 13 sec)
Heartbeat CPU 0 instructions: 110000000 cycles: 30455374 heartbeat IPC: 3.389 cumulative IPC: 3.349 (Simulation time: 00 hr 07 min 58 sec)
Heartbeat CPU 0 instructions: 120000001 cycles: 33428389 heartbeat IPC: 3.364 cumulative IPC: 3.351 (Simulation time: 00 hr 08 min 50 sec)
Heartbeat CPU 0 instructions: 130000001 cycles: 36286789 heartbeat IPC: 3.498 cumulative IPC: 3.368 (Simulation time: 00 hr 09 min 47 sec)
Heartbeat CPU 0 instructions: 140000001 cycles: 39334384 heartbeat IPC: 3.281 cumulative IPC: 3.359 (Simulation time: 00 hr 10 min 46 sec)
Heartbeat CPU 0 instructions: 150000001 cycles: 42346078 heartbeat IPC: 3.32 cumulative IPC: 3.355 (Simulation time: 00 hr 11 min 37 sec)
Heartbeat CPU 0 instructions: 160000004 cycles: 45360201 heartbeat IPC: 3.318 cumulative IPC: 3.351 (Simulation time: 00 hr 12 min 31 sec)
Heartbeat CPU 0 instructions: 170000000 cycles: 53449863 heartbeat IPC: 1.236 cumulative IPC: 2.933 (Simulation time: 00 hr 14 min 21 sec)
Heartbeat CPU 0 instructions: 180000004 cycles: 61932158 heartbeat IPC: 1.179 cumulative IPC: 2.632 (Simulation time: 00 hr 16 min 13 sec)
Heartbeat CPU 0 instructions: 190000001 cycles: 70123380 heartbeat IPC: 1.221 cumulative IPC: 2.431 (Simulation time: 00 hr 18 min 04 sec)
Heartbeat CPU 0 instructions: 200000004 cycles: 73089285 heartbeat IPC: 3.372 cumulative IPC: 2.477 (Simulation time: 00 hr 19 min 16 sec)
Heartbeat CPU 0 instructions: 210000001 cycles: 76052801 heartbeat IPC: 3.374 cumulative IPC: 2.519 (Simulation time: 00 hr 20 min 29 sec)
Heartbeat CPU 0 instructions: 220000000 cycles: 78945112 heartbeat IPC: 3.457 cumulative IPC: 2.56 (Simulation time: 00 hr 21 min 40 sec)
Heartbeat CPU 0 instructions: 230000002 cycles: 81974654 heartbeat IPC: 3.301 cumulative IPC: 2.592 (Simulation time: 00 hr 22 min 54 sec)
Heartbeat CPU 0 instructions: 240000003 cycles: 85016252 heartbeat IPC: 3.288 cumulative IPC: 2.621 (Simulation time: 00 hr 24 min 06 sec)
Heartbeat CPU 0 instructions: 250000000 cycles: 88044450 heartbeat IPC: 3.302 cumulative IPC: 2.649 (Simulation time: 00 hr 25 min 14 sec)
Heartbeat CPU 0 instructions: 260000002 cycles: 91020630 heartbeat IPC: 3.36 cumulative IPC: 2.676 (Simulation time: 00 hr 26 min 21 sec)
Heartbeat CPU 0 instructions: 270000002 cycles: 93934782 heartbeat IPC: 3.432 cumulative IPC: 2.703 (Simulation time: 00 hr 27 min 31 sec)
Heartbeat CPU 0 instructions: 280000002 cycles: 96828505 heartbeat IPC: 3.456 cumulative IPC: 2.729 (Simulation time: 00 hr 28 min 37 sec)
Heartbeat CPU 0 instructions: 290000002 cycles: 99786954 heartbeat IPC: 3.38 cumulative IPC: 2.751 (Simulation time: 00 hr 29 min 43 sec)
Heartbeat CPU 0 instructions: 300000003 cycles: 102693092 heartbeat IPC: 3.441 cumulative IPC: 2.773 (Simulation time: 00 hr 30 min 49 sec)
Heartbeat CPU 0 instructions: 310000001 cycles: 105730347 heartbeat IPC: 3.292 cumulative IPC: 2.79 (Simulation time: 00 hr 31 min 58 sec)
Heartbeat CPU 0 instructions: 320000003 cycles: 108743113 heartbeat IPC: 3.319 cumulative IPC: 2.806 (Simulation time: 00 hr 33 min 04 sec)
Heartbeat CPU 0 instructions: 330000003 cycles: 111732956 heartbeat IPC: 3.345 cumulative IPC: 2.823 (Simulation time: 00 hr 34 min 06 sec)
Heartbeat CPU 0 instructions: 340000000 cycles: 120139877 heartbeat IPC: 1.189 cumulative IPC: 2.695 (Simulation time: 00 hr 35 min 55 sec)
Heartbeat CPU 0 instructions: 350000000 cycles: 128886995 heartbeat IPC: 1.143 cumulative IPC: 2.578 (Simulation time: 00 hr 37 min 57 sec)
Heartbeat CPU 0 instructions: 360000004 cycles: 137126336 heartbeat IPC: 1.214 cumulative IPC: 2.488 (Simulation time: 00 hr 39 min 48 sec)
Heartbeat CPU 0 instructions: 370000000 cycles: 140095960 heartbeat IPC: 3.367 cumulative IPC: 2.509 (Simulation time: 00 hr 40 min 51 sec)
Heartbeat CPU 0 instructions: 380000003 cycles: 143017396 heartbeat IPC: 3.423 cumulative IPC: 2.529 (Simulation time: 00 hr 41 min 55 sec)
Heartbeat CPU 0 instructions: 390000002 cycles: 145997185 heartbeat IPC: 3.356 cumulative IPC: 2.548 (Simulation time: 00 hr 43 min 02 sec)
Heartbeat CPU 0 instructions: 400000004 cycles: 148903742 heartbeat IPC: 3.44 cumulative IPC: 2.567 (Simulation time: 00 hr 44 min 09 sec)
Heartbeat CPU 0 instructions: 410000002 cycles: 151847660 heartbeat IPC: 3.397 cumulative IPC: 2.584 (Simulation time: 00 hr 45 min 13 sec)
Heartbeat CPU 0 instructions: 420000003 cycles: 154964509 heartbeat IPC: 3.208 cumulative IPC: 2.598 (Simulation time: 00 hr 46 min 19 sec)
Heartbeat CPU 0 instructions: 430000001 cycles: 157977924 heartbeat IPC: 3.318 cumulative IPC: 2.613 (Simulation time: 00 hr 47 min 29 sec)
Heartbeat CPU 0 instructions: 440000004 cycles: 161118230 heartbeat IPC: 3.184 cumulative IPC: 2.625 (Simulation time: 00 hr 48 min 33 sec)
Heartbeat CPU 0 instructions: 450000002 cycles: 164044677 heartbeat IPC: 3.417 cumulative IPC: 2.64 (Simulation time: 00 hr 49 min 34 sec)
Heartbeat CPU 0 instructions: 460000000 cycles: 166980264 heartbeat IPC: 3.406 cumulative IPC: 2.655 (Simulation time: 00 hr 50 min 37 sec)
Heartbeat CPU 0 instructions: 470000001 cycles: 169835177 heartbeat IPC: 3.503 cumulative IPC: 2.67 (Simulation time: 00 hr 51 min 40 sec)
Heartbeat CPU 0 instructions: 480000003 cycles: 172891351 heartbeat IPC: 3.272 cumulative IPC: 2.682 (Simulation time: 00 hr 52 min 46 sec)
Heartbeat CPU 0 instructions: 490000004 cycles: 175722609 heartbeat IPC: 3.532 cumulative IPC: 2.696 (Simulation time: 00 hr 53 min 49 sec)
Heartbeat CPU 0 instructions: 500000004 cycles: 178707042 heartbeat IPC: 3.351 cumulative IPC: 2.708 (Simulation time: 00 hr 54 min 54 sec)
Heartbeat CPU 0 instructions: 510000003 cycles: 181721424 heartbeat IPC: 3.317 cumulative IPC: 2.719 (Simulation time: 00 hr 55 min 59 sec)
Heartbeat CPU 0 instructions: 520000001 cycles: 184610027 heartbeat IPC: 3.462 cumulative IPC: 2.731 (Simulation time: 00 hr 57 min 05 sec)
Heartbeat CPU 0 instructions: 530000001 cycles: 187620471 heartbeat IPC: 3.322 cumulative IPC: 2.742 (Simulation time: 00 hr 58 min 15 sec)
Heartbeat CPU 0 instructions: 540000000 cycles: 190581152 heartbeat IPC: 3.378 cumulative IPC: 2.752 (Simulation time: 00 hr 59 min 43 sec)
Heartbeat CPU 0 instructions: 550000001 cycles: 193562189 heartbeat IPC: 3.355 cumulative IPC: 2.762 (Simulation time: 01 hr 01 min 11 sec)
Heartbeat CPU 0 instructions: 560000000 cycles: 196643167 heartbeat IPC: 3.246 cumulative IPC: 2.77 (Simulation time: 01 hr 02 min 33 sec)
Heartbeat CPU 0 instructions: 570000004 cycles: 202202714 heartbeat IPC: 1.799 cumulative IPC: 2.742 (Simulation time: 01 hr 04 min 12 sec)
Heartbeat CPU 0 instructions: 580000003 cycles: 211515605 heartbeat IPC: 1.074 cumulative IPC: 2.664 (Simulation time: 01 hr 06 min 21 sec)
Heartbeat CPU 0 instructions: 590000002 cycles: 222139245 heartbeat IPC: 0.9413 cumulative IPC: 2.576 (Simulation time: 01 hr 08 min 40 sec)
Heartbeat CPU 0 instructions: 600000004 cycles: 225194206 heartbeat IPC: 3.273 cumulative IPC: 2.586 (Simulation time: 01 hr 09 min 48 sec)
Heartbeat CPU 0 instructions: 610000002 cycles: 228161895 heartbeat IPC: 3.37 cumulative IPC: 2.597 (Simulation time: 01 hr 10 min 53 sec)
Heartbeat CPU 0 instructions: 620000001 cycles: 230935366 heartbeat IPC: 3.606 cumulative IPC: 2.61 (Simulation time: 01 hr 11 min 54 sec)
Heartbeat CPU 0 instructions: 630000002 cycles: 233910189 heartbeat IPC: 3.362 cumulative IPC: 2.62 (Simulation time: 01 hr 13 min 08 sec)
Heartbeat CPU 0 instructions: 640000004 cycles: 236861295 heartbeat IPC: 3.389 cumulative IPC: 2.63 (Simulation time: 01 hr 14 min 18 sec)
Heartbeat CPU 0 instructions: 650000000 cycles: 239612618 heartbeat IPC: 3.635 cumulative IPC: 2.642 (Simulation time: 01 hr 15 min 24 sec)
Simulation finished CPU 0 instructions: 600000001 cycles: 227075511 cumulative IPC: 2.642 (Simulation time: 01 hr 15 min 24 sec)
Simulation complete CPU 0 instructions: 600000001 cycles: 227075511 cumulative IPC: 2.642 (Simulation time: 01 hr 15 min 24 sec)

ChampSim completed all CPUs

=== Simulation ===
CPU 0 runs traces/400.perlbench-41B.champsimtrace.xz
Region of Interest Statistics

CPU 0 cumulative IPC: 2.642 instructions: 600000001 cycles: 227075511
CPU 0 Branch Prediction Accuracy: 99.19% MPKI: 1.684 Average ROB Occupancy at Mispredict: 102.6
Branch type MPKI
BRANCH_DIRECT_JUMP: 0.0123
BRANCH_INDIRECT: 0.323
BRANCH_CONDITIONAL: 1.14
BRANCH_DIRECT_CALL: 0.0043
BRANCH_INDIRECT_CALL: 0.2
BRANCH_RETURN: 0.00828

LLC TOTAL        ACCESS:     593284 HIT:     305368 MISS:     287916
LLC LOAD         ACCESS:     403684 HIT:     171762 MISS:     231922
LLC RFO          ACCESS:      32518 HIT:      15967 MISS:      16551
LLC PREFETCH     ACCESS:      52957 HIT:      24211 MISS:      28746
LLC WRITE        ACCESS:      85032 HIT:      84593 MISS:        439
LLC TRANSLATION  ACCESS:      19093 HIT:       8835 MISS:      10258
LLC PREFETCH REQUESTED:      52957 ISSUED:      52957 USEFUL:      18037 USELESS:       7045
LLC AVERAGE MISS LATENCY: 651.6 cycles
cpu0_DTLB TOTAL        ACCESS:  129773508 HIT:  129068896 MISS:     704612
cpu0_DTLB LOAD         ACCESS:  129773508 HIT:  129068896 MISS:     704612
cpu0_DTLB RFO          ACCESS:          0 HIT:          0 MISS:          0
cpu0_DTLB PREFETCH     ACCESS:          0 HIT:          0 MISS:          0
cpu0_DTLB WRITE        ACCESS:          0 HIT:          0 MISS:          0
cpu0_DTLB TRANSLATION  ACCESS:          0 HIT:          0 MISS:          0
cpu0_DTLB PREFETCH REQUESTED:          0 ISSUED:          0 USEFUL:          0 USELESS:          0
cpu0_DTLB AVERAGE MISS LATENCY: 15.88 cycles
cpu0_ITLB TOTAL        ACCESS:    4878818 HIT:    4816729 MISS:      62089
cpu0_ITLB LOAD         ACCESS:    4878818 HIT:    4816729 MISS:      62089
cpu0_ITLB RFO          ACCESS:          0 HIT:          0 MISS:          0
cpu0_ITLB PREFETCH     ACCESS:          0 HIT:          0 MISS:          0
cpu0_ITLB WRITE        ACCESS:          0 HIT:          0 MISS:          0
cpu0_ITLB TRANSLATION  ACCESS:          0 HIT:          0 MISS:          0
cpu0_ITLB PREFETCH REQUESTED:          0 ISSUED:          0 USEFUL:          0 USELESS:          0
cpu0_ITLB AVERAGE MISS LATENCY: 7.07 cycles
cpu0_L1D TOTAL        ACCESS:  174352735 HIT:  172551752 MISS:    1800983
cpu0_L1D LOAD         ACCESS:   91330622 HIT:   89928125 MISS:    1402497
cpu0_L1D RFO          ACCESS:          0 HIT:          0 MISS:          0
cpu0_L1D PREFETCH     ACCESS:          0 HIT:          0 MISS:          0
cpu0_L1D WRITE        ACCESS:   82997655 HIT:   82622564 MISS:     375091
cpu0_L1D TRANSLATION  ACCESS:      24458 HIT:       1063 MISS:      23395
cpu0_L1D PREFETCH REQUESTED:          0 ISSUED:          0 USEFUL:          0 USELESS:          0
cpu0_L1D AVERAGE MISS LATENCY: 93.43 cycles
cpu0_L1I TOTAL        ACCESS:    5657592 HIT:    4852308 MISS:     805284
cpu0_L1I LOAD         ACCESS:    5657592 HIT:    4852308 MISS:     805284
cpu0_L1I RFO          ACCESS:          0 HIT:          0 MISS:          0
cpu0_L1I PREFETCH     ACCESS:          0 HIT:          0 MISS:          0
cpu0_L1I WRITE        ACCESS:          0 HIT:          0 MISS:          0
cpu0_L1I TRANSLATION  ACCESS:          0 HIT:          0 MISS:          0
cpu0_L1I PREFETCH REQUESTED:          0 ISSUED:          0 USEFUL:          0 USELESS:          0
cpu0_L1I AVERAGE MISS LATENCY: 13.67 cycles
cpu0_L2C TOTAL        ACCESS:    1667848 HIT:    1210729 MISS:     457119
cpu0_L2C LOAD         ACCESS:    1315237 HIT:     911552 MISS:     403685
cpu0_L2C RFO          ACCESS:      89613 HIT:      57094 MISS:      32519
cpu0_L2C PREFETCH     ACCESS:          0 HIT:          0 MISS:          0
cpu0_L2C WRITE        ACCESS:     239680 HIT:     237858 MISS:       1822
cpu0_L2C TRANSLATION  ACCESS:      23318 HIT:       4225 MISS:      19093
cpu0_L2C PREFETCH REQUESTED:          0 ISSUED:          0 USEFUL:          0 USELESS:          0
cpu0_L2C AVERAGE MISS LATENCY: 388.4 cycles
cpu0_STLB TOTAL        ACCESS:     509142 HIT:     486356 MISS:      22786
cpu0_STLB LOAD         ACCESS:     509142 HIT:     486356 MISS:      22786
cpu0_STLB RFO          ACCESS:          0 HIT:          0 MISS:          0
cpu0_STLB PREFETCH     ACCESS:          0 HIT:          0 MISS:          0
cpu0_STLB WRITE        ACCESS:          0 HIT:          0 MISS:          0
cpu0_STLB TRANSLATION  ACCESS:          0 HIT:          0 MISS:          0
cpu0_STLB PREFETCH REQUESTED:          0 ISSUED:          0 USEFUL:          0 USELESS:          0
cpu0_STLB AVERAGE MISS LATENCY: 388.7 cycles

DRAM Statistics

Channel 0 RQ ROW_BUFFER_HIT:      54497
  ROW_BUFFER_MISS:     226879
 AVG DBUS CONGESTED CYCLE: 3.859
WQ ROW_BUFFER_HIT: Channel 0 
  ROW_BUFFER_MISS:       5024
  FULL:      39426
