WARNING: physical memory size is smaller than virtual memory size.

*** ChampSim Multicore Out-of-Order Simulator ***
Warmup Instructions: 50000000
Simulation Instructions: 600000000
Number of CPUs: 1
Page size: 4096

Off-chip DRAM Size: 4 GiB Channels: 1 Width: 64-bit Data Race: 3200 MT/s
Heartbeat CPU 0 instructions: 10000000 cycles: 2500061 heartbeat IPC: 4 cumulative IPC: 4 (Simulation time: 00 hr 00 min 36 sec)
Heartbeat CPU 0 instructions: 20000000 cycles: 5000061 heartbeat IPC: 4 cumulative IPC: 4 (Simulation time: 00 hr 01 min 11 sec)
Heartbeat CPU 0 instructions: 30000000 cycles: 7500061 heartbeat IPC: 4 cumulative IPC: 4 (Simulation time: 00 hr 01 min 44 sec)
Heartbeat CPU 0 instructions: 40000000 cycles: 10000061 heartbeat IPC: 4 cumulative IPC: 4 (Simulation time: 00 hr 02 min 23 sec)
Heartbeat CPU 0 instructions: 50000000 cycles: 12500061 heartbeat IPC: 4 cumulative IPC: 4 (Simulation time: 00 hr 02 min 59 sec)
Warmup finished CPU 0 instructions: 50000000 cycles: 12500062 cumulative IPC: 4 (Simulation time: 00 hr 02 min 59 sec)
Warmup complete CPU 0 instructions: 50000000 cycles: 12500062 cumulative IPC: 4 (Simulation time: 00 hr 02 min 59 sec)
Heartbeat CPU 0 instructions: 60000002 cycles: 16435783 heartbeat IPC: 2.541 cumulative IPC: 2.541 (Simulation time: 00 hr 03 min 46 sec)
Heartbeat CPU 0 instructions: 70000003 cycles: 20749204 heartbeat IPC: 2.318 cumulative IPC: 2.424 (Simulation time: 00 hr 04 min 38 sec)
Heartbeat CPU 0 instructions: 80000003 cycles: 25212938 heartbeat IPC: 2.24 cumulative IPC: 2.36 (Simulation time: 00 hr 05 min 27 sec)
Heartbeat CPU 0 instructions: 90000000 cycles: 28902625 heartbeat IPC: 2.71 cumulative IPC: 2.439 (Simulation time: 00 hr 06 min 14 sec)
Heartbeat CPU 0 instructions: 100000003 cycles: 32797283 heartbeat IPC: 2.568 cumulative IPC: 2.463 (Simulation time: 00 hr 07 min 04 sec)
Heartbeat CPU 0 instructions: 110000002 cycles: 36888882 heartbeat IPC: 2.444 cumulative IPC: 2.46 (Simulation time: 00 hr 07 min 49 sec)
Heartbeat CPU 0 instructions: 120000001 cycles: 40602045 heartbeat IPC: 2.693 cumulative IPC: 2.491 (Simulation time: 00 hr 08 min 33 sec)
Heartbeat CPU 0 instructions: 130000003 cycles: 44366187 heartbeat IPC: 2.657 cumulative IPC: 2.511 (Simulation time: 00 hr 09 min 19 sec)
Heartbeat CPU 0 instructions: 140000002 cycles: 48491614 heartbeat IPC: 2.424 cumulative IPC: 2.501 (Simulation time: 00 hr 10 min 07 sec)
Heartbeat CPU 0 instructions: 150000001 cycles: 52535644 heartbeat IPC: 2.473 cumulative IPC: 2.498 (Simulation time: 00 hr 10 min 53 sec)
Heartbeat CPU 0 instructions: 160000000 cycles: 56184366 heartbeat IPC: 2.741 cumulative IPC: 2.518 (Simulation time: 00 hr 11 min 40 sec)
Heartbeat CPU 0 instructions: 170000001 cycles: 60350038 heartbeat IPC: 2.401 cumulative IPC: 2.508 (Simulation time: 00 hr 12 min 28 sec)
Heartbeat CPU 0 instructions: 180000001 cycles: 63805525 heartbeat IPC: 2.894 cumulative IPC: 2.534 (Simulation time: 00 hr 13 min 12 sec)
Heartbeat CPU 0 instructions: 190000002 cycles: 67382662 heartbeat IPC: 2.796 cumulative IPC: 2.551 (Simulation time: 00 hr 13 min 57 sec)
Heartbeat CPU 0 instructions: 200000002 cycles: 71153986 heartbeat IPC: 2.652 cumulative IPC: 2.557 (Simulation time: 00 hr 14 min 42 sec)
Heartbeat CPU 0 instructions: 210000000 cycles: 74790234 heartbeat IPC: 2.75 cumulative IPC: 2.569 (Simulation time: 00 hr 15 min 26 sec)
Heartbeat CPU 0 instructions: 220000001 cycles: 78660402 heartbeat IPC: 2.584 cumulative IPC: 2.57 (Simulation time: 00 hr 16 min 10 sec)
Heartbeat CPU 0 instructions: 230000002 cycles: 82498543 heartbeat IPC: 2.605 cumulative IPC: 2.571 (Simulation time: 00 hr 16 min 53 sec)
Heartbeat CPU 0 instructions: 240000001 cycles: 86702953 heartbeat IPC: 2.378 cumulative IPC: 2.561 (Simulation time: 00 hr 17 min 41 sec)
Heartbeat CPU 0 instructions: 250000003 cycles: 91272105 heartbeat IPC: 2.189 cumulative IPC: 2.539 (Simulation time: 00 hr 18 min 29 sec)
Heartbeat CPU 0 instructions: 260000000 cycles: 95074431 heartbeat IPC: 2.63 cumulative IPC: 2.543 (Simulation time: 00 hr 19 min 14 sec)
Heartbeat CPU 0 instructions: 270000003 cycles: 101946154 heartbeat IPC: 1.455 cumulative IPC: 2.46 (Simulation time: 00 hr 20 min 18 sec)
Heartbeat CPU 0 instructions: 280000000 cycles: 112811093 heartbeat IPC: 0.9204 cumulative IPC: 2.293 (Simulation time: 00 hr 21 min 46 sec)
Heartbeat CPU 0 instructions: 290000000 cycles: 122364081 heartbeat IPC: 1.047 cumulative IPC: 2.185 (Simulation time: 00 hr 23 min 02 sec)
Heartbeat CPU 0 instructions: 300000003 cycles: 129767652 heartbeat IPC: 1.351 cumulative IPC: 2.132 (Simulation time: 00 hr 24 min 10 sec)
Heartbeat CPU 0 instructions: 310000004 cycles: 141010531 heartbeat IPC: 0.8895 cumulative IPC: 2.023 (Simulation time: 00 hr 25 min 40 sec)
Heartbeat CPU 0 instructions: 320000004 cycles: 146113362 heartbeat IPC: 1.96 cumulative IPC: 2.021 (Simulation time: 00 hr 26 min 32 sec)
Heartbeat CPU 0 instructions: 330000000 cycles: 150186118 heartbeat IPC: 2.455 cumulative IPC: 2.034 (Simulation time: 00 hr 27 min 17 sec)
Heartbeat CPU 0 instructions: 340000001 cycles: 154496747 heartbeat IPC: 2.32 cumulative IPC: 2.042 (Simulation time: 00 hr 28 min 03 sec)
Heartbeat CPU 0 instructions: 350000004 cycles: 158931364 heartbeat IPC: 2.255 cumulative IPC: 2.049 (Simulation time: 00 hr 28 min 52 sec)
Heartbeat CPU 0 instructions: 360000003 cycles: 163065852 heartbeat IPC: 2.419 cumulative IPC: 2.059 (Simulation time: 00 hr 29 min 39 sec)
Heartbeat CPU 0 instructions: 370000001 cycles: 167100680 heartbeat IPC: 2.478 cumulative IPC: 2.07 (Simulation time: 00 hr 30 min 25 sec)
Heartbeat CPU 0 instructions: 380000004 cycles: 170997067 heartbeat IPC: 2.566 cumulative IPC: 2.082 (Simulation time: 00 hr 31 min 11 sec)
Heartbeat CPU 0 instructions: 390000002 cycles: 175078491 heartbeat IPC: 2.45 cumulative IPC: 2.091 (Simulation time: 00 hr 31 min 58 sec)
Heartbeat CPU 0 instructions: 400000000 cycles: 179446199 heartbeat IPC: 2.29 cumulative IPC: 2.096 (Simulation time: 00 hr 32 min 46 sec)
Heartbeat CPU 0 instructions: 410000000 cycles: 187009284 heartbeat IPC: 1.322 cumulative IPC: 2.063 (Simulation time: 00 hr 33 min 53 sec)
Heartbeat CPU 0 instructions: 420000003 cycles: 197939510 heartbeat IPC: 0.9149 cumulative IPC: 1.995 (Simulation time: 00 hr 36 min 22 sec)
Heartbeat CPU 0 instructions: 430000000 cycles: 205648100 heartbeat IPC: 1.297 cumulative IPC: 1.967 (Simulation time: 00 hr 38 min 30 sec)
Heartbeat CPU 0 instructions: 440000004 cycles: 212328947 heartbeat IPC: 1.497 cumulative IPC: 1.952 (Simulation time: 00 hr 40 min 27 sec)
Heartbeat CPU 0 instructions: 450000001 cycles: 219031400 heartbeat IPC: 1.492 cumulative IPC: 1.937 (Simulation time: 00 hr 42 min 21 sec)
Heartbeat CPU 0 instructions: 460000002 cycles: 229983378 heartbeat IPC: 0.9131 cumulative IPC: 1.885 (Simulation time: 00 hr 44 min 58 sec)
Heartbeat CPU 0 instructions: 470000003 cycles: 239761275 heartbeat IPC: 1.023 cumulative IPC: 1.848 (Simulation time: 00 hr 47 min 24 sec)
Heartbeat CPU 0 instructions: 480000003 cycles: 244054307 heartbeat IPC: 2.329 cumulative IPC: 1.857 (Simulation time: 00 hr 48 min 52 sec)
Heartbeat CPU 0 instructions: 490000001 cycles: 248744739 heartbeat IPC: 2.132 cumulative IPC: 1.862 (Simulation time: 00 hr 50 min 23 sec)
Heartbeat CPU 0 instructions: 500000002 cycles: 253176544 heartbeat IPC: 2.256 cumulative IPC: 1.87 (Simulation time: 00 hr 51 min 52 sec)
Heartbeat CPU 0 instructions: 510000000 cycles: 257436965 heartbeat IPC: 2.347 cumulative IPC: 1.878 (Simulation time: 00 hr 53 min 28 sec)
Heartbeat CPU 0 instructions: 520000000 cycles: 261871475 heartbeat IPC: 2.255 cumulative IPC: 1.885 (Simulation time: 00 hr 55 min 03 sec)
Heartbeat CPU 0 instructions: 530000001 cycles: 273095806 heartbeat IPC: 0.8909 cumulative IPC: 1.842 (Simulation time: 00 hr 57 min 51 sec)
Heartbeat CPU 0 instructions: 540000000 cycles: 284243446 heartbeat IPC: 0.8971 cumulative IPC: 1.803 (Simulation time: 01 hr 00 min 50 sec)
Heartbeat CPU 0 instructions: 550000004 cycles: 296675531 heartbeat IPC: 0.8044 cumulative IPC: 1.759 (Simulation time: 01 hr 04 min 04 sec)
Heartbeat CPU 0 instructions: 560000004 cycles: 301060238 heartbeat IPC: 2.281 cumulative IPC: 1.767 (Simulation time: 01 hr 05 min 39 sec)
Heartbeat CPU 0 instructions: 570000001 cycles: 304190663 heartbeat IPC: 3.194 cumulative IPC: 1.783 (Simulation time: 01 hr 07 min 02 sec)
Heartbeat CPU 0 instructions: 580000003 cycles: 307738798 heartbeat IPC: 2.818 cumulative IPC: 1.795 (Simulation time: 01 hr 08 min 27 sec)
Heartbeat CPU 0 instructions: 590000002 cycles: 311366424 heartbeat IPC: 2.757 cumulative IPC: 1.807 (Simulation time: 01 hr 09 min 57 sec)
Heartbeat CPU 0 instructions: 600000003 cycles: 314435162 heartbeat IPC: 3.259 cumulative IPC: 1.822 (Simulation time: 01 hr 11 min 38 sec)
Heartbeat CPU 0 instructions: 610000001 cycles: 317944874 heartbeat IPC: 2.849 cumulative IPC: 1.833 (Simulation time: 01 hr 13 min 31 sec)
Heartbeat CPU 0 instructions: 620000000 cycles: 321963451 heartbeat IPC: 2.488 cumulative IPC: 1.842 (Simulation time: 01 hr 15 min 24 sec)
Heartbeat CPU 0 instructions: 630000002 cycles: 325326837 heartbeat IPC: 2.973 cumulative IPC: 1.854 (Simulation time: 01 hr 17 min 12 sec)
Heartbeat CPU 0 instructions: 640000004 cycles: 329335107 heartbeat IPC: 2.495 cumulative IPC: 1.862 (Simulation time: 01 hr 19 min 09 sec)
Heartbeat CPU 0 instructions: 650000001 cycles: 333156857 heartbeat IPC: 2.617 cumulative IPC: 1.871 (Simulation time: 01 hr 20 min 46 sec)
Simulation finished CPU 0 instructions: 600000001 cycles: 320656796 cumulative IPC: 1.871 (Simulation time: 01 hr 20 min 46 sec)
Simulation complete CPU 0 instructions: 600000001 cycles: 320656796 cumulative IPC: 1.871 (Simulation time: 01 hr 20 min 46 sec)

ChampSim completed all CPUs

=== Simulation ===
CPU 0 runs traces/400.perlbench-50B.champsimtrace.xz
Region of Interest Statistics

CPU 0 cumulative IPC: 1.871 instructions: 600000001 cycles: 320656796
CPU 0 Branch Prediction Accuracy: 96.2% MPKI: 7.839 Average ROB Occupancy at Mispredict: 43.53
Branch type MPKI
BRANCH_DIRECT_JUMP: 0.0176
BRANCH_INDIRECT: 0.38
BRANCH_CONDITIONAL: 6.99
BRANCH_DIRECT_CALL: 0.0067
BRANCH_INDIRECT_CALL: 0.431
BRANCH_RETURN: 0.0161

LLC TOTAL        ACCESS:    1379375 HIT:     894464 MISS:     484911
LLC LOAD         ACCESS:     590686 HIT:     373510 MISS:     217176
LLC RFO          ACCESS:      47655 HIT:      27041 MISS:      20614
LLC PREFETCH     ACCESS:     590686 HIT:     357046 MISS:     233640
LLC WRITE        ACCESS:     128248 HIT:     127531 MISS:        717
LLC TRANSLATION  ACCESS:      22100 HIT:       9336 MISS:      12764
LLC PREFETCH REQUESTED:     590686 ISSUED:     590686 USEFUL:      92104 USELESS:      83537
LLC AVERAGE MISS LATENCY: 557.6 cycles
cpu0_DTLB TOTAL        ACCESS:  146508840 HIT:  145203090 MISS:    1305750
cpu0_DTLB LOAD         ACCESS:  146508840 HIT:  145203090 MISS:    1305750
cpu0_DTLB RFO          ACCESS:          0 HIT:          0 MISS:          0
cpu0_DTLB PREFETCH     ACCESS:          0 HIT:          0 MISS:          0
cpu0_DTLB WRITE        ACCESS:          0 HIT:          0 MISS:          0
cpu0_DTLB TRANSLATION  ACCESS:          0 HIT:          0 MISS:          0
cpu0_DTLB PREFETCH REQUESTED:          0 ISSUED:          0 USEFUL:          0 USELESS:          0
cpu0_DTLB AVERAGE MISS LATENCY: 12.85 cycles
cpu0_ITLB TOTAL        ACCESS:    8986593 HIT:    8802004 MISS:     184589
cpu0_ITLB LOAD         ACCESS:    8986593 HIT:    8802004 MISS:     184589
cpu0_ITLB RFO          ACCESS:          0 HIT:          0 MISS:          0
cpu0_ITLB PREFETCH     ACCESS:          0 HIT:          0 MISS:          0
cpu0_ITLB WRITE        ACCESS:          0 HIT:          0 MISS:          0
cpu0_ITLB TRANSLATION  ACCESS:          0 HIT:          0 MISS:          0
cpu0_ITLB PREFETCH REQUESTED:          0 ISSUED:          0 USEFUL:          0 USELESS:          0
cpu0_ITLB AVERAGE MISS LATENCY: 3.822 cycles
cpu0_L1D TOTAL        ACCESS:  193291152 HIT:  189627519 MISS:    3663633
cpu0_L1D LOAD         ACCESS:  107446149 HIT:  104435366 MISS:    3010783
cpu0_L1D RFO          ACCESS:          0 HIT:          0 MISS:          0
cpu0_L1D PREFETCH     ACCESS:          0 HIT:          0 MISS:          0
cpu0_L1D WRITE        ACCESS:   85816476 HIT:   85190730 MISS:     625746
cpu0_L1D TRANSLATION  ACCESS:      28527 HIT:       1423 MISS:      27104
cpu0_L1D PREFETCH REQUESTED:          0 ISSUED:          0 USEFUL:          0 USELESS:          0
cpu0_L1D AVERAGE MISS LATENCY: 46.63 cycles
cpu0_L1I TOTAL        ACCESS:   10421286 HIT:    8659541 MISS:    1761745
cpu0_L1I LOAD         ACCESS:   10421286 HIT:    8659541 MISS:    1761745
cpu0_L1I RFO          ACCESS:          0 HIT:          0 MISS:          0
cpu0_L1I PREFETCH     ACCESS:          0 HIT:          0 MISS:          0
cpu0_L1I WRITE        ACCESS:          0 HIT:          0 MISS:          0
cpu0_L1I TRANSLATION  ACCESS:          0 HIT:          0 MISS:          0
cpu0_L1I PREFETCH REQUESTED:          0 ISSUED:          0 USEFUL:          0 USELESS:          0
cpu0_L1I AVERAGE MISS LATENCY: 11.41 cycles
cpu0_L2C TOTAL        ACCESS:    3834554 HIT:    3171035 MISS:     663519
cpu0_L2C LOAD         ACCESS:    3104875 HIT:    2514189 MISS:     590686
cpu0_L2C RFO          ACCESS:     191573 HIT:     143918 MISS:      47655
cpu0_L2C PREFETCH     ACCESS:          0 HIT:          0 MISS:          0
cpu0_L2C WRITE        ACCESS:     511067 HIT:     507989 MISS:       3078
cpu0_L2C TRANSLATION  ACCESS:      27039 HIT:       4939 MISS:      22100
cpu0_L2C PREFETCH REQUESTED:          0 ISSUED:          0 USEFUL:          0 USELESS:          0
cpu0_L2C AVERAGE MISS LATENCY: 249.3 cycles
cpu0_STLB TOTAL        ACCESS:    1008912 HIT:     982218 MISS:      26694
cpu0_STLB LOAD         ACCESS:    1008912 HIT:     982218 MISS:      26694
cpu0_STLB RFO          ACCESS:          0 HIT:          0 MISS:          0
cpu0_STLB PREFETCH     ACCESS:          0 HIT:          0 MISS:          0
cpu0_STLB WRITE        ACCESS:          0 HIT:          0 MISS:          0
cpu0_STLB TRANSLATION  ACCESS:          0 HIT:          0 MISS:          0
cpu0_STLB PREFETCH REQUESTED:          0 ISSUED:          0 USEFUL:          0 USELESS:          0
cpu0_STLB AVERAGE MISS LATENCY: 412.9 cycles

DRAM Statistics

Channel 0 RQ ROW_BUFFER_HIT:      80555
  ROW_BUFFER_MISS:     333661
 AVG DBUS CONGESTED CYCLE: 3.874
WQ ROW_BUFFER_HIT: Channel 0 
  ROW_BUFFER_MISS:       6708
  FULL:      47438
