WARNING: physical memory size is smaller than virtual memory size.

*** ChampSim Multicore Out-of-Order Simulator ***
Warmup Instructions: 50000000
Simulation Instructions: 600000000
Number of CPUs: 1
Page size: 4096

Off-chip DRAM Size: 4 GiB Channels: 1 Width: 64-bit Data Race: 3200 MT/s
Heartbeat CPU 0 instructions: 10000000 cycles: 2500061 heartbeat IPC: 4 cumulative IPC: 4 (Simulation time: 00 hr 00 min 16 sec)
Heartbeat CPU 0 instructions: 20000000 cycles: 5000061 heartbeat IPC: 4 cumulative IPC: 4 (Simulation time: 00 hr 00 min 34 sec)
Heartbeat CPU 0 instructions: 30000000 cycles: 7500061 heartbeat IPC: 4 cumulative IPC: 4 (Simulation time: 00 hr 00 min 58 sec)
Heartbeat CPU 0 instructions: 40000000 cycles: 10000061 heartbeat IPC: 4 cumulative IPC: 4 (Simulation time: 00 hr 01 min 26 sec)
Heartbeat CPU 0 instructions: 50000000 cycles: 12500061 heartbeat IPC: 4 cumulative IPC: 4 (Simulation time: 00 hr 01 min 58 sec)
Warmup finished CPU 0 instructions: 50000000 cycles: 12500062 cumulative IPC: 4 (Simulation time: 00 hr 01 min 58 sec)
Warmup complete CPU 0 instructions: 50000000 cycles: 12500062 cumulative IPC: 4 (Simulation time: 00 hr 01 min 58 sec)
Heartbeat CPU 0 instructions: 60000002 cycles: 16897168 heartbeat IPC: 2.274 cumulative IPC: 2.274 (Simulation time: 00 hr 02 min 50 sec)
Heartbeat CPU 0 instructions: 70000003 cycles: 21874323 heartbeat IPC: 2.009 cumulative IPC: 2.134 (Simulation time: 00 hr 03 min 46 sec)
Heartbeat CPU 0 instructions: 80000001 cycles: 27217652 heartbeat IPC: 1.871 cumulative IPC: 2.038 (Simulation time: 00 hr 04 min 44 sec)
Heartbeat CPU 0 instructions: 90000000 cycles: 31512174 heartbeat IPC: 2.329 cumulative IPC: 2.104 (Simulation time: 00 hr 05 min 35 sec)
Heartbeat CPU 0 instructions: 100000003 cycles: 36360283 heartbeat IPC: 2.063 cumulative IPC: 2.096 (Simulation time: 00 hr 06 min 31 sec)
Heartbeat CPU 0 instructions: 110000002 cycles: 41223823 heartbeat IPC: 2.056 cumulative IPC: 2.089 (Simulation time: 00 hr 07 min 27 sec)
Heartbeat CPU 0 instructions: 120000001 cycles: 46216185 heartbeat IPC: 2.003 cumulative IPC: 2.076 (Simulation time: 00 hr 08 min 22 sec)
Heartbeat CPU 0 instructions: 130000003 cycles: 50774631 heartbeat IPC: 2.194 cumulative IPC: 2.09 (Simulation time: 00 hr 09 min 10 sec)
Heartbeat CPU 0 instructions: 140000002 cycles: 55657500 heartbeat IPC: 2.048 cumulative IPC: 2.085 (Simulation time: 00 hr 09 min 59 sec)
Heartbeat CPU 0 instructions: 150000001 cycles: 60315882 heartbeat IPC: 2.147 cumulative IPC: 2.091 (Simulation time: 00 hr 10 min 47 sec)
Heartbeat CPU 0 instructions: 160000000 cycles: 64944965 heartbeat IPC: 2.16 cumulative IPC: 2.097 (Simulation time: 00 hr 11 min 35 sec)
Heartbeat CPU 0 instructions: 170000000 cycles: 70269944 heartbeat IPC: 1.878 cumulative IPC: 2.077 (Simulation time: 00 hr 12 min 27 sec)
Heartbeat CPU 0 instructions: 180000001 cycles: 75985244 heartbeat IPC: 1.75 cumulative IPC: 2.048 (Simulation time: 00 hr 13 min 23 sec)
Heartbeat CPU 0 instructions: 190000002 cycles: 80446549 heartbeat IPC: 2.241 cumulative IPC: 2.06 (Simulation time: 00 hr 14 min 11 sec)
Heartbeat CPU 0 instructions: 200000002 cycles: 85337662 heartbeat IPC: 2.045 cumulative IPC: 2.059 (Simulation time: 00 hr 15 min 01 sec)
Heartbeat CPU 0 instructions: 210000000 cycles: 90335750 heartbeat IPC: 2.001 cumulative IPC: 2.056 (Simulation time: 00 hr 15 min 51 sec)
Heartbeat CPU 0 instructions: 220000001 cycles: 95257071 heartbeat IPC: 2.032 cumulative IPC: 2.054 (Simulation time: 00 hr 16 min 40 sec)
Heartbeat CPU 0 instructions: 230000002 cycles: 100494917 heartbeat IPC: 1.909 cumulative IPC: 2.046 (Simulation time: 00 hr 17 min 31 sec)
Heartbeat CPU 0 instructions: 240000001 cycles: 105451800 heartbeat IPC: 2.017 cumulative IPC: 2.044 (Simulation time: 00 hr 18 min 25 sec)
Heartbeat CPU 0 instructions: 250000003 cycles: 110621683 heartbeat IPC: 1.934 cumulative IPC: 2.038 (Simulation time: 00 hr 19 min 15 sec)
Heartbeat CPU 0 instructions: 260000001 cycles: 115481491 heartbeat IPC: 2.058 cumulative IPC: 2.039 (Simulation time: 00 hr 20 min 05 sec)
Heartbeat CPU 0 instructions: 270000000 cycles: 122833340 heartbeat IPC: 1.36 cumulative IPC: 1.994 (Simulation time: 00 hr 21 min 09 sec)
Heartbeat CPU 0 instructions: 280000000 cycles: 133843233 heartbeat IPC: 0.9083 cumulative IPC: 1.895 (Simulation time: 00 hr 22 min 39 sec)
Heartbeat CPU 0 instructions: 290000001 cycles: 143615966 heartbeat IPC: 1.023 cumulative IPC: 1.83 (Simulation time: 00 hr 24 min 00 sec)
Heartbeat CPU 0 instructions: 300000003 cycles: 151156054 heartbeat IPC: 1.326 cumulative IPC: 1.803 (Simulation time: 00 hr 25 min 10 sec)
Heartbeat CPU 0 instructions: 310000004 cycles: 162035647 heartbeat IPC: 0.9192 cumulative IPC: 1.739 (Simulation time: 00 hr 26 min 37 sec)
Heartbeat CPU 0 instructions: 320000004 cycles: 167727456 heartbeat IPC: 1.757 cumulative IPC: 1.739 (Simulation time: 00 hr 27 min 33 sec)
Heartbeat CPU 0 instructions: 330000000 cycles: 173018085 heartbeat IPC: 1.89 cumulative IPC: 1.744 (Simulation time: 00 hr 28 min 26 sec)
Heartbeat CPU 0 instructions: 340000001 cycles: 178205091 heartbeat IPC: 1.928 cumulative IPC: 1.75 (Simulation time: 00 hr 29 min 18 sec)
Heartbeat CPU 0 instructions: 350000000 cycles: 183596292 heartbeat IPC: 1.855 cumulative IPC: 1.753 (Simulation time: 00 hr 30 min 11 sec)
Heartbeat CPU 0 instructions: 360000003 cycles: 188755962 heartbeat IPC: 1.938 cumulative IPC: 1.759 (Simulation time: 00 hr 31 min 04 sec)
Heartbeat CPU 0 instructions: 370000001 cycles: 193834857 heartbeat IPC: 1.969 cumulative IPC: 1.765 (Simulation time: 00 hr 31 min 55 sec)
Heartbeat CPU 0 instructions: 380000004 cycles: 199196846 heartbeat IPC: 1.865 cumulative IPC: 1.768 (Simulation time: 00 hr 32 min 47 sec)
Heartbeat CPU 0 instructions: 390000002 cycles: 204591411 heartbeat IPC: 1.854 cumulative IPC: 1.77 (Simulation time: 00 hr 33 min 40 sec)
Heartbeat CPU 0 instructions: 400000000 cycles: 210079086 heartbeat IPC: 1.822 cumulative IPC: 1.771 (Simulation time: 00 hr 34 min 33 sec)
Heartbeat CPU 0 instructions: 410000000 cycles: 218052419 heartbeat IPC: 1.254 cumulative IPC: 1.751 (Simulation time: 00 hr 35 min 42 sec)
Heartbeat CPU 0 instructions: 420000001 cycles: 229019134 heartbeat IPC: 0.9119 cumulative IPC: 1.709 (Simulation time: 00 hr 37 min 09 sec)
Heartbeat CPU 0 instructions: 430000000 cycles: 236659114 heartbeat IPC: 1.309 cumulative IPC: 1.695 (Simulation time: 00 hr 38 min 20 sec)
Heartbeat CPU 0 instructions: 440000002 cycles: 243837263 heartbeat IPC: 1.393 cumulative IPC: 1.686 (Simulation time: 00 hr 39 min 26 sec)
Heartbeat CPU 0 instructions: 450000000 cycles: 250623329 heartbeat IPC: 1.474 cumulative IPC: 1.68 (Simulation time: 00 hr 40 min 31 sec)
Heartbeat CPU 0 instructions: 460000002 cycles: 261493958 heartbeat IPC: 0.9199 cumulative IPC: 1.647 (Simulation time: 00 hr 41 min 58 sec)
Heartbeat CPU 0 instructions: 470000000 cycles: 271386782 heartbeat IPC: 1.011 cumulative IPC: 1.622 (Simulation time: 00 hr 43 min 19 sec)
Heartbeat CPU 0 instructions: 480000000 cycles: 276845177 heartbeat IPC: 1.832 cumulative IPC: 1.627 (Simulation time: 00 hr 44 min 13 sec)
Heartbeat CPU 0 instructions: 490000001 cycles: 282564401 heartbeat IPC: 1.748 cumulative IPC: 1.629 (Simulation time: 00 hr 45 min 07 sec)
Heartbeat CPU 0 instructions: 500000002 cycles: 288161985 heartbeat IPC: 1.786 cumulative IPC: 1.632 (Simulation time: 00 hr 46 min 01 sec)
Heartbeat CPU 0 instructions: 510000000 cycles: 293845759 heartbeat IPC: 1.759 cumulative IPC: 1.635 (Simulation time: 00 hr 46 min 54 sec)
Heartbeat CPU 0 instructions: 520000000 cycles: 299601584 heartbeat IPC: 1.737 cumulative IPC: 1.637 (Simulation time: 00 hr 47 min 49 sec)
Heartbeat CPU 0 instructions: 530000001 cycles: 310644318 heartbeat IPC: 0.9056 cumulative IPC: 1.61 (Simulation time: 00 hr 49 min 16 sec)
Heartbeat CPU 0 instructions: 540000000 cycles: 321340049 heartbeat IPC: 0.935 cumulative IPC: 1.587 (Simulation time: 00 hr 50 min 42 sec)
Heartbeat CPU 0 instructions: 550000002 cycles: 333949992 heartbeat IPC: 0.793 cumulative IPC: 1.555 (Simulation time: 00 hr 52 min 18 sec)
Heartbeat CPU 0 instructions: 560000004 cycles: 338783394 heartbeat IPC: 2.069 cumulative IPC: 1.563 (Simulation time: 00 hr 53 min 08 sec)
Heartbeat CPU 0 instructions: 570000001 cycles: 343195320 heartbeat IPC: 2.267 cumulative IPC: 1.572 (Simulation time: 00 hr 53 min 56 sec)
Heartbeat CPU 0 instructions: 580000003 cycles: 347438764 heartbeat IPC: 2.357 cumulative IPC: 1.582 (Simulation time: 00 hr 54 min 43 sec)
Heartbeat CPU 0 instructions: 590000001 cycles: 352345851 heartbeat IPC: 2.038 cumulative IPC: 1.589 (Simulation time: 00 hr 55 min 33 sec)
Heartbeat CPU 0 instructions: 600000003 cycles: 356990254 heartbeat IPC: 2.153 cumulative IPC: 1.597 (Simulation time: 00 hr 56 min 21 sec)
Heartbeat CPU 0 instructions: 610000001 cycles: 361855043 heartbeat IPC: 2.056 cumulative IPC: 1.603 (Simulation time: 00 hr 57 min 06 sec)
Heartbeat CPU 0 instructions: 620000000 cycles: 366924570 heartbeat IPC: 1.973 cumulative IPC: 1.608 (Simulation time: 00 hr 57 min 47 sec)
Heartbeat CPU 0 instructions: 630000002 cycles: 371166831 heartbeat IPC: 2.357 cumulative IPC: 1.617 (Simulation time: 00 hr 58 min 20 sec)
Heartbeat CPU 0 instructions: 640000004 cycles: 376490597 heartbeat IPC: 1.878 cumulative IPC: 1.621 (Simulation time: 00 hr 58 min 53 sec)
Heartbeat CPU 0 instructions: 650000001 cycles: 381252228 heartbeat IPC: 2.1 cumulative IPC: 1.627 (Simulation time: 00 hr 59 min 16 sec)
Simulation finished CPU 0 instructions: 600000001 cycles: 368752167 cumulative IPC: 1.627 (Simulation time: 00 hr 59 min 16 sec)
Simulation complete CPU 0 instructions: 600000001 cycles: 368752167 cumulative IPC: 1.627 (Simulation time: 00 hr 59 min 16 sec)

ChampSim completed all CPUs

=== Simulation ===
CPU 0 runs traces/400.perlbench-50B.champsimtrace.xz
Region of Interest Statistics

CPU 0 cumulative IPC: 1.627 instructions: 600000001 cycles: 368752167
CPU 0 Branch Prediction Accuracy: 93.83% MPKI: 12.71 Average ROB Occupancy at Mispredict: 29.37
Branch type MPKI
BRANCH_DIRECT_JUMP: 0.0176
BRANCH_INDIRECT: 0.38
BRANCH_CONDITIONAL: 11.9
BRANCH_DIRECT_CALL: 0.0067
BRANCH_INDIRECT_CALL: 0.431
BRANCH_RETURN: 0.0161

LLC TOTAL        ACCESS:    1372663 HIT:     899298 MISS:     473365
LLC LOAD         ACCESS:     586950 HIT:     374231 MISS:     212719
LLC RFO          ACCESS:      48296 HIT:      29864 MISS:      18432
LLC PREFETCH     ACCESS:     586950 HIT:     358788 MISS:     228162
LLC WRITE        ACCESS:     128412 HIT:     127718 MISS:        694
LLC TRANSLATION  ACCESS:      22055 HIT:       8697 MISS:      13358
LLC PREFETCH REQUESTED:     586950 ISSUED:     586950 USEFUL:      82993 USELESS:      87140
LLC AVERAGE MISS LATENCY: 549.9 cycles
cpu0_DTLB TOTAL        ACCESS:  156781532 HIT:  155480030 MISS:    1301502
cpu0_DTLB LOAD         ACCESS:  156781532 HIT:  155480030 MISS:    1301502
cpu0_DTLB RFO          ACCESS:          0 HIT:          0 MISS:          0
cpu0_DTLB PREFETCH     ACCESS:          0 HIT:          0 MISS:          0
cpu0_DTLB WRITE        ACCESS:          0 HIT:          0 MISS:          0
cpu0_DTLB TRANSLATION  ACCESS:          0 HIT:          0 MISS:          0
cpu0_DTLB PREFETCH REQUESTED:          0 ISSUED:          0 USEFUL:          0 USELESS:          0
cpu0_DTLB AVERAGE MISS LATENCY: 13.34 cycles
cpu0_ITLB TOTAL        ACCESS:    8931848 HIT:    8733253 MISS:     198595
cpu0_ITLB LOAD         ACCESS:    8931848 HIT:    8733253 MISS:     198595
cpu0_ITLB RFO          ACCESS:          0 HIT:          0 MISS:          0
cpu0_ITLB PREFETCH     ACCESS:          0 HIT:          0 MISS:          0
cpu0_ITLB WRITE        ACCESS:          0 HIT:          0 MISS:          0
cpu0_ITLB TRANSLATION  ACCESS:          0 HIT:          0 MISS:          0
cpu0_ITLB PREFETCH REQUESTED:          0 ISSUED:          0 USEFUL:          0 USELESS:          0
cpu0_ITLB AVERAGE MISS LATENCY: 3.602 cycles
cpu0_L1D TOTAL        ACCESS:  203633081 HIT:  199964243 MISS:    3668838
cpu0_L1D LOAD         ACCESS:  117956174 HIT:  114943633 MISS:    3012541
cpu0_L1D RFO          ACCESS:          0 HIT:          0 MISS:          0
cpu0_L1D PREFETCH     ACCESS:          0 HIT:          0 MISS:          0
cpu0_L1D WRITE        ACCESS:   85648369 HIT:   85019207 MISS:     629162
cpu0_L1D TRANSLATION  ACCESS:      28538 HIT:       1403 MISS:      27135
cpu0_L1D PREFETCH REQUESTED:          0 ISSUED:          0 USEFUL:          0 USELESS:          0
cpu0_L1D AVERAGE MISS LATENCY: 45.07 cycles
cpu0_L1I TOTAL        ACCESS:   10370684 HIT:    8573543 MISS:    1797141
cpu0_L1I LOAD         ACCESS:   10370684 HIT:    8573543 MISS:    1797141
cpu0_L1I RFO          ACCESS:          0 HIT:          0 MISS:          0
cpu0_L1I PREFETCH     ACCESS:          0 HIT:          0 MISS:          0
cpu0_L1I WRITE        ACCESS:          0 HIT:          0 MISS:          0
cpu0_L1I TRANSLATION  ACCESS:          0 HIT:          0 MISS:          0
cpu0_L1I PREFETCH REQUESTED:          0 ISSUED:          0 USEFUL:          0 USELESS:          0
cpu0_L1I AVERAGE MISS LATENCY: 10.7 cycles
cpu0_L2C TOTAL        ACCESS:    3837093 HIT:    3176367 MISS:     660726
cpu0_L2C LOAD         ACCESS:    3106366 HIT:    2519416 MISS:     586950
cpu0_L2C RFO          ACCESS:     191826 HIT:     143530 MISS:      48296
cpu0_L2C PREFETCH     ACCESS:          0 HIT:          0 MISS:          0
cpu0_L2C WRITE        ACCESS:     511852 HIT:     508427 MISS:       3425
cpu0_L2C TRANSLATION  ACCESS:      27049 HIT:       4994 MISS:      22055
cpu0_L2C PREFETCH REQUESTED:          0 ISSUED:          0 USEFUL:          0 USELESS:          0
cpu0_L2C AVERAGE MISS LATENCY: 239.7 cycles
cpu0_STLB TOTAL        ACCESS:    1009250 HIT:     982562 MISS:      26688
cpu0_STLB LOAD         ACCESS:    1009250 HIT:     982562 MISS:      26688
cpu0_STLB RFO          ACCESS:          0 HIT:          0 MISS:          0
cpu0_STLB PREFETCH     ACCESS:          0 HIT:          0 MISS:          0
cpu0_STLB WRITE        ACCESS:          0 HIT:          0 MISS:          0
cpu0_STLB TRANSLATION  ACCESS:          0 HIT:          0 MISS:          0
cpu0_STLB PREFETCH REQUESTED:          0 ISSUED:          0 USEFUL:          0 USELESS:          0
cpu0_STLB AVERAGE MISS LATENCY: 435.6 cycles

DRAM Statistics

Channel 0 RQ ROW_BUFFER_HIT:      81868
  ROW_BUFFER_MISS:     321695
 AVG DBUS CONGESTED CYCLE: 3.862
WQ ROW_BUFFER_HIT: Channel 0 
  ROW_BUFFER_MISS:       6253
  FULL:      39401
