WARNING: physical memory size is smaller than virtual memory size.

*** ChampSim Multicore Out-of-Order Simulator ***
Warmup Instructions: 50000000
Simulation Instructions: 600000000
Number of CPUs: 1
Page size: 4096

CPU 0 Tage branch predictor
Off-chip DRAM Size: 4 GiB Channels: 1 Width: 64-bit Data Race: 3200 MT/s
Heartbeat CPU 0 instructions: 10000001 cycles: 2500318 heartbeat IPC: 3.999 cumulative IPC: 3.999 (Simulation time: 00 hr 00 min 59 sec)
Heartbeat CPU 0 instructions: 20000002 cycles: 5037125 heartbeat IPC: 3.942 cumulative IPC: 3.971 (Simulation time: 00 hr 01 min 49 sec)
Heartbeat CPU 0 instructions: 30000002 cycles: 7537125 heartbeat IPC: 4 cumulative IPC: 3.98 (Simulation time: 00 hr 02 min 35 sec)
Heartbeat CPU 0 instructions: 40000002 cycles: 10037125 heartbeat IPC: 4 cumulative IPC: 3.985 (Simulation time: 00 hr 03 min 23 sec)
Heartbeat CPU 0 instructions: 50000002 cycles: 12537125 heartbeat IPC: 4 cumulative IPC: 3.988 (Simulation time: 00 hr 04 min 14 sec)
Warmup finished CPU 0 instructions: 50000002 cycles: 12537126 cumulative IPC: 3.988 (Simulation time: 00 hr 04 min 14 sec)
Warmup complete CPU 0 instructions: 50000002 cycles: 12537126 cumulative IPC: 3.988 (Simulation time: 00 hr 04 min 14 sec)
Heartbeat CPU 0 instructions: 60000001 cycles: 15565492 heartbeat IPC: 3.302 cumulative IPC: 3.302 (Simulation time: 00 hr 05 min 18 sec)
Heartbeat CPU 0 instructions: 70000004 cycles: 18665586 heartbeat IPC: 3.226 cumulative IPC: 3.263 (Simulation time: 00 hr 06 min 22 sec)
Heartbeat CPU 0 instructions: 80000001 cycles: 21742029 heartbeat IPC: 3.251 cumulative IPC: 3.259 (Simulation time: 00 hr 07 min 25 sec)
Heartbeat CPU 0 instructions: 90000001 cycles: 24709290 heartbeat IPC: 3.37 cumulative IPC: 3.286 (Simulation time: 00 hr 08 min 34 sec)
Heartbeat CPU 0 instructions: 100000000 cycles: 27650248 heartbeat IPC: 3.4 cumulative IPC: 3.308 (Simulation time: 00 hr 09 min 40 sec)
Heartbeat CPU 0 instructions: 110000000 cycles: 30613108 heartbeat IPC: 3.375 cumulative IPC: 3.319 (Simulation time: 00 hr 10 min 44 sec)
Heartbeat CPU 0 instructions: 120000001 cycles: 33610493 heartbeat IPC: 3.336 cumulative IPC: 3.322 (Simulation time: 00 hr 11 min 48 sec)
Heartbeat CPU 0 instructions: 130000001 cycles: 36495479 heartbeat IPC: 3.466 cumulative IPC: 3.339 (Simulation time: 00 hr 12 min 51 sec)
Heartbeat CPU 0 instructions: 140000001 cycles: 39585056 heartbeat IPC: 3.237 cumulative IPC: 3.327 (Simulation time: 00 hr 13 min 55 sec)
Heartbeat CPU 0 instructions: 150000001 cycles: 42626514 heartbeat IPC: 3.288 cumulative IPC: 3.323 (Simulation time: 00 hr 15 min 01 sec)
Heartbeat CPU 0 instructions: 160000004 cycles: 45688043 heartbeat IPC: 3.266 cumulative IPC: 3.318 (Simulation time: 00 hr 16 min 07 sec)
Heartbeat CPU 0 instructions: 170000000 cycles: 53652812 heartbeat IPC: 1.256 cumulative IPC: 2.919 (Simulation time: 00 hr 17 min 56 sec)
Heartbeat CPU 0 instructions: 180000004 cycles: 63121164 heartbeat IPC: 1.056 cumulative IPC: 2.57 (Simulation time: 00 hr 20 min 00 sec)
Heartbeat CPU 0 instructions: 190000001 cycles: 72296453 heartbeat IPC: 1.09 cumulative IPC: 2.343 (Simulation time: 00 hr 22 min 02 sec)
Heartbeat CPU 0 instructions: 200000004 cycles: 75297845 heartbeat IPC: 3.332 cumulative IPC: 2.39 (Simulation time: 00 hr 23 min 08 sec)
Heartbeat CPU 0 instructions: 210000001 cycles: 78283977 heartbeat IPC: 3.349 cumulative IPC: 2.434 (Simulation time: 00 hr 24 min 16 sec)
Heartbeat CPU 0 instructions: 220000000 cycles: 81189546 heartbeat IPC: 3.442 cumulative IPC: 2.476 (Simulation time: 00 hr 25 min 19 sec)
Heartbeat CPU 0 instructions: 230000002 cycles: 84256616 heartbeat IPC: 3.26 cumulative IPC: 2.51 (Simulation time: 00 hr 26 min 24 sec)
Heartbeat CPU 0 instructions: 240000003 cycles: 87323320 heartbeat IPC: 3.261 cumulative IPC: 2.541 (Simulation time: 00 hr 27 min 29 sec)
Heartbeat CPU 0 instructions: 250000000 cycles: 90377096 heartbeat IPC: 3.275 cumulative IPC: 2.569 (Simulation time: 00 hr 28 min 33 sec)
Heartbeat CPU 0 instructions: 260000002 cycles: 93366084 heartbeat IPC: 3.346 cumulative IPC: 2.598 (Simulation time: 00 hr 29 min 37 sec)
Heartbeat CPU 0 instructions: 270000002 cycles: 96302743 heartbeat IPC: 3.405 cumulative IPC: 2.626 (Simulation time: 00 hr 30 min 40 sec)
Heartbeat CPU 0 instructions: 280000002 cycles: 99207131 heartbeat IPC: 3.443 cumulative IPC: 2.654 (Simulation time: 00 hr 31 min 43 sec)
Heartbeat CPU 0 instructions: 290000002 cycles: 102186349 heartbeat IPC: 3.357 cumulative IPC: 2.677 (Simulation time: 00 hr 32 min 47 sec)
Heartbeat CPU 0 instructions: 300000003 cycles: 105114328 heartbeat IPC: 3.415 cumulative IPC: 2.7 (Simulation time: 00 hr 33 min 51 sec)
Heartbeat CPU 0 instructions: 310000001 cycles: 108194062 heartbeat IPC: 3.247 cumulative IPC: 2.718 (Simulation time: 00 hr 34 min 56 sec)
Heartbeat CPU 0 instructions: 320000003 cycles: 111228817 heartbeat IPC: 3.295 cumulative IPC: 2.736 (Simulation time: 00 hr 36 min 00 sec)
Heartbeat CPU 0 instructions: 330000003 cycles: 114258464 heartbeat IPC: 3.301 cumulative IPC: 2.753 (Simulation time: 00 hr 37 min 05 sec)
Heartbeat CPU 0 instructions: 340000000 cycles: 122605940 heartbeat IPC: 1.198 cumulative IPC: 2.635 (Simulation time: 00 hr 38 min 58 sec)
Heartbeat CPU 0 instructions: 350000000 cycles: 132257158 heartbeat IPC: 1.036 cumulative IPC: 2.506 (Simulation time: 00 hr 41 min 05 sec)
Heartbeat CPU 0 instructions: 360000004 cycles: 141559636 heartbeat IPC: 1.075 cumulative IPC: 2.403 (Simulation time: 00 hr 43 min 08 sec)
Heartbeat CPU 0 instructions: 370000000 cycles: 144544568 heartbeat IPC: 3.35 cumulative IPC: 2.424 (Simulation time: 00 hr 44 min 12 sec)
Heartbeat CPU 0 instructions: 380000003 cycles: 147494024 heartbeat IPC: 3.39 cumulative IPC: 2.445 (Simulation time: 00 hr 45 min 17 sec)
Heartbeat CPU 0 instructions: 390000002 cycles: 150489109 heartbeat IPC: 3.339 cumulative IPC: 2.465 (Simulation time: 00 hr 46 min 22 sec)
Heartbeat CPU 0 instructions: 400000004 cycles: 153397802 heartbeat IPC: 3.438 cumulative IPC: 2.485 (Simulation time: 00 hr 47 min 26 sec)
Heartbeat CPU 0 instructions: 410000002 cycles: 156371360 heartbeat IPC: 3.363 cumulative IPC: 2.503 (Simulation time: 00 hr 48 min 32 sec)
Heartbeat CPU 0 instructions: 420000003 cycles: 159599927 heartbeat IPC: 3.097 cumulative IPC: 2.516 (Simulation time: 00 hr 49 min 38 sec)
Heartbeat CPU 0 instructions: 430000001 cycles: 162632949 heartbeat IPC: 3.297 cumulative IPC: 2.532 (Simulation time: 00 hr 50 min 43 sec)
Heartbeat CPU 0 instructions: 440000004 cycles: 165792407 heartbeat IPC: 3.165 cumulative IPC: 2.545 (Simulation time: 00 hr 51 min 48 sec)
Heartbeat CPU 0 instructions: 450000002 cycles: 168730490 heartbeat IPC: 3.404 cumulative IPC: 2.561 (Simulation time: 00 hr 52 min 51 sec)
Heartbeat CPU 0 instructions: 460000000 cycles: 171679458 heartbeat IPC: 3.391 cumulative IPC: 2.576 (Simulation time: 00 hr 53 min 54 sec)
Heartbeat CPU 0 instructions: 470000001 cycles: 174550936 heartbeat IPC: 3.483 cumulative IPC: 2.592 (Simulation time: 00 hr 54 min 56 sec)
Heartbeat CPU 0 instructions: 480000003 cycles: 177648629 heartbeat IPC: 3.228 cumulative IPC: 2.604 (Simulation time: 00 hr 56 min 00 sec)
Heartbeat CPU 0 instructions: 490000004 cycles: 180484167 heartbeat IPC: 3.527 cumulative IPC: 2.62 (Simulation time: 00 hr 57 min 02 sec)
Heartbeat CPU 0 instructions: 500000004 cycles: 183480978 heartbeat IPC: 3.337 cumulative IPC: 2.632 (Simulation time: 00 hr 58 min 05 sec)
Heartbeat CPU 0 instructions: 510000003 cycles: 186572525 heartbeat IPC: 3.235 cumulative IPC: 2.643 (Simulation time: 00 hr 59 min 10 sec)
Heartbeat CPU 0 instructions: 520000001 cycles: 189479165 heartbeat IPC: 3.44 cumulative IPC: 2.656 (Simulation time: 01 hr 00 min 13 sec)
Heartbeat CPU 0 instructions: 530000001 cycles: 192526343 heartbeat IPC: 3.282 cumulative IPC: 2.667 (Simulation time: 01 hr 01 min 15 sec)
Heartbeat CPU 0 instructions: 540000000 cycles: 195503070 heartbeat IPC: 3.359 cumulative IPC: 2.678 (Simulation time: 01 hr 02 min 19 sec)
Heartbeat CPU 0 instructions: 550000001 cycles: 198505604 heartbeat IPC: 3.331 cumulative IPC: 2.689 (Simulation time: 01 hr 03 min 22 sec)
Heartbeat CPU 0 instructions: 560000000 cycles: 201674902 heartbeat IPC: 3.155 cumulative IPC: 2.696 (Simulation time: 01 hr 04 min 26 sec)
Heartbeat CPU 0 instructions: 570000004 cycles: 207125377 heartbeat IPC: 1.835 cumulative IPC: 2.672 (Simulation time: 01 hr 05 min 51 sec)
Heartbeat CPU 0 instructions: 580000003 cycles: 216994418 heartbeat IPC: 1.013 cumulative IPC: 2.592 (Simulation time: 01 hr 07 min 56 sec)
Heartbeat CPU 0 instructions: 590000002 cycles: 229157115 heartbeat IPC: 0.8222 cumulative IPC: 2.493 (Simulation time: 01 hr 10 min 19 sec)
Heartbeat CPU 0 instructions: 600000004 cycles: 232294797 heartbeat IPC: 3.187 cumulative IPC: 2.503 (Simulation time: 01 hr 11 min 22 sec)
Heartbeat CPU 0 instructions: 610000002 cycles: 235280910 heartbeat IPC: 3.349 cumulative IPC: 2.514 (Simulation time: 01 hr 12 min 23 sec)
Heartbeat CPU 0 instructions: 620000001 cycles: 238070080 heartbeat IPC: 3.585 cumulative IPC: 2.527 (Simulation time: 01 hr 13 min 24 sec)
Heartbeat CPU 0 instructions: 630000002 cycles: 241065171 heartbeat IPC: 3.339 cumulative IPC: 2.538 (Simulation time: 01 hr 14 min 27 sec)
Heartbeat CPU 0 instructions: 640000004 cycles: 244019066 heartbeat IPC: 3.385 cumulative IPC: 2.549 (Simulation time: 01 hr 15 min 29 sec)
Heartbeat CPU 0 instructions: 650000000 cycles: 246774743 heartbeat IPC: 3.629 cumulative IPC: 2.562 (Simulation time: 01 hr 16 min 31 sec)
Simulation finished CPU 0 instructions: 600000001 cycles: 234237619 cumulative IPC: 2.562 (Simulation time: 01 hr 16 min 31 sec)
Simulation complete CPU 0 instructions: 600000001 cycles: 234237619 cumulative IPC: 2.562 (Simulation time: 01 hr 16 min 31 sec)

ChampSim completed all CPUs

=== Simulation ===
CPU 0 runs traces/400.perlbench-41B.champsimtrace.xz
Region of Interest Statistics

CPU 0 cumulative IPC: 2.562 instructions: 600000001 cycles: 234237619
CPU 0 Branch Prediction Accuracy: 99.19% MPKI: 1.684 Average ROB Occupancy at Mispredict: 102.4
Branch type MPKI
BRANCH_DIRECT_JUMP: 0.0123
BRANCH_INDIRECT: 0.323
BRANCH_CONDITIONAL: 1.14
BRANCH_DIRECT_CALL: 0.0043
BRANCH_INDIRECT_CALL: 0.2
BRANCH_RETURN: 0.00828

LLC TOTAL        ACCESS:     939214 HIT:     464282 MISS:     474932
LLC LOAD         ACCESS:     401528 HIT:     189035 MISS:     212493
LLC RFO          ACCESS:      32424 HIT:      14608 MISS:      17816
LLC PREFETCH     ACCESS:     401528 HIT:     177246 MISS:     224282
LLC WRITE        ACCESS:      84674 HIT:      76851 MISS:       7823
LLC TRANSLATION  ACCESS:      19060 HIT:       6542 MISS:      12518
LLC PREFETCH REQUESTED:     401528 ISSUED:     401528 USEFUL:      80896 USELESS:      87772
LLC AVERAGE MISS LATENCY: 662.1 cycles
cpu0_DTLB TOTAL        ACCESS:  129760853 HIT:  129056781 MISS:     704072
cpu0_DTLB LOAD         ACCESS:  129760853 HIT:  129056781 MISS:     704072
cpu0_DTLB RFO          ACCESS:          0 HIT:          0 MISS:          0
cpu0_DTLB PREFETCH     ACCESS:          0 HIT:          0 MISS:          0
cpu0_DTLB WRITE        ACCESS:          0 HIT:          0 MISS:          0
cpu0_DTLB TRANSLATION  ACCESS:          0 HIT:          0 MISS:          0
cpu0_DTLB PREFETCH REQUESTED:          0 ISSUED:          0 USEFUL:          0 USELESS:          0
cpu0_DTLB AVERAGE MISS LATENCY: 19.97 cycles
cpu0_ITLB TOTAL        ACCESS:    4870356 HIT:    4808221 MISS:      62135
cpu0_ITLB LOAD         ACCESS:    4870356 HIT:    4808221 MISS:      62135
cpu0_ITLB RFO          ACCESS:          0 HIT:          0 MISS:          0
cpu0_ITLB PREFETCH     ACCESS:          0 HIT:          0 MISS:          0
cpu0_ITLB WRITE        ACCESS:          0 HIT:          0 MISS:          0
cpu0_ITLB TRANSLATION  ACCESS:          0 HIT:          0 MISS:          0
cpu0_ITLB PREFETCH REQUESTED:          0 ISSUED:          0 USEFUL:          0 USELESS:          0
cpu0_ITLB AVERAGE MISS LATENCY: 7.724 cycles
cpu0_L1D TOTAL        ACCESS:  174349888 HIT:  172546559 MISS:    1803329
cpu0_L1D LOAD         ACCESS:   91328213 HIT:   89923636 MISS:    1404577
cpu0_L1D RFO          ACCESS:          0 HIT:          0 MISS:          0
cpu0_L1D PREFETCH     ACCESS:          0 HIT:          0 MISS:          0
cpu0_L1D WRITE        ACCESS:   82997211 HIT:   82621854 MISS:     375357
cpu0_L1D TRANSLATION  ACCESS:      24464 HIT:       1069 MISS:      23395
cpu0_L1D PREFETCH REQUESTED:          0 ISSUED:          0 USEFUL:          0 USELESS:          0
cpu0_L1D AVERAGE MISS LATENCY: 99.45 cycles
cpu0_L1I TOTAL        ACCESS:    5649889 HIT:    4846385 MISS:     803504
cpu0_L1I LOAD         ACCESS:    5649889 HIT:    4846385 MISS:     803504
cpu0_L1I RFO          ACCESS:          0 HIT:          0 MISS:          0
cpu0_L1I PREFETCH     ACCESS:          0 HIT:          0 MISS:          0
cpu0_L1I WRITE        ACCESS:          0 HIT:          0 MISS:          0
cpu0_L1I TRANSLATION  ACCESS:          0 HIT:          0 MISS:          0
cpu0_L1I PREFETCH REQUESTED:          0 ISSUED:          0 USEFUL:          0 USELESS:          0
cpu0_L1I AVERAGE MISS LATENCY: 16.82 cycles
cpu0_L2C TOTAL        ACCESS:    1667861 HIT:    1213045 MISS:     454816
cpu0_L2C LOAD         ACCESS:    1315188 HIT:     913660 MISS:     401528
cpu0_L2C RFO          ACCESS:      89614 HIT:      57190 MISS:      32424
cpu0_L2C PREFETCH     ACCESS:          0 HIT:          0 MISS:          0
cpu0_L2C WRITE        ACCESS:     239739 HIT:     237935 MISS:       1804
cpu0_L2C TRANSLATION  ACCESS:      23320 HIT:       4260 MISS:      19060
cpu0_L2C PREFETCH REQUESTED:          0 ISSUED:          0 USEFUL:          0 USELESS:          0
cpu0_L2C AVERAGE MISS LATENCY: 421.1 cycles
cpu0_STLB TOTAL        ACCESS:     508846 HIT:     486060 MISS:      22786
cpu0_STLB LOAD         ACCESS:     508846 HIT:     486060 MISS:      22786
cpu0_STLB RFO          ACCESS:          0 HIT:          0 MISS:          0
cpu0_STLB PREFETCH     ACCESS:          0 HIT:          0 MISS:          0
cpu0_STLB WRITE        ACCESS:          0 HIT:          0 MISS:          0
cpu0_STLB TRANSLATION  ACCESS:          0 HIT:          0 MISS:          0
cpu0_STLB PREFETCH REQUESTED:          0 ISSUED:          0 USEFUL:          0 USELESS:          0
cpu0_STLB AVERAGE MISS LATENCY: 524 cycles

DRAM Statistics

Channel 0 RQ ROW_BUFFER_HIT:      68555
  ROW_BUFFER_MISS:     317706
 AVG DBUS CONGESTED CYCLE: 3.907
WQ ROW_BUFFER_HIT: Channel 0 
  ROW_BUFFER_MISS:       4045
  FULL:      48259
