WARNING: physical memory size is smaller than virtual memory size.

*** ChampSim Multicore Out-of-Order Simulator ***
Warmup Instructions: 50000000
Simulation Instructions: 600000000
Number of CPUs: 1
Page size: 4096

Off-chip DRAM Size: 4 GiB Channels: 1 Width: 64-bit Data Race: 3200 MT/s
Heartbeat CPU 0 instructions: 10000000 cycles: 2500061 heartbeat IPC: 4 cumulative IPC: 4 (Simulation time: 00 hr 00 min 43 sec)
Heartbeat CPU 0 instructions: 20000000 cycles: 5000061 heartbeat IPC: 4 cumulative IPC: 4 (Simulation time: 00 hr 01 min 20 sec)
Heartbeat CPU 0 instructions: 30000000 cycles: 7500061 heartbeat IPC: 4 cumulative IPC: 4 (Simulation time: 00 hr 02 min 08 sec)
Heartbeat CPU 0 instructions: 40000000 cycles: 10000061 heartbeat IPC: 4 cumulative IPC: 4 (Simulation time: 00 hr 03 min 14 sec)
Heartbeat CPU 0 instructions: 50000000 cycles: 12500061 heartbeat IPC: 4 cumulative IPC: 4 (Simulation time: 00 hr 04 min 00 sec)
Warmup finished CPU 0 instructions: 50000000 cycles: 12500062 cumulative IPC: 4 (Simulation time: 00 hr 04 min 00 sec)
Warmup complete CPU 0 instructions: 50000000 cycles: 12500062 cumulative IPC: 4 (Simulation time: 00 hr 04 min 00 sec)
Heartbeat CPU 0 instructions: 60000002 cycles: 16435783 heartbeat IPC: 2.541 cumulative IPC: 2.541 (Simulation time: 00 hr 05 min 02 sec)
Heartbeat CPU 0 instructions: 70000003 cycles: 20749204 heartbeat IPC: 2.318 cumulative IPC: 2.424 (Simulation time: 00 hr 06 min 10 sec)
Heartbeat CPU 0 instructions: 80000003 cycles: 25212938 heartbeat IPC: 2.24 cumulative IPC: 2.36 (Simulation time: 00 hr 07 min 13 sec)
Heartbeat CPU 0 instructions: 90000000 cycles: 28902625 heartbeat IPC: 2.71 cumulative IPC: 2.439 (Simulation time: 00 hr 08 min 13 sec)
Heartbeat CPU 0 instructions: 100000003 cycles: 32797283 heartbeat IPC: 2.568 cumulative IPC: 2.463 (Simulation time: 00 hr 09 min 16 sec)
Heartbeat CPU 0 instructions: 110000002 cycles: 36888882 heartbeat IPC: 2.444 cumulative IPC: 2.46 (Simulation time: 00 hr 10 min 28 sec)
Heartbeat CPU 0 instructions: 120000001 cycles: 40602045 heartbeat IPC: 2.693 cumulative IPC: 2.491 (Simulation time: 00 hr 11 min 32 sec)
Heartbeat CPU 0 instructions: 130000003 cycles: 44366187 heartbeat IPC: 2.657 cumulative IPC: 2.511 (Simulation time: 00 hr 12 min 33 sec)
Heartbeat CPU 0 instructions: 140000002 cycles: 48491614 heartbeat IPC: 2.424 cumulative IPC: 2.501 (Simulation time: 00 hr 13 min 35 sec)
Heartbeat CPU 0 instructions: 150000001 cycles: 52535644 heartbeat IPC: 2.473 cumulative IPC: 2.498 (Simulation time: 00 hr 14 min 36 sec)
Heartbeat CPU 0 instructions: 160000000 cycles: 56184366 heartbeat IPC: 2.741 cumulative IPC: 2.518 (Simulation time: 00 hr 15 min 35 sec)
Heartbeat CPU 0 instructions: 170000001 cycles: 60350038 heartbeat IPC: 2.401 cumulative IPC: 2.508 (Simulation time: 00 hr 16 min 42 sec)
Heartbeat CPU 0 instructions: 180000001 cycles: 63805525 heartbeat IPC: 2.894 cumulative IPC: 2.534 (Simulation time: 00 hr 17 min 44 sec)
Heartbeat CPU 0 instructions: 190000002 cycles: 67382977 heartbeat IPC: 2.795 cumulative IPC: 2.551 (Simulation time: 00 hr 18 min 46 sec)
Heartbeat CPU 0 instructions: 200000002 cycles: 71157076 heartbeat IPC: 2.65 cumulative IPC: 2.557 (Simulation time: 00 hr 19 min 46 sec)
Heartbeat CPU 0 instructions: 210000000 cycles: 74794374 heartbeat IPC: 2.749 cumulative IPC: 2.568 (Simulation time: 00 hr 20 min 46 sec)
Heartbeat CPU 0 instructions: 220000001 cycles: 78664764 heartbeat IPC: 2.584 cumulative IPC: 2.569 (Simulation time: 00 hr 21 min 47 sec)
Heartbeat CPU 0 instructions: 230000002 cycles: 82502807 heartbeat IPC: 2.605 cumulative IPC: 2.571 (Simulation time: 00 hr 22 min 47 sec)
Heartbeat CPU 0 instructions: 240000001 cycles: 86708243 heartbeat IPC: 2.378 cumulative IPC: 2.56 (Simulation time: 00 hr 23 min 56 sec)
Heartbeat CPU 0 instructions: 250000003 cycles: 91278885 heartbeat IPC: 2.188 cumulative IPC: 2.539 (Simulation time: 00 hr 25 min 00 sec)
Heartbeat CPU 0 instructions: 260000000 cycles: 95080567 heartbeat IPC: 2.63 cumulative IPC: 2.543 (Simulation time: 00 hr 25 min 58 sec)
Heartbeat CPU 0 instructions: 270000003 cycles: 102210022 heartbeat IPC: 1.403 cumulative IPC: 2.452 (Simulation time: 00 hr 27 min 27 sec)
Heartbeat CPU 0 instructions: 280000000 cycles: 115500413 heartbeat IPC: 0.7524 cumulative IPC: 2.233 (Simulation time: 00 hr 29 min 48 sec)
Heartbeat CPU 0 instructions: 290000000 cycles: 128983139 heartbeat IPC: 0.7417 cumulative IPC: 2.06 (Simulation time: 00 hr 32 min 18 sec)
Heartbeat CPU 0 instructions: 300000003 cycles: 137454417 heartbeat IPC: 1.18 cumulative IPC: 2.001 (Simulation time: 00 hr 34 min 23 sec)
Heartbeat CPU 0 instructions: 310000004 cycles: 150148897 heartbeat IPC: 0.7877 cumulative IPC: 1.889 (Simulation time: 00 hr 37 min 21 sec)
Heartbeat CPU 0 instructions: 320000004 cycles: 155676454 heartbeat IPC: 1.809 cumulative IPC: 1.886 (Simulation time: 00 hr 38 min 58 sec)
Heartbeat CPU 0 instructions: 330000000 cycles: 159757589 heartbeat IPC: 2.45 cumulative IPC: 1.901 (Simulation time: 00 hr 40 min 20 sec)
Heartbeat CPU 0 instructions: 340000001 cycles: 164183588 heartbeat IPC: 2.259 cumulative IPC: 1.912 (Simulation time: 00 hr 41 min 40 sec)
Heartbeat CPU 0 instructions: 350000004 cycles: 168628991 heartbeat IPC: 2.25 cumulative IPC: 1.921 (Simulation time: 00 hr 43 min 12 sec)
Heartbeat CPU 0 instructions: 360000003 cycles: 172625919 heartbeat IPC: 2.502 cumulative IPC: 1.936 (Simulation time: 00 hr 44 min 30 sec)
Heartbeat CPU 0 instructions: 370000001 cycles: 176393192 heartbeat IPC: 2.654 cumulative IPC: 1.952 (Simulation time: 00 hr 45 min 47 sec)
Heartbeat CPU 0 instructions: 380000004 cycles: 179984282 heartbeat IPC: 2.785 cumulative IPC: 1.97 (Simulation time: 00 hr 47 min 02 sec)
Heartbeat CPU 0 instructions: 390000002 cycles: 183696690 heartbeat IPC: 2.694 cumulative IPC: 1.986 (Simulation time: 00 hr 48 min 23 sec)
Heartbeat CPU 0 instructions: 400000000 cycles: 187719972 heartbeat IPC: 2.486 cumulative IPC: 1.997 (Simulation time: 00 hr 49 min 44 sec)
Heartbeat CPU 0 instructions: 410000000 cycles: 195873871 heartbeat IPC: 1.226 cumulative IPC: 1.963 (Simulation time: 00 hr 51 min 44 sec)
Heartbeat CPU 0 instructions: 420000003 cycles: 208828586 heartbeat IPC: 0.7719 cumulative IPC: 1.885 (Simulation time: 00 hr 54 min 38 sec)
Heartbeat CPU 0 instructions: 430000000 cycles: 217253079 heartbeat IPC: 1.187 cumulative IPC: 1.856 (Simulation time: 00 hr 56 min 52 sec)
Heartbeat CPU 0 instructions: 440000004 cycles: 225790532 heartbeat IPC: 1.171 cumulative IPC: 1.828 (Simulation time: 00 hr 59 min 08 sec)
Heartbeat CPU 0 instructions: 450000001 cycles: 234143096 heartbeat IPC: 1.197 cumulative IPC: 1.805 (Simulation time: 01 hr 01 min 19 sec)
Heartbeat CPU 0 instructions: 460000002 cycles: 248705519 heartbeat IPC: 0.6867 cumulative IPC: 1.736 (Simulation time: 01 hr 04 min 30 sec)
Heartbeat CPU 0 instructions: 470000003 cycles: 259486935 heartbeat IPC: 0.9275 cumulative IPC: 1.7 (Simulation time: 01 hr 06 min 38 sec)
Heartbeat CPU 0 instructions: 480000003 cycles: 263876492 heartbeat IPC: 2.278 cumulative IPC: 1.711 (Simulation time: 01 hr 07 min 36 sec)
Heartbeat CPU 0 instructions: 490000001 cycles: 268501266 heartbeat IPC: 2.162 cumulative IPC: 1.719 (Simulation time: 01 hr 08 min 34 sec)
Heartbeat CPU 0 instructions: 500000002 cycles: 272610452 heartbeat IPC: 2.434 cumulative IPC: 1.73 (Simulation time: 01 hr 09 min 29 sec)
Heartbeat CPU 0 instructions: 510000000 cycles: 276307341 heartbeat IPC: 2.705 cumulative IPC: 1.744 (Simulation time: 01 hr 10 min 22 sec)
Heartbeat CPU 0 instructions: 520000000 cycles: 280217260 heartbeat IPC: 2.558 cumulative IPC: 1.756 (Simulation time: 01 hr 11 min 16 sec)
Heartbeat CPU 0 instructions: 530000001 cycles: 293145910 heartbeat IPC: 0.7735 cumulative IPC: 1.71 (Simulation time: 01 hr 13 min 14 sec)
Heartbeat CPU 0 instructions: 540000000 cycles: 306500625 heartbeat IPC: 0.7488 cumulative IPC: 1.667 (Simulation time: 01 hr 15 min 16 sec)
Heartbeat CPU 0 instructions: 550000004 cycles: 322085865 heartbeat IPC: 0.6416 cumulative IPC: 1.615 (Simulation time: 01 hr 17 min 33 sec)
Heartbeat CPU 0 instructions: 560000004 cycles: 326630549 heartbeat IPC: 2.2 cumulative IPC: 1.624 (Simulation time: 01 hr 18 min 31 sec)
Heartbeat CPU 0 instructions: 570000001 cycles: 329764489 heartbeat IPC: 3.191 cumulative IPC: 1.639 (Simulation time: 01 hr 19 min 20 sec)
Heartbeat CPU 0 instructions: 580000003 cycles: 333312144 heartbeat IPC: 2.819 cumulative IPC: 1.652 (Simulation time: 01 hr 20 min 11 sec)
Heartbeat CPU 0 instructions: 590000002 cycles: 336941362 heartbeat IPC: 2.755 cumulative IPC: 1.664 (Simulation time: 01 hr 21 min 03 sec)
Heartbeat CPU 0 instructions: 600000003 cycles: 340008362 heartbeat IPC: 3.261 cumulative IPC: 1.679 (Simulation time: 01 hr 21 min 51 sec)
Heartbeat CPU 0 instructions: 610000001 cycles: 343519113 heartbeat IPC: 2.848 cumulative IPC: 1.692 (Simulation time: 01 hr 22 min 42 sec)
Heartbeat CPU 0 instructions: 620000000 cycles: 347534461 heartbeat IPC: 2.49 cumulative IPC: 1.701 (Simulation time: 01 hr 23 min 36 sec)
Heartbeat CPU 0 instructions: 630000002 cycles: 350899592 heartbeat IPC: 2.972 cumulative IPC: 1.714 (Simulation time: 01 hr 24 min 26 sec)
Heartbeat CPU 0 instructions: 640000004 cycles: 354911287 heartbeat IPC: 2.493 cumulative IPC: 1.723 (Simulation time: 01 hr 25 min 19 sec)
Heartbeat CPU 0 instructions: 650000001 cycles: 358734002 heartbeat IPC: 2.616 cumulative IPC: 1.733 (Simulation time: 01 hr 26 min 07 sec)
Simulation finished CPU 0 instructions: 600000001 cycles: 346233941 cumulative IPC: 1.733 (Simulation time: 01 hr 26 min 07 sec)
Simulation complete CPU 0 instructions: 600000001 cycles: 346233941 cumulative IPC: 1.733 (Simulation time: 01 hr 26 min 07 sec)

ChampSim completed all CPUs

=== Simulation ===
CPU 0 runs traces/400.perlbench-50B.champsimtrace.xz
Region of Interest Statistics

CPU 0 cumulative IPC: 1.733 instructions: 600000001 cycles: 346233941
CPU 0 Branch Prediction Accuracy: 96.2% MPKI: 7.839 Average ROB Occupancy at Mispredict: 44.11
Branch type MPKI
BRANCH_DIRECT_JUMP: 0.0176
BRANCH_INDIRECT: 0.38
BRANCH_CONDITIONAL: 6.99
BRANCH_DIRECT_CALL: 0.0067
BRANCH_INDIRECT_CALL: 0.431
BRANCH_RETURN: 0.0161

LLC TOTAL        ACCESS:    1377219 HIT:     734770 MISS:     642449
LLC LOAD         ACCESS:     589964 HIT:     325265 MISS:     264699
LLC RFO          ACCESS:      47458 HIT:      19043 MISS:      28415
LLC PREFETCH     ACCESS:     589964 HIT:     306066 MISS:     283898
LLC WRITE        ACCESS:     127768 HIT:      80952 MISS:      46816
LLC TRANSLATION  ACCESS:      22065 HIT:       3444 MISS:      18621
LLC PREFETCH REQUESTED:     589964 ISSUED:     589964 USEFUL:      93415 USELESS:     127718
LLC AVERAGE MISS LATENCY: 529.8 cycles
cpu0_DTLB TOTAL        ACCESS:  146473378 HIT:  145166007 MISS:    1307371
cpu0_DTLB LOAD         ACCESS:  146473378 HIT:  145166007 MISS:    1307371
cpu0_DTLB RFO          ACCESS:          0 HIT:          0 MISS:          0
cpu0_DTLB PREFETCH     ACCESS:          0 HIT:          0 MISS:          0
cpu0_DTLB WRITE        ACCESS:          0 HIT:          0 MISS:          0
cpu0_DTLB TRANSLATION  ACCESS:          0 HIT:          0 MISS:          0
cpu0_DTLB PREFETCH REQUESTED:          0 ISSUED:          0 USEFUL:          0 USELESS:          0
cpu0_DTLB AVERAGE MISS LATENCY: 16.3 cycles
cpu0_ITLB TOTAL        ACCESS:    8985351 HIT:    8800742 MISS:     184609
cpu0_ITLB LOAD         ACCESS:    8985351 HIT:    8800742 MISS:     184609
cpu0_ITLB RFO          ACCESS:          0 HIT:          0 MISS:          0
cpu0_ITLB PREFETCH     ACCESS:          0 HIT:          0 MISS:          0
cpu0_ITLB WRITE        ACCESS:          0 HIT:          0 MISS:          0
cpu0_ITLB TRANSLATION  ACCESS:          0 HIT:          0 MISS:          0
cpu0_ITLB PREFETCH REQUESTED:          0 ISSUED:          0 USEFUL:          0 USELESS:          0
cpu0_ITLB AVERAGE MISS LATENCY: 4.492 cycles
cpu0_L1D TOTAL        ACCESS:  193240583 HIT:  189557377 MISS:    3683206
cpu0_L1D LOAD         ACCESS:  107396060 HIT:  104370437 MISS:    3025623
cpu0_L1D RFO          ACCESS:          0 HIT:          0 MISS:          0
cpu0_L1D PREFETCH     ACCESS:          0 HIT:          0 MISS:          0
cpu0_L1D WRITE        ACCESS:   85816009 HIT:   85185525 MISS:     630484
cpu0_L1D TRANSLATION  ACCESS:      28514 HIT:       1415 MISS:      27099
cpu0_L1D PREFETCH REQUESTED:          0 ISSUED:          0 USEFUL:          0 USELESS:          0
cpu0_L1D AVERAGE MISS LATENCY: 54.98 cycles
cpu0_L1I TOTAL        ACCESS:   10420008 HIT:    8658606 MISS:    1761402
cpu0_L1I LOAD         ACCESS:   10420008 HIT:    8658606 MISS:    1761402
cpu0_L1I RFO          ACCESS:          0 HIT:          0 MISS:          0
cpu0_L1I PREFETCH     ACCESS:          0 HIT:          0 MISS:          0
cpu0_L1I WRITE        ACCESS:          0 HIT:          0 MISS:          0
cpu0_L1I TRANSLATION  ACCESS:          0 HIT:          0 MISS:          0
cpu0_L1I PREFETCH REQUESTED:          0 ISSUED:          0 USEFUL:          0 USELESS:          0
cpu0_L1I AVERAGE MISS LATENCY: 16.25 cycles
cpu0_L2C TOTAL        ACCESS:    3834305 HIT:    3171747 MISS:     662558
cpu0_L2C LOAD         ACCESS:    3104897 HIT:    2514933 MISS:     589964
cpu0_L2C RFO          ACCESS:     191588 HIT:     144130 MISS:      47458
cpu0_L2C PREFETCH     ACCESS:          0 HIT:          0 MISS:          0
cpu0_L2C WRITE        ACCESS:     510792 HIT:     507721 MISS:       3071
cpu0_L2C TRANSLATION  ACCESS:      27028 HIT:       4963 MISS:      22065
cpu0_L2C PREFETCH REQUESTED:          0 ISSUED:          0 USEFUL:          0 USELESS:          0
cpu0_L2C AVERAGE MISS LATENCY: 311.3 cycles
cpu0_STLB TOTAL        ACCESS:    1008910 HIT:     982220 MISS:      26690
cpu0_STLB LOAD         ACCESS:    1008910 HIT:     982220 MISS:      26690
cpu0_STLB RFO          ACCESS:          0 HIT:          0 MISS:          0
cpu0_STLB PREFETCH     ACCESS:          0 HIT:          0 MISS:          0
cpu0_STLB WRITE        ACCESS:          0 HIT:          0 MISS:          0
cpu0_STLB TRANSLATION  ACCESS:          0 HIT:          0 MISS:          0
cpu0_STLB PREFETCH REQUESTED:          0 ISSUED:          0 USEFUL:          0 USELESS:          0
cpu0_STLB AVERAGE MISS LATENCY: 593.4 cycles

DRAM Statistics

Channel 0 RQ ROW_BUFFER_HIT:      77434
  ROW_BUFFER_MISS:     438152
 AVG DBUS CONGESTED CYCLE: 3.891
WQ ROW_BUFFER_HIT: Channel 0 
  ROW_BUFFER_MISS:      10940
  FULL:      69457
