WARNING: physical memory size is smaller than virtual memory size.

*** ChampSim Multicore Out-of-Order Simulator ***
Warmup Instructions: 50000000
Simulation Instructions: 600000000
Number of CPUs: 1
Page size: 4096

Off-chip DRAM Size: 4 GiB Channels: 1 Width: 64-bit Data Race: 3200 MT/s
Heartbeat CPU 0 instructions: 10000000 cycles: 2500061 heartbeat IPC: 4 cumulative IPC: 4 (Simulation time: 00 hr 00 min 23 sec)
Heartbeat CPU 0 instructions: 20000000 cycles: 5000061 heartbeat IPC: 4 cumulative IPC: 4 (Simulation time: 00 hr 00 min 49 sec)
Heartbeat CPU 0 instructions: 30000000 cycles: 7500061 heartbeat IPC: 4 cumulative IPC: 4 (Simulation time: 00 hr 01 min 17 sec)
Heartbeat CPU 0 instructions: 40000000 cycles: 10000061 heartbeat IPC: 4 cumulative IPC: 4 (Simulation time: 00 hr 01 min 47 sec)
Heartbeat CPU 0 instructions: 50000000 cycles: 12500061 heartbeat IPC: 4 cumulative IPC: 4 (Simulation time: 00 hr 02 min 20 sec)
Warmup finished CPU 0 instructions: 50000000 cycles: 12500062 cumulative IPC: 4 (Simulation time: 00 hr 02 min 20 sec)
Warmup complete CPU 0 instructions: 50000000 cycles: 12500062 cumulative IPC: 4 (Simulation time: 00 hr 02 min 20 sec)
Heartbeat CPU 0 instructions: 60000002 cycles: 16446623 heartbeat IPC: 2.534 cumulative IPC: 2.534 (Simulation time: 00 hr 03 min 06 sec)
Heartbeat CPU 0 instructions: 70000003 cycles: 20770663 heartbeat IPC: 2.313 cumulative IPC: 2.418 (Simulation time: 00 hr 03 min 52 sec)
Heartbeat CPU 0 instructions: 80000003 cycles: 25247437 heartbeat IPC: 2.234 cumulative IPC: 2.353 (Simulation time: 00 hr 04 min 38 sec)
Heartbeat CPU 0 instructions: 90000000 cycles: 28939876 heartbeat IPC: 2.708 cumulative IPC: 2.433 (Simulation time: 00 hr 05 min 20 sec)
Heartbeat CPU 0 instructions: 100000003 cycles: 32843908 heartbeat IPC: 2.561 cumulative IPC: 2.458 (Simulation time: 00 hr 06 min 05 sec)
Heartbeat CPU 0 instructions: 110000002 cycles: 36950135 heartbeat IPC: 2.435 cumulative IPC: 2.454 (Simulation time: 00 hr 06 min 49 sec)
Heartbeat CPU 0 instructions: 120000001 cycles: 40668359 heartbeat IPC: 2.689 cumulative IPC: 2.485 (Simulation time: 00 hr 07 min 33 sec)
Heartbeat CPU 0 instructions: 130000003 cycles: 44444328 heartbeat IPC: 2.648 cumulative IPC: 2.504 (Simulation time: 00 hr 08 min 16 sec)
Heartbeat CPU 0 instructions: 140000002 cycles: 48579315 heartbeat IPC: 2.418 cumulative IPC: 2.495 (Simulation time: 00 hr 09 min 01 sec)
Heartbeat CPU 0 instructions: 150000001 cycles: 52632664 heartbeat IPC: 2.467 cumulative IPC: 2.492 (Simulation time: 00 hr 09 min 46 sec)
Heartbeat CPU 0 instructions: 160000000 cycles: 56291651 heartbeat IPC: 2.733 cumulative IPC: 2.512 (Simulation time: 00 hr 10 min 36 sec)
Heartbeat CPU 0 instructions: 170000001 cycles: 60472265 heartbeat IPC: 2.392 cumulative IPC: 2.501 (Simulation time: 00 hr 11 min 29 sec)
Heartbeat CPU 0 instructions: 180000001 cycles: 63937266 heartbeat IPC: 2.886 cumulative IPC: 2.527 (Simulation time: 00 hr 12 min 19 sec)
Heartbeat CPU 0 instructions: 190000002 cycles: 67527991 heartbeat IPC: 2.785 cumulative IPC: 2.544 (Simulation time: 00 hr 13 min 04 sec)
Heartbeat CPU 0 instructions: 200000002 cycles: 71313896 heartbeat IPC: 2.641 cumulative IPC: 2.55 (Simulation time: 00 hr 13 min 50 sec)
Heartbeat CPU 0 instructions: 210000000 cycles: 74955829 heartbeat IPC: 2.746 cumulative IPC: 2.562 (Simulation time: 00 hr 14 min 46 sec)
Heartbeat CPU 0 instructions: 220000001 cycles: 78831156 heartbeat IPC: 2.58 cumulative IPC: 2.563 (Simulation time: 00 hr 15 min 50 sec)
Heartbeat CPU 0 instructions: 230000002 cycles: 82674752 heartbeat IPC: 2.602 cumulative IPC: 2.565 (Simulation time: 00 hr 16 min 52 sec)
Heartbeat CPU 0 instructions: 240000001 cycles: 86887958 heartbeat IPC: 2.373 cumulative IPC: 2.554 (Simulation time: 00 hr 17 min 52 sec)
Heartbeat CPU 0 instructions: 250000003 cycles: 91461720 heartbeat IPC: 2.186 cumulative IPC: 2.533 (Simulation time: 00 hr 18 min 51 sec)
Heartbeat CPU 0 instructions: 260000000 cycles: 95259793 heartbeat IPC: 2.633 cumulative IPC: 2.537 (Simulation time: 00 hr 19 min 49 sec)
Heartbeat CPU 0 instructions: 270000003 cycles: 102614313 heartbeat IPC: 1.36 cumulative IPC: 2.441 (Simulation time: 00 hr 21 min 19 sec)
Heartbeat CPU 0 instructions: 280000000 cycles: 116301145 heartbeat IPC: 0.7306 cumulative IPC: 2.216 (Simulation time: 00 hr 23 min 36 sec)
Heartbeat CPU 0 instructions: 290000000 cycles: 131646169 heartbeat IPC: 0.6517 cumulative IPC: 2.014 (Simulation time: 00 hr 26 min 05 sec)
Heartbeat CPU 0 instructions: 300000003 cycles: 140810282 heartbeat IPC: 1.091 cumulative IPC: 1.948 (Simulation time: 00 hr 27 min 50 sec)
Heartbeat CPU 0 instructions: 310000004 cycles: 154271514 heartbeat IPC: 0.7429 cumulative IPC: 1.834 (Simulation time: 00 hr 30 min 14 sec)
Heartbeat CPU 0 instructions: 320000004 cycles: 160054014 heartbeat IPC: 1.729 cumulative IPC: 1.83 (Simulation time: 00 hr 31 min 32 sec)
Heartbeat CPU 0 instructions: 330000000 cycles: 164140729 heartbeat IPC: 2.447 cumulative IPC: 1.846 (Simulation time: 00 hr 32 min 37 sec)
Heartbeat CPU 0 instructions: 340000001 cycles: 168557266 heartbeat IPC: 2.264 cumulative IPC: 1.858 (Simulation time: 00 hr 33 min 45 sec)
Heartbeat CPU 0 instructions: 350000004 cycles: 172899763 heartbeat IPC: 2.303 cumulative IPC: 1.87 (Simulation time: 00 hr 34 min 51 sec)
Heartbeat CPU 0 instructions: 360000003 cycles: 176789678 heartbeat IPC: 2.571 cumulative IPC: 1.887 (Simulation time: 00 hr 35 min 52 sec)
Heartbeat CPU 0 instructions: 370000001 cycles: 180490395 heartbeat IPC: 2.702 cumulative IPC: 1.905 (Simulation time: 00 hr 36 min 52 sec)
Heartbeat CPU 0 instructions: 380000004 cycles: 184050047 heartbeat IPC: 2.809 cumulative IPC: 1.924 (Simulation time: 00 hr 37 min 50 sec)
Heartbeat CPU 0 instructions: 390000002 cycles: 187737546 heartbeat IPC: 2.712 cumulative IPC: 1.94 (Simulation time: 00 hr 38 min 50 sec)
Heartbeat CPU 0 instructions: 400000000 cycles: 191679682 heartbeat IPC: 2.537 cumulative IPC: 1.953 (Simulation time: 00 hr 39 min 50 sec)
Heartbeat CPU 0 instructions: 410000000 cycles: 199577428 heartbeat IPC: 1.266 cumulative IPC: 1.924 (Simulation time: 00 hr 41 min 17 sec)
Heartbeat CPU 0 instructions: 420000003 cycles: 212974975 heartbeat IPC: 0.7464 cumulative IPC: 1.846 (Simulation time: 00 hr 43 min 20 sec)
Heartbeat CPU 0 instructions: 430000000 cycles: 222067205 heartbeat IPC: 1.1 cumulative IPC: 1.813 (Simulation time: 00 hr 45 min 02 sec)
Heartbeat CPU 0 instructions: 440000004 cycles: 231274098 heartbeat IPC: 1.086 cumulative IPC: 1.783 (Simulation time: 00 hr 46 min 42 sec)
Heartbeat CPU 0 instructions: 450000001 cycles: 240378824 heartbeat IPC: 1.098 cumulative IPC: 1.755 (Simulation time: 00 hr 48 min 20 sec)
Heartbeat CPU 0 instructions: 460000002 cycles: 256142421 heartbeat IPC: 0.6344 cumulative IPC: 1.683 (Simulation time: 00 hr 50 min 45 sec)
Heartbeat CPU 0 instructions: 470000003 cycles: 267302803 heartbeat IPC: 0.896 cumulative IPC: 1.648 (Simulation time: 00 hr 52 min 37 sec)
Heartbeat CPU 0 instructions: 480000003 cycles: 271745151 heartbeat IPC: 2.251 cumulative IPC: 1.659 (Simulation time: 00 hr 53 min 39 sec)
Heartbeat CPU 0 instructions: 490000001 cycles: 276214229 heartbeat IPC: 2.238 cumulative IPC: 1.668 (Simulation time: 00 hr 54 min 41 sec)
Heartbeat CPU 0 instructions: 500000002 cycles: 280195337 heartbeat IPC: 2.512 cumulative IPC: 1.681 (Simulation time: 00 hr 55 min 40 sec)
Heartbeat CPU 0 instructions: 510000000 cycles: 283813458 heartbeat IPC: 2.764 cumulative IPC: 1.695 (Simulation time: 00 hr 56 min 37 sec)
Heartbeat CPU 0 instructions: 520000000 cycles: 287560624 heartbeat IPC: 2.669 cumulative IPC: 1.709 (Simulation time: 00 hr 57 min 35 sec)
Heartbeat CPU 0 instructions: 530000001 cycles: 300313701 heartbeat IPC: 0.7841 cumulative IPC: 1.668 (Simulation time: 00 hr 59 min 35 sec)
Heartbeat CPU 0 instructions: 540000000 cycles: 314544561 heartbeat IPC: 0.7027 cumulative IPC: 1.622 (Simulation time: 01 hr 02 min 21 sec)
Heartbeat CPU 0 instructions: 550000004 cycles: 330917495 heartbeat IPC: 0.6108 cumulative IPC: 1.57 (Simulation time: 01 hr 05 min 14 sec)
Heartbeat CPU 0 instructions: 560000004 cycles: 335486892 heartbeat IPC: 2.188 cumulative IPC: 1.579 (Simulation time: 01 hr 06 min 22 sec)
Heartbeat CPU 0 instructions: 570000001 cycles: 338629059 heartbeat IPC: 3.183 cumulative IPC: 1.594 (Simulation time: 01 hr 07 min 19 sec)
Heartbeat CPU 0 instructions: 580000003 cycles: 342182916 heartbeat IPC: 2.814 cumulative IPC: 1.608 (Simulation time: 01 hr 08 min 16 sec)
Heartbeat CPU 0 instructions: 590000002 cycles: 345814420 heartbeat IPC: 2.754 cumulative IPC: 1.62 (Simulation time: 01 hr 09 min 14 sec)
Heartbeat CPU 0 instructions: 600000003 cycles: 348883336 heartbeat IPC: 3.258 cumulative IPC: 1.635 (Simulation time: 01 hr 10 min 11 sec)
Heartbeat CPU 0 instructions: 610000001 cycles: 352397030 heartbeat IPC: 2.846 cumulative IPC: 1.648 (Simulation time: 01 hr 11 min 11 sec)
Heartbeat CPU 0 instructions: 620000000 cycles: 356415704 heartbeat IPC: 2.488 cumulative IPC: 1.657 (Simulation time: 01 hr 12 min 15 sec)
Heartbeat CPU 0 instructions: 630000002 cycles: 359786001 heartbeat IPC: 2.967 cumulative IPC: 1.67 (Simulation time: 01 hr 13 min 16 sec)
Heartbeat CPU 0 instructions: 640000004 cycles: 363802791 heartbeat IPC: 2.49 cumulative IPC: 1.679 (Simulation time: 01 hr 14 min 23 sec)
Heartbeat CPU 0 instructions: 650000001 cycles: 367629254 heartbeat IPC: 2.613 cumulative IPC: 1.69 (Simulation time: 01 hr 15 min 30 sec)
Simulation finished CPU 0 instructions: 600000001 cycles: 355129193 cumulative IPC: 1.69 (Simulation time: 01 hr 15 min 30 sec)
Simulation complete CPU 0 instructions: 600000001 cycles: 355129193 cumulative IPC: 1.69 (Simulation time: 01 hr 15 min 30 sec)

ChampSim completed all CPUs

=== Simulation ===
CPU 0 runs traces/400.perlbench-50B.champsimtrace.xz
Region of Interest Statistics

CPU 0 cumulative IPC: 1.69 instructions: 600000001 cycles: 355129193
CPU 0 Branch Prediction Accuracy: 96.2% MPKI: 7.839 Average ROB Occupancy at Mispredict: 44.34
Branch type MPKI
BRANCH_DIRECT_JUMP: 0.0176
BRANCH_INDIRECT: 0.38
BRANCH_CONDITIONAL: 6.99
BRANCH_DIRECT_CALL: 0.0067
BRANCH_INDIRECT_CALL: 0.431
BRANCH_RETURN: 0.0161

LLC TOTAL        ACCESS:     783285 HIT:     358144 MISS:     425141
LLC LOAD         ACCESS:     585817 HIT:     257122 MISS:     328695
LLC RFO          ACCESS:      47566 HIT:      19134 MISS:      28432
LLC PREFETCH     ACCESS:          0 HIT:          0 MISS:          0
LLC WRITE        ACCESS:     127863 HIT:      77763 MISS:      50100
LLC TRANSLATION  ACCESS:      22039 HIT:       4125 MISS:      17914
LLC PREFETCH REQUESTED:          0 ISSUED:          0 USEFUL:          0 USELESS:          0
LLC AVERAGE MISS LATENCY: 491.4 cycles
cpu0_DTLB TOTAL        ACCESS:  146463316 HIT:  145156034 MISS:    1307282
cpu0_DTLB LOAD         ACCESS:  146463316 HIT:  145156034 MISS:    1307282
cpu0_DTLB RFO          ACCESS:          0 HIT:          0 MISS:          0
cpu0_DTLB PREFETCH     ACCESS:          0 HIT:          0 MISS:          0
cpu0_DTLB WRITE        ACCESS:          0 HIT:          0 MISS:          0
cpu0_DTLB TRANSLATION  ACCESS:          0 HIT:          0 MISS:          0
cpu0_DTLB PREFETCH REQUESTED:          0 ISSUED:          0 USEFUL:          0 USELESS:          0
cpu0_DTLB AVERAGE MISS LATENCY: 14.89 cycles
cpu0_ITLB TOTAL        ACCESS:    8987606 HIT:    8803023 MISS:     184583
cpu0_ITLB LOAD         ACCESS:    8987606 HIT:    8803023 MISS:     184583
cpu0_ITLB RFO          ACCESS:          0 HIT:          0 MISS:          0
cpu0_ITLB PREFETCH     ACCESS:          0 HIT:          0 MISS:          0
cpu0_ITLB WRITE        ACCESS:          0 HIT:          0 MISS:          0
cpu0_ITLB TRANSLATION  ACCESS:          0 HIT:          0 MISS:          0
cpu0_ITLB PREFETCH REQUESTED:          0 ISSUED:          0 USEFUL:          0 USELESS:          0
cpu0_ITLB AVERAGE MISS LATENCY: 4.079 cycles
cpu0_L1D TOTAL        ACCESS:  193213153 HIT:  189517645 MISS:    3695508
cpu0_L1D LOAD         ACCESS:  107368711 HIT:  104328113 MISS:    3040598
cpu0_L1D RFO          ACCESS:          0 HIT:          0 MISS:          0
cpu0_L1D PREFETCH     ACCESS:          0 HIT:          0 MISS:          0
cpu0_L1D WRITE        ACCESS:   85815922 HIT:   85188112 MISS:     627810
cpu0_L1D TRANSLATION  ACCESS:      28520 HIT:       1420 MISS:      27100
cpu0_L1D PREFETCH REQUESTED:          0 ISSUED:          0 USEFUL:          0 USELESS:          0
cpu0_L1D AVERAGE MISS LATENCY: 57.98 cycles
cpu0_L1I TOTAL        ACCESS:   10421837 HIT:    8659993 MISS:    1761844
cpu0_L1I LOAD         ACCESS:   10421837 HIT:    8659993 MISS:    1761844
cpu0_L1I RFO          ACCESS:          0 HIT:          0 MISS:          0
cpu0_L1I PREFETCH     ACCESS:          0 HIT:          0 MISS:          0
cpu0_L1I WRITE        ACCESS:          0 HIT:          0 MISS:          0
cpu0_L1I TRANSLATION  ACCESS:          0 HIT:          0 MISS:          0
cpu0_L1I PREFETCH REQUESTED:          0 ISSUED:          0 USEFUL:          0 USELESS:          0
cpu0_L1I AVERAGE MISS LATENCY: 18.36 cycles
cpu0_L2C TOTAL        ACCESS:    3834364 HIT:    3175602 MISS:     658762
cpu0_L2C LOAD         ACCESS:    3104903 HIT:    2519086 MISS:     585817
cpu0_L2C RFO          ACCESS:     191580 HIT:     144014 MISS:      47566
cpu0_L2C PREFETCH     ACCESS:          0 HIT:          0 MISS:          0
cpu0_L2C WRITE        ACCESS:     510850 HIT:     507510 MISS:       3340
cpu0_L2C TRANSLATION  ACCESS:      27031 HIT:       4992 MISS:      22039
cpu0_L2C PREFETCH REQUESTED:          0 ISSUED:          0 USEFUL:          0 USELESS:          0
cpu0_L2C AVERAGE MISS LATENCY: 337.6 cycles
cpu0_STLB TOTAL        ACCESS:    1008685 HIT:     981992 MISS:      26693
cpu0_STLB LOAD         ACCESS:    1008685 HIT:     981992 MISS:      26693
cpu0_STLB RFO          ACCESS:          0 HIT:          0 MISS:          0
cpu0_STLB PREFETCH     ACCESS:          0 HIT:          0 MISS:          0
cpu0_STLB WRITE        ACCESS:          0 HIT:          0 MISS:          0
cpu0_STLB TRANSLATION  ACCESS:          0 HIT:          0 MISS:          0
cpu0_STLB PREFETCH REQUESTED:          0 ISSUED:          0 USEFUL:          0 USELESS:          0
cpu0_STLB AVERAGE MISS LATENCY: 519.4 cycles

DRAM Statistics

Channel 0 RQ ROW_BUFFER_HIT:      54219
  ROW_BUFFER_MISS:     320265
 AVG DBUS CONGESTED CYCLE: 3.832
WQ ROW_BUFFER_HIT: Channel 0 
  ROW_BUFFER_MISS:      13760
  FULL:      57039
