WARNING: physical memory size is smaller than virtual memory size.

*** ChampSim Multicore Out-of-Order Simulator ***
Warmup Instructions: 50000000
Simulation Instructions: 600000000
Number of CPUs: 1
Page size: 4096

CPU 0 Tage branch predictor
Off-chip DRAM Size: 4 GiB Channels: 1 Width: 64-bit Data Race: 3200 MT/s
Heartbeat CPU 0 instructions: 10000001 cycles: 2500318 heartbeat IPC: 3.999 cumulative IPC: 3.999 (Simulation time: 00 hr 00 min 42 sec)
Heartbeat CPU 0 instructions: 20000002 cycles: 5037108 heartbeat IPC: 3.942 cumulative IPC: 3.971 (Simulation time: 00 hr 01 min 24 sec)
Heartbeat CPU 0 instructions: 30000002 cycles: 7537108 heartbeat IPC: 4 cumulative IPC: 3.98 (Simulation time: 00 hr 02 min 04 sec)
Heartbeat CPU 0 instructions: 40000002 cycles: 10037108 heartbeat IPC: 4 cumulative IPC: 3.985 (Simulation time: 00 hr 02 min 43 sec)
Heartbeat CPU 0 instructions: 50000002 cycles: 12537108 heartbeat IPC: 4 cumulative IPC: 3.988 (Simulation time: 00 hr 03 min 21 sec)
Warmup finished CPU 0 instructions: 50000002 cycles: 12537109 cumulative IPC: 3.988 (Simulation time: 00 hr 03 min 21 sec)
Warmup complete CPU 0 instructions: 50000002 cycles: 12537109 cumulative IPC: 3.988 (Simulation time: 00 hr 03 min 21 sec)
Heartbeat CPU 0 instructions: 60000001 cycles: 15514114 heartbeat IPC: 3.359 cumulative IPC: 3.359 (Simulation time: 00 hr 04 min 09 sec)
Heartbeat CPU 0 instructions: 70000004 cycles: 18588288 heartbeat IPC: 3.253 cumulative IPC: 3.305 (Simulation time: 00 hr 04 min 58 sec)
Heartbeat CPU 0 instructions: 80000001 cycles: 21640013 heartbeat IPC: 3.277 cumulative IPC: 3.296 (Simulation time: 00 hr 05 min 48 sec)
Heartbeat CPU 0 instructions: 90000001 cycles: 24590942 heartbeat IPC: 3.389 cumulative IPC: 3.318 (Simulation time: 00 hr 06 min 37 sec)
Heartbeat CPU 0 instructions: 100000000 cycles: 27508390 heartbeat IPC: 3.428 cumulative IPC: 3.34 (Simulation time: 00 hr 07 min 28 sec)
Heartbeat CPU 0 instructions: 110000000 cycles: 30460137 heartbeat IPC: 3.388 cumulative IPC: 3.348 (Simulation time: 00 hr 08 min 19 sec)
Heartbeat CPU 0 instructions: 120000001 cycles: 33438929 heartbeat IPC: 3.357 cumulative IPC: 3.349 (Simulation time: 00 hr 09 min 08 sec)
Heartbeat CPU 0 instructions: 130000001 cycles: 36296474 heartbeat IPC: 3.5 cumulative IPC: 3.367 (Simulation time: 00 hr 09 min 58 sec)
Heartbeat CPU 0 instructions: 140000001 cycles: 39343294 heartbeat IPC: 3.282 cumulative IPC: 3.357 (Simulation time: 00 hr 10 min 49 sec)
Heartbeat CPU 0 instructions: 150000001 cycles: 42354607 heartbeat IPC: 3.321 cumulative IPC: 3.354 (Simulation time: 00 hr 11 min 38 sec)
Heartbeat CPU 0 instructions: 160000004 cycles: 45380748 heartbeat IPC: 3.305 cumulative IPC: 3.349 (Simulation time: 00 hr 12 min 27 sec)
Heartbeat CPU 0 instructions: 170000000 cycles: 52893276 heartbeat IPC: 1.331 cumulative IPC: 2.974 (Simulation time: 00 hr 13 min 48 sec)
Heartbeat CPU 0 instructions: 180000004 cycles: 61388501 heartbeat IPC: 1.177 cumulative IPC: 2.661 (Simulation time: 00 hr 15 min 18 sec)
Heartbeat CPU 0 instructions: 190000001 cycles: 69681580 heartbeat IPC: 1.206 cumulative IPC: 2.45 (Simulation time: 00 hr 16 min 38 sec)
Heartbeat CPU 0 instructions: 200000004 cycles: 72644623 heartbeat IPC: 3.375 cumulative IPC: 2.496 (Simulation time: 00 hr 17 min 23 sec)
Heartbeat CPU 0 instructions: 210000001 cycles: 75601444 heartbeat IPC: 3.382 cumulative IPC: 2.537 (Simulation time: 00 hr 18 min 13 sec)
Heartbeat CPU 0 instructions: 220000000 cycles: 78494781 heartbeat IPC: 3.456 cumulative IPC: 2.577 (Simulation time: 00 hr 19 min 00 sec)
Heartbeat CPU 0 instructions: 230000002 cycles: 81516279 heartbeat IPC: 3.31 cumulative IPC: 2.609 (Simulation time: 00 hr 19 min 50 sec)
Heartbeat CPU 0 instructions: 240000003 cycles: 84552307 heartbeat IPC: 3.294 cumulative IPC: 2.638 (Simulation time: 00 hr 20 min 39 sec)
Heartbeat CPU 0 instructions: 250000000 cycles: 87580345 heartbeat IPC: 3.302 cumulative IPC: 2.665 (Simulation time: 00 hr 21 min 26 sec)
Heartbeat CPU 0 instructions: 260000002 cycles: 90552232 heartbeat IPC: 3.365 cumulative IPC: 2.692 (Simulation time: 00 hr 22 min 14 sec)
Heartbeat CPU 0 instructions: 270000002 cycles: 93460284 heartbeat IPC: 3.439 cumulative IPC: 2.719 (Simulation time: 00 hr 23 min 01 sec)
Heartbeat CPU 0 instructions: 280000002 cycles: 96347585 heartbeat IPC: 3.463 cumulative IPC: 2.744 (Simulation time: 00 hr 23 min 50 sec)
Heartbeat CPU 0 instructions: 290000002 cycles: 99301162 heartbeat IPC: 3.386 cumulative IPC: 2.766 (Simulation time: 00 hr 24 min 37 sec)
Heartbeat CPU 0 instructions: 300000003 cycles: 102196619 heartbeat IPC: 3.454 cumulative IPC: 2.788 (Simulation time: 00 hr 25 min 25 sec)
Heartbeat CPU 0 instructions: 310000001 cycles: 105225436 heartbeat IPC: 3.302 cumulative IPC: 2.805 (Simulation time: 00 hr 26 min 13 sec)
Heartbeat CPU 0 instructions: 320000003 cycles: 108232260 heartbeat IPC: 3.326 cumulative IPC: 2.821 (Simulation time: 00 hr 27 min 01 sec)
Heartbeat CPU 0 instructions: 330000003 cycles: 111220758 heartbeat IPC: 3.346 cumulative IPC: 2.837 (Simulation time: 00 hr 27 min 49 sec)
Heartbeat CPU 0 instructions: 340000000 cycles: 119371353 heartbeat IPC: 1.227 cumulative IPC: 2.714 (Simulation time: 00 hr 29 min 08 sec)
Heartbeat CPU 0 instructions: 350000000 cycles: 128225900 heartbeat IPC: 1.129 cumulative IPC: 2.593 (Simulation time: 00 hr 30 min 36 sec)
Heartbeat CPU 0 instructions: 360000004 cycles: 136390861 heartbeat IPC: 1.225 cumulative IPC: 2.503 (Simulation time: 00 hr 31 min 56 sec)
Heartbeat CPU 0 instructions: 370000000 cycles: 139358077 heartbeat IPC: 3.37 cumulative IPC: 2.523 (Simulation time: 00 hr 32 min 45 sec)
Heartbeat CPU 0 instructions: 380000003 cycles: 142274869 heartbeat IPC: 3.428 cumulative IPC: 2.544 (Simulation time: 00 hr 33 min 32 sec)
Heartbeat CPU 0 instructions: 390000002 cycles: 145252057 heartbeat IPC: 3.359 cumulative IPC: 2.562 (Simulation time: 00 hr 34 min 20 sec)
Heartbeat CPU 0 instructions: 400000004 cycles: 148156674 heartbeat IPC: 3.443 cumulative IPC: 2.581 (Simulation time: 00 hr 35 min 06 sec)
Heartbeat CPU 0 instructions: 410000002 cycles: 151097940 heartbeat IPC: 3.4 cumulative IPC: 2.598 (Simulation time: 00 hr 35 min 55 sec)
Heartbeat CPU 0 instructions: 420000003 cycles: 154212074 heartbeat IPC: 3.211 cumulative IPC: 2.612 (Simulation time: 00 hr 36 min 47 sec)
Heartbeat CPU 0 instructions: 430000001 cycles: 157220173 heartbeat IPC: 3.324 cumulative IPC: 2.626 (Simulation time: 00 hr 37 min 37 sec)
Heartbeat CPU 0 instructions: 440000004 cycles: 160361085 heartbeat IPC: 3.184 cumulative IPC: 2.638 (Simulation time: 00 hr 38 min 27 sec)
Heartbeat CPU 0 instructions: 450000002 cycles: 163286702 heartbeat IPC: 3.418 cumulative IPC: 2.653 (Simulation time: 00 hr 39 min 15 sec)
Heartbeat CPU 0 instructions: 460000000 cycles: 166220529 heartbeat IPC: 3.409 cumulative IPC: 2.668 (Simulation time: 00 hr 40 min 03 sec)
Heartbeat CPU 0 instructions: 470000001 cycles: 169075075 heartbeat IPC: 3.503 cumulative IPC: 2.683 (Simulation time: 00 hr 40 min 50 sec)
Heartbeat CPU 0 instructions: 480000003 cycles: 172131315 heartbeat IPC: 3.272 cumulative IPC: 2.694 (Simulation time: 00 hr 41 min 39 sec)
Heartbeat CPU 0 instructions: 490000004 cycles: 174963492 heartbeat IPC: 3.531 cumulative IPC: 2.709 (Simulation time: 00 hr 42 min 26 sec)
Heartbeat CPU 0 instructions: 500000004 cycles: 177946745 heartbeat IPC: 3.352 cumulative IPC: 2.721 (Simulation time: 00 hr 43 min 15 sec)
Heartbeat CPU 0 instructions: 510000003 cycles: 180963619 heartbeat IPC: 3.315 cumulative IPC: 2.731 (Simulation time: 00 hr 44 min 04 sec)
Heartbeat CPU 0 instructions: 520000001 cycles: 183850360 heartbeat IPC: 3.464 cumulative IPC: 2.744 (Simulation time: 00 hr 44 min 53 sec)
Heartbeat CPU 0 instructions: 530000001 cycles: 186854177 heartbeat IPC: 3.329 cumulative IPC: 2.754 (Simulation time: 00 hr 45 min 41 sec)
Heartbeat CPU 0 instructions: 540000000 cycles: 189813302 heartbeat IPC: 3.379 cumulative IPC: 2.764 (Simulation time: 00 hr 46 min 29 sec)
Heartbeat CPU 0 instructions: 550000001 cycles: 192795257 heartbeat IPC: 3.354 cumulative IPC: 2.774 (Simulation time: 00 hr 47 min 18 sec)
Heartbeat CPU 0 instructions: 560000000 cycles: 195877315 heartbeat IPC: 3.245 cumulative IPC: 2.782 (Simulation time: 00 hr 48 min 07 sec)
Heartbeat CPU 0 instructions: 570000004 cycles: 201140275 heartbeat IPC: 1.9 cumulative IPC: 2.757 (Simulation time: 00 hr 49 min 10 sec)
Heartbeat CPU 0 instructions: 580000003 cycles: 210209717 heartbeat IPC: 1.103 cumulative IPC: 2.681 (Simulation time: 00 hr 50 min 38 sec)
Heartbeat CPU 0 instructions: 590000002 cycles: 220717430 heartbeat IPC: 0.9517 cumulative IPC: 2.594 (Simulation time: 00 hr 52 min 14 sec)
Heartbeat CPU 0 instructions: 600000004 cycles: 223772611 heartbeat IPC: 3.273 cumulative IPC: 2.604 (Simulation time: 00 hr 53 min 02 sec)
Heartbeat CPU 0 instructions: 610000002 cycles: 226740099 heartbeat IPC: 3.37 cumulative IPC: 2.614 (Simulation time: 00 hr 53 min 50 sec)
Heartbeat CPU 0 instructions: 620000001 cycles: 229512826 heartbeat IPC: 3.607 cumulative IPC: 2.627 (Simulation time: 00 hr 54 min 37 sec)
Heartbeat CPU 0 instructions: 630000002 cycles: 232485889 heartbeat IPC: 3.364 cumulative IPC: 2.637 (Simulation time: 00 hr 55 min 24 sec)
Heartbeat CPU 0 instructions: 640000004 cycles: 235436059 heartbeat IPC: 3.39 cumulative IPC: 2.647 (Simulation time: 00 hr 56 min 12 sec)
Heartbeat CPU 0 instructions: 650000000 cycles: 238187105 heartbeat IPC: 3.635 cumulative IPC: 2.659 (Simulation time: 00 hr 56 min 59 sec)
Simulation finished CPU 0 instructions: 600000001 cycles: 225649998 cumulative IPC: 2.659 (Simulation time: 00 hr 56 min 59 sec)
Simulation complete CPU 0 instructions: 600000001 cycles: 225649998 cumulative IPC: 2.659 (Simulation time: 00 hr 56 min 59 sec)

ChampSim completed all CPUs

=== Simulation ===
CPU 0 runs traces/400.perlbench-41B.champsimtrace.xz
Region of Interest Statistics

CPU 0 cumulative IPC: 2.659 instructions: 600000001 cycles: 225649998
CPU 0 Branch Prediction Accuracy: 99.19% MPKI: 1.684 Average ROB Occupancy at Mispredict: 102.6
Branch type MPKI
BRANCH_DIRECT_JUMP: 0.0123
BRANCH_INDIRECT: 0.323
BRANCH_CONDITIONAL: 1.14
BRANCH_DIRECT_CALL: 0.0043
BRANCH_INDIRECT_CALL: 0.2
BRANCH_RETURN: 0.00828

LLC TOTAL        ACCESS:     593366 HIT:     313720 MISS:     279646
LLC LOAD         ACCESS:     403671 HIT:     180333 MISS:     223338
LLC RFO          ACCESS:      32512 HIT:      16305 MISS:      16207
LLC PREFETCH     ACCESS:      53024 HIT:      26538 MISS:      26486
LLC WRITE        ACCESS:      85063 HIT:      81967 MISS:       3096
LLC TRANSLATION  ACCESS:      19096 HIT:       8577 MISS:      10519
LLC PREFETCH REQUESTED:      53024 ISSUED:      53024 USEFUL:      15476 USELESS:       7360
LLC AVERAGE MISS LATENCY: 635.3 cycles
cpu0_DTLB TOTAL        ACCESS:  129770917 HIT:  129066050 MISS:     704867
cpu0_DTLB LOAD         ACCESS:  129770917 HIT:  129066050 MISS:     704867
cpu0_DTLB RFO          ACCESS:          0 HIT:          0 MISS:          0
cpu0_DTLB PREFETCH     ACCESS:          0 HIT:          0 MISS:          0
cpu0_DTLB WRITE        ACCESS:          0 HIT:          0 MISS:          0
cpu0_DTLB TRANSLATION  ACCESS:          0 HIT:          0 MISS:          0
cpu0_DTLB PREFETCH REQUESTED:          0 ISSUED:          0 USEFUL:          0 USELESS:          0
cpu0_DTLB AVERAGE MISS LATENCY: 15.87 cycles
cpu0_ITLB TOTAL        ACCESS:    4879478 HIT:    4817374 MISS:      62104
cpu0_ITLB LOAD         ACCESS:    4879478 HIT:    4817374 MISS:      62104
cpu0_ITLB RFO          ACCESS:          0 HIT:          0 MISS:          0
cpu0_ITLB PREFETCH     ACCESS:          0 HIT:          0 MISS:          0
cpu0_ITLB WRITE        ACCESS:          0 HIT:          0 MISS:          0
cpu0_ITLB TRANSLATION  ACCESS:          0 HIT:          0 MISS:          0
cpu0_ITLB PREFETCH REQUESTED:          0 ISSUED:          0 USEFUL:          0 USELESS:          0
cpu0_ITLB AVERAGE MISS LATENCY: 6.988 cycles
cpu0_L1D TOTAL        ACCESS:  174351145 HIT:  172552414 MISS:    1798731
cpu0_L1D LOAD         ACCESS:   91328595 HIT:   89928013 MISS:    1400582
cpu0_L1D RFO          ACCESS:          0 HIT:          0 MISS:          0
cpu0_L1D PREFETCH     ACCESS:          0 HIT:          0 MISS:          0
cpu0_L1D WRITE        ACCESS:   82998092 HIT:   82623339 MISS:     374753
cpu0_L1D TRANSLATION  ACCESS:      24458 HIT:       1062 MISS:      23396
cpu0_L1D PREFETCH REQUESTED:          0 ISSUED:          0 USEFUL:          0 USELESS:          0
cpu0_L1D AVERAGE MISS LATENCY: 89.91 cycles
cpu0_L1I TOTAL        ACCESS:    5658518 HIT:    4853335 MISS:     805183
cpu0_L1I LOAD         ACCESS:    5658518 HIT:    4853335 MISS:     805183
cpu0_L1I RFO          ACCESS:          0 HIT:          0 MISS:          0
cpu0_L1I PREFETCH     ACCESS:          0 HIT:          0 MISS:          0
cpu0_L1I WRITE        ACCESS:          0 HIT:          0 MISS:          0
cpu0_L1I TRANSLATION  ACCESS:          0 HIT:          0 MISS:          0
cpu0_L1I PREFETCH REQUESTED:          0 ISSUED:          0 USEFUL:          0 USELESS:          0
cpu0_L1I AVERAGE MISS LATENCY: 12.49 cycles
cpu0_L2C TOTAL        ACCESS:    1667845 HIT:    1210738 MISS:     457107
cpu0_L2C LOAD         ACCESS:    1315248 HIT:     911576 MISS:     403672
cpu0_L2C RFO          ACCESS:      89595 HIT:      57082 MISS:      32513
cpu0_L2C PREFETCH     ACCESS:          0 HIT:          0 MISS:          0
cpu0_L2C WRITE        ACCESS:     239682 HIT:     237856 MISS:       1826
cpu0_L2C TRANSLATION  ACCESS:      23320 HIT:       4224 MISS:      19096
cpu0_L2C PREFETCH REQUESTED:          0 ISSUED:          0 USEFUL:          0 USELESS:          0
cpu0_L2C AVERAGE MISS LATENCY: 370.8 cycles
cpu0_STLB TOTAL        ACCESS:     509125 HIT:     486339 MISS:      22786
cpu0_STLB LOAD         ACCESS:     509125 HIT:     486339 MISS:      22786
cpu0_STLB RFO          ACCESS:          0 HIT:          0 MISS:          0
cpu0_STLB PREFETCH     ACCESS:          0 HIT:          0 MISS:          0
cpu0_STLB WRITE        ACCESS:          0 HIT:          0 MISS:          0
cpu0_STLB TRANSLATION  ACCESS:          0 HIT:          0 MISS:          0
cpu0_STLB PREFETCH REQUESTED:          0 ISSUED:          0 USEFUL:          0 USELESS:          0
cpu0_STLB AVERAGE MISS LATENCY: 388.1 cycles

DRAM Statistics

Channel 0 RQ ROW_BUFFER_HIT:      52558
  ROW_BUFFER_MISS:     218231
 AVG DBUS CONGESTED CYCLE: 3.853
WQ ROW_BUFFER_HIT: Channel 0 
  ROW_BUFFER_MISS:       5318
  FULL:      36242
