WARNING: physical memory size is smaller than virtual memory size.

*** ChampSim Multicore Out-of-Order Simulator ***
Warmup Instructions: 50000000
Simulation Instructions: 600000000
Number of CPUs: 1
Page size: 4096

Off-chip DRAM Size: 4 GiB Channels: 1 Width: 64-bit Data Race: 3200 MT/s
Heartbeat CPU 0 instructions: 10000001 cycles: 2500318 heartbeat IPC: 3.999 cumulative IPC: 3.999 (Simulation time: 00 hr 00 min 36 sec)
Heartbeat CPU 0 instructions: 20000002 cycles: 5037132 heartbeat IPC: 3.942 cumulative IPC: 3.971 (Simulation time: 00 hr 01 min 12 sec)
Heartbeat CPU 0 instructions: 30000002 cycles: 7537132 heartbeat IPC: 4 cumulative IPC: 3.98 (Simulation time: 00 hr 01 min 46 sec)
Heartbeat CPU 0 instructions: 40000002 cycles: 10037132 heartbeat IPC: 4 cumulative IPC: 3.985 (Simulation time: 00 hr 02 min 18 sec)
Heartbeat CPU 0 instructions: 50000002 cycles: 12537132 heartbeat IPC: 4 cumulative IPC: 3.988 (Simulation time: 00 hr 02 min 51 sec)
Warmup finished CPU 0 instructions: 50000002 cycles: 12537133 cumulative IPC: 3.988 (Simulation time: 00 hr 02 min 51 sec)
Warmup complete CPU 0 instructions: 50000002 cycles: 12537133 cumulative IPC: 3.988 (Simulation time: 00 hr 02 min 51 sec)
Heartbeat CPU 0 instructions: 60000000 cycles: 17721045 heartbeat IPC: 1.929 cumulative IPC: 1.929 (Simulation time: 00 hr 03 min 46 sec)
Heartbeat CPU 0 instructions: 70000002 cycles: 22629248 heartbeat IPC: 2.037 cumulative IPC: 1.982 (Simulation time: 00 hr 04 min 36 sec)
Heartbeat CPU 0 instructions: 80000001 cycles: 28011409 heartbeat IPC: 1.858 cumulative IPC: 1.939 (Simulation time: 00 hr 05 min 24 sec)
Heartbeat CPU 0 instructions: 90000001 cycles: 32904783 heartbeat IPC: 2.044 cumulative IPC: 1.964 (Simulation time: 00 hr 06 min 15 sec)
Heartbeat CPU 0 instructions: 100000000 cycles: 38029858 heartbeat IPC: 1.951 cumulative IPC: 1.961 (Simulation time: 00 hr 07 min 09 sec)
Heartbeat CPU 0 instructions: 110000000 cycles: 42932206 heartbeat IPC: 2.04 cumulative IPC: 1.974 (Simulation time: 00 hr 07 min 59 sec)
Heartbeat CPU 0 instructions: 120000001 cycles: 48137138 heartbeat IPC: 1.921 cumulative IPC: 1.966 (Simulation time: 00 hr 08 min 54 sec)
Heartbeat CPU 0 instructions: 130000001 cycles: 53308078 heartbeat IPC: 1.934 cumulative IPC: 1.962 (Simulation time: 00 hr 09 min 45 sec)
Heartbeat CPU 0 instructions: 140000001 cycles: 58639199 heartbeat IPC: 1.876 cumulative IPC: 1.952 (Simulation time: 00 hr 10 min 38 sec)
Heartbeat CPU 0 instructions: 150000001 cycles: 63975437 heartbeat IPC: 1.874 cumulative IPC: 1.944 (Simulation time: 00 hr 11 min 30 sec)
Heartbeat CPU 0 instructions: 160000004 cycles: 69200959 heartbeat IPC: 1.914 cumulative IPC: 1.941 (Simulation time: 00 hr 12 min 20 sec)
Heartbeat CPU 0 instructions: 170000000 cycles: 79923745 heartbeat IPC: 0.9326 cumulative IPC: 1.781 (Simulation time: 00 hr 13 min 38 sec)
Heartbeat CPU 0 instructions: 180000004 cycles: 91024533 heartbeat IPC: 0.9008 cumulative IPC: 1.656 (Simulation time: 00 hr 15 min 07 sec)
Heartbeat CPU 0 instructions: 190000001 cycles: 101814112 heartbeat IPC: 0.9268 cumulative IPC: 1.568 (Simulation time: 00 hr 16 min 29 sec)
Heartbeat CPU 0 instructions: 200000003 cycles: 106580400 heartbeat IPC: 2.098 cumulative IPC: 1.595 (Simulation time: 00 hr 17 min 18 sec)
Heartbeat CPU 0 instructions: 210000001 cycles: 111499808 heartbeat IPC: 2.033 cumulative IPC: 1.617 (Simulation time: 00 hr 18 min 09 sec)
Heartbeat CPU 0 instructions: 220000000 cycles: 116328297 heartbeat IPC: 2.071 cumulative IPC: 1.638 (Simulation time: 00 hr 19 min 01 sec)
Heartbeat CPU 0 instructions: 230000002 cycles: 121651311 heartbeat IPC: 1.879 cumulative IPC: 1.65 (Simulation time: 00 hr 19 min 51 sec)
Heartbeat CPU 0 instructions: 240000000 cycles: 126502926 heartbeat IPC: 2.061 cumulative IPC: 1.667 (Simulation time: 00 hr 20 min 40 sec)
Heartbeat CPU 0 instructions: 250000000 cycles: 131672531 heartbeat IPC: 1.934 cumulative IPC: 1.679 (Simulation time: 00 hr 21 min 29 sec)
Heartbeat CPU 0 instructions: 260000000 cycles: 136710002 heartbeat IPC: 1.985 cumulative IPC: 1.691 (Simulation time: 00 hr 22 min 18 sec)
Heartbeat CPU 0 instructions: 270000002 cycles: 141606573 heartbeat IPC: 2.042 cumulative IPC: 1.705 (Simulation time: 00 hr 23 min 07 sec)
Heartbeat CPU 0 instructions: 280000002 cycles: 146534011 heartbeat IPC: 2.029 cumulative IPC: 1.716 (Simulation time: 00 hr 23 min 57 sec)
Heartbeat CPU 0 instructions: 290000001 cycles: 151921713 heartbeat IPC: 1.856 cumulative IPC: 1.722 (Simulation time: 00 hr 24 min 47 sec)
Heartbeat CPU 0 instructions: 300000003 cycles: 156999673 heartbeat IPC: 1.969 cumulative IPC: 1.731 (Simulation time: 00 hr 25 min 38 sec)
Heartbeat CPU 0 instructions: 310000001 cycles: 162311359 heartbeat IPC: 1.883 cumulative IPC: 1.736 (Simulation time: 00 hr 26 min 32 sec)
Heartbeat CPU 0 instructions: 320000003 cycles: 167533210 heartbeat IPC: 1.915 cumulative IPC: 1.742 (Simulation time: 00 hr 27 min 24 sec)
Heartbeat CPU 0 instructions: 330000003 cycles: 172845876 heartbeat IPC: 1.882 cumulative IPC: 1.747 (Simulation time: 00 hr 28 min 15 sec)
Heartbeat CPU 0 instructions: 340000000 cycles: 183356368 heartbeat IPC: 0.9514 cumulative IPC: 1.698 (Simulation time: 00 hr 29 min 40 sec)
Heartbeat CPU 0 instructions: 350000000 cycles: 194961527 heartbeat IPC: 0.8617 cumulative IPC: 1.645 (Simulation time: 00 hr 31 min 12 sec)
Heartbeat CPU 0 instructions: 360000004 cycles: 205810813 heartbeat IPC: 0.9217 cumulative IPC: 1.604 (Simulation time: 00 hr 32 min 39 sec)
Heartbeat CPU 0 instructions: 370000000 cycles: 210225917 heartbeat IPC: 2.265 cumulative IPC: 1.619 (Simulation time: 00 hr 33 min 25 sec)
Heartbeat CPU 0 instructions: 380000001 cycles: 215146590 heartbeat IPC: 2.032 cumulative IPC: 1.629 (Simulation time: 00 hr 34 min 12 sec)
Heartbeat CPU 0 instructions: 390000002 cycles: 219971321 heartbeat IPC: 2.073 cumulative IPC: 1.639 (Simulation time: 00 hr 34 min 59 sec)
Heartbeat CPU 0 instructions: 400000004 cycles: 224906786 heartbeat IPC: 2.026 cumulative IPC: 1.648 (Simulation time: 00 hr 35 min 49 sec)
Heartbeat CPU 0 instructions: 410000000 cycles: 229633901 heartbeat IPC: 2.115 cumulative IPC: 1.658 (Simulation time: 00 hr 36 min 37 sec)
Heartbeat CPU 0 instructions: 420000000 cycles: 234750725 heartbeat IPC: 1.954 cumulative IPC: 1.665 (Simulation time: 00 hr 37 min 28 sec)
Heartbeat CPU 0 instructions: 430000001 cycles: 239228965 heartbeat IPC: 2.233 cumulative IPC: 1.676 (Simulation time: 00 hr 38 min 17 sec)
Heartbeat CPU 0 instructions: 440000000 cycles: 244599602 heartbeat IPC: 1.862 cumulative IPC: 1.681 (Simulation time: 00 hr 39 min 10 sec)
Heartbeat CPU 0 instructions: 450000002 cycles: 249277929 heartbeat IPC: 2.138 cumulative IPC: 1.69 (Simulation time: 00 hr 39 min 58 sec)
Heartbeat CPU 0 instructions: 460000000 cycles: 254082227 heartbeat IPC: 2.081 cumulative IPC: 1.697 (Simulation time: 00 hr 40 min 47 sec)
Heartbeat CPU 0 instructions: 470000000 cycles: 259072218 heartbeat IPC: 2.004 cumulative IPC: 1.704 (Simulation time: 00 hr 41 min 38 sec)
Heartbeat CPU 0 instructions: 480000003 cycles: 263868106 heartbeat IPC: 2.085 cumulative IPC: 1.711 (Simulation time: 00 hr 42 min 27 sec)
Heartbeat CPU 0 instructions: 490000000 cycles: 268485318 heartbeat IPC: 2.166 cumulative IPC: 1.719 (Simulation time: 00 hr 43 min 15 sec)
Heartbeat CPU 0 instructions: 500000000 cycles: 273518853 heartbeat IPC: 1.987 cumulative IPC: 1.724 (Simulation time: 00 hr 44 min 05 sec)
Heartbeat CPU 0 instructions: 510000003 cycles: 279158485 heartbeat IPC: 1.773 cumulative IPC: 1.725 (Simulation time: 00 hr 44 min 59 sec)
Heartbeat CPU 0 instructions: 520000001 cycles: 283863684 heartbeat IPC: 2.125 cumulative IPC: 1.732 (Simulation time: 00 hr 45 min 48 sec)
Heartbeat CPU 0 instructions: 530000002 cycles: 289012697 heartbeat IPC: 1.942 cumulative IPC: 1.736 (Simulation time: 00 hr 46 min 39 sec)
Heartbeat CPU 0 instructions: 540000000 cycles: 294138680 heartbeat IPC: 1.951 cumulative IPC: 1.74 (Simulation time: 00 hr 47 min 30 sec)
Heartbeat CPU 0 instructions: 550000001 cycles: 298958070 heartbeat IPC: 2.075 cumulative IPC: 1.746 (Simulation time: 00 hr 48 min 20 sec)
Heartbeat CPU 0 instructions: 560000000 cycles: 304180423 heartbeat IPC: 1.915 cumulative IPC: 1.749 (Simulation time: 00 hr 49 min 12 sec)
Heartbeat CPU 0 instructions: 570000004 cycles: 311478895 heartbeat IPC: 1.37 cumulative IPC: 1.739 (Simulation time: 00 hr 50 min 15 sec)
Heartbeat CPU 0 instructions: 580000003 cycles: 323346597 heartbeat IPC: 0.8426 cumulative IPC: 1.705 (Simulation time: 00 hr 51 min 44 sec)
Heartbeat CPU 0 instructions: 590000002 cycles: 336772863 heartbeat IPC: 0.7448 cumulative IPC: 1.665 (Simulation time: 00 hr 53 min 23 sec)
Heartbeat CPU 0 instructions: 600000000 cycles: 341332814 heartbeat IPC: 2.193 cumulative IPC: 1.673 (Simulation time: 00 hr 54 min 12 sec)
Heartbeat CPU 0 instructions: 610000002 cycles: 345827498 heartbeat IPC: 2.225 cumulative IPC: 1.68 (Simulation time: 00 hr 55 min 00 sec)
Heartbeat CPU 0 instructions: 620000000 cycles: 350636648 heartbeat IPC: 2.079 cumulative IPC: 1.686 (Simulation time: 00 hr 55 min 49 sec)
Heartbeat CPU 0 instructions: 630000002 cycles: 355719851 heartbeat IPC: 1.967 cumulative IPC: 1.69 (Simulation time: 00 hr 56 min 39 sec)
Heartbeat CPU 0 instructions: 640000001 cycles: 360573896 heartbeat IPC: 2.06 cumulative IPC: 1.695 (Simulation time: 00 hr 57 min 30 sec)
Heartbeat CPU 0 instructions: 650000000 cycles: 365130668 heartbeat IPC: 2.195 cumulative IPC: 1.702 (Simulation time: 00 hr 58 min 17 sec)
Simulation finished CPU 0 instructions: 600000001 cycles: 352593537 cumulative IPC: 1.702 (Simulation time: 00 hr 58 min 17 sec)
Simulation complete CPU 0 instructions: 600000001 cycles: 352593537 cumulative IPC: 1.702 (Simulation time: 00 hr 58 min 17 sec)

ChampSim completed all CPUs

=== Simulation ===
CPU 0 runs traces/400.perlbench-41B.champsimtrace.xz
Region of Interest Statistics

CPU 0 cumulative IPC: 1.702 instructions: 600000001 cycles: 352593537
CPU 0 Branch Prediction Accuracy: 93.95% MPKI: 12.5 Average ROB Occupancy at Mispredict: 29.73
Branch type MPKI
BRANCH_DIRECT_JUMP: 0.0123
BRANCH_INDIRECT: 0.323
BRANCH_CONDITIONAL: 12
BRANCH_DIRECT_CALL: 0.0043
BRANCH_INDIRECT_CALL: 0.2
BRANCH_RETURN: 0.00828

LLC TOTAL        ACCESS:     540322 HIT:     268678 MISS:     271644
LLC LOAD         ACCESS:     403193 HIT:     164147 MISS:     239046
LLC RFO          ACCESS:      32577 HIT:      16673 MISS:      15904
LLC PREFETCH     ACCESS:          0 HIT:          0 MISS:          0
LLC WRITE        ACCESS:      85548 HIT:      79569 MISS:       5979
LLC TRANSLATION  ACCESS:      19004 HIT:       8289 MISS:      10715
LLC PREFETCH REQUESTED:          0 ISSUED:          0 USEFUL:          0 USELESS:          0
LLC AVERAGE MISS LATENCY: 552 cycles
cpu0_DTLB TOTAL        ACCESS:  153667821 HIT:  152989318 MISS:     678503
cpu0_DTLB LOAD         ACCESS:  153667821 HIT:  152989318 MISS:     678503
cpu0_DTLB RFO          ACCESS:          0 HIT:          0 MISS:          0
cpu0_DTLB PREFETCH     ACCESS:          0 HIT:          0 MISS:          0
cpu0_DTLB WRITE        ACCESS:          0 HIT:          0 MISS:          0
cpu0_DTLB TRANSLATION  ACCESS:          0 HIT:          0 MISS:          0
cpu0_DTLB PREFETCH REQUESTED:          0 ISSUED:          0 USEFUL:          0 USELESS:          0
cpu0_DTLB AVERAGE MISS LATENCY: 16.3 cycles
cpu0_ITLB TOTAL        ACCESS:    4835182 HIT:    4777331 MISS:      57851
cpu0_ITLB LOAD         ACCESS:    4835182 HIT:    4777331 MISS:      57851
cpu0_ITLB RFO          ACCESS:          0 HIT:          0 MISS:          0
cpu0_ITLB PREFETCH     ACCESS:          0 HIT:          0 MISS:          0
cpu0_ITLB WRITE        ACCESS:          0 HIT:          0 MISS:          0
cpu0_ITLB TRANSLATION  ACCESS:          0 HIT:          0 MISS:          0
cpu0_ITLB PREFETCH REQUESTED:          0 ISSUED:          0 USEFUL:          0 USELESS:          0
cpu0_ITLB AVERAGE MISS LATENCY: 7.395 cycles
cpu0_L1D TOTAL        ACCESS:  200270392 HIT:  198525613 MISS:    1744779
cpu0_L1D LOAD         ACCESS:  117028085 HIT:  115667830 MISS:    1360255
cpu0_L1D RFO          ACCESS:          0 HIT:          0 MISS:          0
cpu0_L1D PREFETCH     ACCESS:          0 HIT:          0 MISS:          0
cpu0_L1D WRITE        ACCESS:   83217842 HIT:   82856746 MISS:     361096
cpu0_L1D TRANSLATION  ACCESS:      24465 HIT:       1037 MISS:      23428
cpu0_L1D PREFETCH REQUESTED:          0 ISSUED:          0 USEFUL:          0 USELESS:          0
cpu0_L1D AVERAGE MISS LATENCY: 90.7 cycles
cpu0_L1I TOTAL        ACCESS:    5577708 HIT:    4816101 MISS:     761607
cpu0_L1I LOAD         ACCESS:    5577708 HIT:    4816101 MISS:     761607
cpu0_L1I RFO          ACCESS:          0 HIT:          0 MISS:          0
cpu0_L1I PREFETCH     ACCESS:          0 HIT:          0 MISS:          0
cpu0_L1I WRITE        ACCESS:          0 HIT:          0 MISS:          0
cpu0_L1I TRANSLATION  ACCESS:          0 HIT:          0 MISS:          0
cpu0_L1I PREFETCH REQUESTED:          0 ISSUED:          0 USEFUL:          0 USELESS:          0
cpu0_L1I AVERAGE MISS LATENCY: 13.25 cycles
cpu0_L2C TOTAL        ACCESS:    1667849 HIT:    1211291 MISS:     456558
cpu0_L2C LOAD         ACCESS:    1317027 HIT:     913834 MISS:     403193
cpu0_L2C RFO          ACCESS:      88635 HIT:      56058 MISS:      32577
cpu0_L2C PREFETCH     ACCESS:          0 HIT:          0 MISS:          0
cpu0_L2C WRITE        ACCESS:     238841 HIT:     237057 MISS:       1784
cpu0_L2C TRANSLATION  ACCESS:      23346 HIT:       4342 MISS:      19004
cpu0_L2C PREFETCH REQUESTED:          0 ISSUED:          0 USEFUL:          0 USELESS:          0
cpu0_L2C AVERAGE MISS LATENCY: 349 cycles
cpu0_STLB TOTAL        ACCESS:     505252 HIT:     482461 MISS:      22791
cpu0_STLB LOAD         ACCESS:     505252 HIT:     482461 MISS:      22791
cpu0_STLB RFO          ACCESS:          0 HIT:          0 MISS:          0
cpu0_STLB PREFETCH     ACCESS:          0 HIT:          0 MISS:          0
cpu0_STLB WRITE        ACCESS:          0 HIT:          0 MISS:          0
cpu0_STLB TRANSLATION  ACCESS:          0 HIT:          0 MISS:          0
cpu0_STLB PREFETCH REQUESTED:          0 ISSUED:          0 USEFUL:          0 USELESS:          0
cpu0_STLB AVERAGE MISS LATENCY: 364.9 cycles

DRAM Statistics

Channel 0 RQ ROW_BUFFER_HIT:      41538
  ROW_BUFFER_MISS:     224090
 AVG DBUS CONGESTED CYCLE: 3.805
WQ ROW_BUFFER_HIT: Channel 0 
  ROW_BUFFER_MISS:       8016
  FULL:      32761
