WARNING: physical memory size is smaller than virtual memory size.

*** ChampSim Multicore Out-of-Order Simulator ***
Warmup Instructions: 50000000
Simulation Instructions: 600000000
Number of CPUs: 1
Page size: 4096

CPU 0 Tage branch predictor
Off-chip DRAM Size: 4 GiB Channels: 1 Width: 64-bit Data Race: 3200 MT/s
Heartbeat CPU 0 instructions: 10000001 cycles: 2500318 heartbeat IPC: 3.999 cumulative IPC: 3.999 (Simulation time: 00 hr 00 min 33 sec)
Heartbeat CPU 0 instructions: 20000002 cycles: 5037128 heartbeat IPC: 3.942 cumulative IPC: 3.971 (Simulation time: 00 hr 01 min 09 sec)
Heartbeat CPU 0 instructions: 30000002 cycles: 7537128 heartbeat IPC: 4 cumulative IPC: 3.98 (Simulation time: 00 hr 01 min 45 sec)
Heartbeat CPU 0 instructions: 40000002 cycles: 10037128 heartbeat IPC: 4 cumulative IPC: 3.985 (Simulation time: 00 hr 02 min 26 sec)
Heartbeat CPU 0 instructions: 50000002 cycles: 12537128 heartbeat IPC: 4 cumulative IPC: 3.988 (Simulation time: 00 hr 03 min 05 sec)
Warmup finished CPU 0 instructions: 50000002 cycles: 12537129 cumulative IPC: 3.988 (Simulation time: 00 hr 03 min 05 sec)
Warmup complete CPU 0 instructions: 50000002 cycles: 12537129 cumulative IPC: 3.988 (Simulation time: 00 hr 03 min 05 sec)
Heartbeat CPU 0 instructions: 60000001 cycles: 15524873 heartbeat IPC: 3.347 cumulative IPC: 3.347 (Simulation time: 00 hr 03 min 50 sec)
Heartbeat CPU 0 instructions: 70000004 cycles: 18614208 heartbeat IPC: 3.237 cumulative IPC: 3.291 (Simulation time: 00 hr 04 min 36 sec)
Heartbeat CPU 0 instructions: 80000001 cycles: 21680846 heartbeat IPC: 3.261 cumulative IPC: 3.281 (Simulation time: 00 hr 05 min 23 sec)
Heartbeat CPU 0 instructions: 90000001 cycles: 24640751 heartbeat IPC: 3.378 cumulative IPC: 3.305 (Simulation time: 00 hr 06 min 09 sec)
Heartbeat CPU 0 instructions: 100000000 cycles: 27571401 heartbeat IPC: 3.412 cumulative IPC: 3.326 (Simulation time: 00 hr 06 min 54 sec)
Heartbeat CPU 0 instructions: 110000000 cycles: 30524356 heartbeat IPC: 3.386 cumulative IPC: 3.336 (Simulation time: 00 hr 07 min 38 sec)
Heartbeat CPU 0 instructions: 120000001 cycles: 33512253 heartbeat IPC: 3.347 cumulative IPC: 3.337 (Simulation time: 00 hr 08 min 24 sec)
Heartbeat CPU 0 instructions: 130000001 cycles: 36388126 heartbeat IPC: 3.477 cumulative IPC: 3.354 (Simulation time: 00 hr 09 min 09 sec)
Heartbeat CPU 0 instructions: 140000001 cycles: 39460581 heartbeat IPC: 3.255 cumulative IPC: 3.343 (Simulation time: 00 hr 09 min 57 sec)
Heartbeat CPU 0 instructions: 150000001 cycles: 42491283 heartbeat IPC: 3.3 cumulative IPC: 3.338 (Simulation time: 00 hr 10 min 46 sec)
Heartbeat CPU 0 instructions: 160000004 cycles: 45529538 heartbeat IPC: 3.291 cumulative IPC: 3.334 (Simulation time: 00 hr 11 min 36 sec)
Heartbeat CPU 0 instructions: 170000000 cycles: 52321558 heartbeat IPC: 1.472 cumulative IPC: 3.016 (Simulation time: 00 hr 12 min 51 sec)
Heartbeat CPU 0 instructions: 180000004 cycles: 59360858 heartbeat IPC: 1.421 cumulative IPC: 2.776 (Simulation time: 00 hr 14 min 12 sec)
Heartbeat CPU 0 instructions: 190000001 cycles: 68499987 heartbeat IPC: 1.094 cumulative IPC: 2.502 (Simulation time: 00 hr 16 min 07 sec)
Heartbeat CPU 0 instructions: 200000004 cycles: 71478936 heartbeat IPC: 3.357 cumulative IPC: 2.545 (Simulation time: 00 hr 17 min 11 sec)
Heartbeat CPU 0 instructions: 210000001 cycles: 74447044 heartbeat IPC: 3.369 cumulative IPC: 2.584 (Simulation time: 00 hr 18 min 15 sec)
Heartbeat CPU 0 instructions: 220000000 cycles: 77346872 heartbeat IPC: 3.448 cumulative IPC: 2.623 (Simulation time: 00 hr 19 min 20 sec)
Heartbeat CPU 0 instructions: 230000002 cycles: 80382828 heartbeat IPC: 3.294 cumulative IPC: 2.653 (Simulation time: 00 hr 20 min 32 sec)
Heartbeat CPU 0 instructions: 240000003 cycles: 83437617 heartbeat IPC: 3.274 cumulative IPC: 2.68 (Simulation time: 00 hr 21 min 45 sec)
Heartbeat CPU 0 instructions: 250000000 cycles: 86479749 heartbeat IPC: 3.287 cumulative IPC: 2.705 (Simulation time: 00 hr 22 min 57 sec)
Heartbeat CPU 0 instructions: 260000002 cycles: 89462008 heartbeat IPC: 3.353 cumulative IPC: 2.73 (Simulation time: 00 hr 24 min 11 sec)
Heartbeat CPU 0 instructions: 270000002 cycles: 92385759 heartbeat IPC: 3.42 cumulative IPC: 2.755 (Simulation time: 00 hr 25 min 20 sec)
Heartbeat CPU 0 instructions: 280000002 cycles: 95285957 heartbeat IPC: 3.448 cumulative IPC: 2.779 (Simulation time: 00 hr 26 min 28 sec)
Heartbeat CPU 0 instructions: 290000002 cycles: 98260820 heartbeat IPC: 3.361 cumulative IPC: 2.8 (Simulation time: 00 hr 27 min 34 sec)
Heartbeat CPU 0 instructions: 300000003 cycles: 101179237 heartbeat IPC: 3.427 cumulative IPC: 2.82 (Simulation time: 00 hr 28 min 43 sec)
Heartbeat CPU 0 instructions: 310000001 cycles: 104241081 heartbeat IPC: 3.266 cumulative IPC: 2.835 (Simulation time: 00 hr 29 min 52 sec)
Heartbeat CPU 0 instructions: 320000003 cycles: 107268437 heartbeat IPC: 3.303 cumulative IPC: 2.85 (Simulation time: 00 hr 30 min 57 sec)
Heartbeat CPU 0 instructions: 330000003 cycles: 110288279 heartbeat IPC: 3.311 cumulative IPC: 2.864 (Simulation time: 00 hr 32 min 03 sec)
Heartbeat CPU 0 instructions: 340000000 cycles: 117378953 heartbeat IPC: 1.41 cumulative IPC: 2.766 (Simulation time: 00 hr 33 min 47 sec)
Heartbeat CPU 0 instructions: 350000000 cycles: 124876321 heartbeat IPC: 1.334 cumulative IPC: 2.67 (Simulation time: 00 hr 35 min 32 sec)
Heartbeat CPU 0 instructions: 360000004 cycles: 133846655 heartbeat IPC: 1.115 cumulative IPC: 2.555 (Simulation time: 00 hr 37 min 27 sec)
Heartbeat CPU 0 instructions: 370000000 cycles: 136827592 heartbeat IPC: 3.355 cumulative IPC: 2.575 (Simulation time: 00 hr 38 min 34 sec)
Heartbeat CPU 0 instructions: 380000003 cycles: 139752861 heartbeat IPC: 3.418 cumulative IPC: 2.594 (Simulation time: 00 hr 39 min 41 sec)
Heartbeat CPU 0 instructions: 390000002 cycles: 142739285 heartbeat IPC: 3.348 cumulative IPC: 2.611 (Simulation time: 00 hr 40 min 46 sec)
Heartbeat CPU 0 instructions: 400000004 cycles: 145647421 heartbeat IPC: 3.439 cumulative IPC: 2.629 (Simulation time: 00 hr 41 min 51 sec)
Heartbeat CPU 0 instructions: 410000002 cycles: 148603579 heartbeat IPC: 3.383 cumulative IPC: 2.646 (Simulation time: 00 hr 42 min 55 sec)
Heartbeat CPU 0 instructions: 420000003 cycles: 151744892 heartbeat IPC: 3.183 cumulative IPC: 2.658 (Simulation time: 00 hr 43 min 58 sec)
Heartbeat CPU 0 instructions: 430000001 cycles: 154778184 heartbeat IPC: 3.297 cumulative IPC: 2.672 (Simulation time: 00 hr 45 min 04 sec)
Heartbeat CPU 0 instructions: 440000004 cycles: 157928218 heartbeat IPC: 3.175 cumulative IPC: 2.682 (Simulation time: 00 hr 46 min 09 sec)
Heartbeat CPU 0 instructions: 450000002 cycles: 160864967 heartbeat IPC: 3.405 cumulative IPC: 2.697 (Simulation time: 00 hr 47 min 14 sec)
Heartbeat CPU 0 instructions: 460000000 cycles: 163816576 heartbeat IPC: 3.388 cumulative IPC: 2.71 (Simulation time: 00 hr 48 min 24 sec)
Heartbeat CPU 0 instructions: 470000001 cycles: 166684798 heartbeat IPC: 3.486 cumulative IPC: 2.725 (Simulation time: 00 hr 49 min 31 sec)
Heartbeat CPU 0 instructions: 480000003 cycles: 169773231 heartbeat IPC: 3.238 cumulative IPC: 2.735 (Simulation time: 00 hr 50 min 37 sec)
Heartbeat CPU 0 instructions: 490000004 cycles: 172612304 heartbeat IPC: 3.522 cumulative IPC: 2.749 (Simulation time: 00 hr 51 min 40 sec)
Heartbeat CPU 0 instructions: 500000004 cycles: 175609563 heartbeat IPC: 3.336 cumulative IPC: 2.76 (Simulation time: 00 hr 52 min 44 sec)
Heartbeat CPU 0 instructions: 510000003 cycles: 178696031 heartbeat IPC: 3.24 cumulative IPC: 2.768 (Simulation time: 00 hr 53 min 50 sec)
Heartbeat CPU 0 instructions: 520000001 cycles: 181595844 heartbeat IPC: 3.448 cumulative IPC: 2.78 (Simulation time: 00 hr 54 min 54 sec)
Heartbeat CPU 0 instructions: 530000001 cycles: 184643152 heartbeat IPC: 3.282 cumulative IPC: 2.789 (Simulation time: 00 hr 55 min 58 sec)
Heartbeat CPU 0 instructions: 540000000 cycles: 187614545 heartbeat IPC: 3.365 cumulative IPC: 2.799 (Simulation time: 00 hr 57 min 03 sec)
Heartbeat CPU 0 instructions: 550000001 cycles: 190611948 heartbeat IPC: 3.336 cumulative IPC: 2.808 (Simulation time: 00 hr 58 min 07 sec)
Heartbeat CPU 0 instructions: 560000000 cycles: 193765937 heartbeat IPC: 3.171 cumulative IPC: 2.814 (Simulation time: 00 hr 59 min 16 sec)
Heartbeat CPU 0 instructions: 570000004 cycles: 199282405 heartbeat IPC: 1.813 cumulative IPC: 2.785 (Simulation time: 01 hr 01 min 06 sec)
Heartbeat CPU 0 instructions: 580000003 cycles: 205834621 heartbeat IPC: 1.526 cumulative IPC: 2.742 (Simulation time: 01 hr 03 min 13 sec)
Heartbeat CPU 0 instructions: 590000002 cycles: 217208066 heartbeat IPC: 0.8792 cumulative IPC: 2.638 (Simulation time: 01 hr 05 min 48 sec)
Heartbeat CPU 0 instructions: 600000004 cycles: 220338092 heartbeat IPC: 3.195 cumulative IPC: 2.647 (Simulation time: 01 hr 06 min 58 sec)
Heartbeat CPU 0 instructions: 610000002 cycles: 223311888 heartbeat IPC: 3.363 cumulative IPC: 2.657 (Simulation time: 01 hr 08 min 04 sec)
Heartbeat CPU 0 instructions: 620000001 cycles: 226086617 heartbeat IPC: 3.604 cumulative IPC: 2.669 (Simulation time: 01 hr 09 min 12 sec)
Heartbeat CPU 0 instructions: 630000002 cycles: 229064823 heartbeat IPC: 3.358 cumulative IPC: 2.679 (Simulation time: 01 hr 10 min 20 sec)
Heartbeat CPU 0 instructions: 640000004 cycles: 232018780 heartbeat IPC: 3.385 cumulative IPC: 2.688 (Simulation time: 01 hr 11 min 30 sec)
Heartbeat CPU 0 instructions: 650000000 cycles: 234771761 heartbeat IPC: 3.632 cumulative IPC: 2.7 (Simulation time: 01 hr 12 min 34 sec)
Simulation finished CPU 0 instructions: 600000001 cycles: 222234634 cumulative IPC: 2.7 (Simulation time: 01 hr 12 min 34 sec)
Simulation complete CPU 0 instructions: 600000001 cycles: 222234634 cumulative IPC: 2.7 (Simulation time: 01 hr 12 min 34 sec)

ChampSim completed all CPUs

=== Simulation ===
CPU 0 runs traces/400.perlbench-41B.champsimtrace.xz
Region of Interest Statistics

CPU 0 cumulative IPC: 2.7 instructions: 600000001 cycles: 222234634
CPU 0 Branch Prediction Accuracy: 99.19% MPKI: 1.684 Average ROB Occupancy at Mispredict: 102.6
Branch type MPKI
BRANCH_DIRECT_JUMP: 0.0123
BRANCH_INDIRECT: 0.323
BRANCH_CONDITIONAL: 1.14
BRANCH_DIRECT_CALL: 0.0043
BRANCH_INDIRECT_CALL: 0.2
BRANCH_RETURN: 0.00828

LLC TOTAL        ACCESS:     539543 HIT:     283896 MISS:     255647
LLC LOAD         ACCESS:     403121 HIT:     205066 MISS:     198055
LLC RFO          ACCESS:      32524 HIT:      15758 MISS:      16766
LLC PREFETCH     ACCESS:          0 HIT:          0 MISS:          0
LLC WRITE        ACCESS:      84915 HIT:      58599 MISS:      26316
LLC TRANSLATION  ACCESS:      18983 HIT:       4473 MISS:      14510
LLC PREFETCH REQUESTED:          0 ISSUED:          0 USEFUL:          0 USELESS:          0
LLC AVERAGE MISS LATENCY: 566.6 cycles
cpu0_DTLB TOTAL        ACCESS:  129740438 HIT:  129035114 MISS:     705324
cpu0_DTLB LOAD         ACCESS:  129740438 HIT:  129035114 MISS:     705324
cpu0_DTLB RFO          ACCESS:          0 HIT:          0 MISS:          0
cpu0_DTLB PREFETCH     ACCESS:          0 HIT:          0 MISS:          0
cpu0_DTLB WRITE        ACCESS:          0 HIT:          0 MISS:          0
cpu0_DTLB TRANSLATION  ACCESS:          0 HIT:          0 MISS:          0
cpu0_DTLB PREFETCH REQUESTED:          0 ISSUED:          0 USEFUL:          0 USELESS:          0
cpu0_DTLB AVERAGE MISS LATENCY: 18.82 cycles
cpu0_ITLB TOTAL        ACCESS:    4874846 HIT:    4812772 MISS:      62074
cpu0_ITLB LOAD         ACCESS:    4874846 HIT:    4812772 MISS:      62074
cpu0_ITLB RFO          ACCESS:          0 HIT:          0 MISS:          0
cpu0_ITLB PREFETCH     ACCESS:          0 HIT:          0 MISS:          0
cpu0_ITLB WRITE        ACCESS:          0 HIT:          0 MISS:          0
cpu0_ITLB TRANSLATION  ACCESS:          0 HIT:          0 MISS:          0
cpu0_ITLB PREFETCH REQUESTED:          0 ISSUED:          0 USEFUL:          0 USELESS:          0
cpu0_ITLB AVERAGE MISS LATENCY: 6.123 cycles
cpu0_L1D TOTAL        ACCESS:  174331091 HIT:  172533413 MISS:    1797678
cpu0_L1D LOAD         ACCESS:   91310927 HIT:   89907873 MISS:    1403054
cpu0_L1D RFO          ACCESS:          0 HIT:          0 MISS:          0
cpu0_L1D PREFETCH     ACCESS:          0 HIT:          0 MISS:          0
cpu0_L1D WRITE        ACCESS:   82995701 HIT:   82624486 MISS:     371215
cpu0_L1D TRANSLATION  ACCESS:      24463 HIT:       1054 MISS:      23409
cpu0_L1D PREFETCH REQUESTED:          0 ISSUED:          0 USEFUL:          0 USELESS:          0
cpu0_L1D AVERAGE MISS LATENCY: 80.74 cycles
cpu0_L1I TOTAL        ACCESS:    5654107 HIT:    4849678 MISS:     804429
cpu0_L1I LOAD         ACCESS:    5654107 HIT:    4849678 MISS:     804429
cpu0_L1I RFO          ACCESS:          0 HIT:          0 MISS:          0
cpu0_L1I PREFETCH     ACCESS:          0 HIT:          0 MISS:          0
cpu0_L1I WRITE        ACCESS:          0 HIT:          0 MISS:          0
cpu0_L1I TRANSLATION  ACCESS:          0 HIT:          0 MISS:          0
cpu0_L1I PREFETCH REQUESTED:          0 ISSUED:          0 USEFUL:          0 USELESS:          0
cpu0_L1I AVERAGE MISS LATENCY: 14.61 cycles
cpu0_L2C TOTAL        ACCESS:    1667926 HIT:    1211499 MISS:     456427
cpu0_L2C LOAD         ACCESS:    1315273 HIT:     912152 MISS:     403121
cpu0_L2C RFO          ACCESS:      89619 HIT:      57094 MISS:      32525
cpu0_L2C PREFETCH     ACCESS:          0 HIT:          0 MISS:          0
cpu0_L2C WRITE        ACCESS:     239712 HIT:     237914 MISS:       1798
cpu0_L2C TRANSLATION  ACCESS:      23322 HIT:       4339 MISS:      18983
cpu0_L2C PREFETCH REQUESTED:          0 ISSUED:          0 USEFUL:          0 USELESS:          0
cpu0_L2C AVERAGE MISS LATENCY: 337.8 cycles
cpu0_STLB TOTAL        ACCESS:     509079 HIT:     486292 MISS:      22787
cpu0_STLB LOAD         ACCESS:     509079 HIT:     486292 MISS:      22787
cpu0_STLB RFO          ACCESS:          0 HIT:          0 MISS:          0
cpu0_STLB PREFETCH     ACCESS:          0 HIT:          0 MISS:          0
cpu0_STLB WRITE        ACCESS:          0 HIT:          0 MISS:          0
cpu0_STLB TRANSLATION  ACCESS:          0 HIT:          0 MISS:          0
cpu0_STLB PREFETCH REQUESTED:          0 ISSUED:          0 USEFUL:          0 USELESS:          0
cpu0_STLB AVERAGE MISS LATENCY: 487.9 cycles

DRAM Statistics

Channel 0 RQ ROW_BUFFER_HIT:      33644
  ROW_BUFFER_MISS:     195518
 AVG DBUS CONGESTED CYCLE: 3.84
WQ ROW_BUFFER_HIT: Channel 0 
  ROW_BUFFER_MISS:       7315
  FULL:      32024
