WARNING: physical memory size is smaller than virtual memory size.

*** ChampSim Multicore Out-of-Order Simulator ***
Warmup Instructions: 50000000
Simulation Instructions: 600000000
Number of CPUs: 1
Page size: 4096

Off-chip DRAM Size: 4 GiB Channels: 1 Width: 64-bit Data Race: 3200 MT/s
Heartbeat CPU 0 instructions: 10000001 cycles: 2500318 heartbeat IPC: 3.999 cumulative IPC: 3.999 (Simulation time: 00 hr 00 min 53 sec)
Heartbeat CPU 0 instructions: 20000002 cycles: 5037121 heartbeat IPC: 3.942 cumulative IPC: 3.971 (Simulation time: 00 hr 01 min 51 sec)
Heartbeat CPU 0 instructions: 30000002 cycles: 7537121 heartbeat IPC: 4 cumulative IPC: 3.98 (Simulation time: 00 hr 02 min 49 sec)
Heartbeat CPU 0 instructions: 40000002 cycles: 10037121 heartbeat IPC: 4 cumulative IPC: 3.985 (Simulation time: 00 hr 03 min 44 sec)
Heartbeat CPU 0 instructions: 50000002 cycles: 12537121 heartbeat IPC: 4 cumulative IPC: 3.988 (Simulation time: 00 hr 04 min 35 sec)
Warmup finished CPU 0 instructions: 50000002 cycles: 12537122 cumulative IPC: 3.988 (Simulation time: 00 hr 04 min 35 sec)
Warmup complete CPU 0 instructions: 50000002 cycles: 12537122 cumulative IPC: 3.988 (Simulation time: 00 hr 04 min 35 sec)
Heartbeat CPU 0 instructions: 60000000 cycles: 17149641 heartbeat IPC: 2.168 cumulative IPC: 2.168 (Simulation time: 00 hr 05 min 47 sec)
Heartbeat CPU 0 instructions: 70000004 cycles: 21421511 heartbeat IPC: 2.341 cumulative IPC: 2.251 (Simulation time: 00 hr 06 min 54 sec)
Heartbeat CPU 0 instructions: 80000001 cycles: 26003551 heartbeat IPC: 2.182 cumulative IPC: 2.228 (Simulation time: 00 hr 08 min 00 sec)
Heartbeat CPU 0 instructions: 90000001 cycles: 30121163 heartbeat IPC: 2.429 cumulative IPC: 2.275 (Simulation time: 00 hr 09 min 02 sec)
Heartbeat CPU 0 instructions: 100000000 cycles: 34169890 heartbeat IPC: 2.47 cumulative IPC: 2.311 (Simulation time: 00 hr 10 min 08 sec)
Heartbeat CPU 0 instructions: 110000000 cycles: 38393320 heartbeat IPC: 2.368 cumulative IPC: 2.321 (Simulation time: 00 hr 11 min 12 sec)
Heartbeat CPU 0 instructions: 120000001 cycles: 42396585 heartbeat IPC: 2.498 cumulative IPC: 2.344 (Simulation time: 00 hr 12 min 14 sec)
Heartbeat CPU 0 instructions: 130000001 cycles: 46121474 heartbeat IPC: 2.685 cumulative IPC: 2.382 (Simulation time: 00 hr 13 min 14 sec)
Heartbeat CPU 0 instructions: 140000001 cycles: 50289852 heartbeat IPC: 2.399 cumulative IPC: 2.384 (Simulation time: 00 hr 14 min 16 sec)
Heartbeat CPU 0 instructions: 150000001 cycles: 54488297 heartbeat IPC: 2.382 cumulative IPC: 2.384 (Simulation time: 00 hr 15 min 16 sec)
Heartbeat CPU 0 instructions: 160000004 cycles: 58912623 heartbeat IPC: 2.26 cumulative IPC: 2.372 (Simulation time: 00 hr 16 min 22 sec)
Heartbeat CPU 0 instructions: 170000000 cycles: 69364304 heartbeat IPC: 0.9568 cumulative IPC: 2.112 (Simulation time: 00 hr 18 min 26 sec)
Heartbeat CPU 0 instructions: 180000004 cycles: 81068833 heartbeat IPC: 0.8544 cumulative IPC: 1.897 (Simulation time: 00 hr 20 min 31 sec)
Heartbeat CPU 0 instructions: 190000001 cycles: 92209895 heartbeat IPC: 0.8976 cumulative IPC: 1.757 (Simulation time: 00 hr 22 min 25 sec)
Heartbeat CPU 0 instructions: 200000004 cycles: 96028432 heartbeat IPC: 2.619 cumulative IPC: 1.797 (Simulation time: 00 hr 23 min 23 sec)
Heartbeat CPU 0 instructions: 210000001 cycles: 99981681 heartbeat IPC: 2.53 cumulative IPC: 1.83 (Simulation time: 00 hr 24 min 22 sec)
Heartbeat CPU 0 instructions: 220000000 cycles: 103960786 heartbeat IPC: 2.513 cumulative IPC: 1.859 (Simulation time: 00 hr 25 min 27 sec)
Heartbeat CPU 0 instructions: 230000002 cycles: 108700029 heartbeat IPC: 2.11 cumulative IPC: 1.872 (Simulation time: 00 hr 26 min 35 sec)
Heartbeat CPU 0 instructions: 240000000 cycles: 112947692 heartbeat IPC: 2.354 cumulative IPC: 1.892 (Simulation time: 00 hr 27 min 38 sec)
Heartbeat CPU 0 instructions: 250000000 cycles: 117310933 heartbeat IPC: 2.292 cumulative IPC: 1.909 (Simulation time: 00 hr 28 min 42 sec)
Heartbeat CPU 0 instructions: 260000000 cycles: 121527369 heartbeat IPC: 2.372 cumulative IPC: 1.927 (Simulation time: 00 hr 29 min 48 sec)
Heartbeat CPU 0 instructions: 270000002 cycles: 125397840 heartbeat IPC: 2.584 cumulative IPC: 1.949 (Simulation time: 00 hr 31 min 03 sec)
Heartbeat CPU 0 instructions: 280000002 cycles: 129593139 heartbeat IPC: 2.384 cumulative IPC: 1.965 (Simulation time: 00 hr 32 min 18 sec)
Heartbeat CPU 0 instructions: 290000001 cycles: 133516151 heartbeat IPC: 2.549 cumulative IPC: 1.984 (Simulation time: 00 hr 33 min 31 sec)
Heartbeat CPU 0 instructions: 300000003 cycles: 137384531 heartbeat IPC: 2.585 cumulative IPC: 2.002 (Simulation time: 00 hr 34 min 42 sec)
Heartbeat CPU 0 instructions: 310000001 cycles: 141554009 heartbeat IPC: 2.398 cumulative IPC: 2.015 (Simulation time: 00 hr 35 min 50 sec)
Heartbeat CPU 0 instructions: 320000003 cycles: 145673693 heartbeat IPC: 2.427 cumulative IPC: 2.028 (Simulation time: 00 hr 36 min 56 sec)
Heartbeat CPU 0 instructions: 330000003 cycles: 150137883 heartbeat IPC: 2.24 cumulative IPC: 2.035 (Simulation time: 00 hr 38 min 01 sec)
Heartbeat CPU 0 instructions: 340000000 cycles: 161245922 heartbeat IPC: 0.9002 cumulative IPC: 1.95 (Simulation time: 00 hr 40 min 03 sec)
Heartbeat CPU 0 instructions: 350000000 cycles: 173203573 heartbeat IPC: 0.8363 cumulative IPC: 1.867 (Simulation time: 00 hr 42 min 11 sec)
Heartbeat CPU 0 instructions: 360000004 cycles: 184376914 heartbeat IPC: 0.895 cumulative IPC: 1.804 (Simulation time: 00 hr 44 min 10 sec)
Heartbeat CPU 0 instructions: 370000000 cycles: 187845908 heartbeat IPC: 2.883 cumulative IPC: 1.825 (Simulation time: 00 hr 45 min 08 sec)
Heartbeat CPU 0 instructions: 380000001 cycles: 191298101 heartbeat IPC: 2.897 cumulative IPC: 1.846 (Simulation time: 00 hr 46 min 08 sec)
Heartbeat CPU 0 instructions: 390000004 cycles: 195060085 heartbeat IPC: 2.658 cumulative IPC: 1.863 (Simulation time: 00 hr 47 min 20 sec)
Heartbeat CPU 0 instructions: 400000004 cycles: 198885324 heartbeat IPC: 2.614 cumulative IPC: 1.878 (Simulation time: 00 hr 48 min 37 sec)
Heartbeat CPU 0 instructions: 410000001 cycles: 202582756 heartbeat IPC: 2.705 cumulative IPC: 1.894 (Simulation time: 00 hr 49 min 47 sec)
Heartbeat CPU 0 instructions: 420000003 cycles: 206735396 heartbeat IPC: 2.408 cumulative IPC: 1.905 (Simulation time: 00 hr 50 min 54 sec)
Heartbeat CPU 0 instructions: 430000001 cycles: 210428062 heartbeat IPC: 2.708 cumulative IPC: 1.92 (Simulation time: 00 hr 51 min 56 sec)
Heartbeat CPU 0 instructions: 440000004 cycles: 214549962 heartbeat IPC: 2.426 cumulative IPC: 1.931 (Simulation time: 00 hr 52 min 59 sec)
Heartbeat CPU 0 instructions: 450000002 cycles: 218314206 heartbeat IPC: 2.657 cumulative IPC: 1.944 (Simulation time: 00 hr 54 min 04 sec)
Heartbeat CPU 0 instructions: 460000000 cycles: 222011911 heartbeat IPC: 2.704 cumulative IPC: 1.957 (Simulation time: 00 hr 55 min 06 sec)
Heartbeat CPU 0 instructions: 470000000 cycles: 225508810 heartbeat IPC: 2.86 cumulative IPC: 1.972 (Simulation time: 00 hr 56 min 06 sec)
Heartbeat CPU 0 instructions: 480000003 cycles: 229396807 heartbeat IPC: 2.572 cumulative IPC: 1.983 (Simulation time: 00 hr 57 min 06 sec)
Heartbeat CPU 0 instructions: 490000000 cycles: 233044329 heartbeat IPC: 2.742 cumulative IPC: 1.995 (Simulation time: 00 hr 58 min 02 sec)
Heartbeat CPU 0 instructions: 500000000 cycles: 236767451 heartbeat IPC: 2.686 cumulative IPC: 2.007 (Simulation time: 00 hr 58 min 59 sec)
Heartbeat CPU 0 instructions: 510000003 cycles: 240517732 heartbeat IPC: 2.666 cumulative IPC: 2.018 (Simulation time: 00 hr 59 min 56 sec)
Heartbeat CPU 0 instructions: 520000001 cycles: 243966444 heartbeat IPC: 2.9 cumulative IPC: 2.031 (Simulation time: 01 hr 00 min 51 sec)
Heartbeat CPU 0 instructions: 530000002 cycles: 247705380 heartbeat IPC: 2.675 cumulative IPC: 2.041 (Simulation time: 01 hr 01 min 49 sec)
Heartbeat CPU 0 instructions: 540000000 cycles: 251266554 heartbeat IPC: 2.808 cumulative IPC: 2.053 (Simulation time: 01 hr 02 min 48 sec)
Heartbeat CPU 0 instructions: 550000001 cycles: 254984526 heartbeat IPC: 2.69 cumulative IPC: 2.062 (Simulation time: 01 hr 03 min 47 sec)
Heartbeat CPU 0 instructions: 560000000 cycles: 259098940 heartbeat IPC: 2.43 cumulative IPC: 2.068 (Simulation time: 01 hr 04 min 50 sec)
Heartbeat CPU 0 instructions: 570000004 cycles: 265850947 heartbeat IPC: 1.481 cumulative IPC: 2.053 (Simulation time: 01 hr 06 min 12 sec)
Heartbeat CPU 0 instructions: 580000003 cycles: 278351522 heartbeat IPC: 0.8 cumulative IPC: 1.994 (Simulation time: 01 hr 08 min 24 sec)
Heartbeat CPU 0 instructions: 590000002 cycles: 293086234 heartbeat IPC: 0.6787 cumulative IPC: 1.925 (Simulation time: 01 hr 10 min 52 sec)
Heartbeat CPU 0 instructions: 600000000 cycles: 296886455 heartbeat IPC: 2.631 cumulative IPC: 1.934 (Simulation time: 01 hr 11 min 55 sec)
Heartbeat CPU 0 instructions: 610000000 cycles: 300767224 heartbeat IPC: 2.577 cumulative IPC: 1.943 (Simulation time: 01 hr 12 min 56 sec)
Heartbeat CPU 0 instructions: 620000001 cycles: 304215020 heartbeat IPC: 2.9 cumulative IPC: 1.954 (Simulation time: 01 hr 13 min 58 sec)
Heartbeat CPU 0 instructions: 630000002 cycles: 308515882 heartbeat IPC: 2.325 cumulative IPC: 1.96 (Simulation time: 01 hr 14 min 59 sec)
Heartbeat CPU 0 instructions: 640000001 cycles: 312423105 heartbeat IPC: 2.559 cumulative IPC: 1.967 (Simulation time: 01 hr 15 min 58 sec)
Heartbeat CPU 0 instructions: 650000000 cycles: 316189403 heartbeat IPC: 2.655 cumulative IPC: 1.976 (Simulation time: 01 hr 16 min 52 sec)
Simulation finished CPU 0 instructions: 600000001 cycles: 303652283 cumulative IPC: 1.976 (Simulation time: 01 hr 16 min 52 sec)
Simulation complete CPU 0 instructions: 600000001 cycles: 303652283 cumulative IPC: 1.976 (Simulation time: 01 hr 16 min 52 sec)

ChampSim completed all CPUs

=== Simulation ===
CPU 0 runs traces/400.perlbench-41B.champsimtrace.xz
Region of Interest Statistics

CPU 0 cumulative IPC: 1.976 instructions: 600000001 cycles: 303652283
CPU 0 Branch Prediction Accuracy: 96.56% MPKI: 7.112 Average ROB Occupancy at Mispredict: 47.38
Branch type MPKI
BRANCH_DIRECT_JUMP: 0.0123
BRANCH_INDIRECT: 0.323
BRANCH_CONDITIONAL: 6.56
BRANCH_DIRECT_CALL: 0.0043
BRANCH_INDIRECT_CALL: 0.2
BRANCH_RETURN: 0.00828

LLC TOTAL        ACCESS:     936757 HIT:     430782 MISS:     505975
LLC LOAD         ACCESS:     400324 HIT:     170699 MISS:     229625
LLC RFO          ACCESS:      32509 HIT:      15182 MISS:      17327
LLC PREFETCH     ACCESS:     400324 HIT:     166197 MISS:     234127
LLC WRITE        ACCESS:      84540 HIT:      72423 MISS:      12117
LLC TRANSLATION  ACCESS:      19060 HIT:       6281 MISS:      12779
LLC PREFETCH REQUESTED:     400324 ISSUED:     400324 USEFUL:      61026 USELESS:      53999
LLC AVERAGE MISS LATENCY: 577.5 cycles
cpu0_DTLB TOTAL        ACCESS:  141905064 HIT:  141217469 MISS:     687595
cpu0_DTLB LOAD         ACCESS:  141905064 HIT:  141217469 MISS:     687595
cpu0_DTLB RFO          ACCESS:          0 HIT:          0 MISS:          0
cpu0_DTLB PREFETCH     ACCESS:          0 HIT:          0 MISS:          0
cpu0_DTLB WRITE        ACCESS:          0 HIT:          0 MISS:          0
cpu0_DTLB TRANSLATION  ACCESS:          0 HIT:          0 MISS:          0
cpu0_DTLB PREFETCH REQUESTED:          0 ISSUED:          0 USEFUL:          0 USELESS:          0
cpu0_DTLB AVERAGE MISS LATENCY: 19.03 cycles
cpu0_ITLB TOTAL        ACCESS:    4858891 HIT:    4805751 MISS:      53140
cpu0_ITLB LOAD         ACCESS:    4858891 HIT:    4805751 MISS:      53140
cpu0_ITLB RFO          ACCESS:          0 HIT:          0 MISS:          0
cpu0_ITLB PREFETCH     ACCESS:          0 HIT:          0 MISS:          0
cpu0_ITLB WRITE        ACCESS:          0 HIT:          0 MISS:          0
cpu0_ITLB TRANSLATION  ACCESS:          0 HIT:          0 MISS:          0
cpu0_ITLB PREFETCH REQUESTED:          0 ISSUED:          0 USEFUL:          0 USELESS:          0
cpu0_ITLB AVERAGE MISS LATENCY: 9.385 cycles
cpu0_L1D TOTAL        ACCESS:  188559375 HIT:  186811371 MISS:    1748004
cpu0_L1D LOAD         ACCESS:  105192483 HIT:  103826718 MISS:    1365765
cpu0_L1D RFO          ACCESS:          0 HIT:          0 MISS:          0
cpu0_L1D PREFETCH     ACCESS:          0 HIT:          0 MISS:          0
cpu0_L1D WRITE        ACCESS:   83342427 HIT:   82983588 MISS:     358839
cpu0_L1D TRANSLATION  ACCESS:      24465 HIT:       1065 MISS:      23400
cpu0_L1D PREFETCH REQUESTED:          0 ISSUED:          0 USEFUL:          0 USELESS:          0
cpu0_L1D AVERAGE MISS LATENCY: 97.13 cycles
cpu0_L1I TOTAL        ACCESS:    5596640 HIT:    4852976 MISS:     743664
cpu0_L1I LOAD         ACCESS:    5596640 HIT:    4852976 MISS:     743664
cpu0_L1I RFO          ACCESS:          0 HIT:          0 MISS:          0
cpu0_L1I PREFETCH     ACCESS:          0 HIT:          0 MISS:          0
cpu0_L1I WRITE        ACCESS:          0 HIT:          0 MISS:          0
cpu0_L1I TRANSLATION  ACCESS:          0 HIT:          0 MISS:          0
cpu0_L1I PREFETCH REQUESTED:          0 ISSUED:          0 USEFUL:          0 USELESS:          0
cpu0_L1I AVERAGE MISS LATENCY: 16.43 cycles
cpu0_L2C TOTAL        ACCESS:    1665517 HIT:    1211863 MISS:     453654
cpu0_L2C LOAD         ACCESS:    1315923 HIT:     915599 MISS:     400324
cpu0_L2C RFO          ACCESS:      88340 HIT:      55831 MISS:      32509
cpu0_L2C PREFETCH     ACCESS:          0 HIT:          0 MISS:          0
cpu0_L2C WRITE        ACCESS:     237925 HIT:     236164 MISS:       1761
cpu0_L2C TRANSLATION  ACCESS:      23329 HIT:       4269 MISS:      19060
cpu0_L2C PREFETCH REQUESTED:          0 ISSUED:          0 USEFUL:          0 USELESS:          0
cpu0_L2C AVERAGE MISS LATENCY: 383.5 cycles
cpu0_STLB TOTAL        ACCESS:     507401 HIT:     484606 MISS:      22795
cpu0_STLB LOAD         ACCESS:     507401 HIT:     484606 MISS:      22795
cpu0_STLB RFO          ACCESS:          0 HIT:          0 MISS:          0
cpu0_STLB PREFETCH     ACCESS:          0 HIT:          0 MISS:          0
cpu0_STLB WRITE        ACCESS:          0 HIT:          0 MISS:          0
cpu0_STLB TRANSLATION  ACCESS:          0 HIT:          0 MISS:          0
cpu0_STLB PREFETCH REQUESTED:          0 ISSUED:          0 USEFUL:          0 USELESS:          0
cpu0_STLB AVERAGE MISS LATENCY: 462.3 cycles

DRAM Statistics

Channel 0 RQ ROW_BUFFER_HIT:      84013
  ROW_BUFFER_MISS:     342829
 AVG DBUS CONGESTED CYCLE: 3.874
WQ ROW_BUFFER_HIT: Channel 0 
  ROW_BUFFER_MISS:       6487
  FULL:      40520
