WARNING: physical memory size is smaller than virtual memory size.

*** ChampSim Multicore Out-of-Order Simulator ***
Warmup Instructions: 50000000
Simulation Instructions: 600000000
Number of CPUs: 1
Page size: 4096

Off-chip DRAM Size: 4 GiB Channels: 1 Width: 64-bit Data Race: 3200 MT/s
Heartbeat CPU 0 instructions: 10000000 cycles: 2500061 heartbeat IPC: 4 cumulative IPC: 4 (Simulation time: 00 hr 00 min 47 sec)
Heartbeat CPU 0 instructions: 20000000 cycles: 5000061 heartbeat IPC: 4 cumulative IPC: 4 (Simulation time: 00 hr 01 min 41 sec)
Heartbeat CPU 0 instructions: 30000000 cycles: 7500061 heartbeat IPC: 4 cumulative IPC: 4 (Simulation time: 00 hr 02 min 26 sec)
Heartbeat CPU 0 instructions: 40000000 cycles: 10000061 heartbeat IPC: 4 cumulative IPC: 4 (Simulation time: 00 hr 03 min 10 sec)
Heartbeat CPU 0 instructions: 50000000 cycles: 12500061 heartbeat IPC: 4 cumulative IPC: 4 (Simulation time: 00 hr 03 min 53 sec)
Warmup finished CPU 0 instructions: 50000000 cycles: 12500062 cumulative IPC: 4 (Simulation time: 00 hr 03 min 53 sec)
Warmup complete CPU 0 instructions: 50000000 cycles: 12500062 cumulative IPC: 4 (Simulation time: 00 hr 03 min 53 sec)
Heartbeat CPU 0 instructions: 60000002 cycles: 16911341 heartbeat IPC: 2.267 cumulative IPC: 2.267 (Simulation time: 00 hr 04 min 57 sec)
Heartbeat CPU 0 instructions: 70000003 cycles: 21897820 heartbeat IPC: 2.005 cumulative IPC: 2.128 (Simulation time: 00 hr 06 min 15 sec)
Heartbeat CPU 0 instructions: 80000001 cycles: 27247190 heartbeat IPC: 1.869 cumulative IPC: 2.034 (Simulation time: 00 hr 07 min 26 sec)
Heartbeat CPU 0 instructions: 90000000 cycles: 31546012 heartbeat IPC: 2.326 cumulative IPC: 2.1 (Simulation time: 00 hr 08 min 29 sec)
Heartbeat CPU 0 instructions: 100000003 cycles: 36406147 heartbeat IPC: 2.058 cumulative IPC: 2.092 (Simulation time: 00 hr 09 min 37 sec)
Heartbeat CPU 0 instructions: 110000002 cycles: 41284204 heartbeat IPC: 2.05 cumulative IPC: 2.084 (Simulation time: 00 hr 10 min 44 sec)
Heartbeat CPU 0 instructions: 120000001 cycles: 46280693 heartbeat IPC: 2.001 cumulative IPC: 2.072 (Simulation time: 00 hr 11 min 52 sec)
Heartbeat CPU 0 instructions: 130000003 cycles: 50851474 heartbeat IPC: 2.188 cumulative IPC: 2.086 (Simulation time: 00 hr 12 min 57 sec)
Heartbeat CPU 0 instructions: 140000002 cycles: 55744742 heartbeat IPC: 2.044 cumulative IPC: 2.081 (Simulation time: 00 hr 14 min 06 sec)
Heartbeat CPU 0 instructions: 150000001 cycles: 60416524 heartbeat IPC: 2.141 cumulative IPC: 2.087 (Simulation time: 00 hr 15 min 12 sec)
Heartbeat CPU 0 instructions: 160000000 cycles: 65057180 heartbeat IPC: 2.155 cumulative IPC: 2.093 (Simulation time: 00 hr 16 min 19 sec)
Heartbeat CPU 0 instructions: 170000000 cycles: 70394497 heartbeat IPC: 1.874 cumulative IPC: 2.073 (Simulation time: 00 hr 17 min 33 sec)
Heartbeat CPU 0 instructions: 180000001 cycles: 76116472 heartbeat IPC: 1.748 cumulative IPC: 2.043 (Simulation time: 00 hr 18 min 51 sec)
Heartbeat CPU 0 instructions: 190000002 cycles: 80593267 heartbeat IPC: 2.234 cumulative IPC: 2.056 (Simulation time: 00 hr 19 min 56 sec)
Heartbeat CPU 0 instructions: 200000002 cycles: 85503685 heartbeat IPC: 2.036 cumulative IPC: 2.055 (Simulation time: 00 hr 21 min 04 sec)
Heartbeat CPU 0 instructions: 210000000 cycles: 90510582 heartbeat IPC: 1.997 cumulative IPC: 2.051 (Simulation time: 00 hr 22 min 12 sec)
Heartbeat CPU 0 instructions: 220000001 cycles: 95436865 heartbeat IPC: 2.03 cumulative IPC: 2.05 (Simulation time: 00 hr 23 min 20 sec)
Heartbeat CPU 0 instructions: 230000002 cycles: 100685932 heartbeat IPC: 1.905 cumulative IPC: 2.041 (Simulation time: 00 hr 24 min 30 sec)
Heartbeat CPU 0 instructions: 240000001 cycles: 105653531 heartbeat IPC: 2.013 cumulative IPC: 2.04 (Simulation time: 00 hr 25 min 37 sec)
Heartbeat CPU 0 instructions: 250000003 cycles: 110841818 heartbeat IPC: 1.927 cumulative IPC: 2.034 (Simulation time: 00 hr 26 min 45 sec)
Heartbeat CPU 0 instructions: 260000001 cycles: 115705160 heartbeat IPC: 2.056 cumulative IPC: 2.035 (Simulation time: 00 hr 27 min 52 sec)
Heartbeat CPU 0 instructions: 270000000 cycles: 123513403 heartbeat IPC: 1.281 cumulative IPC: 1.982 (Simulation time: 00 hr 29 min 24 sec)
Heartbeat CPU 0 instructions: 280000000 cycles: 136252169 heartbeat IPC: 0.785 cumulative IPC: 1.859 (Simulation time: 00 hr 31 min 39 sec)
Heartbeat CPU 0 instructions: 290000001 cycles: 147864356 heartbeat IPC: 0.8612 cumulative IPC: 1.773 (Simulation time: 00 hr 33 min 46 sec)
Heartbeat CPU 0 instructions: 300000003 cycles: 155834964 heartbeat IPC: 1.255 cumulative IPC: 1.744 (Simulation time: 00 hr 35 min 26 sec)
Heartbeat CPU 0 instructions: 310000004 cycles: 167845747 heartbeat IPC: 0.8326 cumulative IPC: 1.674 (Simulation time: 00 hr 37 min 38 sec)
Heartbeat CPU 0 instructions: 320000004 cycles: 173748398 heartbeat IPC: 1.694 cumulative IPC: 1.674 (Simulation time: 00 hr 38 min 58 sec)
Heartbeat CPU 0 instructions: 330000000 cycles: 179022939 heartbeat IPC: 1.896 cumulative IPC: 1.681 (Simulation time: 00 hr 40 min 12 sec)
Heartbeat CPU 0 instructions: 340000001 cycles: 184203158 heartbeat IPC: 1.93 cumulative IPC: 1.689 (Simulation time: 00 hr 41 min 23 sec)
Heartbeat CPU 0 instructions: 350000000 cycles: 189667428 heartbeat IPC: 1.83 cumulative IPC: 1.693 (Simulation time: 00 hr 42 min 36 sec)
Heartbeat CPU 0 instructions: 360000003 cycles: 194894239 heartbeat IPC: 1.913 cumulative IPC: 1.7 (Simulation time: 00 hr 43 min 47 sec)
Heartbeat CPU 0 instructions: 370000001 cycles: 200009871 heartbeat IPC: 1.955 cumulative IPC: 1.707 (Simulation time: 00 hr 44 min 57 sec)
Heartbeat CPU 0 instructions: 380000004 cycles: 205406774 heartbeat IPC: 1.853 cumulative IPC: 1.711 (Simulation time: 00 hr 46 min 08 sec)
Heartbeat CPU 0 instructions: 390000002 cycles: 210925490 heartbeat IPC: 1.812 cumulative IPC: 1.713 (Simulation time: 00 hr 47 min 21 sec)
Heartbeat CPU 0 instructions: 400000000 cycles: 216529512 heartbeat IPC: 1.784 cumulative IPC: 1.715 (Simulation time: 00 hr 48 min 35 sec)
Heartbeat CPU 0 instructions: 410000000 cycles: 225396284 heartbeat IPC: 1.128 cumulative IPC: 1.691 (Simulation time: 00 hr 50 min 19 sec)
Heartbeat CPU 0 instructions: 420000001 cycles: 238027979 heartbeat IPC: 0.7917 cumulative IPC: 1.641 (Simulation time: 00 hr 52 min 35 sec)
Heartbeat CPU 0 instructions: 430000000 cycles: 246213093 heartbeat IPC: 1.222 cumulative IPC: 1.626 (Simulation time: 00 hr 54 min 18 sec)
Heartbeat CPU 0 instructions: 440000002 cycles: 254056776 heartbeat IPC: 1.275 cumulative IPC: 1.615 (Simulation time: 00 hr 55 min 55 sec)
Heartbeat CPU 0 instructions: 450000000 cycles: 261392851 heartbeat IPC: 1.363 cumulative IPC: 1.607 (Simulation time: 00 hr 57 min 28 sec)
Heartbeat CPU 0 instructions: 460000002 cycles: 274081615 heartbeat IPC: 0.7881 cumulative IPC: 1.567 (Simulation time: 00 hr 59 min 45 sec)
Heartbeat CPU 0 instructions: 470000000 cycles: 284965635 heartbeat IPC: 0.9188 cumulative IPC: 1.541 (Simulation time: 01 hr 01 min 46 sec)
Heartbeat CPU 0 instructions: 480000000 cycles: 290413137 heartbeat IPC: 1.836 cumulative IPC: 1.547 (Simulation time: 01 hr 03 min 01 sec)
Heartbeat CPU 0 instructions: 490000001 cycles: 296157452 heartbeat IPC: 1.741 cumulative IPC: 1.551 (Simulation time: 01 hr 04 min 18 sec)
Heartbeat CPU 0 instructions: 500000002 cycles: 301863738 heartbeat IPC: 1.752 cumulative IPC: 1.555 (Simulation time: 01 hr 05 min 33 sec)
Heartbeat CPU 0 instructions: 510000000 cycles: 307634647 heartbeat IPC: 1.733 cumulative IPC: 1.559 (Simulation time: 01 hr 06 min 49 sec)
Heartbeat CPU 0 instructions: 520000000 cycles: 313468516 heartbeat IPC: 1.714 cumulative IPC: 1.562 (Simulation time: 01 hr 08 min 05 sec)
Heartbeat CPU 0 instructions: 530000001 cycles: 326382683 heartbeat IPC: 0.7743 cumulative IPC: 1.529 (Simulation time: 01 hr 10 min 24 sec)
Heartbeat CPU 0 instructions: 540000000 cycles: 338712889 heartbeat IPC: 0.811 cumulative IPC: 1.502 (Simulation time: 01 hr 12 min 40 sec)
Heartbeat CPU 0 instructions: 550000002 cycles: 353178910 heartbeat IPC: 0.6913 cumulative IPC: 1.468 (Simulation time: 01 hr 15 min 10 sec)
Heartbeat CPU 0 instructions: 560000004 cycles: 358259069 heartbeat IPC: 1.968 cumulative IPC: 1.475 (Simulation time: 01 hr 16 min 20 sec)
Heartbeat CPU 0 instructions: 570000001 cycles: 362676141 heartbeat IPC: 2.264 cumulative IPC: 1.485 (Simulation time: 01 hr 17 min 25 sec)
Heartbeat CPU 0 instructions: 580000003 cycles: 366920856 heartbeat IPC: 2.356 cumulative IPC: 1.495 (Simulation time: 01 hr 18 min 25 sec)
Heartbeat CPU 0 instructions: 590000001 cycles: 371828865 heartbeat IPC: 2.037 cumulative IPC: 1.503 (Simulation time: 01 hr 19 min 20 sec)
Heartbeat CPU 0 instructions: 600000003 cycles: 376472649 heartbeat IPC: 2.153 cumulative IPC: 1.511 (Simulation time: 01 hr 20 min 11 sec)
Heartbeat CPU 0 instructions: 610000001 cycles: 381332952 heartbeat IPC: 2.057 cumulative IPC: 1.518 (Simulation time: 01 hr 20 min 59 sec)
Heartbeat CPU 0 instructions: 620000000 cycles: 386401876 heartbeat IPC: 1.973 cumulative IPC: 1.524 (Simulation time: 01 hr 21 min 46 sec)
Heartbeat CPU 0 instructions: 630000002 cycles: 390648030 heartbeat IPC: 2.355 cumulative IPC: 1.534 (Simulation time: 01 hr 22 min 20 sec)
Heartbeat CPU 0 instructions: 640000004 cycles: 395940789 heartbeat IPC: 1.889 cumulative IPC: 1.539 (Simulation time: 01 hr 22 min 55 sec)
Heartbeat CPU 0 instructions: 650000001 cycles: 400697054 heartbeat IPC: 2.102 cumulative IPC: 1.546 (Simulation time: 01 hr 23 min 29 sec)
Simulation finished CPU 0 instructions: 600000001 cycles: 388196993 cumulative IPC: 1.546 (Simulation time: 01 hr 23 min 29 sec)
Simulation complete CPU 0 instructions: 600000001 cycles: 388196993 cumulative IPC: 1.546 (Simulation time: 01 hr 23 min 29 sec)

ChampSim completed all CPUs

=== Simulation ===
CPU 0 runs traces/400.perlbench-50B.champsimtrace.xz
Region of Interest Statistics

CPU 0 cumulative IPC: 1.546 instructions: 600000001 cycles: 388196993
CPU 0 Branch Prediction Accuracy: 93.83% MPKI: 12.71 Average ROB Occupancy at Mispredict: 29.68
Branch type MPKI
BRANCH_DIRECT_JUMP: 0.0176
BRANCH_INDIRECT: 0.38
BRANCH_CONDITIONAL: 11.9
BRANCH_DIRECT_CALL: 0.0067
BRANCH_INDIRECT_CALL: 0.431
BRANCH_RETURN: 0.0161

LLC TOTAL        ACCESS:     783623 HIT:     442400 MISS:     341223
LLC LOAD         ACCESS:     585885 HIT:     288286 MISS:     297599
LLC RFO          ACCESS:      47597 HIT:      25107 MISS:      22490
LLC PREFETCH     ACCESS:          0 HIT:          0 MISS:          0
LLC WRITE        ACCESS:     128112 HIT:     120491 MISS:       7621
LLC TRANSLATION  ACCESS:      22029 HIT:       8516 MISS:      13513
LLC PREFETCH REQUESTED:          0 ISSUED:          0 USEFUL:          0 USELESS:          0
LLC AVERAGE MISS LATENCY: 543.1 cycles
cpu0_DTLB TOTAL        ACCESS:  156752160 HIT:  155449555 MISS:    1302605
cpu0_DTLB LOAD         ACCESS:  156752160 HIT:  155449555 MISS:    1302605
cpu0_DTLB RFO          ACCESS:          0 HIT:          0 MISS:          0
cpu0_DTLB PREFETCH     ACCESS:          0 HIT:          0 MISS:          0
cpu0_DTLB WRITE        ACCESS:          0 HIT:          0 MISS:          0
cpu0_DTLB TRANSLATION  ACCESS:          0 HIT:          0 MISS:          0
cpu0_DTLB PREFETCH REQUESTED:          0 ISSUED:          0 USEFUL:          0 USELESS:          0
cpu0_DTLB AVERAGE MISS LATENCY: 13.09 cycles
cpu0_ITLB TOTAL        ACCESS:    8932404 HIT:    8733827 MISS:     198577
cpu0_ITLB LOAD         ACCESS:    8932404 HIT:    8733827 MISS:     198577
cpu0_ITLB RFO          ACCESS:          0 HIT:          0 MISS:          0
cpu0_ITLB PREFETCH     ACCESS:          0 HIT:          0 MISS:          0
cpu0_ITLB WRITE        ACCESS:          0 HIT:          0 MISS:          0
cpu0_ITLB TRANSLATION  ACCESS:          0 HIT:          0 MISS:          0
cpu0_ITLB PREFETCH REQUESTED:          0 ISSUED:          0 USEFUL:          0 USELESS:          0
cpu0_ITLB AVERAGE MISS LATENCY: 3.356 cycles
cpu0_L1D TOTAL        ACCESS:  203585456 HIT:  199904959 MISS:    3680497
cpu0_L1D LOAD         ACCESS:  117908860 HIT:  114885896 MISS:    3022964
cpu0_L1D RFO          ACCESS:          0 HIT:          0 MISS:          0
cpu0_L1D PREFETCH     ACCESS:          0 HIT:          0 MISS:          0
cpu0_L1D WRITE        ACCESS:   85648055 HIT:   85017663 MISS:     630392
cpu0_L1D TRANSLATION  ACCESS:      28541 HIT:       1400 MISS:      27141
cpu0_L1D PREFETCH REQUESTED:          0 ISSUED:          0 USEFUL:          0 USELESS:          0
cpu0_L1D AVERAGE MISS LATENCY: 53.87 cycles
cpu0_L1I TOTAL        ACCESS:   10370999 HIT:    8573886 MISS:    1797113
cpu0_L1I LOAD         ACCESS:   10370999 HIT:    8573886 MISS:    1797113
cpu0_L1I RFO          ACCESS:          0 HIT:          0 MISS:          0
cpu0_L1I PREFETCH     ACCESS:          0 HIT:          0 MISS:          0
cpu0_L1I WRITE        ACCESS:          0 HIT:          0 MISS:          0
cpu0_L1I TRANSLATION  ACCESS:          0 HIT:          0 MISS:          0
cpu0_L1I PREFETCH REQUESTED:          0 ISSUED:          0 USEFUL:          0 USELESS:          0
cpu0_L1I AVERAGE MISS LATENCY: 14.28 cycles
cpu0_L2C TOTAL        ACCESS:    3837059 HIT:    3178341 MISS:     658718
cpu0_L2C LOAD         ACCESS:    3106326 HIT:    2520441 MISS:     585885
cpu0_L2C RFO          ACCESS:     191821 HIT:     144224 MISS:      47597
cpu0_L2C PREFETCH     ACCESS:          0 HIT:          0 MISS:          0
cpu0_L2C WRITE        ACCESS:     511855 HIT:     508648 MISS:       3207
cpu0_L2C TRANSLATION  ACCESS:      27057 HIT:       5028 MISS:      22029
cpu0_L2C PREFETCH REQUESTED:          0 ISSUED:          0 USEFUL:          0 USELESS:          0
cpu0_L2C AVERAGE MISS LATENCY: 301.7 cycles
cpu0_STLB TOTAL        ACCESS:    1009469 HIT:     982777 MISS:      26692
cpu0_STLB LOAD         ACCESS:    1009469 HIT:     982777 MISS:      26692
cpu0_STLB RFO          ACCESS:          0 HIT:          0 MISS:          0
cpu0_STLB PREFETCH     ACCESS:          0 HIT:          0 MISS:          0
cpu0_STLB WRITE        ACCESS:          0 HIT:          0 MISS:          0
cpu0_STLB TRANSLATION  ACCESS:          0 HIT:          0 MISS:          0
cpu0_STLB PREFETCH REQUESTED:          0 ISSUED:          0 USEFUL:          0 USELESS:          0
cpu0_STLB AVERAGE MISS LATENCY: 422.3 cycles

DRAM Statistics

Channel 0 RQ ROW_BUFFER_HIT:      51989
  ROW_BUFFER_MISS:     281504
 AVG DBUS CONGESTED CYCLE: 3.816
WQ ROW_BUFFER_HIT: Channel 0 
  ROW_BUFFER_MISS:       9949
  FULL:      46932
