WARNING: physical memory size is smaller than virtual memory size.

*** ChampSim Multicore Out-of-Order Simulator ***
Warmup Instructions: 50000000
Simulation Instructions: 600000000
Number of CPUs: 1
Page size: 4096

CPU 0 Tage branch predictor
Off-chip DRAM Size: 4 GiB Channels: 1 Width: 64-bit Data Race: 3200 MT/s
Heartbeat CPU 0 instructions: 10000000 cycles: 2500061 heartbeat IPC: 4 cumulative IPC: 4 (Simulation time: 00 hr 00 min 40 sec)
Heartbeat CPU 0 instructions: 20000000 cycles: 5000061 heartbeat IPC: 4 cumulative IPC: 4 (Simulation time: 00 hr 01 min 18 sec)
Heartbeat CPU 0 instructions: 30000000 cycles: 7500061 heartbeat IPC: 4 cumulative IPC: 4 (Simulation time: 00 hr 01 min 56 sec)
Heartbeat CPU 0 instructions: 40000000 cycles: 10000061 heartbeat IPC: 4 cumulative IPC: 4 (Simulation time: 00 hr 02 min 34 sec)
Heartbeat CPU 0 instructions: 50000000 cycles: 12500061 heartbeat IPC: 4 cumulative IPC: 4 (Simulation time: 00 hr 03 min 13 sec)
Warmup finished CPU 0 instructions: 50000000 cycles: 12500062 cumulative IPC: 4 (Simulation time: 00 hr 03 min 13 sec)
Warmup complete CPU 0 instructions: 50000000 cycles: 12500062 cumulative IPC: 4 (Simulation time: 00 hr 03 min 13 sec)
Heartbeat CPU 0 instructions: 60000004 cycles: 15504489 heartbeat IPC: 3.328 cumulative IPC: 3.328 (Simulation time: 00 hr 04 min 00 sec)
Heartbeat CPU 0 instructions: 70000003 cycles: 18370762 heartbeat IPC: 3.489 cumulative IPC: 3.407 (Simulation time: 00 hr 04 min 46 sec)
Heartbeat CPU 0 instructions: 80000002 cycles: 21382300 heartbeat IPC: 3.321 cumulative IPC: 3.378 (Simulation time: 00 hr 05 min 33 sec)
Heartbeat CPU 0 instructions: 90000000 cycles: 24100329 heartbeat IPC: 3.679 cumulative IPC: 3.448 (Simulation time: 00 hr 06 min 18 sec)
Heartbeat CPU 0 instructions: 100000003 cycles: 26857493 heartbeat IPC: 3.627 cumulative IPC: 3.483 (Simulation time: 00 hr 07 min 04 sec)
Heartbeat CPU 0 instructions: 110000001 cycles: 29755202 heartbeat IPC: 3.451 cumulative IPC: 3.477 (Simulation time: 00 hr 07 min 56 sec)
Heartbeat CPU 0 instructions: 120000001 cycles: 32471687 heartbeat IPC: 3.681 cumulative IPC: 3.505 (Simulation time: 00 hr 08 min 50 sec)
Heartbeat CPU 0 instructions: 130000003 cycles: 35371153 heartbeat IPC: 3.449 cumulative IPC: 3.498 (Simulation time: 00 hr 09 min 45 sec)
Heartbeat CPU 0 instructions: 140000002 cycles: 38204957 heartbeat IPC: 3.529 cumulative IPC: 3.501 (Simulation time: 00 hr 10 min 34 sec)
Heartbeat CPU 0 instructions: 150000001 cycles: 40975005 heartbeat IPC: 3.61 cumulative IPC: 3.512 (Simulation time: 00 hr 11 min 21 sec)
Heartbeat CPU 0 instructions: 160000000 cycles: 43892634 heartbeat IPC: 3.427 cumulative IPC: 3.504 (Simulation time: 00 hr 12 min 22 sec)
Heartbeat CPU 0 instructions: 170000001 cycles: 46821114 heartbeat IPC: 3.415 cumulative IPC: 3.496 (Simulation time: 00 hr 13 min 31 sec)
Heartbeat CPU 0 instructions: 180000000 cycles: 49612148 heartbeat IPC: 3.583 cumulative IPC: 3.503 (Simulation time: 00 hr 14 min 35 sec)
Heartbeat CPU 0 instructions: 190000002 cycles: 52319155 heartbeat IPC: 3.694 cumulative IPC: 3.516 (Simulation time: 00 hr 15 min 39 sec)
Heartbeat CPU 0 instructions: 200000002 cycles: 55139904 heartbeat IPC: 3.545 cumulative IPC: 3.518 (Simulation time: 00 hr 16 min 41 sec)
Heartbeat CPU 0 instructions: 210000000 cycles: 58032807 heartbeat IPC: 3.457 cumulative IPC: 3.514 (Simulation time: 00 hr 17 min 50 sec)
Heartbeat CPU 0 instructions: 220000001 cycles: 60785586 heartbeat IPC: 3.633 cumulative IPC: 3.521 (Simulation time: 00 hr 19 min 02 sec)
Heartbeat CPU 0 instructions: 230000002 cycles: 63675435 heartbeat IPC: 3.46 cumulative IPC: 3.517 (Simulation time: 00 hr 20 min 11 sec)
Heartbeat CPU 0 instructions: 240000004 cycles: 66627331 heartbeat IPC: 3.388 cumulative IPC: 3.51 (Simulation time: 00 hr 21 min 25 sec)
Heartbeat CPU 0 instructions: 250000003 cycles: 69518216 heartbeat IPC: 3.459 cumulative IPC: 3.508 (Simulation time: 00 hr 22 min 36 sec)
Heartbeat CPU 0 instructions: 260000001 cycles: 72302963 heartbeat IPC: 3.591 cumulative IPC: 3.512 (Simulation time: 00 hr 23 min 43 sec)
Heartbeat CPU 0 instructions: 270000002 cycles: 78149408 heartbeat IPC: 1.71 cumulative IPC: 3.351 (Simulation time: 00 hr 25 min 13 sec)
Heartbeat CPU 0 instructions: 280000000 cycles: 87385161 heartbeat IPC: 1.083 cumulative IPC: 3.071 (Simulation time: 00 hr 27 min 17 sec)
Heartbeat CPU 0 instructions: 290000000 cycles: 95079927 heartbeat IPC: 1.3 cumulative IPC: 2.906 (Simulation time: 00 hr 29 min 01 sec)
Heartbeat CPU 0 instructions: 300000003 cycles: 100300637 heartbeat IPC: 1.915 cumulative IPC: 2.847 (Simulation time: 00 hr 30 min 33 sec)
Heartbeat CPU 0 instructions: 310000001 cycles: 108403812 heartbeat IPC: 1.234 cumulative IPC: 2.711 (Simulation time: 00 hr 32 min 28 sec)
Heartbeat CPU 0 instructions: 320000004 cycles: 112173737 heartbeat IPC: 2.653 cumulative IPC: 2.709 (Simulation time: 00 hr 33 min 39 sec)
Heartbeat CPU 0 instructions: 330000000 cycles: 115332682 heartbeat IPC: 3.166 cumulative IPC: 2.723 (Simulation time: 00 hr 34 min 43 sec)
Heartbeat CPU 0 instructions: 340000001 cycles: 118501308 heartbeat IPC: 3.156 cumulative IPC: 2.736 (Simulation time: 00 hr 35 min 50 sec)
Heartbeat CPU 0 instructions: 350000000 cycles: 121837733 heartbeat IPC: 2.997 cumulative IPC: 2.744 (Simulation time: 00 hr 36 min 58 sec)
Heartbeat CPU 0 instructions: 360000004 cycles: 124980510 heartbeat IPC: 3.182 cumulative IPC: 2.756 (Simulation time: 00 hr 38 min 02 sec)
Heartbeat CPU 0 instructions: 370000001 cycles: 128071167 heartbeat IPC: 3.236 cumulative IPC: 2.769 (Simulation time: 00 hr 39 min 04 sec)
Heartbeat CPU 0 instructions: 380000004 cycles: 131175415 heartbeat IPC: 3.221 cumulative IPC: 2.781 (Simulation time: 00 hr 40 min 07 sec)
Heartbeat CPU 0 instructions: 390000002 cycles: 134402841 heartbeat IPC: 3.098 cumulative IPC: 2.789 (Simulation time: 00 hr 41 min 16 sec)
Heartbeat CPU 0 instructions: 400000000 cycles: 137695698 heartbeat IPC: 3.037 cumulative IPC: 2.796 (Simulation time: 00 hr 42 min 28 sec)
Heartbeat CPU 0 instructions: 410000000 cycles: 144139605 heartbeat IPC: 1.552 cumulative IPC: 2.735 (Simulation time: 00 hr 44 min 04 sec)
Heartbeat CPU 0 instructions: 420000003 cycles: 153075747 heartbeat IPC: 1.119 cumulative IPC: 2.632 (Simulation time: 00 hr 46 min 03 sec)
Heartbeat CPU 0 instructions: 430000000 cycles: 158802007 heartbeat IPC: 1.746 cumulative IPC: 2.597 (Simulation time: 00 hr 47 min 38 sec)
Heartbeat CPU 0 instructions: 440000004 cycles: 163751243 heartbeat IPC: 2.021 cumulative IPC: 2.578 (Simulation time: 00 hr 49 min 04 sec)
Heartbeat CPU 0 instructions: 450000001 cycles: 168549344 heartbeat IPC: 2.084 cumulative IPC: 2.563 (Simulation time: 00 hr 50 min 26 sec)
Heartbeat CPU 0 instructions: 460000002 cycles: 176656199 heartbeat IPC: 1.234 cumulative IPC: 2.498 (Simulation time: 00 hr 52 min 17 sec)
Heartbeat CPU 0 instructions: 470000003 cycles: 183975938 heartbeat IPC: 1.366 cumulative IPC: 2.449 (Simulation time: 00 hr 54 min 00 sec)
Heartbeat CPU 0 instructions: 480000000 cycles: 187362689 heartbeat IPC: 2.953 cumulative IPC: 2.459 (Simulation time: 00 hr 55 min 09 sec)
Heartbeat CPU 0 instructions: 490000001 cycles: 190976464 heartbeat IPC: 2.767 cumulative IPC: 2.465 (Simulation time: 00 hr 56 min 21 sec)
Heartbeat CPU 0 instructions: 500000002 cycles: 194437465 heartbeat IPC: 2.889 cumulative IPC: 2.473 (Simulation time: 00 hr 57 min 38 sec)
Heartbeat CPU 0 instructions: 510000000 cycles: 197884095 heartbeat IPC: 2.901 cumulative IPC: 2.481 (Simulation time: 00 hr 59 min 15 sec)
Heartbeat CPU 0 instructions: 520000000 cycles: 201363242 heartbeat IPC: 2.874 cumulative IPC: 2.489 (Simulation time: 01 hr 00 min 48 sec)
Heartbeat CPU 0 instructions: 530000001 cycles: 210741190 heartbeat IPC: 1.066 cumulative IPC: 2.421 (Simulation time: 01 hr 03 min 04 sec)
Heartbeat CPU 0 instructions: 540000000 cycles: 219596432 heartbeat IPC: 1.129 cumulative IPC: 2.366 (Simulation time: 01 hr 05 min 07 sec)
Heartbeat CPU 0 instructions: 550000004 cycles: 229599764 heartbeat IPC: 0.9997 cumulative IPC: 2.303 (Simulation time: 01 hr 07 min 18 sec)
Heartbeat CPU 0 instructions: 560000004 cycles: 233141074 heartbeat IPC: 2.824 cumulative IPC: 2.311 (Simulation time: 01 hr 08 min 30 sec)
Heartbeat CPU 0 instructions: 570000002 cycles: 235963003 heartbeat IPC: 3.544 cumulative IPC: 2.327 (Simulation time: 01 hr 09 min 37 sec)
Heartbeat CPU 0 instructions: 580000000 cycles: 238887809 heartbeat IPC: 3.419 cumulative IPC: 2.341 (Simulation time: 01 hr 10 min 42 sec)
Heartbeat CPU 0 instructions: 590000001 cycles: 241812319 heartbeat IPC: 3.419 cumulative IPC: 2.355 (Simulation time: 01 hr 11 min 50 sec)
Heartbeat CPU 0 instructions: 600000003 cycles: 244506359 heartbeat IPC: 3.712 cumulative IPC: 2.371 (Simulation time: 01 hr 12 min 58 sec)
Heartbeat CPU 0 instructions: 610000001 cycles: 247370962 heartbeat IPC: 3.491 cumulative IPC: 2.384 (Simulation time: 01 hr 14 min 05 sec)
Heartbeat CPU 0 instructions: 620000004 cycles: 250324816 heartbeat IPC: 3.385 cumulative IPC: 2.397 (Simulation time: 01 hr 15 min 17 sec)
Heartbeat CPU 0 instructions: 630000002 cycles: 253136231 heartbeat IPC: 3.557 cumulative IPC: 2.41 (Simulation time: 01 hr 16 min 23 sec)
Heartbeat CPU 0 instructions: 640000004 cycles: 256186918 heartbeat IPC: 3.278 cumulative IPC: 2.421 (Simulation time: 01 hr 17 min 32 sec)
Heartbeat CPU 0 instructions: 650000001 cycles: 258897189 heartbeat IPC: 3.69 cumulative IPC: 2.435 (Simulation time: 01 hr 18 min 52 sec)
Simulation finished CPU 0 instructions: 600000001 cycles: 246397128 cumulative IPC: 2.435 (Simulation time: 01 hr 18 min 52 sec)
Simulation complete CPU 0 instructions: 600000001 cycles: 246397128 cumulative IPC: 2.435 (Simulation time: 01 hr 18 min 52 sec)

ChampSim completed all CPUs

=== Simulation ===
CPU 0 runs traces/400.perlbench-50B.champsimtrace.xz
Region of Interest Statistics

CPU 0 cumulative IPC: 2.435 instructions: 600000001 cycles: 246397128
CPU 0 Branch Prediction Accuracy: 99.01% MPKI: 2.04 Average ROB Occupancy at Mispredict: 94.98
Branch type MPKI
BRANCH_DIRECT_JUMP: 0.0176
BRANCH_INDIRECT: 0.38
BRANCH_CONDITIONAL: 1.19
BRANCH_DIRECT_CALL: 0.0067
BRANCH_INDIRECT_CALL: 0.431
BRANCH_RETURN: 0.0161

LLC TOTAL        ACCESS:     769736 HIT:     462138 MISS:     307598
LLC LOAD         ACCESS:     574613 HIT:     299374 MISS:     275239
LLC RFO          ACCESS:      46740 HIT:      26494 MISS:      20246
LLC PREFETCH     ACCESS:          0 HIT:          0 MISS:          0
LLC WRITE        ACCESS:     126292 HIT:     125911 MISS:        381
LLC TRANSLATION  ACCESS:      22091 HIT:      10359 MISS:      11732
LLC PREFETCH REQUESTED:          0 ISSUED:          0 USEFUL:          0 USELESS:          0
LLC AVERAGE MISS LATENCY: 608 cycles
cpu0_DTLB TOTAL        ACCESS:  133222187 HIT:  131868163 MISS:    1354024
cpu0_DTLB LOAD         ACCESS:  133222187 HIT:  131868163 MISS:    1354024
cpu0_DTLB RFO          ACCESS:          0 HIT:          0 MISS:          0
cpu0_DTLB PREFETCH     ACCESS:          0 HIT:          0 MISS:          0
cpu0_DTLB WRITE        ACCESS:          0 HIT:          0 MISS:          0
cpu0_DTLB TRANSLATION  ACCESS:          0 HIT:          0 MISS:          0
cpu0_DTLB PREFETCH REQUESTED:          0 ISSUED:          0 USEFUL:          0 USELESS:          0
cpu0_DTLB AVERAGE MISS LATENCY: 11.72 cycles
cpu0_ITLB TOTAL        ACCESS:    9000241 HIT:    8790824 MISS:     209417
cpu0_ITLB LOAD         ACCESS:    9000241 HIT:    8790824 MISS:     209417
cpu0_ITLB RFO          ACCESS:          0 HIT:          0 MISS:          0
cpu0_ITLB PREFETCH     ACCESS:          0 HIT:          0 MISS:          0
cpu0_ITLB WRITE        ACCESS:          0 HIT:          0 MISS:          0
cpu0_ITLB TRANSLATION  ACCESS:          0 HIT:          0 MISS:          0
cpu0_ITLB PREFETCH REQUESTED:          0 ISSUED:          0 USEFUL:          0 USELESS:          0
cpu0_ITLB AVERAGE MISS LATENCY: 2.996 cycles
cpu0_L1D TOTAL        ACCESS:  178246950 HIT:  174446155 MISS:    3800795
cpu0_L1D LOAD         ACCESS:   92729914 HIT:   89612229 MISS:    3117685
cpu0_L1D RFO          ACCESS:          0 HIT:          0 MISS:          0
cpu0_L1D PREFETCH     ACCESS:          0 HIT:          0 MISS:          0
cpu0_L1D WRITE        ACCESS:   85488507 HIT:   84832509 MISS:     655998
cpu0_L1D TRANSLATION  ACCESS:      28529 HIT:       1417 MISS:      27112
cpu0_L1D PREFETCH REQUESTED:          0 ISSUED:          0 USEFUL:          0 USELESS:          0
cpu0_L1D AVERAGE MISS LATENCY: 51.59 cycles
cpu0_L1I TOTAL        ACCESS:   10519460 HIT:    8620659 MISS:    1898801
cpu0_L1I LOAD         ACCESS:   10519460 HIT:    8620659 MISS:    1898801
cpu0_L1I RFO          ACCESS:          0 HIT:          0 MISS:          0
cpu0_L1I PREFETCH     ACCESS:          0 HIT:          0 MISS:          0
cpu0_L1I WRITE        ACCESS:          0 HIT:          0 MISS:          0
cpu0_L1I TRANSLATION  ACCESS:          0 HIT:          0 MISS:          0
cpu0_L1I PREFETCH REQUESTED:          0 ISSUED:          0 USEFUL:          0 USELESS:          0
cpu0_L1I AVERAGE MISS LATENCY: 10.78 cycles
cpu0_L2C TOTAL        ACCESS:    3840321 HIT:    3193756 MISS:     646565
cpu0_L2C LOAD         ACCESS:    3103755 HIT:    2529141 MISS:     574614
cpu0_L2C RFO          ACCESS:     194862 HIT:     148122 MISS:      46740
cpu0_L2C PREFETCH     ACCESS:          0 HIT:          0 MISS:          0
cpu0_L2C WRITE        ACCESS:     514667 HIT:     511547 MISS:       3120
cpu0_L2C TRANSLATION  ACCESS:      27037 HIT:       4946 MISS:      22091
cpu0_L2C PREFETCH REQUESTED:          0 ISSUED:          0 USEFUL:          0 USELESS:          0
cpu0_L2C AVERAGE MISS LATENCY: 309.6 cycles
cpu0_STLB TOTAL        ACCESS:    1009929 HIT:     983238 MISS:      26691
cpu0_STLB LOAD         ACCESS:    1009929 HIT:     983238 MISS:      26691
cpu0_STLB RFO          ACCESS:          0 HIT:          0 MISS:          0
cpu0_STLB PREFETCH     ACCESS:          0 HIT:          0 MISS:          0
cpu0_STLB WRITE        ACCESS:          0 HIT:          0 MISS:          0
cpu0_STLB TRANSLATION  ACCESS:          0 HIT:          0 MISS:          0
cpu0_STLB PREFETCH REQUESTED:          0 ISSUED:          0 USEFUL:          0 USELESS:          0
cpu0_STLB AVERAGE MISS LATENCY: 393.7 cycles

DRAM Statistics

Channel 0 RQ ROW_BUFFER_HIT:      62283
  ROW_BUFFER_MISS:     244864
 AVG DBUS CONGESTED CYCLE: 3.835
WQ ROW_BUFFER_HIT: Channel 0 
  ROW_BUFFER_MISS:       6107
  FULL:      41622
