WARNING: physical memory size is smaller than virtual memory size.

*** ChampSim Multicore Out-of-Order Simulator ***
Warmup Instructions: 50000000
Simulation Instructions: 600000000
Number of CPUs: 1
Page size: 4096

Off-chip DRAM Size: 4 GiB Channels: 1 Width: 64-bit Data Race: 3200 MT/s
Heartbeat CPU 0 instructions: 10000000 cycles: 2500061 heartbeat IPC: 4 cumulative IPC: 4 (Simulation time: 00 hr 00 min 33 sec)
Heartbeat CPU 0 instructions: 20000000 cycles: 5000061 heartbeat IPC: 4 cumulative IPC: 4 (Simulation time: 00 hr 01 min 09 sec)
Heartbeat CPU 0 instructions: 30000000 cycles: 7500061 heartbeat IPC: 4 cumulative IPC: 4 (Simulation time: 00 hr 01 min 43 sec)
Heartbeat CPU 0 instructions: 40000000 cycles: 10000061 heartbeat IPC: 4 cumulative IPC: 4 (Simulation time: 00 hr 02 min 16 sec)
Heartbeat CPU 0 instructions: 50000000 cycles: 12500061 heartbeat IPC: 4 cumulative IPC: 4 (Simulation time: 00 hr 02 min 49 sec)
Warmup finished CPU 0 instructions: 50000000 cycles: 12500062 cumulative IPC: 4 (Simulation time: 00 hr 02 min 49 sec)
Warmup complete CPU 0 instructions: 50000000 cycles: 12500062 cumulative IPC: 4 (Simulation time: 00 hr 02 min 49 sec)
Heartbeat CPU 0 instructions: 60000002 cycles: 16444688 heartbeat IPC: 2.535 cumulative IPC: 2.535 (Simulation time: 00 hr 03 min 35 sec)
Heartbeat CPU 0 instructions: 70000003 cycles: 20760893 heartbeat IPC: 2.317 cumulative IPC: 2.421 (Simulation time: 00 hr 04 min 22 sec)
Heartbeat CPU 0 instructions: 80000003 cycles: 25229157 heartbeat IPC: 2.238 cumulative IPC: 2.357 (Simulation time: 00 hr 05 min 09 sec)
Heartbeat CPU 0 instructions: 90000000 cycles: 28920814 heartbeat IPC: 2.709 cumulative IPC: 2.436 (Simulation time: 00 hr 05 min 53 sec)
Heartbeat CPU 0 instructions: 100000003 cycles: 32818788 heartbeat IPC: 2.565 cumulative IPC: 2.461 (Simulation time: 00 hr 06 min 40 sec)
Heartbeat CPU 0 instructions: 110000002 cycles: 36920325 heartbeat IPC: 2.438 cumulative IPC: 2.457 (Simulation time: 00 hr 07 min 25 sec)
Heartbeat CPU 0 instructions: 120000001 cycles: 40635683 heartbeat IPC: 2.692 cumulative IPC: 2.488 (Simulation time: 00 hr 08 min 09 sec)
Heartbeat CPU 0 instructions: 130000003 cycles: 44404658 heartbeat IPC: 2.653 cumulative IPC: 2.507 (Simulation time: 00 hr 08 min 56 sec)
Heartbeat CPU 0 instructions: 140000002 cycles: 48538024 heartbeat IPC: 2.419 cumulative IPC: 2.497 (Simulation time: 00 hr 09 min 41 sec)
Heartbeat CPU 0 instructions: 150000001 cycles: 52589949 heartbeat IPC: 2.468 cumulative IPC: 2.494 (Simulation time: 00 hr 10 min 31 sec)
Heartbeat CPU 0 instructions: 160000000 cycles: 56247531 heartbeat IPC: 2.734 cumulative IPC: 2.514 (Simulation time: 00 hr 11 min 14 sec)
Heartbeat CPU 0 instructions: 170000001 cycles: 60421737 heartbeat IPC: 2.396 cumulative IPC: 2.504 (Simulation time: 00 hr 12 min 00 sec)
Heartbeat CPU 0 instructions: 180000001 cycles: 63882371 heartbeat IPC: 2.89 cumulative IPC: 2.53 (Simulation time: 00 hr 12 min 40 sec)
Heartbeat CPU 0 instructions: 190000002 cycles: 67465761 heartbeat IPC: 2.791 cumulative IPC: 2.547 (Simulation time: 00 hr 13 min 21 sec)
Heartbeat CPU 0 instructions: 200000002 cycles: 71249161 heartbeat IPC: 2.643 cumulative IPC: 2.553 (Simulation time: 00 hr 14 min 02 sec)
Heartbeat CPU 0 instructions: 210000000 cycles: 74888079 heartbeat IPC: 2.748 cumulative IPC: 2.565 (Simulation time: 00 hr 14 min 43 sec)
Heartbeat CPU 0 instructions: 220000001 cycles: 78754029 heartbeat IPC: 2.587 cumulative IPC: 2.566 (Simulation time: 00 hr 15 min 24 sec)
Heartbeat CPU 0 instructions: 230000002 cycles: 82594747 heartbeat IPC: 2.604 cumulative IPC: 2.568 (Simulation time: 00 hr 16 min 06 sec)
Heartbeat CPU 0 instructions: 240000001 cycles: 86801493 heartbeat IPC: 2.377 cumulative IPC: 2.557 (Simulation time: 00 hr 16 min 49 sec)
Heartbeat CPU 0 instructions: 250000003 cycles: 91366485 heartbeat IPC: 2.191 cumulative IPC: 2.536 (Simulation time: 00 hr 17 min 34 sec)
Heartbeat CPU 0 instructions: 260000000 cycles: 95159478 heartbeat IPC: 2.636 cumulative IPC: 2.541 (Simulation time: 00 hr 18 min 16 sec)
Heartbeat CPU 0 instructions: 270000003 cycles: 102284498 heartbeat IPC: 1.404 cumulative IPC: 2.45 (Simulation time: 00 hr 19 min 20 sec)
Heartbeat CPU 0 instructions: 280000000 cycles: 112910130 heartbeat IPC: 0.9411 cumulative IPC: 2.291 (Simulation time: 00 hr 20 min 44 sec)
Heartbeat CPU 0 instructions: 290000000 cycles: 123400598 heartbeat IPC: 0.9532 cumulative IPC: 2.164 (Simulation time: 00 hr 22 min 06 sec)
Heartbeat CPU 0 instructions: 300000003 cycles: 131989202 heartbeat IPC: 1.164 cumulative IPC: 2.092 (Simulation time: 00 hr 23 min 21 sec)
Heartbeat CPU 0 instructions: 310000004 cycles: 144328947 heartbeat IPC: 0.8104 cumulative IPC: 1.972 (Simulation time: 00 hr 24 min 56 sec)
Heartbeat CPU 0 instructions: 320000004 cycles: 150063531 heartbeat IPC: 1.744 cumulative IPC: 1.963 (Simulation time: 00 hr 25 min 53 sec)
Heartbeat CPU 0 instructions: 330000000 cycles: 154137652 heartbeat IPC: 2.455 cumulative IPC: 1.977 (Simulation time: 00 hr 26 min 41 sec)
Heartbeat CPU 0 instructions: 340000001 cycles: 158493922 heartbeat IPC: 2.296 cumulative IPC: 1.986 (Simulation time: 00 hr 27 min 29 sec)
Heartbeat CPU 0 instructions: 350000004 cycles: 162994733 heartbeat IPC: 2.222 cumulative IPC: 1.993 (Simulation time: 00 hr 28 min 18 sec)
Heartbeat CPU 0 instructions: 360000003 cycles: 167161483 heartbeat IPC: 2.4 cumulative IPC: 2.004 (Simulation time: 00 hr 29 min 06 sec)
Heartbeat CPU 0 instructions: 370000001 cycles: 171168140 heartbeat IPC: 2.496 cumulative IPC: 2.017 (Simulation time: 00 hr 29 min 52 sec)
Heartbeat CPU 0 instructions: 380000004 cycles: 175039800 heartbeat IPC: 2.583 cumulative IPC: 2.03 (Simulation time: 00 hr 30 min 38 sec)
Heartbeat CPU 0 instructions: 390000002 cycles: 179182437 heartbeat IPC: 2.414 cumulative IPC: 2.04 (Simulation time: 00 hr 31 min 25 sec)
Heartbeat CPU 0 instructions: 400000000 cycles: 183629106 heartbeat IPC: 2.249 cumulative IPC: 2.045 (Simulation time: 00 hr 32 min 13 sec)
Heartbeat CPU 0 instructions: 410000000 cycles: 191971721 heartbeat IPC: 1.199 cumulative IPC: 2.006 (Simulation time: 00 hr 33 min 21 sec)
Heartbeat CPU 0 instructions: 420000003 cycles: 203358243 heartbeat IPC: 0.8782 cumulative IPC: 1.939 (Simulation time: 00 hr 34 min 47 sec)
Heartbeat CPU 0 instructions: 430000000 cycles: 211838910 heartbeat IPC: 1.179 cumulative IPC: 1.906 (Simulation time: 00 hr 36 min 01 sec)
Heartbeat CPU 0 instructions: 440000004 cycles: 220118633 heartbeat IPC: 1.208 cumulative IPC: 1.878 (Simulation time: 00 hr 37 min 12 sec)
Heartbeat CPU 0 instructions: 450000001 cycles: 228125868 heartbeat IPC: 1.249 cumulative IPC: 1.855 (Simulation time: 00 hr 38 min 21 sec)
Heartbeat CPU 0 instructions: 460000002 cycles: 241389038 heartbeat IPC: 0.754 cumulative IPC: 1.791 (Simulation time: 00 hr 40 min 00 sec)
Heartbeat CPU 0 instructions: 470000003 cycles: 252350686 heartbeat IPC: 0.9123 cumulative IPC: 1.751 (Simulation time: 00 hr 41 min 27 sec)
Heartbeat CPU 0 instructions: 480000003 cycles: 256709881 heartbeat IPC: 2.294 cumulative IPC: 1.761 (Simulation time: 00 hr 42 min 16 sec)
Heartbeat CPU 0 instructions: 490000001 cycles: 261315351 heartbeat IPC: 2.171 cumulative IPC: 1.768 (Simulation time: 00 hr 43 min 05 sec)
Heartbeat CPU 0 instructions: 500000002 cycles: 265724179 heartbeat IPC: 2.268 cumulative IPC: 1.777 (Simulation time: 00 hr 43 min 55 sec)
Heartbeat CPU 0 instructions: 510000000 cycles: 269892992 heartbeat IPC: 2.399 cumulative IPC: 1.787 (Simulation time: 00 hr 44 min 42 sec)
Heartbeat CPU 0 instructions: 520000000 cycles: 274239522 heartbeat IPC: 2.301 cumulative IPC: 1.796 (Simulation time: 00 hr 45 min 30 sec)
Heartbeat CPU 0 instructions: 530000001 cycles: 286950839 heartbeat IPC: 0.7867 cumulative IPC: 1.749 (Simulation time: 00 hr 47 min 06 sec)
Heartbeat CPU 0 instructions: 540000000 cycles: 299094755 heartbeat IPC: 0.8235 cumulative IPC: 1.71 (Simulation time: 00 hr 48 min 41 sec)
Heartbeat CPU 0 instructions: 550000004 cycles: 313832233 heartbeat IPC: 0.6785 cumulative IPC: 1.659 (Simulation time: 00 hr 50 min 30 sec)
Heartbeat CPU 0 instructions: 560000004 cycles: 318358150 heartbeat IPC: 2.209 cumulative IPC: 1.667 (Simulation time: 00 hr 51 min 19 sec)
Heartbeat CPU 0 instructions: 570000001 cycles: 321493889 heartbeat IPC: 3.189 cumulative IPC: 1.683 (Simulation time: 00 hr 52 min 03 sec)
Heartbeat CPU 0 instructions: 580000003 cycles: 325043029 heartbeat IPC: 2.818 cumulative IPC: 1.696 (Simulation time: 00 hr 52 min 46 sec)
Heartbeat CPU 0 instructions: 590000002 cycles: 328673090 heartbeat IPC: 2.755 cumulative IPC: 1.708 (Simulation time: 00 hr 53 min 30 sec)
Heartbeat CPU 0 instructions: 600000003 cycles: 331740498 heartbeat IPC: 3.26 cumulative IPC: 1.723 (Simulation time: 00 hr 54 min 12 sec)
Heartbeat CPU 0 instructions: 610000001 cycles: 335258019 heartbeat IPC: 2.843 cumulative IPC: 1.735 (Simulation time: 00 hr 54 min 56 sec)
Heartbeat CPU 0 instructions: 620000000 cycles: 339278121 heartbeat IPC: 2.487 cumulative IPC: 1.744 (Simulation time: 00 hr 55 min 43 sec)
Heartbeat CPU 0 instructions: 630000002 cycles: 342649728 heartbeat IPC: 2.966 cumulative IPC: 1.757 (Simulation time: 00 hr 56 min 29 sec)
Heartbeat CPU 0 instructions: 640000004 cycles: 346662482 heartbeat IPC: 2.492 cumulative IPC: 1.766 (Simulation time: 00 hr 57 min 18 sec)
Heartbeat CPU 0 instructions: 650000001 cycles: 350484428 heartbeat IPC: 2.616 cumulative IPC: 1.775 (Simulation time: 00 hr 58 min 04 sec)
Simulation finished CPU 0 instructions: 600000001 cycles: 337984367 cumulative IPC: 1.775 (Simulation time: 00 hr 58 min 04 sec)
Simulation complete CPU 0 instructions: 600000001 cycles: 337984367 cumulative IPC: 1.775 (Simulation time: 00 hr 58 min 04 sec)

ChampSim completed all CPUs

=== Simulation ===
CPU 0 runs traces/400.perlbench-50B.champsimtrace.xz
Region of Interest Statistics

CPU 0 cumulative IPC: 1.775 instructions: 600000001 cycles: 337984367
CPU 0 Branch Prediction Accuracy: 96.2% MPKI: 7.839 Average ROB Occupancy at Mispredict: 43.91
Branch type MPKI
BRANCH_DIRECT_JUMP: 0.0176
BRANCH_INDIRECT: 0.38
BRANCH_CONDITIONAL: 6.99
BRANCH_DIRECT_CALL: 0.0067
BRANCH_INDIRECT_CALL: 0.431
BRANCH_RETURN: 0.0161

LLC TOTAL        ACCESS:     837612 HIT:     470831 MISS:     366781
LLC LOAD         ACCESS:     576675 HIT:     287648 MISS:     289027
LLC RFO          ACCESS:      47590 HIT:      31398 MISS:      16192
LLC PREFETCH     ACCESS:      64105 HIT:      43173 MISS:      20932
LLC WRITE        ACCESS:     127148 HIT:     104028 MISS:      23120
LLC TRANSLATION  ACCESS:      22094 HIT:       4584 MISS:      17510
LLC PREFETCH REQUESTED:      64105 ISSUED:      64105 USEFUL:       9657 USELESS:       7409
LLC AVERAGE MISS LATENCY: 471.1 cycles
cpu0_DTLB TOTAL        ACCESS:  146504274 HIT:  145197551 MISS:    1306723
cpu0_DTLB LOAD         ACCESS:  146504274 HIT:  145197551 MISS:    1306723
cpu0_DTLB RFO          ACCESS:          0 HIT:          0 MISS:          0
cpu0_DTLB PREFETCH     ACCESS:          0 HIT:          0 MISS:          0
cpu0_DTLB WRITE        ACCESS:          0 HIT:          0 MISS:          0
cpu0_DTLB TRANSLATION  ACCESS:          0 HIT:          0 MISS:          0
cpu0_DTLB PREFETCH REQUESTED:          0 ISSUED:          0 USEFUL:          0 USELESS:          0
cpu0_DTLB AVERAGE MISS LATENCY: 14.07 cycles
cpu0_ITLB TOTAL        ACCESS:    8991362 HIT:    8806876 MISS:     184486
cpu0_ITLB LOAD         ACCESS:    8991362 HIT:    8806876 MISS:     184486
cpu0_ITLB RFO          ACCESS:          0 HIT:          0 MISS:          0
cpu0_ITLB PREFETCH     ACCESS:          0 HIT:          0 MISS:          0
cpu0_ITLB WRITE        ACCESS:          0 HIT:          0 MISS:          0
cpu0_ITLB TRANSLATION  ACCESS:          0 HIT:          0 MISS:          0
cpu0_ITLB PREFETCH REQUESTED:          0 ISSUED:          0 USEFUL:          0 USELESS:          0
cpu0_ITLB AVERAGE MISS LATENCY: 3.832 cycles
cpu0_L1D TOTAL        ACCESS:  193267408 HIT:  189611688 MISS:    3655720
cpu0_L1D LOAD         ACCESS:  107421453 HIT:  104406018 MISS:    3015435
cpu0_L1D RFO          ACCESS:          0 HIT:          0 MISS:          0
cpu0_L1D PREFETCH     ACCESS:          0 HIT:          0 MISS:          0
cpu0_L1D WRITE        ACCESS:   85817433 HIT:   85204253 MISS:     613180
cpu0_L1D TRANSLATION  ACCESS:      28522 HIT:       1417 MISS:      27105
cpu0_L1D PREFETCH REQUESTED:          0 ISSUED:          0 USEFUL:          0 USELESS:          0
cpu0_L1D AVERAGE MISS LATENCY: 47.08 cycles
cpu0_L1I TOTAL        ACCESS:   10425411 HIT:    8663227 MISS:    1762184
cpu0_L1I LOAD         ACCESS:   10425411 HIT:    8663227 MISS:    1762184
cpu0_L1I RFO          ACCESS:          0 HIT:          0 MISS:          0
cpu0_L1I PREFETCH     ACCESS:          0 HIT:          0 MISS:          0
cpu0_L1I WRITE        ACCESS:          0 HIT:          0 MISS:          0
cpu0_L1I TRANSLATION  ACCESS:          0 HIT:          0 MISS:          0
cpu0_L1I PREFETCH REQUESTED:          0 ISSUED:          0 USEFUL:          0 USELESS:          0
cpu0_L1I AVERAGE MISS LATENCY: 16.92 cycles
cpu0_L2C TOTAL        ACCESS:    3834604 HIT:    3185078 MISS:     649526
cpu0_L2C LOAD         ACCESS:    3104998 HIT:    2528323 MISS:     576675
cpu0_L2C RFO          ACCESS:     191549 HIT:     143959 MISS:      47590
cpu0_L2C PREFETCH     ACCESS:          0 HIT:          0 MISS:          0
cpu0_L2C WRITE        ACCESS:     511025 HIT:     507858 MISS:       3167
cpu0_L2C TRANSLATION  ACCESS:      27032 HIT:       4938 MISS:      22094
cpu0_L2C PREFETCH REQUESTED:          0 ISSUED:          0 USEFUL:          0 USELESS:          0
cpu0_L2C AVERAGE MISS LATENCY: 270.9 cycles
cpu0_STLB TOTAL        ACCESS:    1008488 HIT:     981795 MISS:      26693
cpu0_STLB LOAD         ACCESS:    1008488 HIT:     981795 MISS:      26693
cpu0_STLB RFO          ACCESS:          0 HIT:          0 MISS:          0
cpu0_STLB PREFETCH     ACCESS:          0 HIT:          0 MISS:          0
cpu0_STLB WRITE        ACCESS:          0 HIT:          0 MISS:          0
cpu0_STLB TRANSLATION  ACCESS:          0 HIT:          0 MISS:          0
cpu0_STLB PREFETCH REQUESTED:          0 ISSUED:          0 USEFUL:          0 USELESS:          0
cpu0_STLB AVERAGE MISS LATENCY: 475.6 cycles

DRAM Statistics

Channel 0 RQ ROW_BUFFER_HIT:      72638
  ROW_BUFFER_MISS:     265855
 AVG DBUS CONGESTED CYCLE: 3.764
WQ ROW_BUFFER_HIT: Channel 0 
  ROW_BUFFER_MISS:       9776
  FULL:      21110
