WARNING: physical memory size is smaller than virtual memory size.

*** ChampSim Multicore Out-of-Order Simulator ***
Warmup Instructions: 50000000
Simulation Instructions: 600000000
Number of CPUs: 1
Page size: 4096

CPU 0 Tage branch predictor
Off-chip DRAM Size: 4 GiB Channels: 1 Width: 64-bit Data Race: 3200 MT/s
Heartbeat CPU 0 instructions: 10000000 cycles: 2500061 heartbeat IPC: 4 cumulative IPC: 4 (Simulation time: 00 hr 00 min 30 sec)
Heartbeat CPU 0 instructions: 20000000 cycles: 5000061 heartbeat IPC: 4 cumulative IPC: 4 (Simulation time: 00 hr 01 min 03 sec)
Heartbeat CPU 0 instructions: 30000000 cycles: 7500061 heartbeat IPC: 4 cumulative IPC: 4 (Simulation time: 00 hr 01 min 38 sec)
Heartbeat CPU 0 instructions: 40000000 cycles: 10000061 heartbeat IPC: 4 cumulative IPC: 4 (Simulation time: 00 hr 02 min 17 sec)
Heartbeat CPU 0 instructions: 50000000 cycles: 12500061 heartbeat IPC: 4 cumulative IPC: 4 (Simulation time: 00 hr 02 min 57 sec)
Warmup finished CPU 0 instructions: 50000000 cycles: 12500062 cumulative IPC: 4 (Simulation time: 00 hr 02 min 57 sec)
Warmup complete CPU 0 instructions: 50000000 cycles: 12500062 cumulative IPC: 4 (Simulation time: 00 hr 02 min 57 sec)
Heartbeat CPU 0 instructions: 60000004 cycles: 15504489 heartbeat IPC: 3.328 cumulative IPC: 3.328 (Simulation time: 00 hr 03 min 44 sec)
Heartbeat CPU 0 instructions: 70000003 cycles: 18370762 heartbeat IPC: 3.489 cumulative IPC: 3.407 (Simulation time: 00 hr 04 min 30 sec)
Heartbeat CPU 0 instructions: 80000002 cycles: 21382300 heartbeat IPC: 3.321 cumulative IPC: 3.378 (Simulation time: 00 hr 05 min 17 sec)
Heartbeat CPU 0 instructions: 90000000 cycles: 24100329 heartbeat IPC: 3.679 cumulative IPC: 3.448 (Simulation time: 00 hr 06 min 02 sec)
Heartbeat CPU 0 instructions: 100000003 cycles: 26857493 heartbeat IPC: 3.627 cumulative IPC: 3.483 (Simulation time: 00 hr 06 min 48 sec)
Heartbeat CPU 0 instructions: 110000001 cycles: 29755202 heartbeat IPC: 3.451 cumulative IPC: 3.477 (Simulation time: 00 hr 07 min 34 sec)
Heartbeat CPU 0 instructions: 120000001 cycles: 32471687 heartbeat IPC: 3.681 cumulative IPC: 3.505 (Simulation time: 00 hr 08 min 19 sec)
Heartbeat CPU 0 instructions: 130000003 cycles: 35371153 heartbeat IPC: 3.449 cumulative IPC: 3.498 (Simulation time: 00 hr 09 min 04 sec)
Heartbeat CPU 0 instructions: 140000002 cycles: 38204957 heartbeat IPC: 3.529 cumulative IPC: 3.501 (Simulation time: 00 hr 09 min 51 sec)
Heartbeat CPU 0 instructions: 150000001 cycles: 40975005 heartbeat IPC: 3.61 cumulative IPC: 3.512 (Simulation time: 00 hr 10 min 42 sec)
Heartbeat CPU 0 instructions: 160000000 cycles: 43892634 heartbeat IPC: 3.427 cumulative IPC: 3.504 (Simulation time: 00 hr 11 min 35 sec)
Heartbeat CPU 0 instructions: 170000001 cycles: 46821114 heartbeat IPC: 3.415 cumulative IPC: 3.496 (Simulation time: 00 hr 12 min 26 sec)
Heartbeat CPU 0 instructions: 180000000 cycles: 49612148 heartbeat IPC: 3.583 cumulative IPC: 3.503 (Simulation time: 00 hr 13 min 14 sec)
Heartbeat CPU 0 instructions: 190000002 cycles: 52319155 heartbeat IPC: 3.694 cumulative IPC: 3.516 (Simulation time: 00 hr 14 min 08 sec)
Heartbeat CPU 0 instructions: 200000002 cycles: 55139904 heartbeat IPC: 3.545 cumulative IPC: 3.518 (Simulation time: 00 hr 15 min 13 sec)
Heartbeat CPU 0 instructions: 210000000 cycles: 58032807 heartbeat IPC: 3.457 cumulative IPC: 3.514 (Simulation time: 00 hr 16 min 20 sec)
Heartbeat CPU 0 instructions: 220000001 cycles: 60785291 heartbeat IPC: 3.633 cumulative IPC: 3.521 (Simulation time: 00 hr 17 min 23 sec)
Heartbeat CPU 0 instructions: 230000002 cycles: 63674464 heartbeat IPC: 3.461 cumulative IPC: 3.517 (Simulation time: 00 hr 18 min 26 sec)
Heartbeat CPU 0 instructions: 240000004 cycles: 66626971 heartbeat IPC: 3.387 cumulative IPC: 3.51 (Simulation time: 00 hr 19 min 32 sec)
Heartbeat CPU 0 instructions: 250000003 cycles: 69517831 heartbeat IPC: 3.459 cumulative IPC: 3.508 (Simulation time: 00 hr 20 min 42 sec)
Heartbeat CPU 0 instructions: 260000001 cycles: 72302568 heartbeat IPC: 3.591 cumulative IPC: 3.512 (Simulation time: 00 hr 21 min 51 sec)
Heartbeat CPU 0 instructions: 270000002 cycles: 78272695 heartbeat IPC: 1.675 cumulative IPC: 3.345 (Simulation time: 00 hr 23 min 30 sec)
Heartbeat CPU 0 instructions: 280000000 cycles: 89472770 heartbeat IPC: 0.8929 cumulative IPC: 2.988 (Simulation time: 00 hr 25 min 54 sec)
Heartbeat CPU 0 instructions: 290000000 cycles: 101645300 heartbeat IPC: 0.8215 cumulative IPC: 2.692 (Simulation time: 00 hr 28 min 23 sec)
Heartbeat CPU 0 instructions: 300000003 cycles: 108275763 heartbeat IPC: 1.508 cumulative IPC: 2.61 (Simulation time: 00 hr 30 min 08 sec)
Heartbeat CPU 0 instructions: 310000001 cycles: 118379139 heartbeat IPC: 0.9898 cumulative IPC: 2.456 (Simulation time: 00 hr 32 min 19 sec)
Heartbeat CPU 0 instructions: 320000004 cycles: 122747107 heartbeat IPC: 2.289 cumulative IPC: 2.449 (Simulation time: 00 hr 33 min 41 sec)
Heartbeat CPU 0 instructions: 330000000 cycles: 125906269 heartbeat IPC: 3.165 cumulative IPC: 2.469 (Simulation time: 00 hr 34 min 48 sec)
Heartbeat CPU 0 instructions: 340000001 cycles: 129132553 heartbeat IPC: 3.1 cumulative IPC: 2.486 (Simulation time: 00 hr 35 min 54 sec)
Heartbeat CPU 0 instructions: 350000000 cycles: 132382447 heartbeat IPC: 3.077 cumulative IPC: 2.502 (Simulation time: 00 hr 37 min 00 sec)
Heartbeat CPU 0 instructions: 360000004 cycles: 135338022 heartbeat IPC: 3.383 cumulative IPC: 2.524 (Simulation time: 00 hr 38 min 08 sec)
Heartbeat CPU 0 instructions: 370000001 cycles: 138154339 heartbeat IPC: 3.551 cumulative IPC: 2.547 (Simulation time: 00 hr 39 min 15 sec)
Heartbeat CPU 0 instructions: 380000004 cycles: 140989566 heartbeat IPC: 3.527 cumulative IPC: 2.568 (Simulation time: 00 hr 40 min 20 sec)
Heartbeat CPU 0 instructions: 390000002 cycles: 143915205 heartbeat IPC: 3.418 cumulative IPC: 2.587 (Simulation time: 00 hr 41 min 25 sec)
Heartbeat CPU 0 instructions: 400000000 cycles: 146904594 heartbeat IPC: 3.345 cumulative IPC: 2.604 (Simulation time: 00 hr 42 min 30 sec)
Heartbeat CPU 0 instructions: 410000000 cycles: 153322508 heartbeat IPC: 1.558 cumulative IPC: 2.556 (Simulation time: 00 hr 44 min 04 sec)
Heartbeat CPU 0 instructions: 420000003 cycles: 163779566 heartbeat IPC: 0.9563 cumulative IPC: 2.446 (Simulation time: 00 hr 46 min 18 sec)
Heartbeat CPU 0 instructions: 430000000 cycles: 170327391 heartbeat IPC: 1.527 cumulative IPC: 2.408 (Simulation time: 00 hr 47 min 58 sec)
Heartbeat CPU 0 instructions: 440000004 cycles: 177328633 heartbeat IPC: 1.428 cumulative IPC: 2.366 (Simulation time: 00 hr 49 min 44 sec)
Heartbeat CPU 0 instructions: 450000001 cycles: 184148188 heartbeat IPC: 1.466 cumulative IPC: 2.33 (Simulation time: 00 hr 51 min 23 sec)
Heartbeat CPU 0 instructions: 460000002 cycles: 196487320 heartbeat IPC: 0.8104 cumulative IPC: 2.228 (Simulation time: 00 hr 53 min 47 sec)
Heartbeat CPU 0 instructions: 470000003 cycles: 205143618 heartbeat IPC: 1.155 cumulative IPC: 2.18 (Simulation time: 00 hr 55 min 42 sec)
Heartbeat CPU 0 instructions: 480000000 cycles: 208655464 heartbeat IPC: 2.848 cumulative IPC: 2.192 (Simulation time: 00 hr 56 min 51 sec)
Heartbeat CPU 0 instructions: 490000001 cycles: 212078318 heartbeat IPC: 2.922 cumulative IPC: 2.205 (Simulation time: 00 hr 58 min 01 sec)
Heartbeat CPU 0 instructions: 500000002 cycles: 215186964 heartbeat IPC: 3.217 cumulative IPC: 2.22 (Simulation time: 00 hr 59 min 08 sec)
Heartbeat CPU 0 instructions: 510000000 cycles: 218122561 heartbeat IPC: 3.406 cumulative IPC: 2.237 (Simulation time: 01 hr 00 min 26 sec)
Heartbeat CPU 0 instructions: 520000000 cycles: 221070587 heartbeat IPC: 3.392 cumulative IPC: 2.253 (Simulation time: 01 hr 01 min 58 sec)
Heartbeat CPU 0 instructions: 530000001 cycles: 230927947 heartbeat IPC: 1.014 cumulative IPC: 2.198 (Simulation time: 01 hr 04 min 29 sec)
Heartbeat CPU 0 instructions: 540000000 cycles: 242038877 heartbeat IPC: 0.9 cumulative IPC: 2.135 (Simulation time: 01 hr 06 min 56 sec)
Heartbeat CPU 0 instructions: 550000004 cycles: 255145533 heartbeat IPC: 0.763 cumulative IPC: 2.061 (Simulation time: 01 hr 09 min 32 sec)
Heartbeat CPU 0 instructions: 560000004 cycles: 258965065 heartbeat IPC: 2.618 cumulative IPC: 2.069 (Simulation time: 01 hr 10 min 45 sec)
Heartbeat CPU 0 instructions: 570000002 cycles: 261791004 heartbeat IPC: 3.539 cumulative IPC: 2.086 (Simulation time: 01 hr 11 min 55 sec)
Heartbeat CPU 0 instructions: 580000000 cycles: 264722378 heartbeat IPC: 3.411 cumulative IPC: 2.101 (Simulation time: 01 hr 13 min 01 sec)
Heartbeat CPU 0 instructions: 590000001 cycles: 267649836 heartbeat IPC: 3.416 cumulative IPC: 2.116 (Simulation time: 01 hr 14 min 10 sec)
Heartbeat CPU 0 instructions: 600000003 cycles: 270343817 heartbeat IPC: 3.712 cumulative IPC: 2.133 (Simulation time: 01 hr 15 min 19 sec)
Heartbeat CPU 0 instructions: 610000001 cycles: 273211686 heartbeat IPC: 3.487 cumulative IPC: 2.148 (Simulation time: 01 hr 16 min 23 sec)
Heartbeat CPU 0 instructions: 620000004 cycles: 276162996 heartbeat IPC: 3.388 cumulative IPC: 2.162 (Simulation time: 01 hr 17 min 31 sec)
Heartbeat CPU 0 instructions: 630000002 cycles: 278975551 heartbeat IPC: 3.555 cumulative IPC: 2.177 (Simulation time: 01 hr 18 min 41 sec)
Heartbeat CPU 0 instructions: 640000004 cycles: 282025252 heartbeat IPC: 3.279 cumulative IPC: 2.189 (Simulation time: 01 hr 19 min 53 sec)
Heartbeat CPU 0 instructions: 650000001 cycles: 284736188 heartbeat IPC: 3.689 cumulative IPC: 2.204 (Simulation time: 01 hr 21 min 17 sec)
Simulation finished CPU 0 instructions: 600000001 cycles: 272236127 cumulative IPC: 2.204 (Simulation time: 01 hr 21 min 17 sec)
Simulation complete CPU 0 instructions: 600000001 cycles: 272236127 cumulative IPC: 2.204 (Simulation time: 01 hr 21 min 17 sec)

ChampSim completed all CPUs

=== Simulation ===
CPU 0 runs traces/400.perlbench-50B.champsimtrace.xz
Region of Interest Statistics

CPU 0 cumulative IPC: 2.204 instructions: 600000001 cycles: 272236127
CPU 0 Branch Prediction Accuracy: 99.01% MPKI: 2.04 Average ROB Occupancy at Mispredict: 96.44
Branch type MPKI
BRANCH_DIRECT_JUMP: 0.0176
BRANCH_INDIRECT: 0.38
BRANCH_CONDITIONAL: 1.19
BRANCH_DIRECT_CALL: 0.0067
BRANCH_INDIRECT_CALL: 0.431
BRANCH_RETURN: 0.0161

LLC TOTAL        ACCESS:     779273 HIT:     356982 MISS:     422291
LLC LOAD         ACCESS:     583063 HIT:     256437 MISS:     326626
LLC RFO          ACCESS:      47150 HIT:      18802 MISS:      28348
LLC PREFETCH     ACCESS:          0 HIT:          0 MISS:          0
LLC WRITE        ACCESS:     127199 HIT:      77604 MISS:      49595
LLC TRANSLATION  ACCESS:      21861 HIT:       4139 MISS:      17722
LLC PREFETCH REQUESTED:          0 ISSUED:          0 USEFUL:          0 USELESS:          0
LLC AVERAGE MISS LATENCY: 546 cycles
cpu0_DTLB TOTAL        ACCESS:  133179190 HIT:  131821328 MISS:    1357862
cpu0_DTLB LOAD         ACCESS:  133179190 HIT:  131821328 MISS:    1357862
cpu0_DTLB RFO          ACCESS:          0 HIT:          0 MISS:          0
cpu0_DTLB PREFETCH     ACCESS:          0 HIT:          0 MISS:          0
cpu0_DTLB WRITE        ACCESS:          0 HIT:          0 MISS:          0
cpu0_DTLB TRANSLATION  ACCESS:          0 HIT:          0 MISS:          0
cpu0_DTLB PREFETCH REQUESTED:          0 ISSUED:          0 USEFUL:          0 USELESS:          0
cpu0_DTLB AVERAGE MISS LATENCY: 14.87 cycles
cpu0_ITLB TOTAL        ACCESS:    8996228 HIT:    8786934 MISS:     209294
cpu0_ITLB LOAD         ACCESS:    8996228 HIT:    8786934 MISS:     209294
cpu0_ITLB RFO          ACCESS:          0 HIT:          0 MISS:          0
cpu0_ITLB PREFETCH     ACCESS:          0 HIT:          0 MISS:          0
cpu0_ITLB WRITE        ACCESS:          0 HIT:          0 MISS:          0
cpu0_ITLB TRANSLATION  ACCESS:          0 HIT:          0 MISS:          0
cpu0_ITLB PREFETCH REQUESTED:          0 ISSUED:          0 USEFUL:          0 USELESS:          0
cpu0_ITLB AVERAGE MISS LATENCY: 3.58 cycles
cpu0_L1D TOTAL        ACCESS:  178186735 HIT:  174362817 MISS:    3823918
cpu0_L1D LOAD         ACCESS:   92669643 HIT:   89530412 MISS:    3139231
cpu0_L1D RFO          ACCESS:          0 HIT:          0 MISS:          0
cpu0_L1D PREFETCH     ACCESS:          0 HIT:          0 MISS:          0
cpu0_L1D WRITE        ACCESS:   85488556 HIT:   84830995 MISS:     657561
cpu0_L1D TRANSLATION  ACCESS:      28536 HIT:       1410 MISS:      27126
cpu0_L1D PREFETCH REQUESTED:          0 ISSUED:          0 USEFUL:          0 USELESS:          0
cpu0_L1D AVERAGE MISS LATENCY: 59.39 cycles
cpu0_L1I TOTAL        ACCESS:   10516081 HIT:    8619908 MISS:    1896173
cpu0_L1I LOAD         ACCESS:   10516081 HIT:    8619908 MISS:    1896173
cpu0_L1I RFO          ACCESS:          0 HIT:          0 MISS:          0
cpu0_L1I PREFETCH     ACCESS:          0 HIT:          0 MISS:          0
cpu0_L1I WRITE        ACCESS:          0 HIT:          0 MISS:          0
cpu0_L1I TRANSLATION  ACCESS:          0 HIT:          0 MISS:          0
cpu0_L1I PREFETCH REQUESTED:          0 ISSUED:          0 USEFUL:          0 USELESS:          0
cpu0_L1I AVERAGE MISS LATENCY: 17.4 cycles
cpu0_L2C TOTAL        ACCESS:    3840184 HIT:    3184760 MISS:     655424
cpu0_L2C LOAD         ACCESS:    3103734 HIT:    2520671 MISS:     583063
cpu0_L2C RFO          ACCESS:     194947 HIT:     147797 MISS:      47150
cpu0_L2C PREFETCH     ACCESS:          0 HIT:          0 MISS:          0
cpu0_L2C WRITE        ACCESS:     514460 HIT:     511110 MISS:       3350
cpu0_L2C TRANSLATION  ACCESS:      27043 HIT:       5182 MISS:      21861
cpu0_L2C PREFETCH REQUESTED:          0 ISSUED:          0 USEFUL:          0 USELESS:          0
cpu0_L2C AVERAGE MISS LATENCY: 372.3 cycles
cpu0_STLB TOTAL        ACCESS:    1010298 HIT:     983607 MISS:      26691
cpu0_STLB LOAD         ACCESS:    1010298 HIT:     983607 MISS:      26691
cpu0_STLB RFO          ACCESS:          0 HIT:          0 MISS:          0
cpu0_STLB PREFETCH     ACCESS:          0 HIT:          0 MISS:          0
cpu0_STLB WRITE        ACCESS:          0 HIT:          0 MISS:          0
cpu0_STLB TRANSLATION  ACCESS:          0 HIT:          0 MISS:          0
cpu0_STLB PREFETCH REQUESTED:          0 ISSUED:          0 USEFUL:          0 USELESS:          0
cpu0_STLB AVERAGE MISS LATENCY: 568.5 cycles

DRAM Statistics

Channel 0 RQ ROW_BUFFER_HIT:      56687
  ROW_BUFFER_MISS:     315085
 AVG DBUS CONGESTED CYCLE: 3.854
WQ ROW_BUFFER_HIT: Channel 0 
  ROW_BUFFER_MISS:       9264
  FULL:      61004
