WARNING: physical memory size is smaller than virtual memory size.

*** ChampSim Multicore Out-of-Order Simulator ***
Warmup Instructions: 50000000
Simulation Instructions: 600000000
Number of CPUs: 1
Page size: 4096

Off-chip DRAM Size: 4 GiB Channels: 1 Width: 64-bit Data Race: 3200 MT/s
Heartbeat CPU 0 instructions: 10000000 cycles: 2500061 heartbeat IPC: 4 cumulative IPC: 4 (Simulation time: 00 hr 00 min 47 sec)
Heartbeat CPU 0 instructions: 20000000 cycles: 5000061 heartbeat IPC: 4 cumulative IPC: 4 (Simulation time: 00 hr 01 min 34 sec)
Heartbeat CPU 0 instructions: 30000000 cycles: 7500061 heartbeat IPC: 4 cumulative IPC: 4 (Simulation time: 00 hr 02 min 22 sec)
Heartbeat CPU 0 instructions: 40000000 cycles: 10000061 heartbeat IPC: 4 cumulative IPC: 4 (Simulation time: 00 hr 03 min 12 sec)
Heartbeat CPU 0 instructions: 50000000 cycles: 12500061 heartbeat IPC: 4 cumulative IPC: 4 (Simulation time: 00 hr 04 min 09 sec)
Warmup finished CPU 0 instructions: 50000000 cycles: 12500062 cumulative IPC: 4 (Simulation time: 00 hr 04 min 09 sec)
Warmup complete CPU 0 instructions: 50000000 cycles: 12500062 cumulative IPC: 4 (Simulation time: 00 hr 04 min 09 sec)
Heartbeat CPU 0 instructions: 60000002 cycles: 16446623 heartbeat IPC: 2.534 cumulative IPC: 2.534 (Simulation time: 00 hr 05 min 26 sec)
Heartbeat CPU 0 instructions: 70000003 cycles: 20770663 heartbeat IPC: 2.313 cumulative IPC: 2.418 (Simulation time: 00 hr 06 min 41 sec)
Heartbeat CPU 0 instructions: 80000003 cycles: 25247437 heartbeat IPC: 2.234 cumulative IPC: 2.353 (Simulation time: 00 hr 07 min 51 sec)
Heartbeat CPU 0 instructions: 90000000 cycles: 28939876 heartbeat IPC: 2.708 cumulative IPC: 2.433 (Simulation time: 00 hr 08 min 51 sec)
Heartbeat CPU 0 instructions: 100000003 cycles: 32843908 heartbeat IPC: 2.561 cumulative IPC: 2.458 (Simulation time: 00 hr 09 min 53 sec)
Heartbeat CPU 0 instructions: 110000002 cycles: 36950135 heartbeat IPC: 2.435 cumulative IPC: 2.454 (Simulation time: 00 hr 10 min 55 sec)
Heartbeat CPU 0 instructions: 120000001 cycles: 40668359 heartbeat IPC: 2.689 cumulative IPC: 2.485 (Simulation time: 00 hr 11 min 57 sec)
Heartbeat CPU 0 instructions: 130000003 cycles: 44444328 heartbeat IPC: 2.648 cumulative IPC: 2.504 (Simulation time: 00 hr 12 min 57 sec)
Heartbeat CPU 0 instructions: 140000002 cycles: 48579315 heartbeat IPC: 2.418 cumulative IPC: 2.495 (Simulation time: 00 hr 13 min 59 sec)
Heartbeat CPU 0 instructions: 150000001 cycles: 52632664 heartbeat IPC: 2.467 cumulative IPC: 2.492 (Simulation time: 00 hr 14 min 59 sec)
Heartbeat CPU 0 instructions: 160000000 cycles: 56291651 heartbeat IPC: 2.733 cumulative IPC: 2.512 (Simulation time: 00 hr 15 min 57 sec)
Heartbeat CPU 0 instructions: 170000001 cycles: 60472265 heartbeat IPC: 2.392 cumulative IPC: 2.501 (Simulation time: 00 hr 16 min 59 sec)
Heartbeat CPU 0 instructions: 180000001 cycles: 63937266 heartbeat IPC: 2.886 cumulative IPC: 2.527 (Simulation time: 00 hr 18 min 03 sec)
Heartbeat CPU 0 instructions: 190000002 cycles: 67527991 heartbeat IPC: 2.785 cumulative IPC: 2.544 (Simulation time: 00 hr 19 min 17 sec)
Heartbeat CPU 0 instructions: 200000002 cycles: 71313896 heartbeat IPC: 2.641 cumulative IPC: 2.55 (Simulation time: 00 hr 20 min 27 sec)
Heartbeat CPU 0 instructions: 210000000 cycles: 74955829 heartbeat IPC: 2.746 cumulative IPC: 2.562 (Simulation time: 00 hr 21 min 32 sec)
Heartbeat CPU 0 instructions: 220000001 cycles: 78831156 heartbeat IPC: 2.58 cumulative IPC: 2.563 (Simulation time: 00 hr 22 min 35 sec)
Heartbeat CPU 0 instructions: 230000002 cycles: 82674752 heartbeat IPC: 2.602 cumulative IPC: 2.565 (Simulation time: 00 hr 23 min 37 sec)
Heartbeat CPU 0 instructions: 240000001 cycles: 86887213 heartbeat IPC: 2.374 cumulative IPC: 2.554 (Simulation time: 00 hr 24 min 40 sec)
Heartbeat CPU 0 instructions: 250000003 cycles: 91460345 heartbeat IPC: 2.187 cumulative IPC: 2.533 (Simulation time: 00 hr 25 min 44 sec)
Heartbeat CPU 0 instructions: 260000000 cycles: 95258723 heartbeat IPC: 2.633 cumulative IPC: 2.537 (Simulation time: 00 hr 26 min 48 sec)
Heartbeat CPU 0 instructions: 270000003 cycles: 102500853 heartbeat IPC: 1.381 cumulative IPC: 2.444 (Simulation time: 00 hr 28 min 16 sec)
Heartbeat CPU 0 instructions: 280000000 cycles: 113963508 heartbeat IPC: 0.8724 cumulative IPC: 2.267 (Simulation time: 00 hr 30 min 17 sec)
Heartbeat CPU 0 instructions: 290000000 cycles: 124169522 heartbeat IPC: 0.9798 cumulative IPC: 2.149 (Simulation time: 00 hr 32 min 13 sec)
Heartbeat CPU 0 instructions: 300000003 cycles: 131607346 heartbeat IPC: 1.344 cumulative IPC: 2.099 (Simulation time: 00 hr 33 min 57 sec)
Heartbeat CPU 0 instructions: 310000004 cycles: 142419841 heartbeat IPC: 0.9249 cumulative IPC: 2.001 (Simulation time: 00 hr 36 min 03 sec)
Heartbeat CPU 0 instructions: 320000004 cycles: 147473515 heartbeat IPC: 1.979 cumulative IPC: 2 (Simulation time: 00 hr 37 min 17 sec)
Heartbeat CPU 0 instructions: 330000000 cycles: 151550869 heartbeat IPC: 2.453 cumulative IPC: 2.014 (Simulation time: 00 hr 38 min 20 sec)
Heartbeat CPU 0 instructions: 340000001 cycles: 155877797 heartbeat IPC: 2.311 cumulative IPC: 2.023 (Simulation time: 00 hr 39 min 21 sec)
Heartbeat CPU 0 instructions: 350000004 cycles: 160350649 heartbeat IPC: 2.236 cumulative IPC: 2.029 (Simulation time: 00 hr 40 min 25 sec)
Heartbeat CPU 0 instructions: 360000003 cycles: 164521841 heartbeat IPC: 2.397 cumulative IPC: 2.039 (Simulation time: 00 hr 41 min 33 sec)
Heartbeat CPU 0 instructions: 370000001 cycles: 168590620 heartbeat IPC: 2.458 cumulative IPC: 2.05 (Simulation time: 00 hr 42 min 37 sec)
Heartbeat CPU 0 instructions: 380000004 cycles: 172517802 heartbeat IPC: 2.546 cumulative IPC: 2.062 (Simulation time: 00 hr 43 min 40 sec)
Heartbeat CPU 0 instructions: 390000002 cycles: 176622755 heartbeat IPC: 2.436 cumulative IPC: 2.072 (Simulation time: 00 hr 44 min 44 sec)
Heartbeat CPU 0 instructions: 400000000 cycles: 181014458 heartbeat IPC: 2.277 cumulative IPC: 2.077 (Simulation time: 00 hr 45 min 48 sec)
Heartbeat CPU 0 instructions: 410000000 cycles: 188608193 heartbeat IPC: 1.317 cumulative IPC: 2.044 (Simulation time: 00 hr 47 min 18 sec)
Heartbeat CPU 0 instructions: 420000003 cycles: 199912240 heartbeat IPC: 0.8846 cumulative IPC: 1.974 (Simulation time: 00 hr 49 min 44 sec)
Heartbeat CPU 0 instructions: 430000000 cycles: 207613242 heartbeat IPC: 1.299 cumulative IPC: 1.948 (Simulation time: 00 hr 51 min 43 sec)
Heartbeat CPU 0 instructions: 440000004 cycles: 214287794 heartbeat IPC: 1.498 cumulative IPC: 1.933 (Simulation time: 00 hr 53 min 18 sec)
Heartbeat CPU 0 instructions: 450000001 cycles: 221147381 heartbeat IPC: 1.458 cumulative IPC: 1.917 (Simulation time: 00 hr 54 min 54 sec)
Heartbeat CPU 0 instructions: 460000002 cycles: 231823008 heartbeat IPC: 0.9367 cumulative IPC: 1.869 (Simulation time: 00 hr 57 min 07 sec)
Heartbeat CPU 0 instructions: 470000003 cycles: 240948561 heartbeat IPC: 1.096 cumulative IPC: 1.838 (Simulation time: 00 hr 58 min 59 sec)
Heartbeat CPU 0 instructions: 480000003 cycles: 245242139 heartbeat IPC: 2.329 cumulative IPC: 1.848 (Simulation time: 01 hr 00 min 05 sec)
Heartbeat CPU 0 instructions: 490000001 cycles: 250014546 heartbeat IPC: 2.095 cumulative IPC: 1.853 (Simulation time: 01 hr 01 min 14 sec)
Heartbeat CPU 0 instructions: 500000002 cycles: 254498876 heartbeat IPC: 2.23 cumulative IPC: 1.86 (Simulation time: 01 hr 02 min 20 sec)
Heartbeat CPU 0 instructions: 510000000 cycles: 258800220 heartbeat IPC: 2.325 cumulative IPC: 1.868 (Simulation time: 01 hr 03 min 25 sec)
Heartbeat CPU 0 instructions: 520000000 cycles: 263292802 heartbeat IPC: 2.226 cumulative IPC: 1.874 (Simulation time: 01 hr 04 min 31 sec)
Heartbeat CPU 0 instructions: 530000001 cycles: 274789831 heartbeat IPC: 0.8698 cumulative IPC: 1.83 (Simulation time: 01 hr 06 min 30 sec)
Heartbeat CPU 0 instructions: 540000000 cycles: 285822813 heartbeat IPC: 0.9064 cumulative IPC: 1.793 (Simulation time: 01 hr 08 min 22 sec)
Heartbeat CPU 0 instructions: 550000004 cycles: 298445850 heartbeat IPC: 0.7922 cumulative IPC: 1.749 (Simulation time: 01 hr 10 min 25 sec)
Heartbeat CPU 0 instructions: 560000004 cycles: 302622447 heartbeat IPC: 2.394 cumulative IPC: 1.758 (Simulation time: 01 hr 11 min 24 sec)
Heartbeat CPU 0 instructions: 570000001 cycles: 305754336 heartbeat IPC: 3.193 cumulative IPC: 1.773 (Simulation time: 01 hr 12 min 19 sec)
Heartbeat CPU 0 instructions: 580000003 cycles: 309304678 heartbeat IPC: 2.817 cumulative IPC: 1.786 (Simulation time: 01 hr 13 min 18 sec)
Heartbeat CPU 0 instructions: 590000002 cycles: 312932542 heartbeat IPC: 2.756 cumulative IPC: 1.797 (Simulation time: 01 hr 14 min 17 sec)
Heartbeat CPU 0 instructions: 600000003 cycles: 316000098 heartbeat IPC: 3.26 cumulative IPC: 1.812 (Simulation time: 01 hr 15 min 17 sec)
Heartbeat CPU 0 instructions: 610000001 cycles: 319510805 heartbeat IPC: 2.848 cumulative IPC: 1.824 (Simulation time: 01 hr 16 min 14 sec)
Heartbeat CPU 0 instructions: 620000000 cycles: 323528304 heartbeat IPC: 2.489 cumulative IPC: 1.833 (Simulation time: 01 hr 17 min 14 sec)
Heartbeat CPU 0 instructions: 630000002 cycles: 326895724 heartbeat IPC: 2.97 cumulative IPC: 1.845 (Simulation time: 01 hr 18 min 08 sec)
Heartbeat CPU 0 instructions: 640000004 cycles: 330910664 heartbeat IPC: 2.491 cumulative IPC: 1.853 (Simulation time: 01 hr 19 min 01 sec)
Heartbeat CPU 0 instructions: 650000001 cycles: 334734242 heartbeat IPC: 2.615 cumulative IPC: 1.862 (Simulation time: 01 hr 19 min 50 sec)
Simulation finished CPU 0 instructions: 600000001 cycles: 322234181 cumulative IPC: 1.862 (Simulation time: 01 hr 19 min 50 sec)
Simulation complete CPU 0 instructions: 600000001 cycles: 322234181 cumulative IPC: 1.862 (Simulation time: 01 hr 19 min 50 sec)

ChampSim completed all CPUs

=== Simulation ===
CPU 0 runs traces/400.perlbench-50B.champsimtrace.xz
Region of Interest Statistics

CPU 0 cumulative IPC: 1.862 instructions: 600000001 cycles: 322234181
CPU 0 Branch Prediction Accuracy: 96.2% MPKI: 7.839 Average ROB Occupancy at Mispredict: 43.75
Branch type MPKI
BRANCH_DIRECT_JUMP: 0.0176
BRANCH_INDIRECT: 0.38
BRANCH_CONDITIONAL: 6.99
BRANCH_DIRECT_CALL: 0.0067
BRANCH_INDIRECT_CALL: 0.431
BRANCH_RETURN: 0.0161

LLC TOTAL        ACCESS:     783792 HIT:     489260 MISS:     294532
LLC LOAD         ACCESS:     585777 HIT:     323104 MISS:     262673
LLC RFO          ACCESS:      47607 HIT:      27828 MISS:      19779
LLC PREFETCH     ACCESS:          0 HIT:          0 MISS:          0
LLC WRITE        ACCESS:     128305 HIT:     127927 MISS:        378
LLC TRANSLATION  ACCESS:      22103 HIT:      10401 MISS:      11702
LLC PREFETCH REQUESTED:          0 ISSUED:          0 USEFUL:          0 USELESS:          0
LLC AVERAGE MISS LATENCY: 544.6 cycles
cpu0_DTLB TOTAL        ACCESS:  146503397 HIT:  145197073 MISS:    1306324
cpu0_DTLB LOAD         ACCESS:  146503397 HIT:  145197073 MISS:    1306324
cpu0_DTLB RFO          ACCESS:          0 HIT:          0 MISS:          0
cpu0_DTLB PREFETCH     ACCESS:          0 HIT:          0 MISS:          0
cpu0_DTLB WRITE        ACCESS:          0 HIT:          0 MISS:          0
cpu0_DTLB TRANSLATION  ACCESS:          0 HIT:          0 MISS:          0
cpu0_DTLB PREFETCH REQUESTED:          0 ISSUED:          0 USEFUL:          0 USELESS:          0
cpu0_DTLB AVERAGE MISS LATENCY: 11.7 cycles
cpu0_ITLB TOTAL        ACCESS:    8990964 HIT:    8806387 MISS:     184577
cpu0_ITLB LOAD         ACCESS:    8990964 HIT:    8806387 MISS:     184577
cpu0_ITLB RFO          ACCESS:          0 HIT:          0 MISS:          0
cpu0_ITLB PREFETCH     ACCESS:          0 HIT:          0 MISS:          0
cpu0_ITLB WRITE        ACCESS:          0 HIT:          0 MISS:          0
cpu0_ITLB TRANSLATION  ACCESS:          0 HIT:          0 MISS:          0
cpu0_ITLB PREFETCH REQUESTED:          0 ISSUED:          0 USEFUL:          0 USELESS:          0
cpu0_ITLB AVERAGE MISS LATENCY: 3.521 cycles
cpu0_L1D TOTAL        ACCESS:  193270099 HIT:  189601553 MISS:    3668546
cpu0_L1D LOAD         ACCESS:  107425154 HIT:  104407621 MISS:    3017533
cpu0_L1D RFO          ACCESS:          0 HIT:          0 MISS:          0
cpu0_L1D PREFETCH     ACCESS:          0 HIT:          0 MISS:          0
cpu0_L1D WRITE        ACCESS:   85816417 HIT:   85192504 MISS:     623913
cpu0_L1D TRANSLATION  ACCESS:      28528 HIT:       1428 MISS:      27100
cpu0_L1D PREFETCH REQUESTED:          0 ISSUED:          0 USEFUL:          0 USELESS:          0
cpu0_L1D AVERAGE MISS LATENCY: 48.97 cycles
cpu0_L1I TOTAL        ACCESS:   10425058 HIT:    8662509 MISS:    1762549
cpu0_L1I LOAD         ACCESS:   10425058 HIT:    8662509 MISS:    1762549
cpu0_L1I RFO          ACCESS:          0 HIT:          0 MISS:          0
cpu0_L1I PREFETCH     ACCESS:          0 HIT:          0 MISS:          0
cpu0_L1I WRITE        ACCESS:          0 HIT:          0 MISS:          0
cpu0_L1I TRANSLATION  ACCESS:          0 HIT:          0 MISS:          0
cpu0_L1I PREFETCH REQUESTED:          0 ISSUED:          0 USEFUL:          0 USELESS:          0
cpu0_L1I AVERAGE MISS LATENCY: 10.79 cycles
cpu0_L2C TOTAL        ACCESS:    3834532 HIT:    3175829 MISS:     658703
cpu0_L2C LOAD         ACCESS:    3104879 HIT:    2519102 MISS:     585777
cpu0_L2C RFO          ACCESS:     191565 HIT:     143958 MISS:      47607
cpu0_L2C PREFETCH     ACCESS:          0 HIT:          0 MISS:          0
cpu0_L2C WRITE        ACCESS:     511051 HIT:     507835 MISS:       3216
cpu0_L2C TRANSLATION  ACCESS:      27037 HIT:       4934 MISS:      22103
cpu0_L2C PREFETCH REQUESTED:          0 ISSUED:          0 USEFUL:          0 USELESS:          0
cpu0_L2C AVERAGE MISS LATENCY: 263.9 cycles
cpu0_STLB TOTAL        ACCESS:    1008786 HIT:     982091 MISS:      26695
cpu0_STLB LOAD         ACCESS:    1008786 HIT:     982091 MISS:      26695
cpu0_STLB RFO          ACCESS:          0 HIT:          0 MISS:          0
cpu0_STLB PREFETCH     ACCESS:          0 HIT:          0 MISS:          0
cpu0_STLB WRITE        ACCESS:          0 HIT:          0 MISS:          0
cpu0_STLB TRANSLATION  ACCESS:          0 HIT:          0 MISS:          0
cpu0_STLB PREFETCH REQUESTED:          0 ISSUED:          0 USEFUL:          0 USELESS:          0
cpu0_STLB AVERAGE MISS LATENCY: 353.7 cycles

DRAM Statistics

Channel 0 RQ ROW_BUFFER_HIT:      55831
  ROW_BUFFER_MISS:     238302
 AVG DBUS CONGESTED CYCLE: 3.796
WQ ROW_BUFFER_HIT: Channel 0 
  ROW_BUFFER_MISS:       9085
  FULL:      33442
