WARNING: physical memory size is smaller than virtual memory size.

*** ChampSim Multicore Out-of-Order Simulator ***
Warmup Instructions: 50000000
Simulation Instructions: 600000000
Number of CPUs: 1
Page size: 4096

CPU 0 Tage branch predictor
Off-chip DRAM Size: 4 GiB Channels: 1 Width: 64-bit Data Race: 3200 MT/s
Heartbeat CPU 0 instructions: 10000000 cycles: 2500061 heartbeat IPC: 4 cumulative IPC: 4 (Simulation time: 00 hr 00 min 52 sec)
Heartbeat CPU 0 instructions: 20000000 cycles: 5000061 heartbeat IPC: 4 cumulative IPC: 4 (Simulation time: 00 hr 01 min 46 sec)
Heartbeat CPU 0 instructions: 30000000 cycles: 7500061 heartbeat IPC: 4 cumulative IPC: 4 (Simulation time: 00 hr 02 min 39 sec)
Heartbeat CPU 0 instructions: 40000000 cycles: 10000061 heartbeat IPC: 4 cumulative IPC: 4 (Simulation time: 00 hr 03 min 32 sec)
Heartbeat CPU 0 instructions: 50000000 cycles: 12500061 heartbeat IPC: 4 cumulative IPC: 4 (Simulation time: 00 hr 04 min 25 sec)
Warmup finished CPU 0 instructions: 50000000 cycles: 12500062 cumulative IPC: 4 (Simulation time: 00 hr 04 min 25 sec)
Warmup complete CPU 0 instructions: 50000000 cycles: 12500062 cumulative IPC: 4 (Simulation time: 00 hr 04 min 25 sec)
Heartbeat CPU 0 instructions: 60000004 cycles: 15504489 heartbeat IPC: 3.328 cumulative IPC: 3.328 (Simulation time: 00 hr 05 min 30 sec)
Heartbeat CPU 0 instructions: 70000003 cycles: 18370762 heartbeat IPC: 3.489 cumulative IPC: 3.407 (Simulation time: 00 hr 06 min 29 sec)
Heartbeat CPU 0 instructions: 80000002 cycles: 21382300 heartbeat IPC: 3.321 cumulative IPC: 3.378 (Simulation time: 00 hr 07 min 20 sec)
Heartbeat CPU 0 instructions: 90000000 cycles: 24100329 heartbeat IPC: 3.679 cumulative IPC: 3.448 (Simulation time: 00 hr 08 min 08 sec)
Heartbeat CPU 0 instructions: 100000003 cycles: 26857493 heartbeat IPC: 3.627 cumulative IPC: 3.483 (Simulation time: 00 hr 08 min 51 sec)
Heartbeat CPU 0 instructions: 110000001 cycles: 29755202 heartbeat IPC: 3.451 cumulative IPC: 3.477 (Simulation time: 00 hr 09 min 34 sec)
Heartbeat CPU 0 instructions: 120000001 cycles: 32471687 heartbeat IPC: 3.681 cumulative IPC: 3.505 (Simulation time: 00 hr 10 min 11 sec)
Heartbeat CPU 0 instructions: 130000003 cycles: 35371153 heartbeat IPC: 3.449 cumulative IPC: 3.498 (Simulation time: 00 hr 10 min 43 sec)
Heartbeat CPU 0 instructions: 140000002 cycles: 38204957 heartbeat IPC: 3.529 cumulative IPC: 3.501 (Simulation time: 00 hr 11 min 15 sec)
Heartbeat CPU 0 instructions: 150000001 cycles: 40975005 heartbeat IPC: 3.61 cumulative IPC: 3.512 (Simulation time: 00 hr 11 min 46 sec)
Heartbeat CPU 0 instructions: 160000000 cycles: 43892634 heartbeat IPC: 3.427 cumulative IPC: 3.504 (Simulation time: 00 hr 12 min 13 sec)
Heartbeat CPU 0 instructions: 170000001 cycles: 46821114 heartbeat IPC: 3.415 cumulative IPC: 3.496 (Simulation time: 00 hr 12 min 41 sec)
Heartbeat CPU 0 instructions: 180000000 cycles: 49612148 heartbeat IPC: 3.583 cumulative IPC: 3.503 (Simulation time: 00 hr 13 min 07 sec)
Heartbeat CPU 0 instructions: 190000002 cycles: 52319155 heartbeat IPC: 3.694 cumulative IPC: 3.516 (Simulation time: 00 hr 13 min 33 sec)
Heartbeat CPU 0 instructions: 200000002 cycles: 55139904 heartbeat IPC: 3.545 cumulative IPC: 3.518 (Simulation time: 00 hr 13 min 59 sec)
Heartbeat CPU 0 instructions: 210000000 cycles: 58032807 heartbeat IPC: 3.457 cumulative IPC: 3.514 (Simulation time: 00 hr 14 min 26 sec)
Heartbeat CPU 0 instructions: 220000001 cycles: 60785771 heartbeat IPC: 3.632 cumulative IPC: 3.521 (Simulation time: 00 hr 14 min 51 sec)
Heartbeat CPU 0 instructions: 230000002 cycles: 63674944 heartbeat IPC: 3.461 cumulative IPC: 3.517 (Simulation time: 00 hr 15 min 18 sec)
Heartbeat CPU 0 instructions: 240000004 cycles: 66627291 heartbeat IPC: 3.387 cumulative IPC: 3.51 (Simulation time: 00 hr 15 min 45 sec)
Heartbeat CPU 0 instructions: 250000003 cycles: 69519121 heartbeat IPC: 3.458 cumulative IPC: 3.508 (Simulation time: 00 hr 16 min 10 sec)
Heartbeat CPU 0 instructions: 260000001 cycles: 72304092 heartbeat IPC: 3.591 cumulative IPC: 3.511 (Simulation time: 00 hr 16 min 35 sec)
Heartbeat CPU 0 instructions: 270000002 cycles: 78173545 heartbeat IPC: 1.704 cumulative IPC: 3.35 (Simulation time: 00 hr 17 min 10 sec)
Heartbeat CPU 0 instructions: 280000000 cycles: 88287914 heartbeat IPC: 0.9887 cumulative IPC: 3.035 (Simulation time: 00 hr 17 min 58 sec)
Heartbeat CPU 0 instructions: 290000000 cycles: 97121417 heartbeat IPC: 1.132 cumulative IPC: 2.836 (Simulation time: 00 hr 18 min 43 sec)
Heartbeat CPU 0 instructions: 300000003 cycles: 102667755 heartbeat IPC: 1.803 cumulative IPC: 2.773 (Simulation time: 00 hr 19 min 20 sec)
Heartbeat CPU 0 instructions: 310000001 cycles: 111510780 heartbeat IPC: 1.131 cumulative IPC: 2.626 (Simulation time: 00 hr 20 min 05 sec)
Heartbeat CPU 0 instructions: 320000004 cycles: 115411992 heartbeat IPC: 2.563 cumulative IPC: 2.624 (Simulation time: 00 hr 20 min 34 sec)
Heartbeat CPU 0 instructions: 330000000 cycles: 118547578 heartbeat IPC: 3.189 cumulative IPC: 2.64 (Simulation time: 00 hr 20 min 59 sec)
Heartbeat CPU 0 instructions: 340000001 cycles: 121681161 heartbeat IPC: 3.191 cumulative IPC: 2.656 (Simulation time: 00 hr 21 min 24 sec)
Heartbeat CPU 0 instructions: 350000000 cycles: 125034080 heartbeat IPC: 2.982 cumulative IPC: 2.666 (Simulation time: 00 hr 21 min 51 sec)
Heartbeat CPU 0 instructions: 360000004 cycles: 128198180 heartbeat IPC: 3.16 cumulative IPC: 2.679 (Simulation time: 00 hr 22 min 17 sec)
Heartbeat CPU 0 instructions: 370000001 cycles: 131278894 heartbeat IPC: 3.246 cumulative IPC: 2.694 (Simulation time: 00 hr 22 min 42 sec)
Heartbeat CPU 0 instructions: 380000004 cycles: 134388823 heartbeat IPC: 3.216 cumulative IPC: 2.707 (Simulation time: 00 hr 23 min 07 sec)
Heartbeat CPU 0 instructions: 390000002 cycles: 137689207 heartbeat IPC: 3.03 cumulative IPC: 2.716 (Simulation time: 00 hr 23 min 34 sec)
Heartbeat CPU 0 instructions: 400000000 cycles: 141029426 heartbeat IPC: 2.994 cumulative IPC: 2.723 (Simulation time: 00 hr 24 min 00 sec)
Heartbeat CPU 0 instructions: 410000000 cycles: 147758182 heartbeat IPC: 1.486 cumulative IPC: 2.662 (Simulation time: 00 hr 24 min 37 sec)
Heartbeat CPU 0 instructions: 420000003 cycles: 157572778 heartbeat IPC: 1.019 cumulative IPC: 2.55 (Simulation time: 00 hr 25 min 25 sec)
Heartbeat CPU 0 instructions: 430000000 cycles: 163393988 heartbeat IPC: 1.718 cumulative IPC: 2.518 (Simulation time: 00 hr 26 min 00 sec)
Heartbeat CPU 0 instructions: 440000004 cycles: 168870874 heartbeat IPC: 1.826 cumulative IPC: 2.494 (Simulation time: 00 hr 26 min 34 sec)
Heartbeat CPU 0 instructions: 450000001 cycles: 174053408 heartbeat IPC: 1.93 cumulative IPC: 2.476 (Simulation time: 00 hr 27 min 07 sec)
Heartbeat CPU 0 instructions: 460000002 cycles: 183577134 heartbeat IPC: 1.05 cumulative IPC: 2.397 (Simulation time: 00 hr 27 min 53 sec)
Heartbeat CPU 0 instructions: 470000003 cycles: 191539463 heartbeat IPC: 1.256 cumulative IPC: 2.346 (Simulation time: 00 hr 28 min 35 sec)
Heartbeat CPU 0 instructions: 480000000 cycles: 194912496 heartbeat IPC: 2.965 cumulative IPC: 2.357 (Simulation time: 00 hr 29 min 02 sec)
Heartbeat CPU 0 instructions: 490000001 cycles: 198494369 heartbeat IPC: 2.792 cumulative IPC: 2.366 (Simulation time: 00 hr 29 min 29 sec)
Heartbeat CPU 0 instructions: 500000002 cycles: 201995090 heartbeat IPC: 2.857 cumulative IPC: 2.375 (Simulation time: 00 hr 29 min 57 sec)
Heartbeat CPU 0 instructions: 510000000 cycles: 205451226 heartbeat IPC: 2.893 cumulative IPC: 2.384 (Simulation time: 00 hr 30 min 24 sec)
Heartbeat CPU 0 instructions: 520000000 cycles: 208944737 heartbeat IPC: 2.862 cumulative IPC: 2.393 (Simulation time: 00 hr 30 min 51 sec)
Heartbeat CPU 0 instructions: 530000001 cycles: 219103502 heartbeat IPC: 0.9844 cumulative IPC: 2.323 (Simulation time: 00 hr 31 min 38 sec)
Heartbeat CPU 0 instructions: 540000000 cycles: 228815978 heartbeat IPC: 1.03 cumulative IPC: 2.265 (Simulation time: 00 hr 32 min 26 sec)
Heartbeat CPU 0 instructions: 550000004 cycles: 239944319 heartbeat IPC: 0.8986 cumulative IPC: 2.198 (Simulation time: 00 hr 33 min 18 sec)
Heartbeat CPU 0 instructions: 560000004 cycles: 243680864 heartbeat IPC: 2.676 cumulative IPC: 2.206 (Simulation time: 00 hr 33 min 44 sec)
Heartbeat CPU 0 instructions: 570000002 cycles: 246504177 heartbeat IPC: 3.542 cumulative IPC: 2.222 (Simulation time: 00 hr 34 min 09 sec)
Heartbeat CPU 0 instructions: 580000000 cycles: 249429771 heartbeat IPC: 3.418 cumulative IPC: 2.237 (Simulation time: 00 hr 34 min 33 sec)
Heartbeat CPU 0 instructions: 590000001 cycles: 252356256 heartbeat IPC: 3.417 cumulative IPC: 2.251 (Simulation time: 00 hr 34 min 57 sec)
Heartbeat CPU 0 instructions: 600000003 cycles: 255049847 heartbeat IPC: 3.713 cumulative IPC: 2.268 (Simulation time: 00 hr 35 min 21 sec)
Heartbeat CPU 0 instructions: 610000001 cycles: 257914454 heartbeat IPC: 3.491 cumulative IPC: 2.282 (Simulation time: 00 hr 35 min 45 sec)
Heartbeat CPU 0 instructions: 620000004 cycles: 260867588 heartbeat IPC: 3.386 cumulative IPC: 2.295 (Simulation time: 00 hr 36 min 08 sec)
Heartbeat CPU 0 instructions: 630000002 cycles: 263676437 heartbeat IPC: 3.56 cumulative IPC: 2.309 (Simulation time: 00 hr 36 min 31 sec)
Heartbeat CPU 0 instructions: 640000004 cycles: 266703533 heartbeat IPC: 3.303 cumulative IPC: 2.321 (Simulation time: 00 hr 36 min 54 sec)
Heartbeat CPU 0 instructions: 650000001 cycles: 269407060 heartbeat IPC: 3.699 cumulative IPC: 2.335 (Simulation time: 00 hr 37 min 16 sec)
Simulation finished CPU 0 instructions: 600000001 cycles: 256906999 cumulative IPC: 2.335 (Simulation time: 00 hr 37 min 16 sec)
Simulation complete CPU 0 instructions: 600000001 cycles: 256906999 cumulative IPC: 2.335 (Simulation time: 00 hr 37 min 16 sec)

ChampSim completed all CPUs

=== Simulation ===
CPU 0 runs traces/400.perlbench-50B.champsimtrace.xz
Region of Interest Statistics

CPU 0 cumulative IPC: 2.335 instructions: 600000001 cycles: 256906999
CPU 0 Branch Prediction Accuracy: 99.01% MPKI: 2.04 Average ROB Occupancy at Mispredict: 95.46
Branch type MPKI
BRANCH_DIRECT_JUMP: 0.0176
BRANCH_INDIRECT: 0.38
BRANCH_CONDITIONAL: 1.19
BRANCH_DIRECT_CALL: 0.0067
BRANCH_INDIRECT_CALL: 0.431
BRANCH_RETURN: 0.0161

LLC TOTAL        ACCESS:     770954 HIT:     430588 MISS:     340366
LLC LOAD         ACCESS:     575379 HIT:     278239 MISS:     297140
LLC RFO          ACCESS:      47040 HIT:      24603 MISS:      22437
LLC PREFETCH     ACCESS:          0 HIT:          0 MISS:          0
LLC WRITE        ACCESS:     126429 HIT:     119044 MISS:       7385
LLC TRANSLATION  ACCESS:      22106 HIT:       8702 MISS:      13404
LLC PREFETCH REQUESTED:          0 ISSUED:          0 USEFUL:          0 USELESS:          0
LLC AVERAGE MISS LATENCY: 601.1 cycles
cpu0_DTLB TOTAL        ACCESS:  133212234 HIT:  131856851 MISS:    1355383
cpu0_DTLB LOAD         ACCESS:  133212234 HIT:  131856851 MISS:    1355383
cpu0_DTLB RFO          ACCESS:          0 HIT:          0 MISS:          0
cpu0_DTLB PREFETCH     ACCESS:          0 HIT:          0 MISS:          0
cpu0_DTLB WRITE        ACCESS:          0 HIT:          0 MISS:          0
cpu0_DTLB TRANSLATION  ACCESS:          0 HIT:          0 MISS:          0
cpu0_DTLB PREFETCH REQUESTED:          0 ISSUED:          0 USEFUL:          0 USELESS:          0
cpu0_DTLB AVERAGE MISS LATENCY: 12.79 cycles
cpu0_ITLB TOTAL        ACCESS:    9000686 HIT:    8791315 MISS:     209371
cpu0_ITLB LOAD         ACCESS:    9000686 HIT:    8791315 MISS:     209371
cpu0_ITLB RFO          ACCESS:          0 HIT:          0 MISS:          0
cpu0_ITLB PREFETCH     ACCESS:          0 HIT:          0 MISS:          0
cpu0_ITLB WRITE        ACCESS:          0 HIT:          0 MISS:          0
cpu0_ITLB TRANSLATION  ACCESS:          0 HIT:          0 MISS:          0
cpu0_ITLB PREFETCH REQUESTED:          0 ISSUED:          0 USEFUL:          0 USELESS:          0
cpu0_ITLB AVERAGE MISS LATENCY: 3.032 cycles
cpu0_L1D TOTAL        ACCESS:  178230888 HIT:  174426695 MISS:    3804193
cpu0_L1D LOAD         ACCESS:   92713224 HIT:   89592975 MISS:    3120249
cpu0_L1D RFO          ACCESS:          0 HIT:          0 MISS:          0
cpu0_L1D PREFETCH     ACCESS:          0 HIT:          0 MISS:          0
cpu0_L1D WRITE        ACCESS:   85489142 HIT:   84832312 MISS:     656830
cpu0_L1D TRANSLATION  ACCESS:      28522 HIT:       1408 MISS:      27114
cpu0_L1D PREFETCH REQUESTED:          0 ISSUED:          0 USEFUL:          0 USELESS:          0
cpu0_L1D AVERAGE MISS LATENCY: 54.79 cycles
cpu0_L1I TOTAL        ACCESS:   10519823 HIT:    8622254 MISS:    1897569
cpu0_L1I LOAD         ACCESS:   10519823 HIT:    8622254 MISS:    1897569
cpu0_L1I RFO          ACCESS:          0 HIT:          0 MISS:          0
cpu0_L1I PREFETCH     ACCESS:          0 HIT:          0 MISS:          0
cpu0_L1I WRITE        ACCESS:          0 HIT:          0 MISS:          0
cpu0_L1I TRANSLATION  ACCESS:          0 HIT:          0 MISS:          0
cpu0_L1I PREFETCH REQUESTED:          0 ISSUED:          0 USEFUL:          0 USELESS:          0
cpu0_L1I AVERAGE MISS LATENCY: 13.47 cycles
cpu0_L2C TOTAL        ACCESS:    3840388 HIT:    3192691 MISS:     647697
cpu0_L2C LOAD         ACCESS:    3103770 HIT:    2528391 MISS:     575379
cpu0_L2C RFO          ACCESS:     194929 HIT:     147889 MISS:      47040
cpu0_L2C PREFETCH     ACCESS:          0 HIT:          0 MISS:          0
cpu0_L2C WRITE        ACCESS:     514656 HIT:     511484 MISS:       3172
cpu0_L2C TRANSLATION  ACCESS:      27033 HIT:       4927 MISS:      22106
cpu0_L2C PREFETCH REQUESTED:          0 ISSUED:          0 USEFUL:          0 USELESS:          0
cpu0_L2C AVERAGE MISS LATENCY: 336.3 cycles
cpu0_STLB TOTAL        ACCESS:    1010049 HIT:     983359 MISS:      26690
cpu0_STLB LOAD         ACCESS:    1010049 HIT:     983359 MISS:      26690
cpu0_STLB RFO          ACCESS:          0 HIT:          0 MISS:          0
cpu0_STLB PREFETCH     ACCESS:          0 HIT:          0 MISS:          0
cpu0_STLB WRITE        ACCESS:          0 HIT:          0 MISS:          0
cpu0_STLB TRANSLATION  ACCESS:          0 HIT:          0 MISS:          0
cpu0_STLB PREFETCH REQUESTED:          0 ISSUED:          0 USEFUL:          0 USELESS:          0
cpu0_STLB AVERAGE MISS LATENCY: 452.7 cycles

DRAM Statistics

Channel 0 RQ ROW_BUFFER_HIT:      58199
  ROW_BUFFER_MISS:     274629
 AVG DBUS CONGESTED CYCLE: 3.842
WQ ROW_BUFFER_HIT: Channel 0 
  ROW_BUFFER_MISS:       6875
  FULL:      49422
