WARNING: physical memory size is smaller than virtual memory size.

*** ChampSim Multicore Out-of-Order Simulator ***
Warmup Instructions: 50000000
Simulation Instructions: 600000000
Number of CPUs: 1
Page size: 4096

CPU 0 Tage branch predictor
Off-chip DRAM Size: 4 GiB Channels: 1 Width: 64-bit Data Race: 3200 MT/s
Heartbeat CPU 0 instructions: 10000000 cycles: 2500061 heartbeat IPC: 4 cumulative IPC: 4 (Simulation time: 00 hr 00 min 37 sec)
Heartbeat CPU 0 instructions: 20000000 cycles: 5000061 heartbeat IPC: 4 cumulative IPC: 4 (Simulation time: 00 hr 01 min 19 sec)
Heartbeat CPU 0 instructions: 30000000 cycles: 7500061 heartbeat IPC: 4 cumulative IPC: 4 (Simulation time: 00 hr 01 min 59 sec)
Heartbeat CPU 0 instructions: 40000000 cycles: 10000061 heartbeat IPC: 4 cumulative IPC: 4 (Simulation time: 00 hr 02 min 38 sec)
Heartbeat CPU 0 instructions: 50000000 cycles: 12500061 heartbeat IPC: 4 cumulative IPC: 4 (Simulation time: 00 hr 03 min 18 sec)
Warmup finished CPU 0 instructions: 50000000 cycles: 12500062 cumulative IPC: 4 (Simulation time: 00 hr 03 min 18 sec)
Warmup complete CPU 0 instructions: 50000000 cycles: 12500062 cumulative IPC: 4 (Simulation time: 00 hr 03 min 18 sec)
Heartbeat CPU 0 instructions: 60000004 cycles: 15503677 heartbeat IPC: 3.329 cumulative IPC: 3.329 (Simulation time: 00 hr 04 min 07 sec)
Heartbeat CPU 0 instructions: 70000003 cycles: 18382317 heartbeat IPC: 3.474 cumulative IPC: 3.4 (Simulation time: 00 hr 04 min 54 sec)
Heartbeat CPU 0 instructions: 80000002 cycles: 21404747 heartbeat IPC: 3.309 cumulative IPC: 3.369 (Simulation time: 00 hr 05 min 42 sec)
Heartbeat CPU 0 instructions: 90000000 cycles: 24127135 heartbeat IPC: 3.673 cumulative IPC: 3.44 (Simulation time: 00 hr 06 min 28 sec)
Heartbeat CPU 0 instructions: 100000003 cycles: 26893697 heartbeat IPC: 3.615 cumulative IPC: 3.474 (Simulation time: 00 hr 07 min 14 sec)
Heartbeat CPU 0 instructions: 110000001 cycles: 29799971 heartbeat IPC: 3.441 cumulative IPC: 3.468 (Simulation time: 00 hr 08 min 00 sec)
Heartbeat CPU 0 instructions: 120000001 cycles: 32524189 heartbeat IPC: 3.671 cumulative IPC: 3.496 (Simulation time: 00 hr 08 min 46 sec)
Heartbeat CPU 0 instructions: 130000003 cycles: 35426960 heartbeat IPC: 3.445 cumulative IPC: 3.489 (Simulation time: 00 hr 09 min 33 sec)
Heartbeat CPU 0 instructions: 140000002 cycles: 38265022 heartbeat IPC: 3.524 cumulative IPC: 3.493 (Simulation time: 00 hr 10 min 21 sec)
Heartbeat CPU 0 instructions: 150000001 cycles: 41039448 heartbeat IPC: 3.604 cumulative IPC: 3.504 (Simulation time: 00 hr 11 min 08 sec)
Heartbeat CPU 0 instructions: 160000000 cycles: 43954335 heartbeat IPC: 3.431 cumulative IPC: 3.497 (Simulation time: 00 hr 11 min 56 sec)
Heartbeat CPU 0 instructions: 170000001 cycles: 46885360 heartbeat IPC: 3.412 cumulative IPC: 3.49 (Simulation time: 00 hr 12 min 43 sec)
Heartbeat CPU 0 instructions: 180000000 cycles: 49683046 heartbeat IPC: 3.574 cumulative IPC: 3.496 (Simulation time: 00 hr 13 min 30 sec)
Heartbeat CPU 0 instructions: 190000002 cycles: 52391054 heartbeat IPC: 3.693 cumulative IPC: 3.51 (Simulation time: 00 hr 14 min 18 sec)
Heartbeat CPU 0 instructions: 200000002 cycles: 55221902 heartbeat IPC: 3.533 cumulative IPC: 3.511 (Simulation time: 00 hr 15 min 05 sec)
Heartbeat CPU 0 instructions: 210000000 cycles: 58122031 heartbeat IPC: 3.448 cumulative IPC: 3.507 (Simulation time: 00 hr 15 min 52 sec)
Heartbeat CPU 0 instructions: 220000001 cycles: 60887681 heartbeat IPC: 3.616 cumulative IPC: 3.513 (Simulation time: 00 hr 16 min 40 sec)
Heartbeat CPU 0 instructions: 230000002 cycles: 63781565 heartbeat IPC: 3.456 cumulative IPC: 3.51 (Simulation time: 00 hr 17 min 26 sec)
Heartbeat CPU 0 instructions: 240000004 cycles: 66744131 heartbeat IPC: 3.375 cumulative IPC: 3.503 (Simulation time: 00 hr 18 min 14 sec)
Heartbeat CPU 0 instructions: 250000003 cycles: 69654824 heartbeat IPC: 3.436 cumulative IPC: 3.499 (Simulation time: 00 hr 19 min 00 sec)
Heartbeat CPU 0 instructions: 260000001 cycles: 72452607 heartbeat IPC: 3.574 cumulative IPC: 3.503 (Simulation time: 00 hr 19 min 47 sec)
Heartbeat CPU 0 instructions: 270000002 cycles: 78451551 heartbeat IPC: 1.667 cumulative IPC: 3.336 (Simulation time: 00 hr 20 min 53 sec)
Heartbeat CPU 0 instructions: 280000000 cycles: 90655333 heartbeat IPC: 0.8194 cumulative IPC: 2.943 (Simulation time: 00 hr 22 min 34 sec)
Heartbeat CPU 0 instructions: 290000000 cycles: 104492915 heartbeat IPC: 0.7227 cumulative IPC: 2.609 (Simulation time: 00 hr 24 min 27 sec)
Heartbeat CPU 0 instructions: 300000003 cycles: 113274227 heartbeat IPC: 1.139 cumulative IPC: 2.481 (Simulation time: 00 hr 25 min 51 sec)
Heartbeat CPU 0 instructions: 310000001 cycles: 125743125 heartbeat IPC: 0.802 cumulative IPC: 2.296 (Simulation time: 00 hr 27 min 37 sec)
Heartbeat CPU 0 instructions: 320000004 cycles: 131015404 heartbeat IPC: 1.897 cumulative IPC: 2.278 (Simulation time: 00 hr 28 min 40 sec)
Heartbeat CPU 0 instructions: 330000000 cycles: 134200457 heartbeat IPC: 3.14 cumulative IPC: 2.301 (Simulation time: 00 hr 29 min 30 sec)
Heartbeat CPU 0 instructions: 340000001 cycles: 137321285 heartbeat IPC: 3.204 cumulative IPC: 2.323 (Simulation time: 00 hr 30 min 19 sec)
Heartbeat CPU 0 instructions: 350000000 cycles: 140447395 heartbeat IPC: 3.199 cumulative IPC: 2.345 (Simulation time: 00 hr 31 min 09 sec)
Heartbeat CPU 0 instructions: 360000004 cycles: 143353928 heartbeat IPC: 3.441 cumulative IPC: 2.369 (Simulation time: 00 hr 31 min 56 sec)
Heartbeat CPU 0 instructions: 370000001 cycles: 146136299 heartbeat IPC: 3.594 cumulative IPC: 2.395 (Simulation time: 00 hr 32 min 43 sec)
Heartbeat CPU 0 instructions: 380000004 cycles: 148961407 heartbeat IPC: 3.54 cumulative IPC: 2.418 (Simulation time: 00 hr 33 min 31 sec)
Heartbeat CPU 0 instructions: 390000002 cycles: 152022712 heartbeat IPC: 3.267 cumulative IPC: 2.437 (Simulation time: 00 hr 34 min 19 sec)
Heartbeat CPU 0 instructions: 400000000 cycles: 155217219 heartbeat IPC: 3.13 cumulative IPC: 2.452 (Simulation time: 00 hr 35 min 09 sec)
Heartbeat CPU 0 instructions: 410000000 cycles: 163590033 heartbeat IPC: 1.194 cumulative IPC: 2.383 (Simulation time: 00 hr 36 min 28 sec)
Heartbeat CPU 0 instructions: 420000003 cycles: 176460021 heartbeat IPC: 0.777 cumulative IPC: 2.257 (Simulation time: 00 hr 38 min 13 sec)
Heartbeat CPU 0 instructions: 430000000 cycles: 184875464 heartbeat IPC: 1.188 cumulative IPC: 2.204 (Simulation time: 00 hr 39 min 36 sec)
Heartbeat CPU 0 instructions: 440000004 cycles: 193674912 heartbeat IPC: 1.136 cumulative IPC: 2.153 (Simulation time: 00 hr 40 min 56 sec)
Heartbeat CPU 0 instructions: 450000001 cycles: 202595410 heartbeat IPC: 1.121 cumulative IPC: 2.104 (Simulation time: 00 hr 42 min 16 sec)
Heartbeat CPU 0 instructions: 460000002 cycles: 217773888 heartbeat IPC: 0.6588 cumulative IPC: 1.997 (Simulation time: 00 hr 44 min 10 sec)
Heartbeat CPU 0 instructions: 470000003 cycles: 228315063 heartbeat IPC: 0.9487 cumulative IPC: 1.946 (Simulation time: 00 hr 45 min 39 sec)
Heartbeat CPU 0 instructions: 480000000 cycles: 231862080 heartbeat IPC: 2.819 cumulative IPC: 1.96 (Simulation time: 00 hr 46 min 28 sec)
Heartbeat CPU 0 instructions: 490000001 cycles: 234851282 heartbeat IPC: 3.345 cumulative IPC: 1.979 (Simulation time: 00 hr 47 min 13 sec)
Heartbeat CPU 0 instructions: 500000002 cycles: 237819256 heartbeat IPC: 3.369 cumulative IPC: 1.997 (Simulation time: 00 hr 47 min 59 sec)
Heartbeat CPU 0 instructions: 510000000 cycles: 240700310 heartbeat IPC: 3.471 cumulative IPC: 2.016 (Simulation time: 00 hr 48 min 46 sec)
Heartbeat CPU 0 instructions: 520000000 cycles: 243727890 heartbeat IPC: 3.303 cumulative IPC: 2.033 (Simulation time: 00 hr 49 min 36 sec)
Heartbeat CPU 0 instructions: 530000001 cycles: 257006059 heartbeat IPC: 0.7531 cumulative IPC: 1.963 (Simulation time: 00 hr 51 min 26 sec)
Heartbeat CPU 0 instructions: 540000000 cycles: 270820033 heartbeat IPC: 0.7239 cumulative IPC: 1.897 (Simulation time: 00 hr 53 min 22 sec)
Heartbeat CPU 0 instructions: 550000004 cycles: 287008608 heartbeat IPC: 0.6177 cumulative IPC: 1.821 (Simulation time: 00 hr 55 min 34 sec)
Heartbeat CPU 0 instructions: 560000004 cycles: 291103738 heartbeat IPC: 2.442 cumulative IPC: 1.831 (Simulation time: 00 hr 56 min 30 sec)
Heartbeat CPU 0 instructions: 570000002 cycles: 293938338 heartbeat IPC: 3.528 cumulative IPC: 1.848 (Simulation time: 00 hr 57 min 17 sec)
Heartbeat CPU 0 instructions: 580000000 cycles: 296875286 heartbeat IPC: 3.405 cumulative IPC: 1.864 (Simulation time: 00 hr 58 min 05 sec)
Heartbeat CPU 0 instructions: 590000001 cycles: 299816344 heartbeat IPC: 3.4 cumulative IPC: 1.879 (Simulation time: 00 hr 58 min 51 sec)
Heartbeat CPU 0 instructions: 600000003 cycles: 302517542 heartbeat IPC: 3.702 cumulative IPC: 1.896 (Simulation time: 00 hr 59 min 37 sec)
Heartbeat CPU 0 instructions: 610000001 cycles: 305392490 heartbeat IPC: 3.478 cumulative IPC: 1.912 (Simulation time: 01 hr 00 min 24 sec)
Heartbeat CPU 0 instructions: 620000004 cycles: 308352501 heartbeat IPC: 3.378 cumulative IPC: 1.927 (Simulation time: 01 hr 01 min 10 sec)
Heartbeat CPU 0 instructions: 630000002 cycles: 311167841 heartbeat IPC: 3.552 cumulative IPC: 1.942 (Simulation time: 01 hr 01 min 56 sec)
Heartbeat CPU 0 instructions: 640000004 cycles: 314206434 heartbeat IPC: 3.291 cumulative IPC: 1.956 (Simulation time: 01 hr 02 min 46 sec)
Heartbeat CPU 0 instructions: 650000001 cycles: 316909730 heartbeat IPC: 3.699 cumulative IPC: 1.971 (Simulation time: 01 hr 03 min 31 sec)
Simulation finished CPU 0 instructions: 600000001 cycles: 304409669 cumulative IPC: 1.971 (Simulation time: 01 hr 03 min 31 sec)
Simulation complete CPU 0 instructions: 600000001 cycles: 304409669 cumulative IPC: 1.971 (Simulation time: 01 hr 03 min 31 sec)

ChampSim completed all CPUs

=== Simulation ===
CPU 0 runs traces/400.perlbench-50B.champsimtrace.xz
Region of Interest Statistics

CPU 0 cumulative IPC: 1.971 instructions: 600000001 cycles: 304409669
CPU 0 Branch Prediction Accuracy: 99.01% MPKI: 2.04 Average ROB Occupancy at Mispredict: 96.86
Branch type MPKI
BRANCH_DIRECT_JUMP: 0.0176
BRANCH_INDIRECT: 0.38
BRANCH_CONDITIONAL: 1.19
BRANCH_DIRECT_CALL: 0.0067
BRANCH_INDIRECT_CALL: 0.431
BRANCH_RETURN: 0.0161

LLC TOTAL        ACCESS:    1369242 HIT:     433242 MISS:     936000
LLC LOAD         ACCESS:     586176 HIT:     205326 MISS:     380850
LLC RFO          ACCESS:      47071 HIT:      15724 MISS:      31347
LLC PREFETCH     ACCESS:     586176 HIT:     177608 MISS:     408568
LLC WRITE        ACCESS:     127770 HIT:      33075 MISS:      94695
LLC TRANSLATION  ACCESS:      22049 HIT:       1509 MISS:      20540
LLC PREFETCH REQUESTED:     586176 ISSUED:     586176 USEFUL:     111748 USELESS:     205428
LLC AVERAGE MISS LATENCY: 606.7 cycles
cpu0_DTLB TOTAL        ACCESS:  133188098 HIT:  131828279 MISS:    1359819
cpu0_DTLB LOAD         ACCESS:  133188098 HIT:  131828279 MISS:    1359819
cpu0_DTLB RFO          ACCESS:          0 HIT:          0 MISS:          0
cpu0_DTLB PREFETCH     ACCESS:          0 HIT:          0 MISS:          0
cpu0_DTLB WRITE        ACCESS:          0 HIT:          0 MISS:          0
cpu0_DTLB TRANSLATION  ACCESS:          0 HIT:          0 MISS:          0
cpu0_DTLB PREFETCH REQUESTED:          0 ISSUED:          0 USEFUL:          0 USELESS:          0
cpu0_DTLB AVERAGE MISS LATENCY: 18.11 cycles
cpu0_ITLB TOTAL        ACCESS:    8995372 HIT:    8786111 MISS:     209261
cpu0_ITLB LOAD         ACCESS:    8995372 HIT:    8786111 MISS:     209261
cpu0_ITLB RFO          ACCESS:          0 HIT:          0 MISS:          0
cpu0_ITLB PREFETCH     ACCESS:          0 HIT:          0 MISS:          0
cpu0_ITLB WRITE        ACCESS:          0 HIT:          0 MISS:          0
cpu0_ITLB TRANSLATION  ACCESS:          0 HIT:          0 MISS:          0
cpu0_ITLB PREFETCH REQUESTED:          0 ISSUED:          0 USEFUL:          0 USELESS:          0
cpu0_ITLB AVERAGE MISS LATENCY: 4.165 cycles
cpu0_L1D TOTAL        ACCESS:  178184143 HIT:  174363409 MISS:    3820734
cpu0_L1D LOAD         ACCESS:   92666128 HIT:   89531586 MISS:    3134542
cpu0_L1D RFO          ACCESS:          0 HIT:          0 MISS:          0
cpu0_L1D PREFETCH     ACCESS:          0 HIT:          0 MISS:          0
cpu0_L1D WRITE        ACCESS:   85489481 HIT:   84830415 MISS:     659066
cpu0_L1D TRANSLATION  ACCESS:      28534 HIT:       1408 MISS:      27126
cpu0_L1D PREFETCH REQUESTED:          0 ISSUED:          0 USEFUL:          0 USELESS:          0
cpu0_L1D AVERAGE MISS LATENCY: 74.02 cycles
cpu0_L1I TOTAL        ACCESS:   10515335 HIT:    8619157 MISS:    1896178
cpu0_L1I LOAD         ACCESS:   10515335 HIT:    8619157 MISS:    1896178
cpu0_L1I RFO          ACCESS:          0 HIT:          0 MISS:          0
cpu0_L1I PREFETCH     ACCESS:          0 HIT:          0 MISS:          0
cpu0_L1I WRITE        ACCESS:          0 HIT:          0 MISS:          0
cpu0_L1I TRANSLATION  ACCESS:          0 HIT:          0 MISS:          0
cpu0_L1I PREFETCH REQUESTED:          0 ISSUED:          0 USEFUL:          0 USELESS:          0
cpu0_L1I AVERAGE MISS LATENCY: 31.16 cycles
cpu0_L2C TOTAL        ACCESS:    3840032 HIT:    3181739 MISS:     658293
cpu0_L2C LOAD         ACCESS:    3103658 HIT:    2517482 MISS:     586176
cpu0_L2C RFO          ACCESS:     194984 HIT:     147912 MISS:      47072
cpu0_L2C PREFETCH     ACCESS:          0 HIT:          0 MISS:          0
cpu0_L2C WRITE        ACCESS:     514356 HIT:     511360 MISS:       2996
cpu0_L2C TRANSLATION  ACCESS:      27034 HIT:       4985 MISS:      22049
cpu0_L2C PREFETCH REQUESTED:          0 ISSUED:          0 USEFUL:          0 USELESS:          0
cpu0_L2C AVERAGE MISS LATENCY: 497.9 cycles
cpu0_STLB TOTAL        ACCESS:    1010677 HIT:     983986 MISS:      26691
cpu0_STLB LOAD         ACCESS:    1010677 HIT:     983986 MISS:      26691
cpu0_STLB RFO          ACCESS:          0 HIT:          0 MISS:          0
cpu0_STLB PREFETCH     ACCESS:          0 HIT:          0 MISS:          0
cpu0_STLB WRITE        ACCESS:          0 HIT:          0 MISS:          0
cpu0_STLB TRANSLATION  ACCESS:          0 HIT:          0 MISS:          0
cpu0_STLB PREFETCH REQUESTED:          0 ISSUED:          0 USEFUL:          0 USELESS:          0
cpu0_STLB AVERAGE MISS LATENCY: 752.3 cycles

DRAM Statistics

Channel 0 RQ ROW_BUFFER_HIT:     110364
  ROW_BUFFER_MISS:     610951
 AVG DBUS CONGESTED CYCLE: 3.91
WQ ROW_BUFFER_HIT: Channel 0 
  ROW_BUFFER_MISS:       8063
  FULL:      96367
