WARNING: physical memory size is smaller than virtual memory size.

*** ChampSim Multicore Out-of-Order Simulator ***
Warmup Instructions: 50000000
Simulation Instructions: 600000000
Number of CPUs: 1
Page size: 4096

Off-chip DRAM Size: 4 GiB Channels: 1 Width: 64-bit Data Race: 3200 MT/s
Heartbeat CPU 0 instructions: 10000000 cycles: 2500061 heartbeat IPC: 4 cumulative IPC: 4 (Simulation time: 00 hr 00 min 49 sec)
Heartbeat CPU 0 instructions: 20000000 cycles: 5000061 heartbeat IPC: 4 cumulative IPC: 4 (Simulation time: 00 hr 01 min 39 sec)
Heartbeat CPU 0 instructions: 30000000 cycles: 7500061 heartbeat IPC: 4 cumulative IPC: 4 (Simulation time: 00 hr 02 min 37 sec)
Heartbeat CPU 0 instructions: 40000000 cycles: 10000061 heartbeat IPC: 4 cumulative IPC: 4 (Simulation time: 00 hr 03 min 32 sec)
Heartbeat CPU 0 instructions: 50000000 cycles: 12500061 heartbeat IPC: 4 cumulative IPC: 4 (Simulation time: 00 hr 04 min 22 sec)
Warmup finished CPU 0 instructions: 50000000 cycles: 12500062 cumulative IPC: 4 (Simulation time: 00 hr 04 min 22 sec)
Warmup complete CPU 0 instructions: 50000000 cycles: 12500062 cumulative IPC: 4 (Simulation time: 00 hr 04 min 22 sec)
Heartbeat CPU 0 instructions: 60000002 cycles: 16435783 heartbeat IPC: 2.541 cumulative IPC: 2.541 (Simulation time: 00 hr 05 min 36 sec)
Heartbeat CPU 0 instructions: 70000003 cycles: 20749204 heartbeat IPC: 2.318 cumulative IPC: 2.424 (Simulation time: 00 hr 06 min 42 sec)
Heartbeat CPU 0 instructions: 80000003 cycles: 25212938 heartbeat IPC: 2.24 cumulative IPC: 2.36 (Simulation time: 00 hr 07 min 46 sec)
Heartbeat CPU 0 instructions: 90000000 cycles: 28902625 heartbeat IPC: 2.71 cumulative IPC: 2.439 (Simulation time: 00 hr 08 min 45 sec)
Heartbeat CPU 0 instructions: 100000003 cycles: 32797283 heartbeat IPC: 2.568 cumulative IPC: 2.463 (Simulation time: 00 hr 09 min 49 sec)
Heartbeat CPU 0 instructions: 110000002 cycles: 36888882 heartbeat IPC: 2.444 cumulative IPC: 2.46 (Simulation time: 00 hr 10 min 51 sec)
Heartbeat CPU 0 instructions: 120000001 cycles: 40602045 heartbeat IPC: 2.693 cumulative IPC: 2.491 (Simulation time: 00 hr 11 min 50 sec)
Heartbeat CPU 0 instructions: 130000003 cycles: 44366187 heartbeat IPC: 2.657 cumulative IPC: 2.511 (Simulation time: 00 hr 12 min 50 sec)
Heartbeat CPU 0 instructions: 140000002 cycles: 48491614 heartbeat IPC: 2.424 cumulative IPC: 2.501 (Simulation time: 00 hr 13 min 50 sec)
Heartbeat CPU 0 instructions: 150000001 cycles: 52535644 heartbeat IPC: 2.473 cumulative IPC: 2.498 (Simulation time: 00 hr 14 min 51 sec)
Heartbeat CPU 0 instructions: 160000000 cycles: 56184366 heartbeat IPC: 2.741 cumulative IPC: 2.518 (Simulation time: 00 hr 15 min 51 sec)
Heartbeat CPU 0 instructions: 170000001 cycles: 60350333 heartbeat IPC: 2.4 cumulative IPC: 2.508 (Simulation time: 00 hr 17 min 06 sec)
Heartbeat CPU 0 instructions: 180000001 cycles: 63805820 heartbeat IPC: 2.894 cumulative IPC: 2.534 (Simulation time: 00 hr 18 min 15 sec)
Heartbeat CPU 0 instructions: 190000002 cycles: 67382486 heartbeat IPC: 2.796 cumulative IPC: 2.551 (Simulation time: 00 hr 19 min 22 sec)
Heartbeat CPU 0 instructions: 200000002 cycles: 71154401 heartbeat IPC: 2.651 cumulative IPC: 2.557 (Simulation time: 00 hr 20 min 25 sec)
Heartbeat CPU 0 instructions: 210000000 cycles: 74789524 heartbeat IPC: 2.751 cumulative IPC: 2.569 (Simulation time: 00 hr 21 min 23 sec)
Heartbeat CPU 0 instructions: 220000001 cycles: 78659152 heartbeat IPC: 2.584 cumulative IPC: 2.57 (Simulation time: 00 hr 22 min 21 sec)
Heartbeat CPU 0 instructions: 230000002 cycles: 82496482 heartbeat IPC: 2.606 cumulative IPC: 2.572 (Simulation time: 00 hr 23 min 21 sec)
Heartbeat CPU 0 instructions: 240000001 cycles: 86701273 heartbeat IPC: 2.378 cumulative IPC: 2.561 (Simulation time: 00 hr 24 min 21 sec)
Heartbeat CPU 0 instructions: 250000003 cycles: 91272172 heartbeat IPC: 2.188 cumulative IPC: 2.539 (Simulation time: 00 hr 25 min 25 sec)
Heartbeat CPU 0 instructions: 260000000 cycles: 95070011 heartbeat IPC: 2.633 cumulative IPC: 2.543 (Simulation time: 00 hr 26 min 23 sec)
Heartbeat CPU 0 instructions: 270000003 cycles: 101857945 heartbeat IPC: 1.473 cumulative IPC: 2.462 (Simulation time: 00 hr 27 min 41 sec)
Heartbeat CPU 0 instructions: 280000000 cycles: 112665267 heartbeat IPC: 0.9253 cumulative IPC: 2.296 (Simulation time: 00 hr 29 min 33 sec)
Heartbeat CPU 0 instructions: 290000000 cycles: 122367332 heartbeat IPC: 1.031 cumulative IPC: 2.184 (Simulation time: 00 hr 31 min 38 sec)
Heartbeat CPU 0 instructions: 300000003 cycles: 129776632 heartbeat IPC: 1.35 cumulative IPC: 2.132 (Simulation time: 00 hr 33 min 19 sec)
Heartbeat CPU 0 instructions: 310000004 cycles: 141081146 heartbeat IPC: 0.8846 cumulative IPC: 2.022 (Simulation time: 00 hr 35 min 25 sec)
Heartbeat CPU 0 instructions: 320000004 cycles: 146273867 heartbeat IPC: 1.926 cumulative IPC: 2.018 (Simulation time: 00 hr 36 min 40 sec)
Heartbeat CPU 0 instructions: 330000000 cycles: 150352766 heartbeat IPC: 2.452 cumulative IPC: 2.031 (Simulation time: 00 hr 37 min 44 sec)
Heartbeat CPU 0 instructions: 340000001 cycles: 154688611 heartbeat IPC: 2.306 cumulative IPC: 2.04 (Simulation time: 00 hr 38 min 50 sec)
Heartbeat CPU 0 instructions: 350000004 cycles: 159162034 heartbeat IPC: 2.235 cumulative IPC: 2.046 (Simulation time: 00 hr 40 min 00 sec)
Heartbeat CPU 0 instructions: 360000003 cycles: 163334778 heartbeat IPC: 2.397 cumulative IPC: 2.055 (Simulation time: 00 hr 41 min 05 sec)
Heartbeat CPU 0 instructions: 370000001 cycles: 167386211 heartbeat IPC: 2.468 cumulative IPC: 2.066 (Simulation time: 00 hr 42 min 08 sec)
Heartbeat CPU 0 instructions: 380000004 cycles: 171300646 heartbeat IPC: 2.555 cumulative IPC: 2.078 (Simulation time: 00 hr 43 min 10 sec)
Heartbeat CPU 0 instructions: 390000002 cycles: 175422872 heartbeat IPC: 2.426 cumulative IPC: 2.087 (Simulation time: 00 hr 44 min 14 sec)
Heartbeat CPU 0 instructions: 400000000 cycles: 179851238 heartbeat IPC: 2.258 cumulative IPC: 2.091 (Simulation time: 00 hr 45 min 19 sec)
Heartbeat CPU 0 instructions: 410000000 cycles: 187846519 heartbeat IPC: 1.251 cumulative IPC: 2.053 (Simulation time: 00 hr 47 min 06 sec)
Heartbeat CPU 0 instructions: 420000003 cycles: 199217440 heartbeat IPC: 0.8794 cumulative IPC: 1.982 (Simulation time: 00 hr 49 min 40 sec)
Heartbeat CPU 0 instructions: 430000000 cycles: 207391207 heartbeat IPC: 1.223 cumulative IPC: 1.95 (Simulation time: 00 hr 51 min 31 sec)
Heartbeat CPU 0 instructions: 440000004 cycles: 214684636 heartbeat IPC: 1.371 cumulative IPC: 1.929 (Simulation time: 00 hr 53 min 08 sec)
Heartbeat CPU 0 instructions: 450000001 cycles: 221922555 heartbeat IPC: 1.382 cumulative IPC: 1.91 (Simulation time: 00 hr 54 min 49 sec)
Heartbeat CPU 0 instructions: 460000002 cycles: 233521180 heartbeat IPC: 0.8622 cumulative IPC: 1.855 (Simulation time: 00 hr 56 min 59 sec)
Heartbeat CPU 0 instructions: 470000003 cycles: 243511764 heartbeat IPC: 1.001 cumulative IPC: 1.818 (Simulation time: 00 hr 58 min 51 sec)
Heartbeat CPU 0 instructions: 480000003 cycles: 247894736 heartbeat IPC: 2.282 cumulative IPC: 1.827 (Simulation time: 00 hr 59 min 57 sec)
Heartbeat CPU 0 instructions: 490000001 cycles: 252680814 heartbeat IPC: 2.089 cumulative IPC: 1.832 (Simulation time: 01 hr 01 min 02 sec)
Heartbeat CPU 0 instructions: 500000002 cycles: 257194516 heartbeat IPC: 2.215 cumulative IPC: 1.839 (Simulation time: 01 hr 02 min 04 sec)
Heartbeat CPU 0 instructions: 510000000 cycles: 261536770 heartbeat IPC: 2.303 cumulative IPC: 1.847 (Simulation time: 01 hr 03 min 05 sec)
Heartbeat CPU 0 instructions: 520000000 cycles: 266038459 heartbeat IPC: 2.221 cumulative IPC: 1.854 (Simulation time: 01 hr 04 min 07 sec)
Heartbeat CPU 0 instructions: 530000001 cycles: 278165698 heartbeat IPC: 0.8246 cumulative IPC: 1.807 (Simulation time: 01 hr 06 min 07 sec)
Heartbeat CPU 0 instructions: 540000000 cycles: 290091906 heartbeat IPC: 0.8385 cumulative IPC: 1.765 (Simulation time: 01 hr 08 min 16 sec)
Heartbeat CPU 0 instructions: 550000004 cycles: 303809980 heartbeat IPC: 0.729 cumulative IPC: 1.716 (Simulation time: 01 hr 10 min 36 sec)
Heartbeat CPU 0 instructions: 560000004 cycles: 308079012 heartbeat IPC: 2.342 cumulative IPC: 1.725 (Simulation time: 01 hr 11 min 42 sec)
Heartbeat CPU 0 instructions: 570000001 cycles: 311213502 heartbeat IPC: 3.19 cumulative IPC: 1.741 (Simulation time: 01 hr 12 min 39 sec)
Heartbeat CPU 0 instructions: 580000003 cycles: 314774432 heartbeat IPC: 2.808 cumulative IPC: 1.753 (Simulation time: 01 hr 13 min 41 sec)
Heartbeat CPU 0 instructions: 590000002 cycles: 318416787 heartbeat IPC: 2.745 cumulative IPC: 1.765 (Simulation time: 01 hr 14 min 38 sec)
Heartbeat CPU 0 instructions: 600000003 cycles: 321492216 heartbeat IPC: 3.252 cumulative IPC: 1.78 (Simulation time: 01 hr 15 min 34 sec)
Heartbeat CPU 0 instructions: 610000001 cycles: 325012605 heartbeat IPC: 2.841 cumulative IPC: 1.792 (Simulation time: 01 hr 16 min 28 sec)
Heartbeat CPU 0 instructions: 620000000 cycles: 329040502 heartbeat IPC: 2.483 cumulative IPC: 1.801 (Simulation time: 01 hr 17 min 21 sec)
Heartbeat CPU 0 instructions: 630000002 cycles: 332412322 heartbeat IPC: 2.966 cumulative IPC: 1.813 (Simulation time: 01 hr 18 min 08 sec)
Heartbeat CPU 0 instructions: 640000004 cycles: 336430297 heartbeat IPC: 2.489 cumulative IPC: 1.821 (Simulation time: 01 hr 18 min 55 sec)
Heartbeat CPU 0 instructions: 650000001 cycles: 340254198 heartbeat IPC: 2.615 cumulative IPC: 1.831 (Simulation time: 01 hr 19 min 41 sec)
Simulation finished CPU 0 instructions: 600000001 cycles: 327754137 cumulative IPC: 1.831 (Simulation time: 01 hr 19 min 41 sec)
Simulation complete CPU 0 instructions: 600000001 cycles: 327754137 cumulative IPC: 1.831 (Simulation time: 01 hr 19 min 41 sec)

ChampSim completed all CPUs

=== Simulation ===
CPU 0 runs traces/400.perlbench-50B.champsimtrace.xz
Region of Interest Statistics

CPU 0 cumulative IPC: 1.831 instructions: 600000001 cycles: 327754137
CPU 0 Branch Prediction Accuracy: 96.2% MPKI: 7.839 Average ROB Occupancy at Mispredict: 43.63
Branch type MPKI
BRANCH_DIRECT_JUMP: 0.0176
BRANCH_INDIRECT: 0.38
BRANCH_CONDITIONAL: 6.99
BRANCH_DIRECT_CALL: 0.0067
BRANCH_INDIRECT_CALL: 0.431
BRANCH_RETURN: 0.0161

LLC TOTAL        ACCESS:    1354144 HIT:     809334 MISS:     544810
LLC LOAD         ACCESS:     578570 HIT:     334513 MISS:     244057
LLC RFO          ACCESS:      47553 HIT:      26323 MISS:      21230
LLC PREFETCH     ACCESS:     578570 HIT:     326035 MISS:     252535
LLC WRITE        ACCESS:     127352 HIT:     113005 MISS:      14347
LLC TRANSLATION  ACCESS:      22099 HIT:       9458 MISS:      12641
LLC PREFETCH REQUESTED:     578570 ISSUED:     578570 USEFUL:      81583 USELESS:      66906
LLC AVERAGE MISS LATENCY: 535 cycles
cpu0_DTLB TOTAL        ACCESS:  146504479 HIT:  145198060 MISS:    1306419
cpu0_DTLB LOAD         ACCESS:  146504479 HIT:  145198060 MISS:    1306419
cpu0_DTLB RFO          ACCESS:          0 HIT:          0 MISS:          0
cpu0_DTLB PREFETCH     ACCESS:          0 HIT:          0 MISS:          0
cpu0_DTLB WRITE        ACCESS:          0 HIT:          0 MISS:          0
cpu0_DTLB TRANSLATION  ACCESS:          0 HIT:          0 MISS:          0
cpu0_DTLB PREFETCH REQUESTED:          0 ISSUED:          0 USEFUL:          0 USELESS:          0
cpu0_DTLB AVERAGE MISS LATENCY: 12.82 cycles
cpu0_ITLB TOTAL        ACCESS:    8988144 HIT:    8803655 MISS:     184489
cpu0_ITLB LOAD         ACCESS:    8988144 HIT:    8803655 MISS:     184489
cpu0_ITLB RFO          ACCESS:          0 HIT:          0 MISS:          0
cpu0_ITLB PREFETCH     ACCESS:          0 HIT:          0 MISS:          0
cpu0_ITLB WRITE        ACCESS:          0 HIT:          0 MISS:          0
cpu0_ITLB TRANSLATION  ACCESS:          0 HIT:          0 MISS:          0
cpu0_ITLB PREFETCH REQUESTED:          0 ISSUED:          0 USEFUL:          0 USELESS:          0
cpu0_ITLB AVERAGE MISS LATENCY: 3.761 cycles
cpu0_L1D TOTAL        ACCESS:  193280614 HIT:  189611425 MISS:    3669189
cpu0_L1D LOAD         ACCESS:  107434791 HIT:  104419386 MISS:    3015405
cpu0_L1D RFO          ACCESS:          0 HIT:          0 MISS:          0
cpu0_L1D PREFETCH     ACCESS:          0 HIT:          0 MISS:          0
cpu0_L1D WRITE        ACCESS:   85817304 HIT:   85190612 MISS:     626692
cpu0_L1D TRANSLATION  ACCESS:      28519 HIT:       1427 MISS:      27092
cpu0_L1D PREFETCH REQUESTED:          0 ISSUED:          0 USEFUL:          0 USELESS:          0
cpu0_L1D AVERAGE MISS LATENCY: 49.8 cycles
cpu0_L1I TOTAL        ACCESS:   10422785 HIT:    8660882 MISS:    1761903
cpu0_L1I LOAD         ACCESS:   10422785 HIT:    8660882 MISS:    1761903
cpu0_L1I RFO          ACCESS:          0 HIT:          0 MISS:          0
cpu0_L1I PREFETCH     ACCESS:          0 HIT:          0 MISS:          0
cpu0_L1I WRITE        ACCESS:          0 HIT:          0 MISS:          0
cpu0_L1I TRANSLATION  ACCESS:          0 HIT:          0 MISS:          0
cpu0_L1I PREFETCH REQUESTED:          0 ISSUED:          0 USEFUL:          0 USELESS:          0
cpu0_L1I AVERAGE MISS LATENCY: 11.48 cycles
cpu0_L2C TOTAL        ACCESS:    3834504 HIT:    3183193 MISS:     651311
cpu0_L2C LOAD         ACCESS:    3104905 HIT:    2526335 MISS:     578570
cpu0_L2C RFO          ACCESS:     191566 HIT:     144013 MISS:      47553
cpu0_L2C PREFETCH     ACCESS:          0 HIT:          0 MISS:          0
cpu0_L2C WRITE        ACCESS:     511002 HIT:     507913 MISS:       3089
cpu0_L2C TRANSLATION  ACCESS:      27031 HIT:       4932 MISS:      22099
cpu0_L2C PREFETCH REQUESTED:          0 ISSUED:          0 USEFUL:          0 USELESS:          0
cpu0_L2C AVERAGE MISS LATENCY: 272.9 cycles
cpu0_STLB TOTAL        ACCESS:    1008549 HIT:     981856 MISS:      26693
cpu0_STLB LOAD         ACCESS:    1008549 HIT:     981856 MISS:      26693
cpu0_STLB RFO          ACCESS:          0 HIT:          0 MISS:          0
cpu0_STLB PREFETCH     ACCESS:          0 HIT:          0 MISS:          0
cpu0_STLB WRITE        ACCESS:          0 HIT:          0 MISS:          0
cpu0_STLB TRANSLATION  ACCESS:          0 HIT:          0 MISS:          0
cpu0_STLB PREFETCH REQUESTED:          0 ISSUED:          0 USEFUL:          0 USELESS:          0
cpu0_STLB AVERAGE MISS LATENCY: 411.4 cycles

DRAM Statistics

Channel 0 RQ ROW_BUFFER_HIT:      99364
  ROW_BUFFER_MISS:     358299
 AVG DBUS CONGESTED CYCLE: 3.867
WQ ROW_BUFFER_HIT: Channel 0 
  ROW_BUFFER_MISS:       8336
  FULL:      44534
