WARNING: physical memory size is smaller than virtual memory size.

*** ChampSim Multicore Out-of-Order Simulator ***
Warmup Instructions: 50000000
Simulation Instructions: 600000000
Number of CPUs: 1
Page size: 4096

CPU 0 Tage branch predictor
Off-chip DRAM Size: 4 GiB Channels: 1 Width: 64-bit Data Race: 3200 MT/s
Heartbeat CPU 0 instructions: 10000000 cycles: 2500061 heartbeat IPC: 4 cumulative IPC: 4 (Simulation time: 00 hr 00 min 40 sec)
Heartbeat CPU 0 instructions: 20000000 cycles: 5000061 heartbeat IPC: 4 cumulative IPC: 4 (Simulation time: 00 hr 01 min 19 sec)
Heartbeat CPU 0 instructions: 30000000 cycles: 7500061 heartbeat IPC: 4 cumulative IPC: 4 (Simulation time: 00 hr 01 min 58 sec)
Heartbeat CPU 0 instructions: 40000000 cycles: 10000061 heartbeat IPC: 4 cumulative IPC: 4 (Simulation time: 00 hr 02 min 38 sec)
Heartbeat CPU 0 instructions: 50000000 cycles: 12500061 heartbeat IPC: 4 cumulative IPC: 4 (Simulation time: 00 hr 03 min 17 sec)
Warmup finished CPU 0 instructions: 50000000 cycles: 12500062 cumulative IPC: 4 (Simulation time: 00 hr 03 min 17 sec)
Warmup complete CPU 0 instructions: 50000000 cycles: 12500062 cumulative IPC: 4 (Simulation time: 00 hr 03 min 17 sec)
Heartbeat CPU 0 instructions: 60000004 cycles: 15504574 heartbeat IPC: 3.328 cumulative IPC: 3.328 (Simulation time: 00 hr 04 min 06 sec)
Heartbeat CPU 0 instructions: 70000003 cycles: 18375027 heartbeat IPC: 3.484 cumulative IPC: 3.404 (Simulation time: 00 hr 04 min 53 sec)
Heartbeat CPU 0 instructions: 80000002 cycles: 21385455 heartbeat IPC: 3.322 cumulative IPC: 3.376 (Simulation time: 00 hr 05 min 42 sec)
Heartbeat CPU 0 instructions: 90000000 cycles: 24106445 heartbeat IPC: 3.675 cumulative IPC: 3.446 (Simulation time: 00 hr 06 min 28 sec)
Heartbeat CPU 0 instructions: 100000003 cycles: 26861573 heartbeat IPC: 3.63 cumulative IPC: 3.482 (Simulation time: 00 hr 07 min 17 sec)
Heartbeat CPU 0 instructions: 110000001 cycles: 29760716 heartbeat IPC: 3.449 cumulative IPC: 3.476 (Simulation time: 00 hr 08 min 01 sec)
Heartbeat CPU 0 instructions: 120000001 cycles: 32476957 heartbeat IPC: 3.682 cumulative IPC: 3.504 (Simulation time: 00 hr 08 min 46 sec)
Heartbeat CPU 0 instructions: 130000003 cycles: 35373828 heartbeat IPC: 3.452 cumulative IPC: 3.497 (Simulation time: 00 hr 09 min 32 sec)
Heartbeat CPU 0 instructions: 140000002 cycles: 38209923 heartbeat IPC: 3.526 cumulative IPC: 3.501 (Simulation time: 00 hr 10 min 17 sec)
Heartbeat CPU 0 instructions: 150000001 cycles: 40979169 heartbeat IPC: 3.611 cumulative IPC: 3.511 (Simulation time: 00 hr 11 min 01 sec)
Heartbeat CPU 0 instructions: 160000000 cycles: 43896422 heartbeat IPC: 3.428 cumulative IPC: 3.504 (Simulation time: 00 hr 11 min 47 sec)
Heartbeat CPU 0 instructions: 170000001 cycles: 46819705 heartbeat IPC: 3.421 cumulative IPC: 3.497 (Simulation time: 00 hr 12 min 34 sec)
Heartbeat CPU 0 instructions: 180000000 cycles: 49612091 heartbeat IPC: 3.581 cumulative IPC: 3.503 (Simulation time: 00 hr 13 min 21 sec)
Heartbeat CPU 0 instructions: 190000002 cycles: 52318430 heartbeat IPC: 3.695 cumulative IPC: 3.516 (Simulation time: 00 hr 14 min 08 sec)
Heartbeat CPU 0 instructions: 200000002 cycles: 55141199 heartbeat IPC: 3.543 cumulative IPC: 3.518 (Simulation time: 00 hr 14 min 54 sec)
Heartbeat CPU 0 instructions: 210000000 cycles: 58032005 heartbeat IPC: 3.459 cumulative IPC: 3.514 (Simulation time: 00 hr 15 min 41 sec)
Heartbeat CPU 0 instructions: 220000001 cycles: 60782283 heartbeat IPC: 3.636 cumulative IPC: 3.521 (Simulation time: 00 hr 16 min 26 sec)
Heartbeat CPU 0 instructions: 230000002 cycles: 63670994 heartbeat IPC: 3.462 cumulative IPC: 3.518 (Simulation time: 00 hr 17 min 11 sec)
Heartbeat CPU 0 instructions: 240000004 cycles: 66622071 heartbeat IPC: 3.389 cumulative IPC: 3.511 (Simulation time: 00 hr 17 min 58 sec)
Heartbeat CPU 0 instructions: 250000003 cycles: 69513006 heartbeat IPC: 3.459 cumulative IPC: 3.508 (Simulation time: 00 hr 18 min 43 sec)
Heartbeat CPU 0 instructions: 260000001 cycles: 72296193 heartbeat IPC: 3.593 cumulative IPC: 3.512 (Simulation time: 00 hr 19 min 29 sec)
Heartbeat CPU 0 instructions: 270000002 cycles: 78238092 heartbeat IPC: 1.683 cumulative IPC: 3.347 (Simulation time: 00 hr 20 min 36 sec)
Heartbeat CPU 0 instructions: 280000000 cycles: 89096359 heartbeat IPC: 0.921 cumulative IPC: 3.003 (Simulation time: 00 hr 22 min 14 sec)
Heartbeat CPU 0 instructions: 290000000 cycles: 100132965 heartbeat IPC: 0.9061 cumulative IPC: 2.739 (Simulation time: 00 hr 23 min 55 sec)
Heartbeat CPU 0 instructions: 300000003 cycles: 106457469 heartbeat IPC: 1.581 cumulative IPC: 2.661 (Simulation time: 00 hr 25 min 08 sec)
Heartbeat CPU 0 instructions: 310000001 cycles: 115816765 heartbeat IPC: 1.068 cumulative IPC: 2.517 (Simulation time: 00 hr 26 min 40 sec)
Heartbeat CPU 0 instructions: 320000004 cycles: 119963207 heartbeat IPC: 2.412 cumulative IPC: 2.512 (Simulation time: 00 hr 27 min 37 sec)
Heartbeat CPU 0 instructions: 330000000 cycles: 123122238 heartbeat IPC: 3.166 cumulative IPC: 2.531 (Simulation time: 00 hr 28 min 27 sec)
Heartbeat CPU 0 instructions: 340000001 cycles: 126338511 heartbeat IPC: 3.109 cumulative IPC: 2.547 (Simulation time: 00 hr 29 min 17 sec)
Heartbeat CPU 0 instructions: 350000000 cycles: 129691705 heartbeat IPC: 2.982 cumulative IPC: 2.56 (Simulation time: 00 hr 30 min 08 sec)
Heartbeat CPU 0 instructions: 360000004 cycles: 132803209 heartbeat IPC: 3.214 cumulative IPC: 2.577 (Simulation time: 00 hr 30 min 58 sec)
Heartbeat CPU 0 instructions: 370000001 cycles: 135780400 heartbeat IPC: 3.359 cumulative IPC: 2.596 (Simulation time: 00 hr 31 min 46 sec)
Heartbeat CPU 0 instructions: 380000004 cycles: 138738119 heartbeat IPC: 3.381 cumulative IPC: 2.614 (Simulation time: 00 hr 32 min 36 sec)
Heartbeat CPU 0 instructions: 390000002 cycles: 141817491 heartbeat IPC: 3.247 cumulative IPC: 2.629 (Simulation time: 00 hr 33 min 25 sec)
Heartbeat CPU 0 instructions: 400000000 cycles: 144904028 heartbeat IPC: 3.24 cumulative IPC: 2.643 (Simulation time: 00 hr 34 min 14 sec)
Heartbeat CPU 0 instructions: 410000000 cycles: 151026368 heartbeat IPC: 1.633 cumulative IPC: 2.599 (Simulation time: 00 hr 35 min 21 sec)
Heartbeat CPU 0 instructions: 420000003 cycles: 160437976 heartbeat IPC: 1.063 cumulative IPC: 2.501 (Simulation time: 00 hr 36 min 51 sec)
Heartbeat CPU 0 instructions: 430000000 cycles: 166139171 heartbeat IPC: 1.754 cumulative IPC: 2.473 (Simulation time: 00 hr 37 min 59 sec)
Heartbeat CPU 0 instructions: 440000004 cycles: 172173059 heartbeat IPC: 1.657 cumulative IPC: 2.442 (Simulation time: 00 hr 39 min 08 sec)
Heartbeat CPU 0 instructions: 450000001 cycles: 178079471 heartbeat IPC: 1.693 cumulative IPC: 2.416 (Simulation time: 00 hr 40 min 17 sec)
Heartbeat CPU 0 instructions: 460000002 cycles: 188379119 heartbeat IPC: 0.9709 cumulative IPC: 2.331 (Simulation time: 00 hr 41 min 51 sec)
Heartbeat CPU 0 instructions: 470000003 cycles: 196269096 heartbeat IPC: 1.267 cumulative IPC: 2.285 (Simulation time: 00 hr 43 min 14 sec)
Heartbeat CPU 0 instructions: 480000000 cycles: 199642135 heartbeat IPC: 2.965 cumulative IPC: 2.298 (Simulation time: 00 hr 44 min 05 sec)
Heartbeat CPU 0 instructions: 490000001 cycles: 203160074 heartbeat IPC: 2.843 cumulative IPC: 2.308 (Simulation time: 00 hr 44 min 57 sec)
Heartbeat CPU 0 instructions: 500000002 cycles: 206487585 heartbeat IPC: 3.005 cumulative IPC: 2.32 (Simulation time: 00 hr 45 min 50 sec)
Heartbeat CPU 0 instructions: 510000000 cycles: 209646810 heartbeat IPC: 3.165 cumulative IPC: 2.333 (Simulation time: 00 hr 46 min 40 sec)
Heartbeat CPU 0 instructions: 520000000 cycles: 212750182 heartbeat IPC: 3.222 cumulative IPC: 2.347 (Simulation time: 00 hr 47 min 29 sec)
Heartbeat CPU 0 instructions: 530000001 cycles: 221465153 heartbeat IPC: 1.147 cumulative IPC: 2.297 (Simulation time: 00 hr 48 min 55 sec)
Heartbeat CPU 0 instructions: 540000000 cycles: 230927631 heartbeat IPC: 1.057 cumulative IPC: 2.243 (Simulation time: 00 hr 50 min 26 sec)
Heartbeat CPU 0 instructions: 550000004 cycles: 242229528 heartbeat IPC: 0.8848 cumulative IPC: 2.176 (Simulation time: 00 hr 52 min 06 sec)
Heartbeat CPU 0 instructions: 560000004 cycles: 245892521 heartbeat IPC: 2.73 cumulative IPC: 2.185 (Simulation time: 00 hr 52 min 56 sec)
Heartbeat CPU 0 instructions: 570000002 cycles: 248713498 heartbeat IPC: 3.545 cumulative IPC: 2.201 (Simulation time: 00 hr 53 min 42 sec)
Heartbeat CPU 0 instructions: 580000000 cycles: 251639949 heartbeat IPC: 3.417 cumulative IPC: 2.216 (Simulation time: 00 hr 54 min 27 sec)
Heartbeat CPU 0 instructions: 590000001 cycles: 254565496 heartbeat IPC: 3.418 cumulative IPC: 2.231 (Simulation time: 00 hr 55 min 16 sec)
Heartbeat CPU 0 instructions: 600000003 cycles: 257258437 heartbeat IPC: 3.713 cumulative IPC: 2.247 (Simulation time: 00 hr 56 min 01 sec)
Heartbeat CPU 0 instructions: 610000001 cycles: 260122232 heartbeat IPC: 3.492 cumulative IPC: 2.262 (Simulation time: 00 hr 56 min 47 sec)
Heartbeat CPU 0 instructions: 620000004 cycles: 263072666 heartbeat IPC: 3.389 cumulative IPC: 2.275 (Simulation time: 00 hr 57 min 33 sec)
Heartbeat CPU 0 instructions: 630000002 cycles: 265882408 heartbeat IPC: 3.559 cumulative IPC: 2.289 (Simulation time: 00 hr 58 min 18 sec)
Heartbeat CPU 0 instructions: 640000004 cycles: 268927895 heartbeat IPC: 3.284 cumulative IPC: 2.301 (Simulation time: 00 hr 59 min 05 sec)
Heartbeat CPU 0 instructions: 650000001 cycles: 271638396 heartbeat IPC: 3.689 cumulative IPC: 2.315 (Simulation time: 00 hr 59 min 50 sec)
Simulation finished CPU 0 instructions: 600000001 cycles: 259138335 cumulative IPC: 2.315 (Simulation time: 00 hr 59 min 50 sec)
Simulation complete CPU 0 instructions: 600000001 cycles: 259138335 cumulative IPC: 2.315 (Simulation time: 00 hr 59 min 50 sec)

ChampSim completed all CPUs

=== Simulation ===
CPU 0 runs traces/400.perlbench-50B.champsimtrace.xz
Region of Interest Statistics

CPU 0 cumulative IPC: 2.315 instructions: 600000001 cycles: 259138335
CPU 0 Branch Prediction Accuracy: 99.01% MPKI: 2.04 Average ROB Occupancy at Mispredict: 95.93
Branch type MPKI
BRANCH_DIRECT_JUMP: 0.0176
BRANCH_INDIRECT: 0.38
BRANCH_CONDITIONAL: 1.19
BRANCH_DIRECT_CALL: 0.0067
BRANCH_INDIRECT_CALL: 0.431
BRANCH_RETURN: 0.0161

LLC TOTAL        ACCESS:     844909 HIT:     461874 MISS:     383035
LLC LOAD         ACCESS:     582668 HIT:     295408 MISS:     287260
LLC RFO          ACCESS:      47587 HIT:      25754 MISS:      21833
LLC PREFETCH     ACCESS:      64767 HIT:      44674 MISS:      20093
LLC WRITE        ACCESS:     127943 HIT:      92215 MISS:      35728
LLC TRANSLATION  ACCESS:      21944 HIT:       3823 MISS:      18121
LLC PREFETCH REQUESTED:      64767 ISSUED:      64767 USEFUL:       9557 USELESS:       6975
LLC AVERAGE MISS LATENCY: 533.3 cycles
cpu0_DTLB TOTAL        ACCESS:  133198261 HIT:  131841520 MISS:    1356741
cpu0_DTLB LOAD         ACCESS:  133198261 HIT:  131841520 MISS:    1356741
cpu0_DTLB RFO          ACCESS:          0 HIT:          0 MISS:          0
cpu0_DTLB PREFETCH     ACCESS:          0 HIT:          0 MISS:          0
cpu0_DTLB WRITE        ACCESS:          0 HIT:          0 MISS:          0
cpu0_DTLB TRANSLATION  ACCESS:          0 HIT:          0 MISS:          0
cpu0_DTLB PREFETCH REQUESTED:          0 ISSUED:          0 USEFUL:          0 USELESS:          0
cpu0_DTLB AVERAGE MISS LATENCY: 14.66 cycles
cpu0_ITLB TOTAL        ACCESS:    8999889 HIT:    8790546 MISS:     209343
cpu0_ITLB LOAD         ACCESS:    8999889 HIT:    8790546 MISS:     209343
cpu0_ITLB RFO          ACCESS:          0 HIT:          0 MISS:          0
cpu0_ITLB PREFETCH     ACCESS:          0 HIT:          0 MISS:          0
cpu0_ITLB WRITE        ACCESS:          0 HIT:          0 MISS:          0
cpu0_ITLB TRANSLATION  ACCESS:          0 HIT:          0 MISS:          0
cpu0_ITLB PREFETCH REQUESTED:          0 ISSUED:          0 USEFUL:          0 USELESS:          0
cpu0_ITLB AVERAGE MISS LATENCY: 3.351 cycles
cpu0_L1D TOTAL        ACCESS:  178213032 HIT:  174412430 MISS:    3800602
cpu0_L1D LOAD         ACCESS:   92693557 HIT:   89576178 MISS:    3117379
cpu0_L1D RFO          ACCESS:          0 HIT:          0 MISS:          0
cpu0_L1D PREFETCH     ACCESS:          0 HIT:          0 MISS:          0
cpu0_L1D WRITE        ACCESS:   85490942 HIT:   84834842 MISS:     656100
cpu0_L1D TRANSLATION  ACCESS:      28533 HIT:       1410 MISS:      27123
cpu0_L1D PREFETCH REQUESTED:          0 ISSUED:          0 USEFUL:          0 USELESS:          0
cpu0_L1D AVERAGE MISS LATENCY: 52.32 cycles
cpu0_L1I TOTAL        ACCESS:   10519654 HIT:    8622462 MISS:    1897192
cpu0_L1I LOAD         ACCESS:   10519654 HIT:    8622462 MISS:    1897192
cpu0_L1I RFO          ACCESS:          0 HIT:          0 MISS:          0
cpu0_L1I PREFETCH     ACCESS:          0 HIT:          0 MISS:          0
cpu0_L1I WRITE        ACCESS:          0 HIT:          0 MISS:          0
cpu0_L1I TRANSLATION  ACCESS:          0 HIT:          0 MISS:          0
cpu0_L1I PREFETCH REQUESTED:          0 ISSUED:          0 USEFUL:          0 USELESS:          0
cpu0_L1I AVERAGE MISS LATENCY: 14.13 cycles
cpu0_L2C TOTAL        ACCESS:    3840203 HIT:    3184625 MISS:     655578
cpu0_L2C LOAD         ACCESS:    3103691 HIT:    2521023 MISS:     582668
cpu0_L2C RFO          ACCESS:     194932 HIT:     147345 MISS:      47587
cpu0_L2C PREFETCH     ACCESS:          0 HIT:          0 MISS:          0
cpu0_L2C WRITE        ACCESS:     514547 HIT:     511168 MISS:       3379
cpu0_L2C TRANSLATION  ACCESS:      27033 HIT:       5089 MISS:      21944
cpu0_L2C PREFETCH REQUESTED:          0 ISSUED:          0 USEFUL:          0 USELESS:          0
cpu0_L2C AVERAGE MISS LATENCY: 314.6 cycles
cpu0_STLB TOTAL        ACCESS:    1010128 HIT:     983438 MISS:      26690
cpu0_STLB LOAD         ACCESS:    1010128 HIT:     983438 MISS:      26690
cpu0_STLB RFO          ACCESS:          0 HIT:          0 MISS:          0
cpu0_STLB PREFETCH     ACCESS:          0 HIT:          0 MISS:          0
cpu0_STLB WRITE        ACCESS:          0 HIT:          0 MISS:          0
cpu0_STLB TRANSLATION  ACCESS:          0 HIT:          0 MISS:          0
cpu0_STLB PREFETCH REQUESTED:          0 ISSUED:          0 USEFUL:          0 USELESS:          0
cpu0_STLB AVERAGE MISS LATENCY: 555.2 cycles

DRAM Statistics

Channel 0 RQ ROW_BUFFER_HIT:      64250
  ROW_BUFFER_MISS:     277681
 AVG DBUS CONGESTED CYCLE: 3.834
WQ ROW_BUFFER_HIT: Channel 0 
  ROW_BUFFER_MISS:       8792
  FULL:      38954
