WARNING: physical memory size is smaller than virtual memory size.

*** ChampSim Multicore Out-of-Order Simulator ***
Warmup Instructions: 50000000
Simulation Instructions: 600000000
Number of CPUs: 1
Page size: 4096

Off-chip DRAM Size: 4 GiB Channels: 1 Width: 64-bit Data Race: 3200 MT/s
Heartbeat CPU 0 instructions: 10000001 cycles: 2500318 heartbeat IPC: 3.999 cumulative IPC: 3.999 (Simulation time: 00 hr 00 min 36 sec)
Heartbeat CPU 0 instructions: 20000002 cycles: 5037095 heartbeat IPC: 3.942 cumulative IPC: 3.971 (Simulation time: 00 hr 01 min 12 sec)
Heartbeat CPU 0 instructions: 30000002 cycles: 7537095 heartbeat IPC: 4 cumulative IPC: 3.98 (Simulation time: 00 hr 01 min 46 sec)
Heartbeat CPU 0 instructions: 40000002 cycles: 10037095 heartbeat IPC: 4 cumulative IPC: 3.985 (Simulation time: 00 hr 02 min 19 sec)
Heartbeat CPU 0 instructions: 50000002 cycles: 12537095 heartbeat IPC: 4 cumulative IPC: 3.988 (Simulation time: 00 hr 02 min 53 sec)
Warmup finished CPU 0 instructions: 50000002 cycles: 12537096 cumulative IPC: 3.988 (Simulation time: 00 hr 02 min 53 sec)
Warmup complete CPU 0 instructions: 50000002 cycles: 12537096 cumulative IPC: 3.988 (Simulation time: 00 hr 02 min 53 sec)
Heartbeat CPU 0 instructions: 60000000 cycles: 17728007 heartbeat IPC: 1.926 cumulative IPC: 1.926 (Simulation time: 00 hr 03 min 45 sec)
Heartbeat CPU 0 instructions: 70000002 cycles: 22638280 heartbeat IPC: 2.037 cumulative IPC: 1.98 (Simulation time: 00 hr 04 min 36 sec)
Heartbeat CPU 0 instructions: 80000001 cycles: 28022986 heartbeat IPC: 1.857 cumulative IPC: 1.937 (Simulation time: 00 hr 05 min 30 sec)
Heartbeat CPU 0 instructions: 90000001 cycles: 32910787 heartbeat IPC: 2.046 cumulative IPC: 1.963 (Simulation time: 00 hr 06 min 20 sec)
Heartbeat CPU 0 instructions: 100000000 cycles: 38043407 heartbeat IPC: 1.948 cumulative IPC: 1.96 (Simulation time: 00 hr 07 min 13 sec)
Heartbeat CPU 0 instructions: 110000000 cycles: 42938574 heartbeat IPC: 2.043 cumulative IPC: 1.974 (Simulation time: 00 hr 08 min 03 sec)
Heartbeat CPU 0 instructions: 120000001 cycles: 48142792 heartbeat IPC: 1.922 cumulative IPC: 1.966 (Simulation time: 00 hr 08 min 55 sec)
Heartbeat CPU 0 instructions: 130000001 cycles: 53305531 heartbeat IPC: 1.937 cumulative IPC: 1.962 (Simulation time: 00 hr 09 min 48 sec)
Heartbeat CPU 0 instructions: 140000001 cycles: 58636144 heartbeat IPC: 1.876 cumulative IPC: 1.952 (Simulation time: 00 hr 10 min 40 sec)
Heartbeat CPU 0 instructions: 150000001 cycles: 63979140 heartbeat IPC: 1.872 cumulative IPC: 1.944 (Simulation time: 00 hr 11 min 34 sec)
Heartbeat CPU 0 instructions: 160000004 cycles: 69206837 heartbeat IPC: 1.913 cumulative IPC: 1.941 (Simulation time: 00 hr 12 min 26 sec)
Heartbeat CPU 0 instructions: 170000000 cycles: 78340726 heartbeat IPC: 1.095 cumulative IPC: 1.824 (Simulation time: 00 hr 13 min 44 sec)
Heartbeat CPU 0 instructions: 180000004 cycles: 87682659 heartbeat IPC: 1.07 cumulative IPC: 1.73 (Simulation time: 00 hr 15 min 05 sec)
Heartbeat CPU 0 instructions: 190000001 cycles: 98633412 heartbeat IPC: 0.9132 cumulative IPC: 1.626 (Simulation time: 00 hr 16 min 31 sec)
Heartbeat CPU 0 instructions: 200000003 cycles: 103414152 heartbeat IPC: 2.092 cumulative IPC: 1.651 (Simulation time: 00 hr 17 min 22 sec)
Heartbeat CPU 0 instructions: 210000001 cycles: 108343511 heartbeat IPC: 2.029 cumulative IPC: 1.67 (Simulation time: 00 hr 18 min 14 sec)
Heartbeat CPU 0 instructions: 220000000 cycles: 113181701 heartbeat IPC: 2.067 cumulative IPC: 1.689 (Simulation time: 00 hr 19 min 04 sec)
Heartbeat CPU 0 instructions: 230000002 cycles: 118516759 heartbeat IPC: 1.874 cumulative IPC: 1.698 (Simulation time: 00 hr 19 min 57 sec)
Heartbeat CPU 0 instructions: 240000000 cycles: 123371886 heartbeat IPC: 2.06 cumulative IPC: 1.714 (Simulation time: 00 hr 20 min 48 sec)
Heartbeat CPU 0 instructions: 250000000 cycles: 128540271 heartbeat IPC: 1.935 cumulative IPC: 1.724 (Simulation time: 00 hr 21 min 41 sec)
Heartbeat CPU 0 instructions: 260000000 cycles: 133579111 heartbeat IPC: 1.985 cumulative IPC: 1.735 (Simulation time: 00 hr 22 min 30 sec)
Heartbeat CPU 0 instructions: 270000002 cycles: 138478465 heartbeat IPC: 2.041 cumulative IPC: 1.747 (Simulation time: 00 hr 23 min 18 sec)
Heartbeat CPU 0 instructions: 280000002 cycles: 143396712 heartbeat IPC: 2.033 cumulative IPC: 1.758 (Simulation time: 00 hr 24 min 06 sec)
Heartbeat CPU 0 instructions: 290000001 cycles: 148776380 heartbeat IPC: 1.859 cumulative IPC: 1.762 (Simulation time: 00 hr 24 min 57 sec)
Heartbeat CPU 0 instructions: 300000003 cycles: 153841049 heartbeat IPC: 1.974 cumulative IPC: 1.769 (Simulation time: 00 hr 25 min 48 sec)
Heartbeat CPU 0 instructions: 310000001 cycles: 159153565 heartbeat IPC: 1.882 cumulative IPC: 1.773 (Simulation time: 00 hr 26 min 38 sec)
Heartbeat CPU 0 instructions: 320000003 cycles: 164379663 heartbeat IPC: 1.913 cumulative IPC: 1.778 (Simulation time: 00 hr 27 min 31 sec)
Heartbeat CPU 0 instructions: 330000003 cycles: 169693975 heartbeat IPC: 1.882 cumulative IPC: 1.782 (Simulation time: 00 hr 28 min 24 sec)
Heartbeat CPU 0 instructions: 340000000 cycles: 178930883 heartbeat IPC: 1.083 cumulative IPC: 1.743 (Simulation time: 00 hr 29 min 44 sec)
Heartbeat CPU 0 instructions: 350000000 cycles: 188792807 heartbeat IPC: 1.014 cumulative IPC: 1.702 (Simulation time: 00 hr 31 min 08 sec)
Heartbeat CPU 0 instructions: 360000004 cycles: 199597779 heartbeat IPC: 0.9255 cumulative IPC: 1.657 (Simulation time: 00 hr 32 min 37 sec)
Heartbeat CPU 0 instructions: 370000000 cycles: 204004287 heartbeat IPC: 2.269 cumulative IPC: 1.671 (Simulation time: 00 hr 33 min 25 sec)
Heartbeat CPU 0 instructions: 380000001 cycles: 208936381 heartbeat IPC: 2.028 cumulative IPC: 1.68 (Simulation time: 00 hr 34 min 17 sec)
Heartbeat CPU 0 instructions: 390000002 cycles: 213762652 heartbeat IPC: 2.072 cumulative IPC: 1.69 (Simulation time: 00 hr 35 min 09 sec)
Heartbeat CPU 0 instructions: 400000004 cycles: 218702331 heartbeat IPC: 2.024 cumulative IPC: 1.698 (Simulation time: 00 hr 36 min 01 sec)
Heartbeat CPU 0 instructions: 410000000 cycles: 223441596 heartbeat IPC: 2.11 cumulative IPC: 1.707 (Simulation time: 00 hr 36 min 50 sec)
Heartbeat CPU 0 instructions: 420000000 cycles: 228583295 heartbeat IPC: 1.945 cumulative IPC: 1.713 (Simulation time: 00 hr 37 min 42 sec)
Heartbeat CPU 0 instructions: 430000001 cycles: 233057313 heartbeat IPC: 2.235 cumulative IPC: 1.723 (Simulation time: 00 hr 38 min 32 sec)
Heartbeat CPU 0 instructions: 440000000 cycles: 238419240 heartbeat IPC: 1.865 cumulative IPC: 1.727 (Simulation time: 00 hr 39 min 26 sec)
Heartbeat CPU 0 instructions: 450000002 cycles: 243090674 heartbeat IPC: 2.141 cumulative IPC: 1.735 (Simulation time: 00 hr 40 min 17 sec)
Heartbeat CPU 0 instructions: 460000000 cycles: 247891450 heartbeat IPC: 2.083 cumulative IPC: 1.742 (Simulation time: 00 hr 41 min 09 sec)
Heartbeat CPU 0 instructions: 470000000 cycles: 252880028 heartbeat IPC: 2.005 cumulative IPC: 1.748 (Simulation time: 00 hr 42 min 01 sec)
Heartbeat CPU 0 instructions: 480000003 cycles: 257684360 heartbeat IPC: 2.081 cumulative IPC: 1.754 (Simulation time: 00 hr 42 min 50 sec)
Heartbeat CPU 0 instructions: 490000000 cycles: 262296406 heartbeat IPC: 2.168 cumulative IPC: 1.762 (Simulation time: 00 hr 43 min 38 sec)
Heartbeat CPU 0 instructions: 500000000 cycles: 267323775 heartbeat IPC: 1.989 cumulative IPC: 1.766 (Simulation time: 00 hr 44 min 30 sec)
Heartbeat CPU 0 instructions: 510000003 cycles: 272995142 heartbeat IPC: 1.763 cumulative IPC: 1.766 (Simulation time: 00 hr 45 min 26 sec)
Heartbeat CPU 0 instructions: 520000001 cycles: 277688134 heartbeat IPC: 2.131 cumulative IPC: 1.773 (Simulation time: 00 hr 46 min 18 sec)
Heartbeat CPU 0 instructions: 530000002 cycles: 282854028 heartbeat IPC: 1.936 cumulative IPC: 1.776 (Simulation time: 00 hr 47 min 10 sec)
Heartbeat CPU 0 instructions: 540000000 cycles: 287980055 heartbeat IPC: 1.951 cumulative IPC: 1.779 (Simulation time: 00 hr 48 min 02 sec)
Heartbeat CPU 0 instructions: 550000001 cycles: 292793226 heartbeat IPC: 2.078 cumulative IPC: 1.784 (Simulation time: 00 hr 48 min 54 sec)
Heartbeat CPU 0 instructions: 560000000 cycles: 298066577 heartbeat IPC: 1.896 cumulative IPC: 1.786 (Simulation time: 00 hr 49 min 47 sec)
Heartbeat CPU 0 instructions: 570000004 cycles: 305159417 heartbeat IPC: 1.41 cumulative IPC: 1.777 (Simulation time: 00 hr 50 min 53 sec)
Heartbeat CPU 0 instructions: 580000003 cycles: 314764501 heartbeat IPC: 1.041 cumulative IPC: 1.754 (Simulation time: 00 hr 52 min 14 sec)
Heartbeat CPU 0 instructions: 590000002 cycles: 327907108 heartbeat IPC: 0.7609 cumulative IPC: 1.712 (Simulation time: 00 hr 53 min 52 sec)
Heartbeat CPU 0 instructions: 600000000 cycles: 332500851 heartbeat IPC: 2.177 cumulative IPC: 1.719 (Simulation time: 00 hr 54 min 40 sec)
Heartbeat CPU 0 instructions: 610000002 cycles: 336990695 heartbeat IPC: 2.227 cumulative IPC: 1.726 (Simulation time: 00 hr 55 min 28 sec)
Heartbeat CPU 0 instructions: 620000000 cycles: 341795820 heartbeat IPC: 2.081 cumulative IPC: 1.731 (Simulation time: 00 hr 56 min 18 sec)
Heartbeat CPU 0 instructions: 630000002 cycles: 346886608 heartbeat IPC: 1.964 cumulative IPC: 1.735 (Simulation time: 00 hr 57 min 08 sec)
Heartbeat CPU 0 instructions: 640000001 cycles: 351740695 heartbeat IPC: 2.06 cumulative IPC: 1.739 (Simulation time: 00 hr 57 min 58 sec)
Heartbeat CPU 0 instructions: 650000000 cycles: 356297133 heartbeat IPC: 2.195 cumulative IPC: 1.745 (Simulation time: 00 hr 58 min 47 sec)
Simulation finished CPU 0 instructions: 600000001 cycles: 343760039 cumulative IPC: 1.745 (Simulation time: 00 hr 58 min 47 sec)
Simulation complete CPU 0 instructions: 600000001 cycles: 343760039 cumulative IPC: 1.745 (Simulation time: 00 hr 58 min 47 sec)

ChampSim completed all CPUs

=== Simulation ===
CPU 0 runs traces/400.perlbench-41B.champsimtrace.xz
Region of Interest Statistics

CPU 0 cumulative IPC: 1.745 instructions: 600000001 cycles: 343760039
CPU 0 Branch Prediction Accuracy: 93.95% MPKI: 12.5 Average ROB Occupancy at Mispredict: 29.65
Branch type MPKI
BRANCH_DIRECT_JUMP: 0.0123
BRANCH_INDIRECT: 0.323
BRANCH_CONDITIONAL: 12
BRANCH_DIRECT_CALL: 0.0043
BRANCH_INDIRECT_CALL: 0.2
BRANCH_RETURN: 0.00828

LLC TOTAL        ACCESS:     940177 HIT:     555012 MISS:     385165
LLC LOAD         ACCESS:     401455 HIT:     245495 MISS:     155960
LLC RFO          ACCESS:      32816 HIT:      15026 MISS:      17790
LLC PREFETCH     ACCESS:     401455 HIT:     236640 MISS:     164815
LLC WRITE        ACCESS:      85419 HIT:      55669 MISS:      29750
LLC TRANSLATION  ACCESS:      19032 HIT:       2182 MISS:      16850
LLC PREFETCH REQUESTED:     401455 ISSUED:     401455 USEFUL:      41666 USELESS:      89905
LLC AVERAGE MISS LATENCY: 541.8 cycles
cpu0_DTLB TOTAL        ACCESS:  153656727 HIT:  152978571 MISS:     678156
cpu0_DTLB LOAD         ACCESS:  153656727 HIT:  152978571 MISS:     678156
cpu0_DTLB RFO          ACCESS:          0 HIT:          0 MISS:          0
cpu0_DTLB PREFETCH     ACCESS:          0 HIT:          0 MISS:          0
cpu0_DTLB WRITE        ACCESS:          0 HIT:          0 MISS:          0
cpu0_DTLB TRANSLATION  ACCESS:          0 HIT:          0 MISS:          0
cpu0_DTLB PREFETCH REQUESTED:          0 ISSUED:          0 USEFUL:          0 USELESS:          0
cpu0_DTLB AVERAGE MISS LATENCY: 22.64 cycles
cpu0_ITLB TOTAL        ACCESS:    4837804 HIT:    4779897 MISS:      57907
cpu0_ITLB LOAD         ACCESS:    4837804 HIT:    4779897 MISS:      57907
cpu0_ITLB RFO          ACCESS:          0 HIT:          0 MISS:          0
cpu0_ITLB PREFETCH     ACCESS:          0 HIT:          0 MISS:          0
cpu0_ITLB WRITE        ACCESS:          0 HIT:          0 MISS:          0
cpu0_ITLB TRANSLATION  ACCESS:          0 HIT:          0 MISS:          0
cpu0_ITLB PREFETCH REQUESTED:          0 ISSUED:          0 USEFUL:          0 USELESS:          0
cpu0_ITLB AVERAGE MISS LATENCY: 8.08 cycles
cpu0_L1D TOTAL        ACCESS:  200274096 HIT:  198554611 MISS:    1719485
cpu0_L1D LOAD         ACCESS:  117031628 HIT:  115698735 MISS:    1332893
cpu0_L1D RFO          ACCESS:          0 HIT:          0 MISS:          0
cpu0_L1D PREFETCH     ACCESS:          0 HIT:          0 MISS:          0
cpu0_L1D WRITE        ACCESS:   83218005 HIT:   82854840 MISS:     363165
cpu0_L1D TRANSLATION  ACCESS:      24463 HIT:       1036 MISS:      23427
cpu0_L1D PREFETCH REQUESTED:          0 ISSUED:          0 USEFUL:          0 USELESS:          0
cpu0_L1D AVERAGE MISS LATENCY: 74.39 cycles
cpu0_L1I TOTAL        ACCESS:    5580032 HIT:    4818609 MISS:     761423
cpu0_L1I LOAD         ACCESS:    5580032 HIT:    4818609 MISS:     761423
cpu0_L1I RFO          ACCESS:          0 HIT:          0 MISS:          0
cpu0_L1I PREFETCH     ACCESS:          0 HIT:          0 MISS:          0
cpu0_L1I WRITE        ACCESS:          0 HIT:          0 MISS:          0
cpu0_L1I TRANSLATION  ACCESS:          0 HIT:          0 MISS:          0
cpu0_L1I PREFETCH REQUESTED:          0 ISSUED:          0 USEFUL:          0 USELESS:          0
cpu0_L1I AVERAGE MISS LATENCY: 10.31 cycles
cpu0_L2C TOTAL        ACCESS:    1667781 HIT:    1212635 MISS:     455146
cpu0_L2C LOAD         ACCESS:    1317052 HIT:     915597 MISS:     401455
cpu0_L2C RFO          ACCESS:      88628 HIT:      55812 MISS:      32816
cpu0_L2C PREFETCH     ACCESS:          0 HIT:          0 MISS:          0
cpu0_L2C WRITE        ACCESS:     238758 HIT:     236915 MISS:       1843
cpu0_L2C TRANSLATION  ACCESS:      23343 HIT:       4311 MISS:      19032
cpu0_L2C PREFETCH REQUESTED:          0 ISSUED:          0 USEFUL:          0 USELESS:          0
cpu0_L2C AVERAGE MISS LATENCY: 275.1 cycles
cpu0_STLB TOTAL        ACCESS:     505138 HIT:     482351 MISS:      22787
cpu0_STLB LOAD         ACCESS:     505138 HIT:     482351 MISS:      22787
cpu0_STLB RFO          ACCESS:          0 HIT:          0 MISS:          0
cpu0_STLB PREFETCH     ACCESS:          0 HIT:          0 MISS:          0
cpu0_STLB WRITE        ACCESS:          0 HIT:          0 MISS:          0
cpu0_STLB TRANSLATION  ACCESS:          0 HIT:          0 MISS:          0
cpu0_STLB PREFETCH REQUESTED:          0 ISSUED:          0 USEFUL:          0 USELESS:          0
cpu0_STLB AVERAGE MISS LATENCY: 559.3 cycles

DRAM Statistics

Channel 0 RQ ROW_BUFFER_HIT:      47791
  ROW_BUFFER_MISS:     266522
 AVG DBUS CONGESTED CYCLE: 3.867
WQ ROW_BUFFER_HIT: Channel 0 
  ROW_BUFFER_MISS:       8014
  FULL:      31169
