WARNING: physical memory size is smaller than virtual memory size.

*** ChampSim Multicore Out-of-Order Simulator ***
Warmup Instructions: 50000000
Simulation Instructions: 600000000
Number of CPUs: 1
Page size: 4096

Off-chip DRAM Size: 4 GiB Channels: 1 Width: 64-bit Data Race: 3200 MT/s
Heartbeat CPU 0 instructions: 10000001 cycles: 2500318 heartbeat IPC: 3.999 cumulative IPC: 3.999 (Simulation time: 00 hr 00 min 21 sec)
Heartbeat CPU 0 instructions: 20000002 cycles: 5037121 heartbeat IPC: 3.942 cumulative IPC: 3.971 (Simulation time: 00 hr 00 min 47 sec)
Heartbeat CPU 0 instructions: 30000002 cycles: 7537121 heartbeat IPC: 4 cumulative IPC: 3.98 (Simulation time: 00 hr 01 min 15 sec)
Heartbeat CPU 0 instructions: 40000002 cycles: 10037121 heartbeat IPC: 4 cumulative IPC: 3.985 (Simulation time: 00 hr 01 min 49 sec)
Heartbeat CPU 0 instructions: 50000002 cycles: 12537121 heartbeat IPC: 4 cumulative IPC: 3.988 (Simulation time: 00 hr 02 min 26 sec)
Warmup finished CPU 0 instructions: 50000002 cycles: 12537122 cumulative IPC: 3.988 (Simulation time: 00 hr 02 min 26 sec)
Warmup complete CPU 0 instructions: 50000002 cycles: 12537122 cumulative IPC: 3.988 (Simulation time: 00 hr 02 min 26 sec)
Heartbeat CPU 0 instructions: 60000000 cycles: 17146535 heartbeat IPC: 2.169 cumulative IPC: 2.169 (Simulation time: 00 hr 03 min 22 sec)
Heartbeat CPU 0 instructions: 70000004 cycles: 21416376 heartbeat IPC: 2.342 cumulative IPC: 2.252 (Simulation time: 00 hr 04 min 16 sec)
Heartbeat CPU 0 instructions: 80000001 cycles: 26005072 heartbeat IPC: 2.179 cumulative IPC: 2.228 (Simulation time: 00 hr 05 min 09 sec)
Heartbeat CPU 0 instructions: 90000001 cycles: 30122236 heartbeat IPC: 2.429 cumulative IPC: 2.275 (Simulation time: 00 hr 06 min 00 sec)
Heartbeat CPU 0 instructions: 100000000 cycles: 34170207 heartbeat IPC: 2.47 cumulative IPC: 2.311 (Simulation time: 00 hr 06 min 52 sec)
Heartbeat CPU 0 instructions: 110000000 cycles: 38397773 heartbeat IPC: 2.365 cumulative IPC: 2.32 (Simulation time: 00 hr 07 min 44 sec)
Heartbeat CPU 0 instructions: 120000001 cycles: 42401135 heartbeat IPC: 2.498 cumulative IPC: 2.344 (Simulation time: 00 hr 08 min 32 sec)
Heartbeat CPU 0 instructions: 130000001 cycles: 46119687 heartbeat IPC: 2.689 cumulative IPC: 2.382 (Simulation time: 00 hr 09 min 17 sec)
Heartbeat CPU 0 instructions: 140000001 cycles: 50281621 heartbeat IPC: 2.403 cumulative IPC: 2.384 (Simulation time: 00 hr 10 min 03 sec)
Heartbeat CPU 0 instructions: 150000001 cycles: 54474108 heartbeat IPC: 2.385 cumulative IPC: 2.385 (Simulation time: 00 hr 10 min 52 sec)
Heartbeat CPU 0 instructions: 160000004 cycles: 58892060 heartbeat IPC: 2.263 cumulative IPC: 2.373 (Simulation time: 00 hr 11 min 39 sec)
Heartbeat CPU 0 instructions: 170000000 cycles: 68478580 heartbeat IPC: 1.043 cumulative IPC: 2.145 (Simulation time: 00 hr 13 min 01 sec)
Heartbeat CPU 0 instructions: 180000004 cycles: 79088264 heartbeat IPC: 0.9425 cumulative IPC: 1.953 (Simulation time: 00 hr 14 min 29 sec)
Heartbeat CPU 0 instructions: 190000001 cycles: 89289896 heartbeat IPC: 0.9802 cumulative IPC: 1.824 (Simulation time: 00 hr 15 min 54 sec)
Heartbeat CPU 0 instructions: 200000004 cycles: 93083610 heartbeat IPC: 2.636 cumulative IPC: 1.862 (Simulation time: 00 hr 16 min 40 sec)
Heartbeat CPU 0 instructions: 210000001 cycles: 97005081 heartbeat IPC: 2.55 cumulative IPC: 1.894 (Simulation time: 00 hr 17 min 26 sec)
Heartbeat CPU 0 instructions: 220000000 cycles: 100964795 heartbeat IPC: 2.525 cumulative IPC: 1.922 (Simulation time: 00 hr 18 min 15 sec)
Heartbeat CPU 0 instructions: 230000002 cycles: 105641834 heartbeat IPC: 2.138 cumulative IPC: 1.933 (Simulation time: 00 hr 19 min 05 sec)
Heartbeat CPU 0 instructions: 240000000 cycles: 109840572 heartbeat IPC: 2.382 cumulative IPC: 1.953 (Simulation time: 00 hr 19 min 54 sec)
Heartbeat CPU 0 instructions: 250000000 cycles: 114161608 heartbeat IPC: 2.314 cumulative IPC: 1.968 (Simulation time: 00 hr 20 min 41 sec)
Heartbeat CPU 0 instructions: 260000000 cycles: 118335144 heartbeat IPC: 2.396 cumulative IPC: 1.985 (Simulation time: 00 hr 21 min 28 sec)
Heartbeat CPU 0 instructions: 270000002 cycles: 122186596 heartbeat IPC: 2.596 cumulative IPC: 2.006 (Simulation time: 00 hr 22 min 17 sec)
Heartbeat CPU 0 instructions: 280000002 cycles: 126350623 heartbeat IPC: 2.402 cumulative IPC: 2.021 (Simulation time: 00 hr 23 min 05 sec)
Heartbeat CPU 0 instructions: 290000001 cycles: 130250810 heartbeat IPC: 2.564 cumulative IPC: 2.039 (Simulation time: 00 hr 23 min 51 sec)
Heartbeat CPU 0 instructions: 300000003 cycles: 134070026 heartbeat IPC: 2.618 cumulative IPC: 2.057 (Simulation time: 00 hr 24 min 36 sec)
Heartbeat CPU 0 instructions: 310000001 cycles: 138203779 heartbeat IPC: 2.419 cumulative IPC: 2.069 (Simulation time: 00 hr 25 min 22 sec)
Heartbeat CPU 0 instructions: 320000003 cycles: 142283977 heartbeat IPC: 2.451 cumulative IPC: 2.081 (Simulation time: 00 hr 26 min 08 sec)
Heartbeat CPU 0 instructions: 330000003 cycles: 146692551 heartbeat IPC: 2.268 cumulative IPC: 2.087 (Simulation time: 00 hr 26 min 57 sec)
Heartbeat CPU 0 instructions: 340000000 cycles: 156503649 heartbeat IPC: 1.019 cumulative IPC: 2.014 (Simulation time: 00 hr 28 min 16 sec)
Heartbeat CPU 0 instructions: 350000000 cycles: 167394758 heartbeat IPC: 0.9182 cumulative IPC: 1.937 (Simulation time: 00 hr 29 min 43 sec)
Heartbeat CPU 0 instructions: 360000004 cycles: 177531968 heartbeat IPC: 0.9865 cumulative IPC: 1.879 (Simulation time: 00 hr 31 min 05 sec)
Heartbeat CPU 0 instructions: 370000000 cycles: 180971030 heartbeat IPC: 2.908 cumulative IPC: 1.9 (Simulation time: 00 hr 31 min 48 sec)
Heartbeat CPU 0 instructions: 380000001 cycles: 184401151 heartbeat IPC: 2.915 cumulative IPC: 1.92 (Simulation time: 00 hr 32 min 32 sec)
Heartbeat CPU 0 instructions: 390000004 cycles: 188146218 heartbeat IPC: 2.67 cumulative IPC: 1.936 (Simulation time: 00 hr 33 min 17 sec)
Heartbeat CPU 0 instructions: 400000004 cycles: 191954882 heartbeat IPC: 2.626 cumulative IPC: 1.951 (Simulation time: 00 hr 34 min 01 sec)
Heartbeat CPU 0 instructions: 410000001 cycles: 195621483 heartbeat IPC: 2.727 cumulative IPC: 1.966 (Simulation time: 00 hr 34 min 46 sec)
Heartbeat CPU 0 instructions: 420000003 cycles: 199668927 heartbeat IPC: 2.471 cumulative IPC: 1.977 (Simulation time: 00 hr 35 min 33 sec)
Heartbeat CPU 0 instructions: 430000001 cycles: 203330892 heartbeat IPC: 2.731 cumulative IPC: 1.992 (Simulation time: 00 hr 36 min 18 sec)
Heartbeat CPU 0 instructions: 440000004 cycles: 207415347 heartbeat IPC: 2.448 cumulative IPC: 2.001 (Simulation time: 00 hr 37 min 04 sec)
Heartbeat CPU 0 instructions: 450000002 cycles: 211141844 heartbeat IPC: 2.683 cumulative IPC: 2.014 (Simulation time: 00 hr 37 min 50 sec)
Heartbeat CPU 0 instructions: 460000000 cycles: 214802981 heartbeat IPC: 2.731 cumulative IPC: 2.027 (Simulation time: 00 hr 38 min 34 sec)
Heartbeat CPU 0 instructions: 470000000 cycles: 218265413 heartbeat IPC: 2.888 cumulative IPC: 2.042 (Simulation time: 00 hr 39 min 18 sec)
Heartbeat CPU 0 instructions: 480000003 cycles: 222084174 heartbeat IPC: 2.619 cumulative IPC: 2.052 (Simulation time: 00 hr 40 min 03 sec)
Heartbeat CPU 0 instructions: 490000000 cycles: 225706381 heartbeat IPC: 2.761 cumulative IPC: 2.064 (Simulation time: 00 hr 40 min 48 sec)
Heartbeat CPU 0 instructions: 500000000 cycles: 229406223 heartbeat IPC: 2.703 cumulative IPC: 2.075 (Simulation time: 00 hr 41 min 33 sec)
Heartbeat CPU 0 instructions: 510000003 cycles: 233054203 heartbeat IPC: 2.741 cumulative IPC: 2.086 (Simulation time: 00 hr 42 min 18 sec)
Heartbeat CPU 0 instructions: 520000001 cycles: 236457333 heartbeat IPC: 2.938 cumulative IPC: 2.099 (Simulation time: 00 hr 43 min 01 sec)
Heartbeat CPU 0 instructions: 530000002 cycles: 240128497 heartbeat IPC: 2.724 cumulative IPC: 2.109 (Simulation time: 00 hr 43 min 47 sec)
Heartbeat CPU 0 instructions: 540000000 cycles: 243654757 heartbeat IPC: 2.836 cumulative IPC: 2.12 (Simulation time: 00 hr 44 min 31 sec)
Heartbeat CPU 0 instructions: 550000001 cycles: 247348981 heartbeat IPC: 2.707 cumulative IPC: 2.129 (Simulation time: 00 hr 45 min 17 sec)
Heartbeat CPU 0 instructions: 560000000 cycles: 251321282 heartbeat IPC: 2.517 cumulative IPC: 2.136 (Simulation time: 00 hr 46 min 03 sec)
Heartbeat CPU 0 instructions: 570000004 cycles: 257616535 heartbeat IPC: 1.588 cumulative IPC: 2.122 (Simulation time: 00 hr 47 min 04 sec)
Heartbeat CPU 0 instructions: 580000003 cycles: 268782117 heartbeat IPC: 0.8956 cumulative IPC: 2.068 (Simulation time: 00 hr 48 min 33 sec)
Heartbeat CPU 0 instructions: 590000002 cycles: 281779439 heartbeat IPC: 0.7694 cumulative IPC: 2.006 (Simulation time: 00 hr 50 min 13 sec)
Heartbeat CPU 0 instructions: 600000000 cycles: 285525491 heartbeat IPC: 2.669 cumulative IPC: 2.015 (Simulation time: 00 hr 50 min 58 sec)
Heartbeat CPU 0 instructions: 610000000 cycles: 289388702 heartbeat IPC: 2.589 cumulative IPC: 2.023 (Simulation time: 00 hr 51 min 44 sec)
Heartbeat CPU 0 instructions: 620000001 cycles: 292826187 heartbeat IPC: 2.909 cumulative IPC: 2.034 (Simulation time: 00 hr 52 min 27 sec)
Heartbeat CPU 0 instructions: 630000002 cycles: 297105392 heartbeat IPC: 2.337 cumulative IPC: 2.038 (Simulation time: 00 hr 53 min 15 sec)
Heartbeat CPU 0 instructions: 640000001 cycles: 301002286 heartbeat IPC: 2.566 cumulative IPC: 2.045 (Simulation time: 00 hr 54 min 00 sec)
Heartbeat CPU 0 instructions: 650000000 cycles: 304756429 heartbeat IPC: 2.664 cumulative IPC: 2.053 (Simulation time: 00 hr 54 min 44 sec)
Simulation finished CPU 0 instructions: 600000001 cycles: 292219309 cumulative IPC: 2.053 (Simulation time: 00 hr 54 min 44 sec)
Simulation complete CPU 0 instructions: 600000001 cycles: 292219309 cumulative IPC: 2.053 (Simulation time: 00 hr 54 min 44 sec)

ChampSim completed all CPUs

=== Simulation ===
CPU 0 runs traces/400.perlbench-41B.champsimtrace.xz
Region of Interest Statistics

CPU 0 cumulative IPC: 2.053 instructions: 600000001 cycles: 292219309
CPU 0 Branch Prediction Accuracy: 96.56% MPKI: 7.112 Average ROB Occupancy at Mispredict: 47.23
Branch type MPKI
BRANCH_DIRECT_JUMP: 0.0123
BRANCH_INDIRECT: 0.323
BRANCH_CONDITIONAL: 6.56
BRANCH_DIRECT_CALL: 0.0043
BRANCH_INDIRECT_CALL: 0.2
BRANCH_RETURN: 0.00828

LLC TOTAL        ACCESS:     937694 HIT:     516301 MISS:     421393
LLC LOAD         ACCESS:     400732 HIT:     211225 MISS:     189507
LLC RFO          ACCESS:      32429 HIT:      17510 MISS:      14919
LLC PREFETCH     ACCESS:     400732 HIT:     195739 MISS:     204993
LLC WRITE        ACCESS:      84742 HIT:      84274 MISS:        468
LLC TRANSLATION  ACCESS:      19059 HIT:       7553 MISS:      11506
LLC PREFETCH REQUESTED:     400732 ISSUED:     400732 USEFUL:      76392 USELESS:      81976
LLC AVERAGE MISS LATENCY: 594.5 cycles
cpu0_DTLB TOTAL        ACCESS:  141907845 HIT:  141220785 MISS:     687060
cpu0_DTLB LOAD         ACCESS:  141907845 HIT:  141220785 MISS:     687060
cpu0_DTLB RFO          ACCESS:          0 HIT:          0 MISS:          0
cpu0_DTLB PREFETCH     ACCESS:          0 HIT:          0 MISS:          0
cpu0_DTLB WRITE        ACCESS:          0 HIT:          0 MISS:          0
cpu0_DTLB TRANSLATION  ACCESS:          0 HIT:          0 MISS:          0
cpu0_DTLB PREFETCH REQUESTED:          0 ISSUED:          0 USEFUL:          0 USELESS:          0
cpu0_DTLB AVERAGE MISS LATENCY: 17.3 cycles
cpu0_ITLB TOTAL        ACCESS:    4857425 HIT:    4804274 MISS:      53151
cpu0_ITLB LOAD         ACCESS:    4857425 HIT:    4804274 MISS:      53151
cpu0_ITLB RFO          ACCESS:          0 HIT:          0 MISS:          0
cpu0_ITLB PREFETCH     ACCESS:          0 HIT:          0 MISS:          0
cpu0_ITLB WRITE        ACCESS:          0 HIT:          0 MISS:          0
cpu0_ITLB TRANSLATION  ACCESS:          0 HIT:          0 MISS:          0
cpu0_ITLB PREFETCH REQUESTED:          0 ISSUED:          0 USEFUL:          0 USELESS:          0
cpu0_ITLB AVERAGE MISS LATENCY: 8.812 cycles
cpu0_L1D TOTAL        ACCESS:  188570488 HIT:  186833840 MISS:    1736648
cpu0_L1D LOAD         ACCESS:  105203875 HIT:  103848360 MISS:    1355515
cpu0_L1D RFO          ACCESS:          0 HIT:          0 MISS:          0
cpu0_L1D PREFETCH     ACCESS:          0 HIT:          0 MISS:          0
cpu0_L1D WRITE        ACCESS:   83342153 HIT:   82984417 MISS:     357736
cpu0_L1D TRANSLATION  ACCESS:      24460 HIT:       1063 MISS:      23397
cpu0_L1D PREFETCH REQUESTED:          0 ISSUED:          0 USEFUL:          0 USELESS:          0
cpu0_L1D AVERAGE MISS LATENCY: 85.3 cycles
cpu0_L1I TOTAL        ACCESS:    5595364 HIT:    4851934 MISS:     743430
cpu0_L1I LOAD         ACCESS:    5595364 HIT:    4851934 MISS:     743430
cpu0_L1I RFO          ACCESS:          0 HIT:          0 MISS:          0
cpu0_L1I PREFETCH     ACCESS:          0 HIT:          0 MISS:          0
cpu0_L1I WRITE        ACCESS:          0 HIT:          0 MISS:          0
cpu0_L1I TRANSLATION  ACCESS:          0 HIT:          0 MISS:          0
cpu0_L1I PREFETCH REQUESTED:          0 ISSUED:          0 USEFUL:          0 USELESS:          0
cpu0_L1I AVERAGE MISS LATENCY: 12.93 cycles
cpu0_L2C TOTAL        ACCESS:    1665693 HIT:    1211679 MISS:     454014
cpu0_L2C LOAD         ACCESS:    1315959 HIT:     915227 MISS:     400732
cpu0_L2C RFO          ACCESS:      88343 HIT:      55914 MISS:      32429
cpu0_L2C PREFETCH     ACCESS:          0 HIT:          0 MISS:          0
cpu0_L2C WRITE        ACCESS:     238061 HIT:     236267 MISS:       1794
cpu0_L2C TRANSLATION  ACCESS:      23330 HIT:       4271 MISS:      19059
cpu0_L2C PREFETCH REQUESTED:          0 ISSUED:          0 USEFUL:          0 USELESS:          0
cpu0_L2C AVERAGE MISS LATENCY: 328.1 cycles
cpu0_STLB TOTAL        ACCESS:     507387 HIT:     484593 MISS:      22794
cpu0_STLB LOAD         ACCESS:     507387 HIT:     484593 MISS:      22794
cpu0_STLB RFO          ACCESS:          0 HIT:          0 MISS:          0
cpu0_STLB PREFETCH     ACCESS:          0 HIT:          0 MISS:          0
cpu0_STLB WRITE        ACCESS:          0 HIT:          0 MISS:          0
cpu0_STLB TRANSLATION  ACCESS:          0 HIT:          0 MISS:          0
cpu0_STLB PREFETCH REQUESTED:          0 ISSUED:          0 USEFUL:          0 USELESS:          0
cpu0_STLB AVERAGE MISS LATENCY: 406 cycles

DRAM Statistics

Channel 0 RQ ROW_BUFFER_HIT:      63656
  ROW_BUFFER_MISS:     294747
 AVG DBUS CONGESTED CYCLE: 3.877
WQ ROW_BUFFER_HIT: Channel 0 
  ROW_BUFFER_MISS:       5526
  FULL:      36115
