WARNING: physical memory size is smaller than virtual memory size.

*** ChampSim Multicore Out-of-Order Simulator ***
Warmup Instructions: 50000000
Simulation Instructions: 600000000
Number of CPUs: 1
Page size: 4096

Off-chip DRAM Size: 4 GiB Channels: 1 Width: 64-bit Data Race: 3200 MT/s
Heartbeat CPU 0 instructions: 10000000 cycles: 2500061 heartbeat IPC: 4 cumulative IPC: 4 (Simulation time: 00 hr 00 min 22 sec)
Heartbeat CPU 0 instructions: 20000000 cycles: 5000061 heartbeat IPC: 4 cumulative IPC: 4 (Simulation time: 00 hr 00 min 51 sec)
Heartbeat CPU 0 instructions: 30000000 cycles: 7500061 heartbeat IPC: 4 cumulative IPC: 4 (Simulation time: 00 hr 01 min 26 sec)
Heartbeat CPU 0 instructions: 40000000 cycles: 10000061 heartbeat IPC: 4 cumulative IPC: 4 (Simulation time: 00 hr 02 min 04 sec)
Heartbeat CPU 0 instructions: 50000000 cycles: 12500061 heartbeat IPC: 4 cumulative IPC: 4 (Simulation time: 00 hr 02 min 47 sec)
Warmup finished CPU 0 instructions: 50000000 cycles: 12500062 cumulative IPC: 4 (Simulation time: 00 hr 02 min 47 sec)
Warmup complete CPU 0 instructions: 50000000 cycles: 12500062 cumulative IPC: 4 (Simulation time: 00 hr 02 min 47 sec)
Heartbeat CPU 0 instructions: 60000002 cycles: 16907366 heartbeat IPC: 2.269 cumulative IPC: 2.269 (Simulation time: 00 hr 03 min 55 sec)
Heartbeat CPU 0 instructions: 70000003 cycles: 21889050 heartbeat IPC: 2.007 cumulative IPC: 2.13 (Simulation time: 00 hr 05 min 02 sec)
Heartbeat CPU 0 instructions: 80000001 cycles: 27230745 heartbeat IPC: 1.872 cumulative IPC: 2.037 (Simulation time: 00 hr 06 min 13 sec)
Heartbeat CPU 0 instructions: 90000000 cycles: 31527294 heartbeat IPC: 2.327 cumulative IPC: 2.102 (Simulation time: 00 hr 07 min 19 sec)
Heartbeat CPU 0 instructions: 100000003 cycles: 36379334 heartbeat IPC: 2.061 cumulative IPC: 2.094 (Simulation time: 00 hr 08 min 33 sec)
Heartbeat CPU 0 instructions: 110000002 cycles: 41247374 heartbeat IPC: 2.054 cumulative IPC: 2.087 (Simulation time: 00 hr 09 min 46 sec)
Heartbeat CPU 0 instructions: 120000001 cycles: 46240828 heartbeat IPC: 2.003 cumulative IPC: 2.075 (Simulation time: 00 hr 10 min 55 sec)
Heartbeat CPU 0 instructions: 130000003 cycles: 50807189 heartbeat IPC: 2.19 cumulative IPC: 2.088 (Simulation time: 00 hr 11 min 59 sec)
Heartbeat CPU 0 instructions: 140000002 cycles: 55694832 heartbeat IPC: 2.046 cumulative IPC: 2.084 (Simulation time: 00 hr 13 min 06 sec)
Heartbeat CPU 0 instructions: 150000001 cycles: 60360024 heartbeat IPC: 2.144 cumulative IPC: 2.089 (Simulation time: 00 hr 14 min 13 sec)
Heartbeat CPU 0 instructions: 160000000 cycles: 64996045 heartbeat IPC: 2.157 cumulative IPC: 2.095 (Simulation time: 00 hr 15 min 21 sec)
Heartbeat CPU 0 instructions: 170000000 cycles: 70325364 heartbeat IPC: 1.876 cumulative IPC: 2.075 (Simulation time: 00 hr 16 min 32 sec)
Heartbeat CPU 0 instructions: 180000001 cycles: 76043102 heartbeat IPC: 1.749 cumulative IPC: 2.046 (Simulation time: 00 hr 17 min 44 sec)
Heartbeat CPU 0 instructions: 190000002 cycles: 80511237 heartbeat IPC: 2.238 cumulative IPC: 2.058 (Simulation time: 00 hr 18 min 47 sec)
Heartbeat CPU 0 instructions: 200000002 cycles: 85411855 heartbeat IPC: 2.041 cumulative IPC: 2.057 (Simulation time: 00 hr 19 min 54 sec)
Heartbeat CPU 0 instructions: 210000000 cycles: 90414257 heartbeat IPC: 1.999 cumulative IPC: 2.054 (Simulation time: 00 hr 21 min 02 sec)
Heartbeat CPU 0 instructions: 220000001 cycles: 95337287 heartbeat IPC: 2.031 cumulative IPC: 2.052 (Simulation time: 00 hr 22 min 06 sec)
Heartbeat CPU 0 instructions: 230000002 cycles: 100581995 heartbeat IPC: 1.907 cumulative IPC: 2.044 (Simulation time: 00 hr 23 min 13 sec)
Heartbeat CPU 0 instructions: 240000001 cycles: 105545391 heartbeat IPC: 2.015 cumulative IPC: 2.042 (Simulation time: 00 hr 24 min 17 sec)
Heartbeat CPU 0 instructions: 250000003 cycles: 110720955 heartbeat IPC: 1.932 cumulative IPC: 2.036 (Simulation time: 00 hr 25 min 20 sec)
Heartbeat CPU 0 instructions: 260000001 cycles: 115577755 heartbeat IPC: 2.059 cumulative IPC: 2.037 (Simulation time: 00 hr 26 min 24 sec)
Heartbeat CPU 0 instructions: 270000000 cycles: 123361249 heartbeat IPC: 1.285 cumulative IPC: 1.984 (Simulation time: 00 hr 27 min 53 sec)
Heartbeat CPU 0 instructions: 280000000 cycles: 135374888 heartbeat IPC: 0.8324 cumulative IPC: 1.872 (Simulation time: 00 hr 29 min 53 sec)
Heartbeat CPU 0 instructions: 290000001 cycles: 146197522 heartbeat IPC: 0.924 cumulative IPC: 1.795 (Simulation time: 00 hr 31 min 44 sec)
Heartbeat CPU 0 instructions: 300000003 cycles: 154274978 heartbeat IPC: 1.238 cumulative IPC: 1.763 (Simulation time: 00 hr 33 min 26 sec)
Heartbeat CPU 0 instructions: 310000004 cycles: 165840027 heartbeat IPC: 0.8647 cumulative IPC: 1.696 (Simulation time: 00 hr 35 min 32 sec)
Heartbeat CPU 0 instructions: 320000004 cycles: 171622295 heartbeat IPC: 1.729 cumulative IPC: 1.697 (Simulation time: 00 hr 36 min 52 sec)
Heartbeat CPU 0 instructions: 330000000 cycles: 176933041 heartbeat IPC: 1.883 cumulative IPC: 1.703 (Simulation time: 00 hr 38 min 04 sec)
Heartbeat CPU 0 instructions: 340000001 cycles: 182237304 heartbeat IPC: 1.885 cumulative IPC: 1.709 (Simulation time: 00 hr 39 min 08 sec)
Heartbeat CPU 0 instructions: 350000000 cycles: 187751496 heartbeat IPC: 1.814 cumulative IPC: 1.712 (Simulation time: 00 hr 39 min 59 sec)
Heartbeat CPU 0 instructions: 360000003 cycles: 193011545 heartbeat IPC: 1.901 cumulative IPC: 1.717 (Simulation time: 00 hr 40 min 49 sec)
Heartbeat CPU 0 instructions: 370000001 cycles: 198135867 heartbeat IPC: 1.951 cumulative IPC: 1.724 (Simulation time: 00 hr 41 min 39 sec)
Heartbeat CPU 0 instructions: 380000004 cycles: 203534094 heartbeat IPC: 1.852 cumulative IPC: 1.727 (Simulation time: 00 hr 42 min 29 sec)
Heartbeat CPU 0 instructions: 390000002 cycles: 209047087 heartbeat IPC: 1.814 cumulative IPC: 1.73 (Simulation time: 00 hr 43 min 19 sec)
Heartbeat CPU 0 instructions: 400000000 cycles: 214678778 heartbeat IPC: 1.776 cumulative IPC: 1.731 (Simulation time: 00 hr 44 min 10 sec)
Heartbeat CPU 0 instructions: 410000000 cycles: 223754639 heartbeat IPC: 1.102 cumulative IPC: 1.704 (Simulation time: 00 hr 45 min 20 sec)
Heartbeat CPU 0 instructions: 420000001 cycles: 236510738 heartbeat IPC: 0.7839 cumulative IPC: 1.652 (Simulation time: 00 hr 46 min 57 sec)
Heartbeat CPU 0 instructions: 430000000 cycles: 244658309 heartbeat IPC: 1.227 cumulative IPC: 1.637 (Simulation time: 00 hr 48 min 05 sec)
Heartbeat CPU 0 instructions: 440000002 cycles: 252552663 heartbeat IPC: 1.267 cumulative IPC: 1.625 (Simulation time: 00 hr 49 min 22 sec)
Heartbeat CPU 0 instructions: 450000000 cycles: 259809714 heartbeat IPC: 1.378 cumulative IPC: 1.617 (Simulation time: 00 hr 50 min 27 sec)
Heartbeat CPU 0 instructions: 460000002 cycles: 272015119 heartbeat IPC: 0.8193 cumulative IPC: 1.58 (Simulation time: 00 hr 51 min 58 sec)
Heartbeat CPU 0 instructions: 470000000 cycles: 282507654 heartbeat IPC: 0.9531 cumulative IPC: 1.556 (Simulation time: 00 hr 53 min 18 sec)
Heartbeat CPU 0 instructions: 480000000 cycles: 288076322 heartbeat IPC: 1.796 cumulative IPC: 1.56 (Simulation time: 00 hr 54 min 10 sec)
Heartbeat CPU 0 instructions: 490000001 cycles: 293822025 heartbeat IPC: 1.74 cumulative IPC: 1.564 (Simulation time: 00 hr 55 min 03 sec)
Heartbeat CPU 0 instructions: 500000002 cycles: 299494745 heartbeat IPC: 1.763 cumulative IPC: 1.568 (Simulation time: 00 hr 55 min 56 sec)
Heartbeat CPU 0 instructions: 510000000 cycles: 305201046 heartbeat IPC: 1.752 cumulative IPC: 1.572 (Simulation time: 00 hr 56 min 48 sec)
Heartbeat CPU 0 instructions: 520000000 cycles: 310978706 heartbeat IPC: 1.731 cumulative IPC: 1.575 (Simulation time: 00 hr 57 min 40 sec)
Heartbeat CPU 0 instructions: 530000001 cycles: 323817552 heartbeat IPC: 0.7789 cumulative IPC: 1.542 (Simulation time: 00 hr 59 min 12 sec)
Heartbeat CPU 0 instructions: 540000000 cycles: 335746447 heartbeat IPC: 0.8383 cumulative IPC: 1.516 (Simulation time: 01 hr 00 min 41 sec)
Heartbeat CPU 0 instructions: 550000002 cycles: 350041905 heartbeat IPC: 0.6995 cumulative IPC: 1.481 (Simulation time: 01 hr 02 min 20 sec)
Heartbeat CPU 0 instructions: 560000004 cycles: 354941717 heartbeat IPC: 2.041 cumulative IPC: 1.489 (Simulation time: 01 hr 03 min 08 sec)
Heartbeat CPU 0 instructions: 570000001 cycles: 359349658 heartbeat IPC: 2.269 cumulative IPC: 1.499 (Simulation time: 01 hr 03 min 56 sec)
Heartbeat CPU 0 instructions: 580000003 cycles: 363594327 heartbeat IPC: 2.356 cumulative IPC: 1.51 (Simulation time: 01 hr 04 min 45 sec)
Heartbeat CPU 0 instructions: 590000001 cycles: 368495842 heartbeat IPC: 2.04 cumulative IPC: 1.517 (Simulation time: 01 hr 05 min 37 sec)
Heartbeat CPU 0 instructions: 600000003 cycles: 373138037 heartbeat IPC: 2.154 cumulative IPC: 1.525 (Simulation time: 01 hr 06 min 28 sec)
Heartbeat CPU 0 instructions: 610000001 cycles: 377998405 heartbeat IPC: 2.057 cumulative IPC: 1.532 (Simulation time: 01 hr 07 min 16 sec)
Heartbeat CPU 0 instructions: 620000000 cycles: 383065125 heartbeat IPC: 1.974 cumulative IPC: 1.538 (Simulation time: 01 hr 08 min 11 sec)
Heartbeat CPU 0 instructions: 630000002 cycles: 387312307 heartbeat IPC: 2.355 cumulative IPC: 1.547 (Simulation time: 01 hr 08 min 57 sec)
Heartbeat CPU 0 instructions: 640000004 cycles: 392633512 heartbeat IPC: 1.879 cumulative IPC: 1.552 (Simulation time: 01 hr 09 min 54 sec)
Heartbeat CPU 0 instructions: 650000001 cycles: 397397924 heartbeat IPC: 2.099 cumulative IPC: 1.559 (Simulation time: 01 hr 10 min 47 sec)
Simulation finished CPU 0 instructions: 600000001 cycles: 384897863 cumulative IPC: 1.559 (Simulation time: 01 hr 10 min 47 sec)
Simulation complete CPU 0 instructions: 600000001 cycles: 384897863 cumulative IPC: 1.559 (Simulation time: 01 hr 10 min 47 sec)

ChampSim completed all CPUs

=== Simulation ===
CPU 0 runs traces/400.perlbench-50B.champsimtrace.xz
Region of Interest Statistics

CPU 0 cumulative IPC: 1.559 instructions: 600000001 cycles: 384897863
CPU 0 Branch Prediction Accuracy: 93.83% MPKI: 12.71 Average ROB Occupancy at Mispredict: 29.54
Branch type MPKI
BRANCH_DIRECT_JUMP: 0.0176
BRANCH_INDIRECT: 0.38
BRANCH_CONDITIONAL: 11.9
BRANCH_DIRECT_CALL: 0.0067
BRANCH_INDIRECT_CALL: 0.431
BRANCH_RETURN: 0.0161

LLC TOTAL        ACCESS:     851278 HIT:     483325 MISS:     367953
LLC LOAD         ACCESS:     587441 HIT:     301059 MISS:     286382
LLC RFO          ACCESS:      47665 HIT:      26525 MISS:      21140
LLC PREFETCH     ACCESS:      65831 HIT:      35606 MISS:      30225
LLC WRITE        ACCESS:     128348 HIT:     111457 MISS:      16891
LLC TRANSLATION  ACCESS:      21993 HIT:       8678 MISS:      13315
LLC PREFETCH REQUESTED:      65831 ISSUED:      65831 USEFUL:      19382 USELESS:       5588
LLC AVERAGE MISS LATENCY: 516.9 cycles
cpu0_DTLB TOTAL        ACCESS:  156771584 HIT:  155469955 MISS:    1301629
cpu0_DTLB LOAD         ACCESS:  156771584 HIT:  155469955 MISS:    1301629
cpu0_DTLB RFO          ACCESS:          0 HIT:          0 MISS:          0
cpu0_DTLB PREFETCH     ACCESS:          0 HIT:          0 MISS:          0
cpu0_DTLB WRITE        ACCESS:          0 HIT:          0 MISS:          0
cpu0_DTLB TRANSLATION  ACCESS:          0 HIT:          0 MISS:          0
cpu0_DTLB PREFETCH REQUESTED:          0 ISSUED:          0 USEFUL:          0 USELESS:          0
cpu0_DTLB AVERAGE MISS LATENCY: 12.85 cycles
cpu0_ITLB TOTAL        ACCESS:    8933046 HIT:    8734472 MISS:     198574
cpu0_ITLB LOAD         ACCESS:    8933046 HIT:    8734472 MISS:     198574
cpu0_ITLB RFO          ACCESS:          0 HIT:          0 MISS:          0
cpu0_ITLB PREFETCH     ACCESS:          0 HIT:          0 MISS:          0
cpu0_ITLB WRITE        ACCESS:          0 HIT:          0 MISS:          0
cpu0_ITLB TRANSLATION  ACCESS:          0 HIT:          0 MISS:          0
cpu0_ITLB PREFETCH REQUESTED:          0 ISSUED:          0 USEFUL:          0 USELESS:          0
cpu0_ITLB AVERAGE MISS LATENCY: 3.277 cycles
cpu0_L1D TOTAL        ACCESS:  203611655 HIT:  199934439 MISS:    3677216
cpu0_L1D LOAD         ACCESS:  117934735 HIT:  114915166 MISS:    3019569
cpu0_L1D RFO          ACCESS:          0 HIT:          0 MISS:          0
cpu0_L1D PREFETCH     ACCESS:          0 HIT:          0 MISS:          0
cpu0_L1D WRITE        ACCESS:   85648377 HIT:   85017877 MISS:     630500
cpu0_L1D TRANSLATION  ACCESS:      28543 HIT:       1396 MISS:      27147
cpu0_L1D PREFETCH REQUESTED:          0 ISSUED:          0 USEFUL:          0 USELESS:          0
cpu0_L1D AVERAGE MISS LATENCY: 51.69 cycles
cpu0_L1I TOTAL        ACCESS:   10371624 HIT:    8574375 MISS:    1797249
cpu0_L1I LOAD         ACCESS:   10371624 HIT:    8574375 MISS:    1797249
cpu0_L1I RFO          ACCESS:          0 HIT:          0 MISS:          0
cpu0_L1I PREFETCH     ACCESS:          0 HIT:          0 MISS:          0
cpu0_L1I WRITE        ACCESS:          0 HIT:          0 MISS:          0
cpu0_L1I TRANSLATION  ACCESS:          0 HIT:          0 MISS:          0
cpu0_L1I PREFETCH REQUESTED:          0 ISSUED:          0 USEFUL:          0 USELESS:          0
cpu0_L1I AVERAGE MISS LATENCY: 12.06 cycles
cpu0_L2C TOTAL        ACCESS:    3837061 HIT:    3176738 MISS:     660323
cpu0_L2C LOAD         ACCESS:    3106343 HIT:    2518902 MISS:     587441
cpu0_L2C RFO          ACCESS:     191822 HIT:     144157 MISS:      47665
cpu0_L2C PREFETCH     ACCESS:          0 HIT:          0 MISS:          0
cpu0_L2C WRITE        ACCESS:     511832 HIT:     508608 MISS:       3224
cpu0_L2C TRANSLATION  ACCESS:      27064 HIT:       5071 MISS:      21993
cpu0_L2C PREFETCH REQUESTED:          0 ISSUED:          0 USEFUL:          0 USELESS:          0
cpu0_L2C AVERAGE MISS LATENCY: 281.6 cycles
cpu0_STLB TOTAL        ACCESS:    1009339 HIT:     982647 MISS:      26692
cpu0_STLB LOAD         ACCESS:    1009339 HIT:     982647 MISS:      26692
cpu0_STLB RFO          ACCESS:          0 HIT:          0 MISS:          0
cpu0_STLB PREFETCH     ACCESS:          0 HIT:          0 MISS:          0
cpu0_STLB WRITE        ACCESS:          0 HIT:          0 MISS:          0
cpu0_STLB TRANSLATION  ACCESS:          0 HIT:          0 MISS:          0
cpu0_STLB PREFETCH REQUESTED:          0 ISSUED:          0 USEFUL:          0 USELESS:          0
cpu0_STLB AVERAGE MISS LATENCY: 408 cycles

DRAM Statistics

Channel 0 RQ ROW_BUFFER_HIT:      65973
  ROW_BUFFER_MISS:     279487
 AVG DBUS CONGESTED CYCLE: 3.809
WQ ROW_BUFFER_HIT: Channel 0 
  ROW_BUFFER_MISS:      10684
  FULL:      40044
Final OPTGen Hits: 7332
Final OPTGen Access: 10483
Final OPTGEN Hit Rate: 69.9419
