WARNING: physical memory size is smaller than virtual memory size.

*** ChampSim Multicore Out-of-Order Simulator ***
Warmup Instructions: 50000000
Simulation Instructions: 600000000
Number of CPUs: 1
Page size: 4096

Off-chip DRAM Size: 4 GiB Channels: 1 Width: 64-bit Data Race: 3200 MT/s
Heartbeat CPU 0 instructions: 10000001 cycles: 2500318 heartbeat IPC: 3.999 cumulative IPC: 3.999 (Simulation time: 00 hr 00 min 50 sec)
Heartbeat CPU 0 instructions: 20000002 cycles: 5037136 heartbeat IPC: 3.942 cumulative IPC: 3.971 (Simulation time: 00 hr 01 min 41 sec)
Heartbeat CPU 0 instructions: 30000002 cycles: 7537136 heartbeat IPC: 4 cumulative IPC: 3.98 (Simulation time: 00 hr 02 min 29 sec)
Heartbeat CPU 0 instructions: 40000002 cycles: 10037136 heartbeat IPC: 4 cumulative IPC: 3.985 (Simulation time: 00 hr 03 min 21 sec)
Heartbeat CPU 0 instructions: 50000002 cycles: 12537136 heartbeat IPC: 4 cumulative IPC: 3.988 (Simulation time: 00 hr 04 min 19 sec)
Warmup finished CPU 0 instructions: 50000002 cycles: 12537137 cumulative IPC: 3.988 (Simulation time: 00 hr 04 min 19 sec)
Warmup complete CPU 0 instructions: 50000002 cycles: 12537137 cumulative IPC: 3.988 (Simulation time: 00 hr 04 min 19 sec)
Heartbeat CPU 0 instructions: 60000000 cycles: 17150470 heartbeat IPC: 2.168 cumulative IPC: 2.168 (Simulation time: 00 hr 05 min 37 sec)
Heartbeat CPU 0 instructions: 70000004 cycles: 21424093 heartbeat IPC: 2.34 cumulative IPC: 2.25 (Simulation time: 00 hr 06 min 51 sec)
Heartbeat CPU 0 instructions: 80000001 cycles: 26023236 heartbeat IPC: 2.174 cumulative IPC: 2.225 (Simulation time: 00 hr 08 min 02 sec)
Heartbeat CPU 0 instructions: 90000001 cycles: 30155925 heartbeat IPC: 2.42 cumulative IPC: 2.27 (Simulation time: 00 hr 09 min 07 sec)
Heartbeat CPU 0 instructions: 100000000 cycles: 34217728 heartbeat IPC: 2.462 cumulative IPC: 2.306 (Simulation time: 00 hr 10 min 09 sec)
Heartbeat CPU 0 instructions: 110000000 cycles: 38451429 heartbeat IPC: 2.362 cumulative IPC: 2.315 (Simulation time: 00 hr 11 min 12 sec)
Heartbeat CPU 0 instructions: 120000001 cycles: 42462145 heartbeat IPC: 2.493 cumulative IPC: 2.339 (Simulation time: 00 hr 12 min 16 sec)
Heartbeat CPU 0 instructions: 130000001 cycles: 46197131 heartbeat IPC: 2.677 cumulative IPC: 2.377 (Simulation time: 00 hr 13 min 17 sec)
Heartbeat CPU 0 instructions: 140000001 cycles: 50367919 heartbeat IPC: 2.398 cumulative IPC: 2.379 (Simulation time: 00 hr 14 min 19 sec)
Heartbeat CPU 0 instructions: 150000001 cycles: 54574098 heartbeat IPC: 2.377 cumulative IPC: 2.379 (Simulation time: 00 hr 15 min 21 sec)
Heartbeat CPU 0 instructions: 160000004 cycles: 58997519 heartbeat IPC: 2.261 cumulative IPC: 2.368 (Simulation time: 00 hr 16 min 24 sec)
Heartbeat CPU 0 instructions: 170000000 cycles: 68584172 heartbeat IPC: 1.043 cumulative IPC: 2.141 (Simulation time: 00 hr 18 min 16 sec)
Heartbeat CPU 0 instructions: 180000004 cycles: 79282743 heartbeat IPC: 0.9347 cumulative IPC: 1.948 (Simulation time: 00 hr 20 min 36 sec)
Heartbeat CPU 0 instructions: 190000001 cycles: 89507053 heartbeat IPC: 0.9781 cumulative IPC: 1.819 (Simulation time: 00 hr 22 min 36 sec)
Heartbeat CPU 0 instructions: 200000004 cycles: 93288085 heartbeat IPC: 2.645 cumulative IPC: 1.858 (Simulation time: 00 hr 23 min 38 sec)
Heartbeat CPU 0 instructions: 210000001 cycles: 97211087 heartbeat IPC: 2.549 cumulative IPC: 1.89 (Simulation time: 00 hr 24 min 39 sec)
Heartbeat CPU 0 instructions: 220000000 cycles: 101170536 heartbeat IPC: 2.526 cumulative IPC: 1.918 (Simulation time: 00 hr 25 min 41 sec)
Heartbeat CPU 0 instructions: 230000002 cycles: 105848493 heartbeat IPC: 2.138 cumulative IPC: 1.929 (Simulation time: 00 hr 26 min 48 sec)
Heartbeat CPU 0 instructions: 240000000 cycles: 110044507 heartbeat IPC: 2.383 cumulative IPC: 1.949 (Simulation time: 00 hr 27 min 52 sec)
Heartbeat CPU 0 instructions: 250000000 cycles: 114374140 heartbeat IPC: 2.31 cumulative IPC: 1.964 (Simulation time: 00 hr 28 min 55 sec)
Heartbeat CPU 0 instructions: 260000000 cycles: 118561978 heartbeat IPC: 2.388 cumulative IPC: 1.981 (Simulation time: 00 hr 29 min 57 sec)
Heartbeat CPU 0 instructions: 270000002 cycles: 122420952 heartbeat IPC: 2.591 cumulative IPC: 2.002 (Simulation time: 00 hr 30 min 58 sec)
Heartbeat CPU 0 instructions: 280000002 cycles: 126596138 heartbeat IPC: 2.395 cumulative IPC: 2.017 (Simulation time: 00 hr 32 min 09 sec)
Heartbeat CPU 0 instructions: 290000001 cycles: 130500756 heartbeat IPC: 2.561 cumulative IPC: 2.035 (Simulation time: 00 hr 33 min 24 sec)
Heartbeat CPU 0 instructions: 300000003 cycles: 134335341 heartbeat IPC: 2.608 cumulative IPC: 2.053 (Simulation time: 00 hr 34 min 34 sec)
Heartbeat CPU 0 instructions: 310000001 cycles: 138468206 heartbeat IPC: 2.42 cumulative IPC: 2.065 (Simulation time: 00 hr 35 min 42 sec)
Heartbeat CPU 0 instructions: 320000003 cycles: 142555921 heartbeat IPC: 2.446 cumulative IPC: 2.077 (Simulation time: 00 hr 36 min 52 sec)
Heartbeat CPU 0 instructions: 330000003 cycles: 146979881 heartbeat IPC: 2.26 cumulative IPC: 2.083 (Simulation time: 00 hr 38 min 00 sec)
Heartbeat CPU 0 instructions: 340000000 cycles: 156825946 heartbeat IPC: 1.016 cumulative IPC: 2.01 (Simulation time: 00 hr 39 min 50 sec)
Heartbeat CPU 0 instructions: 350000000 cycles: 167941148 heartbeat IPC: 0.8997 cumulative IPC: 1.93 (Simulation time: 00 hr 41 min 50 sec)
Heartbeat CPU 0 instructions: 360000004 cycles: 178092764 heartbeat IPC: 0.9851 cumulative IPC: 1.872 (Simulation time: 00 hr 43 min 43 sec)
Heartbeat CPU 0 instructions: 370000000 cycles: 181541789 heartbeat IPC: 2.899 cumulative IPC: 1.893 (Simulation time: 00 hr 44 min 41 sec)
Heartbeat CPU 0 instructions: 380000001 cycles: 184965086 heartbeat IPC: 2.921 cumulative IPC: 1.914 (Simulation time: 00 hr 45 min 39 sec)
Heartbeat CPU 0 instructions: 390000004 cycles: 188716805 heartbeat IPC: 2.665 cumulative IPC: 1.93 (Simulation time: 00 hr 46 min 35 sec)
Heartbeat CPU 0 instructions: 400000004 cycles: 192529132 heartbeat IPC: 2.623 cumulative IPC: 1.945 (Simulation time: 00 hr 47 min 31 sec)
Heartbeat CPU 0 instructions: 410000001 cycles: 196192203 heartbeat IPC: 2.73 cumulative IPC: 1.96 (Simulation time: 00 hr 48 min 33 sec)
Heartbeat CPU 0 instructions: 420000003 cycles: 200224890 heartbeat IPC: 2.48 cumulative IPC: 1.971 (Simulation time: 00 hr 49 min 50 sec)
Heartbeat CPU 0 instructions: 430000001 cycles: 203885375 heartbeat IPC: 2.732 cumulative IPC: 1.986 (Simulation time: 00 hr 51 min 01 sec)
Heartbeat CPU 0 instructions: 440000004 cycles: 207977664 heartbeat IPC: 2.444 cumulative IPC: 1.995 (Simulation time: 00 hr 52 min 08 sec)
Heartbeat CPU 0 instructions: 450000002 cycles: 211717316 heartbeat IPC: 2.674 cumulative IPC: 2.008 (Simulation time: 00 hr 53 min 10 sec)
Heartbeat CPU 0 instructions: 460000000 cycles: 215389032 heartbeat IPC: 2.724 cumulative IPC: 2.021 (Simulation time: 00 hr 54 min 09 sec)
Heartbeat CPU 0 instructions: 470000000 cycles: 218860395 heartbeat IPC: 2.881 cumulative IPC: 2.036 (Simulation time: 00 hr 55 min 12 sec)
Heartbeat CPU 0 instructions: 480000003 cycles: 222681200 heartbeat IPC: 2.617 cumulative IPC: 2.046 (Simulation time: 00 hr 56 min 20 sec)
Heartbeat CPU 0 instructions: 490000000 cycles: 226318894 heartbeat IPC: 2.749 cumulative IPC: 2.058 (Simulation time: 00 hr 57 min 26 sec)
Heartbeat CPU 0 instructions: 500000000 cycles: 230019964 heartbeat IPC: 2.702 cumulative IPC: 2.069 (Simulation time: 00 hr 58 min 29 sec)
Heartbeat CPU 0 instructions: 510000003 cycles: 233672825 heartbeat IPC: 2.738 cumulative IPC: 2.08 (Simulation time: 00 hr 59 min 31 sec)
Heartbeat CPU 0 instructions: 520000001 cycles: 237091201 heartbeat IPC: 2.925 cumulative IPC: 2.093 (Simulation time: 01 hr 00 min 31 sec)
Heartbeat CPU 0 instructions: 530000002 cycles: 240763856 heartbeat IPC: 2.723 cumulative IPC: 2.103 (Simulation time: 01 hr 01 min 31 sec)
Heartbeat CPU 0 instructions: 540000000 cycles: 244301390 heartbeat IPC: 2.827 cumulative IPC: 2.114 (Simulation time: 01 hr 02 min 29 sec)
Heartbeat CPU 0 instructions: 550000001 cycles: 248003117 heartbeat IPC: 2.701 cumulative IPC: 2.123 (Simulation time: 01 hr 03 min 29 sec)
Heartbeat CPU 0 instructions: 560000000 cycles: 251980953 heartbeat IPC: 2.514 cumulative IPC: 2.13 (Simulation time: 01 hr 04 min 30 sec)
Heartbeat CPU 0 instructions: 570000004 cycles: 258333655 heartbeat IPC: 1.574 cumulative IPC: 2.116 (Simulation time: 01 hr 05 min 49 sec)
Heartbeat CPU 0 instructions: 580000003 cycles: 269794082 heartbeat IPC: 0.8726 cumulative IPC: 2.06 (Simulation time: 01 hr 07 min 43 sec)
Heartbeat CPU 0 instructions: 590000002 cycles: 282902108 heartbeat IPC: 0.7629 cumulative IPC: 1.997 (Simulation time: 01 hr 09 min 43 sec)
Heartbeat CPU 0 instructions: 600000000 cycles: 286643530 heartbeat IPC: 2.673 cumulative IPC: 2.007 (Simulation time: 01 hr 10 min 39 sec)
Heartbeat CPU 0 instructions: 610000000 cycles: 290509383 heartbeat IPC: 2.587 cumulative IPC: 2.015 (Simulation time: 01 hr 11 min 34 sec)
Heartbeat CPU 0 instructions: 620000001 cycles: 293943415 heartbeat IPC: 2.912 cumulative IPC: 2.026 (Simulation time: 01 hr 12 min 28 sec)
Heartbeat CPU 0 instructions: 630000002 cycles: 298224950 heartbeat IPC: 2.336 cumulative IPC: 2.03 (Simulation time: 01 hr 13 min 31 sec)
Heartbeat CPU 0 instructions: 640000001 cycles: 302123001 heartbeat IPC: 2.565 cumulative IPC: 2.037 (Simulation time: 01 hr 14 min 32 sec)
Heartbeat CPU 0 instructions: 650000000 cycles: 305880754 heartbeat IPC: 2.661 cumulative IPC: 2.045 (Simulation time: 01 hr 15 min 34 sec)
Simulation finished CPU 0 instructions: 600000001 cycles: 293343619 cumulative IPC: 2.045 (Simulation time: 01 hr 15 min 34 sec)
Simulation complete CPU 0 instructions: 600000001 cycles: 293343619 cumulative IPC: 2.045 (Simulation time: 01 hr 15 min 34 sec)

ChampSim completed all CPUs

=== Simulation ===
CPU 0 runs traces/400.perlbench-41B.champsimtrace.xz
Region of Interest Statistics

CPU 0 cumulative IPC: 2.045 instructions: 600000001 cycles: 293343619
CPU 0 Branch Prediction Accuracy: 96.56% MPKI: 7.112 Average ROB Occupancy at Mispredict: 47.44
Branch type MPKI
BRANCH_DIRECT_JUMP: 0.0123
BRANCH_INDIRECT: 0.323
BRANCH_CONDITIONAL: 6.56
BRANCH_DIRECT_CALL: 0.0043
BRANCH_INDIRECT_CALL: 0.2
BRANCH_RETURN: 0.00828

LLC TOTAL        ACCESS:     539187 HIT:     282589 MISS:     256598
LLC LOAD         ACCESS:     402702 HIT:     171580 MISS:     231122
LLC RFO          ACCESS:      32519 HIT:      17346 MISS:      15173
LLC PREFETCH     ACCESS:          0 HIT:          0 MISS:          0
LLC WRITE        ACCESS:      84938 HIT:      84563 MISS:        375
LLC TRANSLATION  ACCESS:      19028 HIT:       9100 MISS:       9928
LLC PREFETCH REQUESTED:          0 ISSUED:          0 USEFUL:          0 USELESS:          0
LLC AVERAGE MISS LATENCY: 573.6 cycles
cpu0_DTLB TOTAL        ACCESS:  141904030 HIT:  141216592 MISS:     687438
cpu0_DTLB LOAD         ACCESS:  141904030 HIT:  141216592 MISS:     687438
cpu0_DTLB RFO          ACCESS:          0 HIT:          0 MISS:          0
cpu0_DTLB PREFETCH     ACCESS:          0 HIT:          0 MISS:          0
cpu0_DTLB WRITE        ACCESS:          0 HIT:          0 MISS:          0
cpu0_DTLB TRANSLATION  ACCESS:          0 HIT:          0 MISS:          0
cpu0_DTLB PREFETCH REQUESTED:          0 ISSUED:          0 USEFUL:          0 USELESS:          0
cpu0_DTLB AVERAGE MISS LATENCY: 14.86 cycles
cpu0_ITLB TOTAL        ACCESS:    4859905 HIT:    4806791 MISS:      53114
cpu0_ITLB LOAD         ACCESS:    4859905 HIT:    4806791 MISS:      53114
cpu0_ITLB RFO          ACCESS:          0 HIT:          0 MISS:          0
cpu0_ITLB PREFETCH     ACCESS:          0 HIT:          0 MISS:          0
cpu0_ITLB WRITE        ACCESS:          0 HIT:          0 MISS:          0
cpu0_ITLB TRANSLATION  ACCESS:          0 HIT:          0 MISS:          0
cpu0_ITLB PREFETCH REQUESTED:          0 ISSUED:          0 USEFUL:          0 USELESS:          0
cpu0_ITLB AVERAGE MISS LATENCY: 8.207 cycles
cpu0_L1D TOTAL        ACCESS:  188553063 HIT:  186806363 MISS:    1746700
cpu0_L1D LOAD         ACCESS:  105185665 HIT:  103820407 MISS:    1365258
cpu0_L1D RFO          ACCESS:          0 HIT:          0 MISS:          0
cpu0_L1D PREFETCH     ACCESS:          0 HIT:          0 MISS:          0
cpu0_L1D WRITE        ACCESS:   83342935 HIT:   82984888 MISS:     358047
cpu0_L1D TRANSLATION  ACCESS:      24463 HIT:       1068 MISS:      23395
cpu0_L1D PREFETCH REQUESTED:          0 ISSUED:          0 USEFUL:          0 USELESS:          0
cpu0_L1D AVERAGE MISS LATENCY: 88.94 cycles
cpu0_L1I TOTAL        ACCESS:    5597900 HIT:    4854174 MISS:     743726
cpu0_L1I LOAD         ACCESS:    5597900 HIT:    4854174 MISS:     743726
cpu0_L1I RFO          ACCESS:          0 HIT:          0 MISS:          0
cpu0_L1I PREFETCH     ACCESS:          0 HIT:          0 MISS:          0
cpu0_L1I WRITE        ACCESS:          0 HIT:          0 MISS:          0
cpu0_L1I TRANSLATION  ACCESS:          0 HIT:          0 MISS:          0
cpu0_L1I PREFETCH REQUESTED:          0 ISSUED:          0 USEFUL:          0 USELESS:          0
cpu0_L1I AVERAGE MISS LATENCY: 12.2 cycles
cpu0_L2C TOTAL        ACCESS:    1665579 HIT:    1209550 MISS:     456029
cpu0_L2C LOAD         ACCESS:    1315894 HIT:     913192 MISS:     402702
cpu0_L2C RFO          ACCESS:      88361 HIT:      55842 MISS:      32519
cpu0_L2C PREFETCH     ACCESS:          0 HIT:          0 MISS:          0
cpu0_L2C WRITE        ACCESS:     237996 HIT:     236216 MISS:       1780
cpu0_L2C TRANSLATION  ACCESS:      23328 HIT:       4300 MISS:      19028
cpu0_L2C PREFETCH REQUESTED:          0 ISSUED:          0 USEFUL:          0 USELESS:          0
cpu0_L2C AVERAGE MISS LATENCY: 343.2 cycles
cpu0_STLB TOTAL        ACCESS:     507500 HIT:     484706 MISS:      22794
cpu0_STLB LOAD         ACCESS:     507500 HIT:     484706 MISS:      22794
cpu0_STLB RFO          ACCESS:          0 HIT:          0 MISS:          0
cpu0_STLB PREFETCH     ACCESS:          0 HIT:          0 MISS:          0
cpu0_STLB WRITE        ACCESS:          0 HIT:          0 MISS:          0
cpu0_STLB TRANSLATION  ACCESS:          0 HIT:          0 MISS:          0
cpu0_STLB PREFETCH REQUESTED:          0 ISSUED:          0 USEFUL:          0 USELESS:          0
cpu0_STLB AVERAGE MISS LATENCY: 330.6 cycles

DRAM Statistics

Channel 0 RQ ROW_BUFFER_HIT:      43033
  ROW_BUFFER_MISS:     213174
 AVG DBUS CONGESTED CYCLE: 3.81
WQ ROW_BUFFER_HIT: Channel 0 
  ROW_BUFFER_MISS:       7725
  FULL:      30730
