WARNING: physical memory size is smaller than virtual memory size.

*** ChampSim Multicore Out-of-Order Simulator ***
Warmup Instructions: 50000000
Simulation Instructions: 600000000
Number of CPUs: 1
Page size: 4096

Off-chip DRAM Size: 4 GiB Channels: 1 Width: 64-bit Data Race: 3200 MT/s
Heartbeat CPU 0 instructions: 10000001 cycles: 2500318 heartbeat IPC: 3.999 cumulative IPC: 3.999 (Simulation time: 00 hr 00 min 37 sec)
Heartbeat CPU 0 instructions: 20000002 cycles: 5037121 heartbeat IPC: 3.942 cumulative IPC: 3.971 (Simulation time: 00 hr 01 min 15 sec)
Heartbeat CPU 0 instructions: 30000002 cycles: 7537121 heartbeat IPC: 4 cumulative IPC: 3.98 (Simulation time: 00 hr 01 min 50 sec)
Heartbeat CPU 0 instructions: 40000002 cycles: 10037121 heartbeat IPC: 4 cumulative IPC: 3.985 (Simulation time: 00 hr 02 min 23 sec)
Heartbeat CPU 0 instructions: 50000002 cycles: 12537121 heartbeat IPC: 4 cumulative IPC: 3.988 (Simulation time: 00 hr 02 min 59 sec)
Warmup finished CPU 0 instructions: 50000002 cycles: 12537122 cumulative IPC: 3.988 (Simulation time: 00 hr 02 min 59 sec)
Warmup complete CPU 0 instructions: 50000002 cycles: 12537122 cumulative IPC: 3.988 (Simulation time: 00 hr 02 min 59 sec)
Heartbeat CPU 0 instructions: 60000000 cycles: 17149520 heartbeat IPC: 2.168 cumulative IPC: 2.168 (Simulation time: 00 hr 03 min 47 sec)
Heartbeat CPU 0 instructions: 70000004 cycles: 21415013 heartbeat IPC: 2.344 cumulative IPC: 2.253 (Simulation time: 00 hr 04 min 35 sec)
Heartbeat CPU 0 instructions: 80000001 cycles: 26015045 heartbeat IPC: 2.174 cumulative IPC: 2.226 (Simulation time: 00 hr 05 min 22 sec)
Heartbeat CPU 0 instructions: 90000001 cycles: 30145840 heartbeat IPC: 2.421 cumulative IPC: 2.272 (Simulation time: 00 hr 06 min 09 sec)
Heartbeat CPU 0 instructions: 100000000 cycles: 34204032 heartbeat IPC: 2.464 cumulative IPC: 2.308 (Simulation time: 00 hr 06 min 57 sec)
Heartbeat CPU 0 instructions: 110000000 cycles: 38442214 heartbeat IPC: 2.36 cumulative IPC: 2.316 (Simulation time: 00 hr 07 min 46 sec)
Heartbeat CPU 0 instructions: 120000001 cycles: 42449527 heartbeat IPC: 2.495 cumulative IPC: 2.34 (Simulation time: 00 hr 08 min 33 sec)
Heartbeat CPU 0 instructions: 130000001 cycles: 46182931 heartbeat IPC: 2.679 cumulative IPC: 2.378 (Simulation time: 00 hr 09 min 19 sec)
Heartbeat CPU 0 instructions: 140000001 cycles: 50344920 heartbeat IPC: 2.403 cumulative IPC: 2.38 (Simulation time: 00 hr 10 min 07 sec)
Heartbeat CPU 0 instructions: 150000001 cycles: 54549008 heartbeat IPC: 2.379 cumulative IPC: 2.38 (Simulation time: 00 hr 10 min 55 sec)
Heartbeat CPU 0 instructions: 160000004 cycles: 58975578 heartbeat IPC: 2.259 cumulative IPC: 2.369 (Simulation time: 00 hr 11 min 43 sec)
Heartbeat CPU 0 instructions: 170000000 cycles: 68578084 heartbeat IPC: 1.041 cumulative IPC: 2.141 (Simulation time: 00 hr 13 min 04 sec)
Heartbeat CPU 0 instructions: 180000004 cycles: 79499901 heartbeat IPC: 0.9156 cumulative IPC: 1.941 (Simulation time: 00 hr 14 min 34 sec)
Heartbeat CPU 0 instructions: 190000001 cycles: 89909943 heartbeat IPC: 0.9606 cumulative IPC: 1.809 (Simulation time: 00 hr 16 min 01 sec)
Heartbeat CPU 0 instructions: 200000004 cycles: 93684072 heartbeat IPC: 2.65 cumulative IPC: 1.848 (Simulation time: 00 hr 16 min 46 sec)
Heartbeat CPU 0 instructions: 210000001 cycles: 97604312 heartbeat IPC: 2.551 cumulative IPC: 1.881 (Simulation time: 00 hr 17 min 32 sec)
Heartbeat CPU 0 instructions: 220000000 cycles: 101564454 heartbeat IPC: 2.525 cumulative IPC: 1.91 (Simulation time: 00 hr 18 min 18 sec)
Heartbeat CPU 0 instructions: 230000002 cycles: 106242139 heartbeat IPC: 2.138 cumulative IPC: 1.921 (Simulation time: 00 hr 19 min 07 sec)
Heartbeat CPU 0 instructions: 240000000 cycles: 110440566 heartbeat IPC: 2.382 cumulative IPC: 1.941 (Simulation time: 00 hr 19 min 54 sec)
Heartbeat CPU 0 instructions: 250000000 cycles: 114763828 heartbeat IPC: 2.313 cumulative IPC: 1.956 (Simulation time: 00 hr 20 min 41 sec)
Heartbeat CPU 0 instructions: 260000000 cycles: 118952024 heartbeat IPC: 2.388 cumulative IPC: 1.973 (Simulation time: 00 hr 21 min 28 sec)
Heartbeat CPU 0 instructions: 270000002 cycles: 122804539 heartbeat IPC: 2.596 cumulative IPC: 1.995 (Simulation time: 00 hr 22 min 13 sec)
Heartbeat CPU 0 instructions: 280000002 cycles: 126976181 heartbeat IPC: 2.397 cumulative IPC: 2.01 (Simulation time: 00 hr 23 min 00 sec)
Heartbeat CPU 0 instructions: 290000001 cycles: 130871223 heartbeat IPC: 2.567 cumulative IPC: 2.028 (Simulation time: 00 hr 23 min 46 sec)
Heartbeat CPU 0 instructions: 300000003 cycles: 134699904 heartbeat IPC: 2.612 cumulative IPC: 2.046 (Simulation time: 00 hr 24 min 32 sec)
Heartbeat CPU 0 instructions: 310000001 cycles: 138827062 heartbeat IPC: 2.423 cumulative IPC: 2.059 (Simulation time: 00 hr 25 min 19 sec)
Heartbeat CPU 0 instructions: 320000003 cycles: 142899520 heartbeat IPC: 2.456 cumulative IPC: 2.071 (Simulation time: 00 hr 26 min 05 sec)
Heartbeat CPU 0 instructions: 330000003 cycles: 147309525 heartbeat IPC: 2.268 cumulative IPC: 2.078 (Simulation time: 00 hr 26 min 53 sec)
Heartbeat CPU 0 instructions: 340000000 cycles: 157742458 heartbeat IPC: 0.9585 cumulative IPC: 1.997 (Simulation time: 00 hr 28 min 14 sec)
Heartbeat CPU 0 instructions: 350000000 cycles: 169201028 heartbeat IPC: 0.8727 cumulative IPC: 1.915 (Simulation time: 00 hr 29 min 37 sec)
Heartbeat CPU 0 instructions: 360000004 cycles: 179368600 heartbeat IPC: 0.9835 cumulative IPC: 1.858 (Simulation time: 00 hr 31 min 00 sec)
Heartbeat CPU 0 instructions: 370000000 cycles: 182810993 heartbeat IPC: 2.905 cumulative IPC: 1.879 (Simulation time: 00 hr 31 min 43 sec)
Heartbeat CPU 0 instructions: 380000001 cycles: 186226109 heartbeat IPC: 2.928 cumulative IPC: 1.9 (Simulation time: 00 hr 32 min 27 sec)
Heartbeat CPU 0 instructions: 390000004 cycles: 189971417 heartbeat IPC: 2.67 cumulative IPC: 1.916 (Simulation time: 00 hr 33 min 12 sec)
Heartbeat CPU 0 instructions: 400000004 cycles: 193783387 heartbeat IPC: 2.623 cumulative IPC: 1.931 (Simulation time: 00 hr 33 min 57 sec)
Heartbeat CPU 0 instructions: 410000001 cycles: 197440183 heartbeat IPC: 2.735 cumulative IPC: 1.947 (Simulation time: 00 hr 34 min 40 sec)
Heartbeat CPU 0 instructions: 420000003 cycles: 201504899 heartbeat IPC: 2.46 cumulative IPC: 1.958 (Simulation time: 00 hr 35 min 27 sec)
Heartbeat CPU 0 instructions: 430000001 cycles: 205164574 heartbeat IPC: 2.732 cumulative IPC: 1.973 (Simulation time: 00 hr 36 min 12 sec)
Heartbeat CPU 0 instructions: 440000004 cycles: 209252072 heartbeat IPC: 2.446 cumulative IPC: 1.983 (Simulation time: 00 hr 36 min 58 sec)
Heartbeat CPU 0 instructions: 450000002 cycles: 212986731 heartbeat IPC: 2.678 cumulative IPC: 1.996 (Simulation time: 00 hr 37 min 42 sec)
Heartbeat CPU 0 instructions: 460000000 cycles: 216658051 heartbeat IPC: 2.724 cumulative IPC: 2.009 (Simulation time: 00 hr 38 min 26 sec)
Heartbeat CPU 0 instructions: 470000000 cycles: 220122220 heartbeat IPC: 2.887 cumulative IPC: 2.023 (Simulation time: 00 hr 39 min 11 sec)
Heartbeat CPU 0 instructions: 480000003 cycles: 223945142 heartbeat IPC: 2.616 cumulative IPC: 2.034 (Simulation time: 00 hr 39 min 57 sec)
Heartbeat CPU 0 instructions: 490000000 cycles: 227576494 heartbeat IPC: 2.754 cumulative IPC: 2.046 (Simulation time: 00 hr 40 min 41 sec)
Heartbeat CPU 0 instructions: 500000000 cycles: 231271229 heartbeat IPC: 2.707 cumulative IPC: 2.057 (Simulation time: 00 hr 41 min 29 sec)
Heartbeat CPU 0 instructions: 510000003 cycles: 234927767 heartbeat IPC: 2.735 cumulative IPC: 2.068 (Simulation time: 00 hr 42 min 16 sec)
Heartbeat CPU 0 instructions: 520000001 cycles: 238343478 heartbeat IPC: 2.928 cumulative IPC: 2.081 (Simulation time: 00 hr 43 min 01 sec)
Heartbeat CPU 0 instructions: 530000002 cycles: 242015303 heartbeat IPC: 2.723 cumulative IPC: 2.092 (Simulation time: 00 hr 43 min 46 sec)
Heartbeat CPU 0 instructions: 540000000 cycles: 245543869 heartbeat IPC: 2.834 cumulative IPC: 2.103 (Simulation time: 00 hr 44 min 32 sec)
Heartbeat CPU 0 instructions: 550000001 cycles: 249240952 heartbeat IPC: 2.705 cumulative IPC: 2.112 (Simulation time: 00 hr 45 min 20 sec)
Heartbeat CPU 0 instructions: 560000000 cycles: 253220250 heartbeat IPC: 2.513 cumulative IPC: 2.119 (Simulation time: 00 hr 46 min 10 sec)
Heartbeat CPU 0 instructions: 570000004 cycles: 259715554 heartbeat IPC: 1.54 cumulative IPC: 2.104 (Simulation time: 00 hr 47 min 13 sec)
Heartbeat CPU 0 instructions: 580000003 cycles: 271302456 heartbeat IPC: 0.863 cumulative IPC: 2.048 (Simulation time: 00 hr 48 min 47 sec)
Heartbeat CPU 0 instructions: 590000002 cycles: 284547570 heartbeat IPC: 0.755 cumulative IPC: 1.985 (Simulation time: 00 hr 50 min 31 sec)
Heartbeat CPU 0 instructions: 600000000 cycles: 288295340 heartbeat IPC: 2.668 cumulative IPC: 1.995 (Simulation time: 00 hr 51 min 14 sec)
Heartbeat CPU 0 instructions: 610000000 cycles: 292154123 heartbeat IPC: 2.591 cumulative IPC: 2.003 (Simulation time: 00 hr 51 min 59 sec)
Heartbeat CPU 0 instructions: 620000001 cycles: 295586430 heartbeat IPC: 2.913 cumulative IPC: 2.014 (Simulation time: 00 hr 52 min 40 sec)
Heartbeat CPU 0 instructions: 630000002 cycles: 299867104 heartbeat IPC: 2.336 cumulative IPC: 2.019 (Simulation time: 00 hr 53 min 27 sec)
Heartbeat CPU 0 instructions: 640000001 cycles: 303764040 heartbeat IPC: 2.566 cumulative IPC: 2.026 (Simulation time: 00 hr 54 min 11 sec)
Heartbeat CPU 0 instructions: 650000000 cycles: 307518535 heartbeat IPC: 2.663 cumulative IPC: 2.034 (Simulation time: 00 hr 54 min 55 sec)
Simulation finished CPU 0 instructions: 600000001 cycles: 294981415 cumulative IPC: 2.034 (Simulation time: 00 hr 54 min 55 sec)
Simulation complete CPU 0 instructions: 600000001 cycles: 294981415 cumulative IPC: 2.034 (Simulation time: 00 hr 54 min 55 sec)

ChampSim completed all CPUs

=== Simulation ===
CPU 0 runs traces/400.perlbench-41B.champsimtrace.xz
Region of Interest Statistics

CPU 0 cumulative IPC: 2.034 instructions: 600000001 cycles: 294981415
CPU 0 Branch Prediction Accuracy: 96.56% MPKI: 7.112 Average ROB Occupancy at Mispredict: 47.49
Branch type MPKI
BRANCH_DIRECT_JUMP: 0.0123
BRANCH_INDIRECT: 0.323
BRANCH_CONDITIONAL: 6.56
BRANCH_DIRECT_CALL: 0.0043
BRANCH_INDIRECT_CALL: 0.2
BRANCH_RETURN: 0.00828

LLC TOTAL        ACCESS:     592891 HIT:     313728 MISS:     279163
LLC LOAD         ACCESS:     403112 HIT:     180289 MISS:     222823
LLC RFO          ACCESS:      32430 HIT:      16165 MISS:      16265
LLC PREFETCH     ACCESS:      53265 HIT:      27114 MISS:      26151
LLC WRITE        ACCESS:      85025 HIT:      81768 MISS:       3257
LLC TRANSLATION  ACCESS:      19059 HIT:       8392 MISS:      10667
LLC PREFETCH REQUESTED:      53265 ISSUED:      53265 USEFUL:      15217 USELESS:       7294
LLC AVERAGE MISS LATENCY: 571.4 cycles
cpu0_DTLB TOTAL        ACCESS:  141905778 HIT:  141218393 MISS:     687385
cpu0_DTLB LOAD         ACCESS:  141905778 HIT:  141218393 MISS:     687385
cpu0_DTLB RFO          ACCESS:          0 HIT:          0 MISS:          0
cpu0_DTLB PREFETCH     ACCESS:          0 HIT:          0 MISS:          0
cpu0_DTLB WRITE        ACCESS:          0 HIT:          0 MISS:          0
cpu0_DTLB TRANSLATION  ACCESS:          0 HIT:          0 MISS:          0
cpu0_DTLB PREFETCH REQUESTED:          0 ISSUED:          0 USEFUL:          0 USELESS:          0
cpu0_DTLB AVERAGE MISS LATENCY: 15.55 cycles
cpu0_ITLB TOTAL        ACCESS:    4860502 HIT:    4807385 MISS:      53117
cpu0_ITLB LOAD         ACCESS:    4860502 HIT:    4807385 MISS:      53117
cpu0_ITLB RFO          ACCESS:          0 HIT:          0 MISS:          0
cpu0_ITLB PREFETCH     ACCESS:          0 HIT:          0 MISS:          0
cpu0_ITLB WRITE        ACCESS:          0 HIT:          0 MISS:          0
cpu0_ITLB TRANSLATION  ACCESS:          0 HIT:          0 MISS:          0
cpu0_ITLB PREFETCH REQUESTED:          0 ISSUED:          0 USEFUL:          0 USELESS:          0
cpu0_ITLB AVERAGE MISS LATENCY: 8.357 cycles
cpu0_L1D TOTAL        ACCESS:  188556619 HIT:  186821063 MISS:    1735556
cpu0_L1D LOAD         ACCESS:  105189451 HIT:  103835364 MISS:    1354087
cpu0_L1D RFO          ACCESS:          0 HIT:          0 MISS:          0
cpu0_L1D PREFETCH     ACCESS:          0 HIT:          0 MISS:          0
cpu0_L1D WRITE        ACCESS:   83342706 HIT:   82984633 MISS:     358073
cpu0_L1D TRANSLATION  ACCESS:      24462 HIT:       1066 MISS:      23396
cpu0_L1D PREFETCH REQUESTED:          0 ISSUED:          0 USEFUL:          0 USELESS:          0
cpu0_L1D AVERAGE MISS LATENCY: 87.16 cycles
cpu0_L1I TOTAL        ACCESS:    5598267 HIT:    4854620 MISS:     743647
cpu0_L1I LOAD         ACCESS:    5598267 HIT:    4854620 MISS:     743647
cpu0_L1I RFO          ACCESS:          0 HIT:          0 MISS:          0
cpu0_L1I PREFETCH     ACCESS:          0 HIT:          0 MISS:          0
cpu0_L1I WRITE        ACCESS:          0 HIT:          0 MISS:          0
cpu0_L1I TRANSLATION  ACCESS:          0 HIT:          0 MISS:          0
cpu0_L1I PREFETCH REQUESTED:          0 ISSUED:          0 USEFUL:          0 USELESS:          0
cpu0_L1I AVERAGE MISS LATENCY: 13.5 cycles
cpu0_L2C TOTAL        ACCESS:    1665596 HIT:    1209190 MISS:     456406
cpu0_L2C LOAD         ACCESS:    1315905 HIT:     912793 MISS:     403112
cpu0_L2C RFO          ACCESS:      88369 HIT:      55939 MISS:      32430
cpu0_L2C PREFETCH     ACCESS:          0 HIT:          0 MISS:          0
cpu0_L2C WRITE        ACCESS:     237993 HIT:     236188 MISS:       1805
cpu0_L2C TRANSLATION  ACCESS:      23329 HIT:       4270 MISS:      19059
cpu0_L2C PREFETCH REQUESTED:          0 ISSUED:          0 USEFUL:          0 USELESS:          0
cpu0_L2C AVERAGE MISS LATENCY: 334.7 cycles
cpu0_STLB TOTAL        ACCESS:     507457 HIT:     484665 MISS:      22792
cpu0_STLB LOAD         ACCESS:     507457 HIT:     484665 MISS:      22792
cpu0_STLB RFO          ACCESS:          0 HIT:          0 MISS:          0
cpu0_STLB PREFETCH     ACCESS:          0 HIT:          0 MISS:          0
cpu0_STLB WRITE        ACCESS:          0 HIT:          0 MISS:          0
cpu0_STLB TRANSLATION  ACCESS:          0 HIT:          0 MISS:          0
cpu0_STLB PREFETCH REQUESTED:          0 ISSUED:          0 USEFUL:          0 USELESS:          0
cpu0_STLB AVERAGE MISS LATENCY: 352.1 cycles

DRAM Statistics

Channel 0 RQ ROW_BUFFER_HIT:      47273
  ROW_BUFFER_MISS:     223600
 AVG DBUS CONGESTED CYCLE: 3.822
WQ ROW_BUFFER_HIT: Channel 0 
  ROW_BUFFER_MISS:       7929
  FULL:      33868
