WARNING: physical memory size is smaller than virtual memory size.

*** ChampSim Multicore Out-of-Order Simulator ***
Warmup Instructions: 50000000
Simulation Instructions: 600000000
Number of CPUs: 1
Page size: 4096

CPU 0 Tage branch predictor
Off-chip DRAM Size: 4 GiB Channels: 1 Width: 64-bit Data Race: 3200 MT/s
Heartbeat CPU 0 instructions: 10000000 cycles: 2500061 heartbeat IPC: 4 cumulative IPC: 4 (Simulation time: 00 hr 00 min 44 sec)
Heartbeat CPU 0 instructions: 20000000 cycles: 5000061 heartbeat IPC: 4 cumulative IPC: 4 (Simulation time: 00 hr 01 min 34 sec)
Heartbeat CPU 0 instructions: 30000000 cycles: 7500061 heartbeat IPC: 4 cumulative IPC: 4 (Simulation time: 00 hr 02 min 28 sec)
Heartbeat CPU 0 instructions: 40000000 cycles: 10000061 heartbeat IPC: 4 cumulative IPC: 4 (Simulation time: 00 hr 03 min 38 sec)
Heartbeat CPU 0 instructions: 50000000 cycles: 12500061 heartbeat IPC: 4 cumulative IPC: 4 (Simulation time: 00 hr 04 min 40 sec)
Warmup finished CPU 0 instructions: 50000000 cycles: 12500062 cumulative IPC: 4 (Simulation time: 00 hr 04 min 40 sec)
Warmup complete CPU 0 instructions: 50000000 cycles: 12500062 cumulative IPC: 4 (Simulation time: 00 hr 04 min 40 sec)
Heartbeat CPU 0 instructions: 60000004 cycles: 15504489 heartbeat IPC: 3.328 cumulative IPC: 3.328 (Simulation time: 00 hr 05 min 44 sec)
Heartbeat CPU 0 instructions: 70000003 cycles: 18370762 heartbeat IPC: 3.489 cumulative IPC: 3.407 (Simulation time: 00 hr 06 min 55 sec)
Heartbeat CPU 0 instructions: 80000002 cycles: 21382300 heartbeat IPC: 3.321 cumulative IPC: 3.378 (Simulation time: 00 hr 08 min 01 sec)
Heartbeat CPU 0 instructions: 90000000 cycles: 24100329 heartbeat IPC: 3.679 cumulative IPC: 3.448 (Simulation time: 00 hr 09 min 03 sec)
Heartbeat CPU 0 instructions: 100000003 cycles: 26857493 heartbeat IPC: 3.627 cumulative IPC: 3.483 (Simulation time: 00 hr 10 min 16 sec)
Heartbeat CPU 0 instructions: 110000001 cycles: 29755202 heartbeat IPC: 3.451 cumulative IPC: 3.477 (Simulation time: 00 hr 11 min 28 sec)
Heartbeat CPU 0 instructions: 120000001 cycles: 32471687 heartbeat IPC: 3.681 cumulative IPC: 3.505 (Simulation time: 00 hr 12 min 31 sec)
Heartbeat CPU 0 instructions: 130000003 cycles: 35371153 heartbeat IPC: 3.449 cumulative IPC: 3.498 (Simulation time: 00 hr 13 min 34 sec)
Heartbeat CPU 0 instructions: 140000002 cycles: 38204957 heartbeat IPC: 3.529 cumulative IPC: 3.501 (Simulation time: 00 hr 14 min 46 sec)
Heartbeat CPU 0 instructions: 150000001 cycles: 40975005 heartbeat IPC: 3.61 cumulative IPC: 3.512 (Simulation time: 00 hr 15 min 49 sec)
Heartbeat CPU 0 instructions: 160000000 cycles: 43892634 heartbeat IPC: 3.427 cumulative IPC: 3.504 (Simulation time: 00 hr 16 min 52 sec)
Heartbeat CPU 0 instructions: 170000001 cycles: 46821114 heartbeat IPC: 3.415 cumulative IPC: 3.496 (Simulation time: 00 hr 18 min 03 sec)
Heartbeat CPU 0 instructions: 180000000 cycles: 49612148 heartbeat IPC: 3.583 cumulative IPC: 3.503 (Simulation time: 00 hr 19 min 08 sec)
Heartbeat CPU 0 instructions: 190000002 cycles: 52319155 heartbeat IPC: 3.694 cumulative IPC: 3.516 (Simulation time: 00 hr 20 min 11 sec)
Heartbeat CPU 0 instructions: 200000002 cycles: 55139904 heartbeat IPC: 3.545 cumulative IPC: 3.518 (Simulation time: 00 hr 21 min 20 sec)
Heartbeat CPU 0 instructions: 210000000 cycles: 58032602 heartbeat IPC: 3.457 cumulative IPC: 3.514 (Simulation time: 00 hr 22 min 26 sec)
Heartbeat CPU 0 instructions: 220000001 cycles: 60784766 heartbeat IPC: 3.634 cumulative IPC: 3.521 (Simulation time: 00 hr 23 min 29 sec)
Heartbeat CPU 0 instructions: 230000002 cycles: 63674574 heartbeat IPC: 3.46 cumulative IPC: 3.517 (Simulation time: 00 hr 24 min 34 sec)
Heartbeat CPU 0 instructions: 240000004 cycles: 66626056 heartbeat IPC: 3.388 cumulative IPC: 3.51 (Simulation time: 00 hr 25 min 43 sec)
Heartbeat CPU 0 instructions: 250000003 cycles: 69517533 heartbeat IPC: 3.458 cumulative IPC: 3.508 (Simulation time: 00 hr 26 min 46 sec)
Heartbeat CPU 0 instructions: 260000001 cycles: 72302308 heartbeat IPC: 3.591 cumulative IPC: 3.512 (Simulation time: 00 hr 27 min 49 sec)
Heartbeat CPU 0 instructions: 270000002 cycles: 78163838 heartbeat IPC: 1.706 cumulative IPC: 3.35 (Simulation time: 00 hr 29 min 24 sec)
Heartbeat CPU 0 instructions: 280000000 cycles: 87701502 heartbeat IPC: 1.048 cumulative IPC: 3.058 (Simulation time: 00 hr 31 min 32 sec)
Heartbeat CPU 0 instructions: 290000000 cycles: 95672544 heartbeat IPC: 1.255 cumulative IPC: 2.886 (Simulation time: 00 hr 33 min 37 sec)
Heartbeat CPU 0 instructions: 300000003 cycles: 100931949 heartbeat IPC: 1.901 cumulative IPC: 2.827 (Simulation time: 00 hr 35 min 28 sec)
Heartbeat CPU 0 instructions: 310000001 cycles: 109347688 heartbeat IPC: 1.188 cumulative IPC: 2.685 (Simulation time: 00 hr 38 min 08 sec)
Heartbeat CPU 0 instructions: 320000004 cycles: 113147425 heartbeat IPC: 2.632 cumulative IPC: 2.683 (Simulation time: 00 hr 39 min 44 sec)
Heartbeat CPU 0 instructions: 330000000 cycles: 116298368 heartbeat IPC: 3.174 cumulative IPC: 2.698 (Simulation time: 00 hr 41 min 10 sec)
Heartbeat CPU 0 instructions: 340000001 cycles: 119440551 heartbeat IPC: 3.183 cumulative IPC: 2.712 (Simulation time: 00 hr 42 min 39 sec)
Heartbeat CPU 0 instructions: 350000000 cycles: 122773560 heartbeat IPC: 3 cumulative IPC: 2.721 (Simulation time: 00 hr 44 min 11 sec)
Heartbeat CPU 0 instructions: 360000004 cycles: 125910947 heartbeat IPC: 3.187 cumulative IPC: 2.733 (Simulation time: 00 hr 45 min 40 sec)
Heartbeat CPU 0 instructions: 370000001 cycles: 128997782 heartbeat IPC: 3.24 cumulative IPC: 2.747 (Simulation time: 00 hr 47 min 03 sec)
Heartbeat CPU 0 instructions: 380000004 cycles: 132113695 heartbeat IPC: 3.209 cumulative IPC: 2.759 (Simulation time: 00 hr 48 min 25 sec)
Heartbeat CPU 0 instructions: 390000002 cycles: 135346846 heartbeat IPC: 3.093 cumulative IPC: 2.768 (Simulation time: 00 hr 49 min 57 sec)
Heartbeat CPU 0 instructions: 400000000 cycles: 138635914 heartbeat IPC: 3.04 cumulative IPC: 2.775 (Simulation time: 00 hr 51 min 21 sec)
Heartbeat CPU 0 instructions: 410000000 cycles: 144921395 heartbeat IPC: 1.591 cumulative IPC: 2.719 (Simulation time: 00 hr 53 min 29 sec)
Heartbeat CPU 0 instructions: 420000003 cycles: 153813843 heartbeat IPC: 1.125 cumulative IPC: 2.618 (Simulation time: 00 hr 55 min 59 sec)
Heartbeat CPU 0 instructions: 430000000 cycles: 159332786 heartbeat IPC: 1.812 cumulative IPC: 2.588 (Simulation time: 00 hr 58 min 05 sec)
Heartbeat CPU 0 instructions: 440000004 cycles: 164459045 heartbeat IPC: 1.951 cumulative IPC: 2.566 (Simulation time: 00 hr 59 min 57 sec)
Heartbeat CPU 0 instructions: 450000001 cycles: 169377544 heartbeat IPC: 2.033 cumulative IPC: 2.55 (Simulation time: 01 hr 01 min 47 sec)
Heartbeat CPU 0 instructions: 460000002 cycles: 177674862 heartbeat IPC: 1.205 cumulative IPC: 2.482 (Simulation time: 01 hr 04 min 22 sec)
Heartbeat CPU 0 instructions: 470000003 cycles: 185236701 heartbeat IPC: 1.322 cumulative IPC: 2.431 (Simulation time: 01 hr 06 min 36 sec)
Heartbeat CPU 0 instructions: 480000000 cycles: 188606619 heartbeat IPC: 2.967 cumulative IPC: 2.442 (Simulation time: 01 hr 07 min 35 sec)
Heartbeat CPU 0 instructions: 490000001 cycles: 192205125 heartbeat IPC: 2.779 cumulative IPC: 2.448 (Simulation time: 01 hr 08 min 38 sec)
Heartbeat CPU 0 instructions: 500000002 cycles: 195680782 heartbeat IPC: 2.877 cumulative IPC: 2.457 (Simulation time: 01 hr 09 min 38 sec)
Heartbeat CPU 0 instructions: 510000000 cycles: 199133858 heartbeat IPC: 2.896 cumulative IPC: 2.465 (Simulation time: 01 hr 10 min 39 sec)
Heartbeat CPU 0 instructions: 520000000 cycles: 202618975 heartbeat IPC: 2.869 cumulative IPC: 2.472 (Simulation time: 01 hr 11 min 39 sec)
Heartbeat CPU 0 instructions: 530000001 cycles: 211884072 heartbeat IPC: 1.079 cumulative IPC: 2.407 (Simulation time: 01 hr 13 min 25 sec)
Heartbeat CPU 0 instructions: 540000000 cycles: 220554734 heartbeat IPC: 1.153 cumulative IPC: 2.355 (Simulation time: 01 hr 15 min 07 sec)
Heartbeat CPU 0 instructions: 550000004 cycles: 230571539 heartbeat IPC: 0.9983 cumulative IPC: 2.293 (Simulation time: 01 hr 17 min 00 sec)
Heartbeat CPU 0 instructions: 560000004 cycles: 234132144 heartbeat IPC: 2.809 cumulative IPC: 2.301 (Simulation time: 01 hr 17 min 59 sec)
Heartbeat CPU 0 instructions: 570000002 cycles: 236954682 heartbeat IPC: 3.543 cumulative IPC: 2.317 (Simulation time: 01 hr 18 min 55 sec)
Heartbeat CPU 0 instructions: 580000000 cycles: 239877719 heartbeat IPC: 3.421 cumulative IPC: 2.331 (Simulation time: 01 hr 19 min 50 sec)
Heartbeat CPU 0 instructions: 590000001 cycles: 242803459 heartbeat IPC: 3.418 cumulative IPC: 2.345 (Simulation time: 01 hr 20 min 45 sec)
Heartbeat CPU 0 instructions: 600000003 cycles: 245498342 heartbeat IPC: 3.711 cumulative IPC: 2.361 (Simulation time: 01 hr 21 min 40 sec)
Heartbeat CPU 0 instructions: 610000001 cycles: 248362554 heartbeat IPC: 3.491 cumulative IPC: 2.374 (Simulation time: 01 hr 22 min 35 sec)
Heartbeat CPU 0 instructions: 620000004 cycles: 251315161 heartbeat IPC: 3.387 cumulative IPC: 2.387 (Simulation time: 01 hr 23 min 31 sec)
Heartbeat CPU 0 instructions: 630000002 cycles: 254125481 heartbeat IPC: 3.558 cumulative IPC: 2.4 (Simulation time: 01 hr 24 min 26 sec)
Heartbeat CPU 0 instructions: 640000004 cycles: 257172368 heartbeat IPC: 3.282 cumulative IPC: 2.411 (Simulation time: 01 hr 25 min 23 sec)
Heartbeat CPU 0 instructions: 650000001 cycles: 259882948 heartbeat IPC: 3.689 cumulative IPC: 2.425 (Simulation time: 01 hr 26 min 17 sec)
Simulation finished CPU 0 instructions: 600000001 cycles: 247382887 cumulative IPC: 2.425 (Simulation time: 01 hr 26 min 17 sec)
Simulation complete CPU 0 instructions: 600000001 cycles: 247382887 cumulative IPC: 2.425 (Simulation time: 01 hr 26 min 17 sec)

ChampSim completed all CPUs

=== Simulation ===
CPU 0 runs traces/400.perlbench-50B.champsimtrace.xz
Region of Interest Statistics

CPU 0 cumulative IPC: 2.425 instructions: 600000001 cycles: 247382887
CPU 0 Branch Prediction Accuracy: 99.01% MPKI: 2.04 Average ROB Occupancy at Mispredict: 95.2
Branch type MPKI
BRANCH_DIRECT_JUMP: 0.0176
BRANCH_INDIRECT: 0.38
BRANCH_CONDITIONAL: 1.19
BRANCH_DIRECT_CALL: 0.0067
BRANCH_INDIRECT_CALL: 0.431
BRANCH_RETURN: 0.0161

LLC TOTAL        ACCESS:     782044 HIT:     469260 MISS:     312784
LLC LOAD         ACCESS:     584550 HIT:     309110 MISS:     275440
LLC RFO          ACCESS:      47250 HIT:      26599 MISS:      20651
LLC PREFETCH     ACCESS:          0 HIT:          0 MISS:          0
LLC WRITE        ACCESS:     128151 HIT:     123828 MISS:       4323
LLC TRANSLATION  ACCESS:      22093 HIT:       9723 MISS:      12370
LLC PREFETCH REQUESTED:          0 ISSUED:          0 USEFUL:          0 USELESS:          0
LLC AVERAGE MISS LATENCY: 595.8 cycles
cpu0_DTLB TOTAL        ACCESS:  133215915 HIT:  131861244 MISS:    1354671
cpu0_DTLB LOAD         ACCESS:  133215915 HIT:  131861244 MISS:    1354671
cpu0_DTLB RFO          ACCESS:          0 HIT:          0 MISS:          0
cpu0_DTLB PREFETCH     ACCESS:          0 HIT:          0 MISS:          0
cpu0_DTLB WRITE        ACCESS:          0 HIT:          0 MISS:          0
cpu0_DTLB TRANSLATION  ACCESS:          0 HIT:          0 MISS:          0
cpu0_DTLB PREFETCH REQUESTED:          0 ISSUED:          0 USEFUL:          0 USELESS:          0
cpu0_DTLB AVERAGE MISS LATENCY: 11.98 cycles
cpu0_ITLB TOTAL        ACCESS:    9000489 HIT:    8791067 MISS:     209422
cpu0_ITLB LOAD         ACCESS:    9000489 HIT:    8791067 MISS:     209422
cpu0_ITLB RFO          ACCESS:          0 HIT:          0 MISS:          0
cpu0_ITLB PREFETCH     ACCESS:          0 HIT:          0 MISS:          0
cpu0_ITLB WRITE        ACCESS:          0 HIT:          0 MISS:          0
cpu0_ITLB TRANSLATION  ACCESS:          0 HIT:          0 MISS:          0
cpu0_ITLB PREFETCH REQUESTED:          0 ISSUED:          0 USEFUL:          0 USELESS:          0
cpu0_ITLB AVERAGE MISS LATENCY: 3.079 cycles
cpu0_L1D TOTAL        ACCESS:  178238822 HIT:  174434059 MISS:    3804763
cpu0_L1D LOAD         ACCESS:   92721413 HIT:   89599519 MISS:    3121894
cpu0_L1D RFO          ACCESS:          0 HIT:          0 MISS:          0
cpu0_L1D PREFETCH     ACCESS:          0 HIT:          0 MISS:          0
cpu0_L1D WRITE        ACCESS:   85488881 HIT:   84833123 MISS:     655758
cpu0_L1D TRANSLATION  ACCESS:      28528 HIT:       1417 MISS:      27111
cpu0_L1D PREFETCH REQUESTED:          0 ISSUED:          0 USEFUL:          0 USELESS:          0
cpu0_L1D AVERAGE MISS LATENCY: 51.49 cycles
cpu0_L1I TOTAL        ACCESS:   10519911 HIT:    8621542 MISS:    1898369
cpu0_L1I LOAD         ACCESS:   10519911 HIT:    8621542 MISS:    1898369
cpu0_L1I RFO          ACCESS:          0 HIT:          0 MISS:          0
cpu0_L1I PREFETCH     ACCESS:          0 HIT:          0 MISS:          0
cpu0_L1I WRITE        ACCESS:          0 HIT:          0 MISS:          0
cpu0_L1I TRANSLATION  ACCESS:          0 HIT:          0 MISS:          0
cpu0_L1I PREFETCH REQUESTED:          0 ISSUED:          0 USEFUL:          0 USELESS:          0
cpu0_L1I AVERAGE MISS LATENCY: 10.61 cycles
cpu0_L2C TOTAL        ACCESS:    3840354 HIT:    3183198 MISS:     657156
cpu0_L2C LOAD         ACCESS:    3103733 HIT:    2519182 MISS:     584551
cpu0_L2C RFO          ACCESS:     194965 HIT:     147715 MISS:      47250
cpu0_L2C PREFETCH     ACCESS:          0 HIT:          0 MISS:          0
cpu0_L2C WRITE        ACCESS:     514623 HIT:     511361 MISS:       3262
cpu0_L2C TRANSLATION  ACCESS:      27033 HIT:       4940 MISS:      22093
cpu0_L2C PREFETCH REQUESTED:          0 ISSUED:          0 USEFUL:          0 USELESS:          0
cpu0_L2C AVERAGE MISS LATENCY: 304 cycles
cpu0_STLB TOTAL        ACCESS:    1010013 HIT:     983321 MISS:      26692
cpu0_STLB LOAD         ACCESS:    1010013 HIT:     983321 MISS:      26692
cpu0_STLB RFO          ACCESS:          0 HIT:          0 MISS:          0
cpu0_STLB PREFETCH     ACCESS:          0 HIT:          0 MISS:          0
cpu0_STLB WRITE        ACCESS:          0 HIT:          0 MISS:          0
cpu0_STLB TRANSLATION  ACCESS:          0 HIT:          0 MISS:          0
cpu0_STLB PREFETCH REQUESTED:          0 ISSUED:          0 USEFUL:          0 USELESS:          0
cpu0_STLB AVERAGE MISS LATENCY: 408.4 cycles

DRAM Statistics

Channel 0 RQ ROW_BUFFER_HIT:      61859
  ROW_BUFFER_MISS:     246557
 AVG DBUS CONGESTED CYCLE: 3.829
WQ ROW_BUFFER_HIT: Channel 0 
  ROW_BUFFER_MISS:       6543
  FULL:      39343
