WARNING: physical memory size is smaller than virtual memory size.

*** ChampSim Multicore Out-of-Order Simulator ***
Warmup Instructions: 50000000
Simulation Instructions: 600000000
Number of CPUs: 1
Page size: 4096

Off-chip DRAM Size: 4 GiB Channels: 1 Width: 64-bit Data Race: 3200 MT/s
Heartbeat CPU 0 instructions: 10000001 cycles: 2500318 heartbeat IPC: 3.999 cumulative IPC: 3.999 (Simulation time: 00 hr 00 min 35 sec)
Heartbeat CPU 0 instructions: 20000002 cycles: 5037103 heartbeat IPC: 3.942 cumulative IPC: 3.971 (Simulation time: 00 hr 01 min 13 sec)
Heartbeat CPU 0 instructions: 30000002 cycles: 7537103 heartbeat IPC: 4 cumulative IPC: 3.98 (Simulation time: 00 hr 01 min 48 sec)
Heartbeat CPU 0 instructions: 40000002 cycles: 10037103 heartbeat IPC: 4 cumulative IPC: 3.985 (Simulation time: 00 hr 02 min 22 sec)
Heartbeat CPU 0 instructions: 50000002 cycles: 12537103 heartbeat IPC: 4 cumulative IPC: 3.988 (Simulation time: 00 hr 02 min 56 sec)
Warmup finished CPU 0 instructions: 50000002 cycles: 12537104 cumulative IPC: 3.988 (Simulation time: 00 hr 02 min 56 sec)
Warmup complete CPU 0 instructions: 50000002 cycles: 12537104 cumulative IPC: 3.988 (Simulation time: 00 hr 02 min 56 sec)
Heartbeat CPU 0 instructions: 60000000 cycles: 17158940 heartbeat IPC: 2.164 cumulative IPC: 2.164 (Simulation time: 00 hr 03 min 48 sec)
Heartbeat CPU 0 instructions: 70000004 cycles: 21452573 heartbeat IPC: 2.329 cumulative IPC: 2.243 (Simulation time: 00 hr 04 min 35 sec)
Heartbeat CPU 0 instructions: 80000001 cycles: 26065319 heartbeat IPC: 2.168 cumulative IPC: 2.218 (Simulation time: 00 hr 05 min 24 sec)
Heartbeat CPU 0 instructions: 90000001 cycles: 30203612 heartbeat IPC: 2.416 cumulative IPC: 2.264 (Simulation time: 00 hr 06 min 10 sec)
Heartbeat CPU 0 instructions: 100000000 cycles: 34271454 heartbeat IPC: 2.458 cumulative IPC: 2.301 (Simulation time: 00 hr 06 min 59 sec)
Heartbeat CPU 0 instructions: 110000000 cycles: 38519714 heartbeat IPC: 2.354 cumulative IPC: 2.309 (Simulation time: 00 hr 07 min 47 sec)
Heartbeat CPU 0 instructions: 120000001 cycles: 42537638 heartbeat IPC: 2.489 cumulative IPC: 2.333 (Simulation time: 00 hr 08 min 32 sec)
Heartbeat CPU 0 instructions: 130000001 cycles: 46291274 heartbeat IPC: 2.664 cumulative IPC: 2.37 (Simulation time: 00 hr 09 min 15 sec)
Heartbeat CPU 0 instructions: 140000001 cycles: 50474706 heartbeat IPC: 2.39 cumulative IPC: 2.372 (Simulation time: 00 hr 09 min 59 sec)
Heartbeat CPU 0 instructions: 150000001 cycles: 54692605 heartbeat IPC: 2.371 cumulative IPC: 2.372 (Simulation time: 00 hr 10 min 43 sec)
Heartbeat CPU 0 instructions: 160000004 cycles: 59129084 heartbeat IPC: 2.254 cumulative IPC: 2.361 (Simulation time: 00 hr 11 min 28 sec)
Heartbeat CPU 0 instructions: 170000004 cycles: 68279230 heartbeat IPC: 1.093 cumulative IPC: 2.153 (Simulation time: 00 hr 12 min 42 sec)
Heartbeat CPU 0 instructions: 180000004 cycles: 77593308 heartbeat IPC: 1.074 cumulative IPC: 1.998 (Simulation time: 00 hr 13 min 55 sec)
Heartbeat CPU 0 instructions: 190000001 cycles: 88909868 heartbeat IPC: 0.8837 cumulative IPC: 1.833 (Simulation time: 00 hr 15 min 19 sec)
Heartbeat CPU 0 instructions: 200000004 cycles: 92701513 heartbeat IPC: 2.637 cumulative IPC: 1.871 (Simulation time: 00 hr 16 min 02 sec)
Heartbeat CPU 0 instructions: 210000001 cycles: 96630478 heartbeat IPC: 2.545 cumulative IPC: 1.903 (Simulation time: 00 hr 16 min 46 sec)
Heartbeat CPU 0 instructions: 220000000 cycles: 100598760 heartbeat IPC: 2.52 cumulative IPC: 1.93 (Simulation time: 00 hr 17 min 30 sec)
Heartbeat CPU 0 instructions: 230000002 cycles: 105288375 heartbeat IPC: 2.132 cumulative IPC: 1.941 (Simulation time: 00 hr 18 min 16 sec)
Heartbeat CPU 0 instructions: 240000000 cycles: 109494915 heartbeat IPC: 2.377 cumulative IPC: 1.96 (Simulation time: 00 hr 19 min 00 sec)
Heartbeat CPU 0 instructions: 250000000 cycles: 113823273 heartbeat IPC: 2.31 cumulative IPC: 1.975 (Simulation time: 00 hr 19 min 45 sec)
Heartbeat CPU 0 instructions: 260000000 cycles: 118026644 heartbeat IPC: 2.379 cumulative IPC: 1.991 (Simulation time: 00 hr 20 min 28 sec)
Heartbeat CPU 0 instructions: 270000002 cycles: 121890737 heartbeat IPC: 2.588 cumulative IPC: 2.012 (Simulation time: 00 hr 21 min 11 sec)
Heartbeat CPU 0 instructions: 280000002 cycles: 126078010 heartbeat IPC: 2.388 cumulative IPC: 2.026 (Simulation time: 00 hr 21 min 55 sec)
Heartbeat CPU 0 instructions: 290000001 cycles: 129984791 heartbeat IPC: 2.56 cumulative IPC: 2.043 (Simulation time: 00 hr 22 min 40 sec)
Heartbeat CPU 0 instructions: 300000003 cycles: 133834731 heartbeat IPC: 2.597 cumulative IPC: 2.061 (Simulation time: 00 hr 23 min 25 sec)
Heartbeat CPU 0 instructions: 310000001 cycles: 137987543 heartbeat IPC: 2.408 cumulative IPC: 2.073 (Simulation time: 00 hr 24 min 11 sec)
Heartbeat CPU 0 instructions: 320000003 cycles: 142088734 heartbeat IPC: 2.438 cumulative IPC: 2.084 (Simulation time: 00 hr 24 min 57 sec)
Heartbeat CPU 0 instructions: 330000003 cycles: 146522587 heartbeat IPC: 2.255 cumulative IPC: 2.09 (Simulation time: 00 hr 25 min 42 sec)
Heartbeat CPU 0 instructions: 340000000 cycles: 155995534 heartbeat IPC: 1.056 cumulative IPC: 2.021 (Simulation time: 00 hr 26 min 54 sec)
Heartbeat CPU 0 instructions: 350000000 cycles: 166016393 heartbeat IPC: 0.9979 cumulative IPC: 1.955 (Simulation time: 00 hr 28 min 15 sec)
Heartbeat CPU 0 instructions: 360000004 cycles: 177139542 heartbeat IPC: 0.899 cumulative IPC: 1.883 (Simulation time: 00 hr 29 min 41 sec)
Heartbeat CPU 0 instructions: 370000000 cycles: 180596794 heartbeat IPC: 2.892 cumulative IPC: 1.904 (Simulation time: 00 hr 30 min 26 sec)
Heartbeat CPU 0 instructions: 380000001 cycles: 184023524 heartbeat IPC: 2.918 cumulative IPC: 1.924 (Simulation time: 00 hr 31 min 10 sec)
Heartbeat CPU 0 instructions: 390000004 cycles: 187777107 heartbeat IPC: 2.664 cumulative IPC: 1.94 (Simulation time: 00 hr 31 min 56 sec)
Heartbeat CPU 0 instructions: 400000004 cycles: 191595196 heartbeat IPC: 2.619 cumulative IPC: 1.955 (Simulation time: 00 hr 32 min 38 sec)
Heartbeat CPU 0 instructions: 410000001 cycles: 195262491 heartbeat IPC: 2.727 cumulative IPC: 1.97 (Simulation time: 00 hr 33 min 20 sec)
Heartbeat CPU 0 instructions: 420000003 cycles: 199339467 heartbeat IPC: 2.453 cumulative IPC: 1.981 (Simulation time: 00 hr 34 min 03 sec)
Heartbeat CPU 0 instructions: 430000001 cycles: 203023018 heartbeat IPC: 2.715 cumulative IPC: 1.995 (Simulation time: 00 hr 34 min 46 sec)
Heartbeat CPU 0 instructions: 440000004 cycles: 207121859 heartbeat IPC: 2.44 cumulative IPC: 2.004 (Simulation time: 00 hr 35 min 30 sec)
Heartbeat CPU 0 instructions: 450000002 cycles: 210867744 heartbeat IPC: 2.67 cumulative IPC: 2.017 (Simulation time: 00 hr 36 min 15 sec)
Heartbeat CPU 0 instructions: 460000000 cycles: 214555637 heartbeat IPC: 2.712 cumulative IPC: 2.03 (Simulation time: 00 hr 36 min 59 sec)
Heartbeat CPU 0 instructions: 470000000 cycles: 218038650 heartbeat IPC: 2.871 cumulative IPC: 2.044 (Simulation time: 00 hr 37 min 42 sec)
Heartbeat CPU 0 instructions: 480000003 cycles: 221903205 heartbeat IPC: 2.588 cumulative IPC: 2.054 (Simulation time: 00 hr 38 min 24 sec)
Heartbeat CPU 0 instructions: 490000000 cycles: 225548191 heartbeat IPC: 2.743 cumulative IPC: 2.066 (Simulation time: 00 hr 39 min 06 sec)
Heartbeat CPU 0 instructions: 500000000 cycles: 229255639 heartbeat IPC: 2.697 cumulative IPC: 2.076 (Simulation time: 00 hr 39 min 47 sec)
Heartbeat CPU 0 instructions: 510000003 cycles: 232979801 heartbeat IPC: 2.685 cumulative IPC: 2.087 (Simulation time: 00 hr 40 min 30 sec)
Heartbeat CPU 0 instructions: 520000001 cycles: 236407856 heartbeat IPC: 2.917 cumulative IPC: 2.099 (Simulation time: 00 hr 41 min 15 sec)
Heartbeat CPU 0 instructions: 530000002 cycles: 240128885 heartbeat IPC: 2.687 cumulative IPC: 2.109 (Simulation time: 00 hr 41 min 57 sec)
Heartbeat CPU 0 instructions: 540000000 cycles: 243671890 heartbeat IPC: 2.822 cumulative IPC: 2.12 (Simulation time: 00 hr 42 min 39 sec)
Heartbeat CPU 0 instructions: 550000001 cycles: 247380046 heartbeat IPC: 2.697 cumulative IPC: 2.129 (Simulation time: 00 hr 43 min 21 sec)
Heartbeat CPU 0 instructions: 560000000 cycles: 251426897 heartbeat IPC: 2.471 cumulative IPC: 2.135 (Simulation time: 00 hr 44 min 05 sec)
Heartbeat CPU 0 instructions: 570000004 cycles: 258153160 heartbeat IPC: 1.487 cumulative IPC: 2.117 (Simulation time: 00 hr 45 min 07 sec)
Heartbeat CPU 0 instructions: 580000003 cycles: 267296652 heartbeat IPC: 1.094 cumulative IPC: 2.08 (Simulation time: 00 hr 46 min 24 sec)
Heartbeat CPU 0 instructions: 590000002 cycles: 281499369 heartbeat IPC: 0.7041 cumulative IPC: 2.008 (Simulation time: 00 hr 48 min 10 sec)
Heartbeat CPU 0 instructions: 600000000 cycles: 285325760 heartbeat IPC: 2.613 cumulative IPC: 2.016 (Simulation time: 00 hr 48 min 54 sec)
Heartbeat CPU 0 instructions: 610000000 cycles: 289192091 heartbeat IPC: 2.586 cumulative IPC: 2.024 (Simulation time: 00 hr 49 min 38 sec)
Heartbeat CPU 0 instructions: 620000001 cycles: 292629090 heartbeat IPC: 2.91 cumulative IPC: 2.035 (Simulation time: 00 hr 50 min 24 sec)
Heartbeat CPU 0 instructions: 630000002 cycles: 296916839 heartbeat IPC: 2.332 cumulative IPC: 2.04 (Simulation time: 00 hr 51 min 12 sec)
Heartbeat CPU 0 instructions: 640000001 cycles: 300819806 heartbeat IPC: 2.562 cumulative IPC: 2.047 (Simulation time: 00 hr 51 min 55 sec)
Heartbeat CPU 0 instructions: 650000000 cycles: 304576815 heartbeat IPC: 2.662 cumulative IPC: 2.055 (Simulation time: 00 hr 52 min 39 sec)
Simulation finished CPU 0 instructions: 600000001 cycles: 292039713 cumulative IPC: 2.055 (Simulation time: 00 hr 52 min 39 sec)
Simulation complete CPU 0 instructions: 600000001 cycles: 292039713 cumulative IPC: 2.055 (Simulation time: 00 hr 52 min 39 sec)

ChampSim completed all CPUs

=== Simulation ===
CPU 0 runs traces/400.perlbench-41B.champsimtrace.xz
Region of Interest Statistics

CPU 0 cumulative IPC: 2.055 instructions: 600000001 cycles: 292039713
CPU 0 Branch Prediction Accuracy: 96.56% MPKI: 7.112 Average ROB Occupancy at Mispredict: 47.52
Branch type MPKI
BRANCH_DIRECT_JUMP: 0.0123
BRANCH_INDIRECT: 0.323
BRANCH_CONDITIONAL: 6.56
BRANCH_DIRECT_CALL: 0.0043
BRANCH_INDIRECT_CALL: 0.2
BRANCH_RETURN: 0.00828

LLC TOTAL        ACCESS:     593037 HIT:     319017 MISS:     274020
LLC LOAD         ACCESS:     403198 HIT:     210117 MISS:     193081
LLC RFO          ACCESS:      32506 HIT:      14621 MISS:      17885
LLC PREFETCH     ACCESS:      53188 HIT:      30681 MISS:      22507
LLC WRITE        ACCESS:      85067 HIT:      58810 MISS:      26257
LLC TRANSLATION  ACCESS:      19078 HIT:       4788 MISS:      14290
LLC PREFETCH REQUESTED:      53188 ISSUED:      53188 USEFUL:      12920 USELESS:       6816
LLC AVERAGE MISS LATENCY: 524.8 cycles
cpu0_DTLB TOTAL        ACCESS:  141892405 HIT:  141204772 MISS:     687633
cpu0_DTLB LOAD         ACCESS:  141892405 HIT:  141204772 MISS:     687633
cpu0_DTLB RFO          ACCESS:          0 HIT:          0 MISS:          0
cpu0_DTLB PREFETCH     ACCESS:          0 HIT:          0 MISS:          0
cpu0_DTLB WRITE        ACCESS:          0 HIT:          0 MISS:          0
cpu0_DTLB TRANSLATION  ACCESS:          0 HIT:          0 MISS:          0
cpu0_DTLB PREFETCH REQUESTED:          0 ISSUED:          0 USEFUL:          0 USELESS:          0
cpu0_DTLB AVERAGE MISS LATENCY: 18.57 cycles
cpu0_ITLB TOTAL        ACCESS:    4859818 HIT:    4806701 MISS:      53117
cpu0_ITLB LOAD         ACCESS:    4859818 HIT:    4806701 MISS:      53117
cpu0_ITLB RFO          ACCESS:          0 HIT:          0 MISS:          0
cpu0_ITLB PREFETCH     ACCESS:          0 HIT:          0 MISS:          0
cpu0_ITLB WRITE        ACCESS:          0 HIT:          0 MISS:          0
cpu0_ITLB TRANSLATION  ACCESS:          0 HIT:          0 MISS:          0
cpu0_ITLB PREFETCH REQUESTED:          0 ISSUED:          0 USEFUL:          0 USELESS:          0
cpu0_ITLB AVERAGE MISS LATENCY: 7.722 cycles
cpu0_L1D TOTAL        ACCESS:  188546668 HIT:  186815699 MISS:    1730969
cpu0_L1D LOAD         ACCESS:  105179246 HIT:  103828189 MISS:    1351057
cpu0_L1D RFO          ACCESS:          0 HIT:          0 MISS:          0
cpu0_L1D PREFETCH     ACCESS:          0 HIT:          0 MISS:          0
cpu0_L1D WRITE        ACCESS:   83342959 HIT:   82986452 MISS:     356507
cpu0_L1D TRANSLATION  ACCESS:      24463 HIT:       1058 MISS:      23405
cpu0_L1D PREFETCH REQUESTED:          0 ISSUED:          0 USEFUL:          0 USELESS:          0
cpu0_L1D AVERAGE MISS LATENCY: 78.3 cycles
cpu0_L1I TOTAL        ACCESS:    5597394 HIT:    4853895 MISS:     743499
cpu0_L1I LOAD         ACCESS:    5597394 HIT:    4853895 MISS:     743499
cpu0_L1I RFO          ACCESS:          0 HIT:          0 MISS:          0
cpu0_L1I PREFETCH     ACCESS:          0 HIT:          0 MISS:          0
cpu0_L1I WRITE        ACCESS:          0 HIT:          0 MISS:          0
cpu0_L1I TRANSLATION  ACCESS:          0 HIT:          0 MISS:          0
cpu0_L1I PREFETCH REQUESTED:          0 ISSUED:          0 USEFUL:          0 USELESS:          0
cpu0_L1I AVERAGE MISS LATENCY: 16.37 cycles
cpu0_L2C TOTAL        ACCESS:    1665440 HIT:    1208832 MISS:     456608
cpu0_L2C LOAD         ACCESS:    1315932 HIT:     912734 MISS:     403198
cpu0_L2C RFO          ACCESS:      88322 HIT:      55816 MISS:      32506
cpu0_L2C PREFETCH     ACCESS:          0 HIT:          0 MISS:          0
cpu0_L2C WRITE        ACCESS:     237850 HIT:     236024 MISS:       1826
cpu0_L2C TRANSLATION  ACCESS:      23336 HIT:       4258 MISS:      19078
cpu0_L2C PREFETCH REQUESTED:          0 ISSUED:          0 USEFUL:          0 USELESS:          0
cpu0_L2C AVERAGE MISS LATENCY: 303.5 cycles
cpu0_STLB TOTAL        ACCESS:     507395 HIT:     484601 MISS:      22794
cpu0_STLB LOAD         ACCESS:     507395 HIT:     484601 MISS:      22794
cpu0_STLB RFO          ACCESS:          0 HIT:          0 MISS:          0
cpu0_STLB PREFETCH     ACCESS:          0 HIT:          0 MISS:          0
cpu0_STLB WRITE        ACCESS:          0 HIT:          0 MISS:          0
cpu0_STLB TRANSLATION  ACCESS:          0 HIT:          0 MISS:          0
cpu0_STLB PREFETCH REQUESTED:          0 ISSUED:          0 USEFUL:          0 USELESS:          0
cpu0_STLB AVERAGE MISS LATENCY: 447.8 cycles

DRAM Statistics

Channel 0 RQ ROW_BUFFER_HIT:      35760
  ROW_BUFFER_MISS:     208231
 AVG DBUS CONGESTED CYCLE: 3.826
WQ ROW_BUFFER_HIT: Channel 0 
  ROW_BUFFER_MISS:       9269
  FULL:      33370
