WARNING: physical memory size is smaller than virtual memory size.

*** ChampSim Multicore Out-of-Order Simulator ***
Warmup Instructions: 50000000
Simulation Instructions: 600000000
Number of CPUs: 1
Page size: 4096

Off-chip DRAM Size: 4 GiB Channels: 1 Width: 64-bit Data Race: 3200 MT/s
Heartbeat CPU 0 instructions: 10000001 cycles: 2500318 heartbeat IPC: 3.999 cumulative IPC: 3.999 (Simulation time: 00 hr 00 min 37 sec)
Heartbeat CPU 0 instructions: 20000002 cycles: 5037136 heartbeat IPC: 3.942 cumulative IPC: 3.971 (Simulation time: 00 hr 01 min 13 sec)
Heartbeat CPU 0 instructions: 30000002 cycles: 7537136 heartbeat IPC: 4 cumulative IPC: 3.98 (Simulation time: 00 hr 01 min 46 sec)
Heartbeat CPU 0 instructions: 40000002 cycles: 10037136 heartbeat IPC: 4 cumulative IPC: 3.985 (Simulation time: 00 hr 02 min 21 sec)
Heartbeat CPU 0 instructions: 50000002 cycles: 12537136 heartbeat IPC: 4 cumulative IPC: 3.988 (Simulation time: 00 hr 02 min 53 sec)
Warmup finished CPU 0 instructions: 50000002 cycles: 12537137 cumulative IPC: 3.988 (Simulation time: 00 hr 02 min 53 sec)
Warmup complete CPU 0 instructions: 50000002 cycles: 12537137 cumulative IPC: 3.988 (Simulation time: 00 hr 02 min 53 sec)
Heartbeat CPU 0 instructions: 60000000 cycles: 17136722 heartbeat IPC: 2.174 cumulative IPC: 2.174 (Simulation time: 00 hr 03 min 38 sec)
Heartbeat CPU 0 instructions: 70000004 cycles: 21400311 heartbeat IPC: 2.345 cumulative IPC: 2.257 (Simulation time: 00 hr 04 min 24 sec)
Heartbeat CPU 0 instructions: 80000001 cycles: 25988505 heartbeat IPC: 2.18 cumulative IPC: 2.23 (Simulation time: 00 hr 05 min 09 sec)
Heartbeat CPU 0 instructions: 90000001 cycles: 30110597 heartbeat IPC: 2.426 cumulative IPC: 2.276 (Simulation time: 00 hr 05 min 54 sec)
Heartbeat CPU 0 instructions: 100000000 cycles: 34159135 heartbeat IPC: 2.47 cumulative IPC: 2.312 (Simulation time: 00 hr 06 min 41 sec)
Heartbeat CPU 0 instructions: 110000000 cycles: 38383530 heartbeat IPC: 2.367 cumulative IPC: 2.321 (Simulation time: 00 hr 07 min 24 sec)
Heartbeat CPU 0 instructions: 120000001 cycles: 42387162 heartbeat IPC: 2.498 cumulative IPC: 2.345 (Simulation time: 00 hr 08 min 09 sec)
Heartbeat CPU 0 instructions: 130000001 cycles: 46114574 heartbeat IPC: 2.683 cumulative IPC: 2.383 (Simulation time: 00 hr 08 min 56 sec)
Heartbeat CPU 0 instructions: 140000001 cycles: 50261707 heartbeat IPC: 2.411 cumulative IPC: 2.386 (Simulation time: 00 hr 09 min 43 sec)
Heartbeat CPU 0 instructions: 150000001 cycles: 54448882 heartbeat IPC: 2.388 cumulative IPC: 2.386 (Simulation time: 00 hr 10 min 31 sec)
Heartbeat CPU 0 instructions: 160000004 cycles: 58855394 heartbeat IPC: 2.269 cumulative IPC: 2.375 (Simulation time: 00 hr 11 min 20 sec)
Heartbeat CPU 0 instructions: 170000000 cycles: 67526703 heartbeat IPC: 1.153 cumulative IPC: 2.182 (Simulation time: 00 hr 12 min 33 sec)
Heartbeat CPU 0 instructions: 180000004 cycles: 76602849 heartbeat IPC: 1.102 cumulative IPC: 2.029 (Simulation time: 00 hr 13 min 51 sec)
Heartbeat CPU 0 instructions: 190000001 cycles: 86511261 heartbeat IPC: 1.009 cumulative IPC: 1.893 (Simulation time: 00 hr 15 min 09 sec)
Heartbeat CPU 0 instructions: 200000004 cycles: 90283445 heartbeat IPC: 2.651 cumulative IPC: 1.929 (Simulation time: 00 hr 15 min 57 sec)
Heartbeat CPU 0 instructions: 210000001 cycles: 94185760 heartbeat IPC: 2.563 cumulative IPC: 1.96 (Simulation time: 00 hr 16 min 44 sec)
Heartbeat CPU 0 instructions: 220000000 cycles: 98136881 heartbeat IPC: 2.531 cumulative IPC: 1.986 (Simulation time: 00 hr 17 min 31 sec)
Heartbeat CPU 0 instructions: 230000002 cycles: 102778234 heartbeat IPC: 2.155 cumulative IPC: 1.995 (Simulation time: 00 hr 18 min 18 sec)
Heartbeat CPU 0 instructions: 240000000 cycles: 106952150 heartbeat IPC: 2.396 cumulative IPC: 2.012 (Simulation time: 00 hr 19 min 04 sec)
Heartbeat CPU 0 instructions: 250000000 cycles: 111257538 heartbeat IPC: 2.323 cumulative IPC: 2.026 (Simulation time: 00 hr 19 min 51 sec)
Heartbeat CPU 0 instructions: 260000000 cycles: 115418769 heartbeat IPC: 2.403 cumulative IPC: 2.041 (Simulation time: 00 hr 20 min 38 sec)
Heartbeat CPU 0 instructions: 270000002 cycles: 119258822 heartbeat IPC: 2.604 cumulative IPC: 2.061 (Simulation time: 00 hr 21 min 23 sec)
Heartbeat CPU 0 instructions: 280000002 cycles: 123412238 heartbeat IPC: 2.408 cumulative IPC: 2.074 (Simulation time: 00 hr 22 min 10 sec)
Heartbeat CPU 0 instructions: 290000001 cycles: 127297179 heartbeat IPC: 2.574 cumulative IPC: 2.091 (Simulation time: 00 hr 22 min 55 sec)
Heartbeat CPU 0 instructions: 300000003 cycles: 131098959 heartbeat IPC: 2.63 cumulative IPC: 2.109 (Simulation time: 00 hr 23 min 41 sec)
Heartbeat CPU 0 instructions: 310000001 cycles: 135198266 heartbeat IPC: 2.439 cumulative IPC: 2.12 (Simulation time: 00 hr 24 min 27 sec)
Heartbeat CPU 0 instructions: 320000003 cycles: 139257215 heartbeat IPC: 2.464 cumulative IPC: 2.131 (Simulation time: 00 hr 25 min 13 sec)
Heartbeat CPU 0 instructions: 330000003 cycles: 143645577 heartbeat IPC: 2.279 cumulative IPC: 2.136 (Simulation time: 00 hr 26 min 00 sec)
Heartbeat CPU 0 instructions: 340000000 cycles: 152364758 heartbeat IPC: 1.147 cumulative IPC: 2.074 (Simulation time: 00 hr 27 min 16 sec)
Heartbeat CPU 0 instructions: 350000000 cycles: 161814069 heartbeat IPC: 1.058 cumulative IPC: 2.01 (Simulation time: 00 hr 28 min 37 sec)
Heartbeat CPU 0 instructions: 360000004 cycles: 171803900 heartbeat IPC: 1.001 cumulative IPC: 1.946 (Simulation time: 00 hr 30 min 00 sec)
Heartbeat CPU 0 instructions: 370000000 cycles: 175241686 heartbeat IPC: 2.909 cumulative IPC: 1.967 (Simulation time: 00 hr 30 min 43 sec)
Heartbeat CPU 0 instructions: 380000001 cycles: 178656390 heartbeat IPC: 2.929 cumulative IPC: 1.987 (Simulation time: 00 hr 31 min 27 sec)
Heartbeat CPU 0 instructions: 390000004 cycles: 182394796 heartbeat IPC: 2.675 cumulative IPC: 2.002 (Simulation time: 00 hr 32 min 11 sec)
Heartbeat CPU 0 instructions: 400000004 cycles: 186204417 heartbeat IPC: 2.625 cumulative IPC: 2.015 (Simulation time: 00 hr 32 min 57 sec)
Heartbeat CPU 0 instructions: 410000001 cycles: 189852908 heartbeat IPC: 2.741 cumulative IPC: 2.03 (Simulation time: 00 hr 33 min 41 sec)
Heartbeat CPU 0 instructions: 420000003 cycles: 193871629 heartbeat IPC: 2.488 cumulative IPC: 2.04 (Simulation time: 00 hr 34 min 27 sec)
Heartbeat CPU 0 instructions: 430000001 cycles: 197526155 heartbeat IPC: 2.736 cumulative IPC: 2.054 (Simulation time: 00 hr 35 min 13 sec)
Heartbeat CPU 0 instructions: 440000004 cycles: 201609172 heartbeat IPC: 2.449 cumulative IPC: 2.063 (Simulation time: 00 hr 36 min 00 sec)
Heartbeat CPU 0 instructions: 450000002 cycles: 205327799 heartbeat IPC: 2.689 cumulative IPC: 2.075 (Simulation time: 00 hr 36 min 45 sec)
Heartbeat CPU 0 instructions: 460000000 cycles: 208991917 heartbeat IPC: 2.729 cumulative IPC: 2.087 (Simulation time: 00 hr 37 min 30 sec)
Heartbeat CPU 0 instructions: 470000000 cycles: 212454545 heartbeat IPC: 2.888 cumulative IPC: 2.101 (Simulation time: 00 hr 38 min 16 sec)
Heartbeat CPU 0 instructions: 480000003 cycles: 216283622 heartbeat IPC: 2.612 cumulative IPC: 2.11 (Simulation time: 00 hr 39 min 00 sec)
Heartbeat CPU 0 instructions: 490000000 cycles: 219916864 heartbeat IPC: 2.752 cumulative IPC: 2.122 (Simulation time: 00 hr 39 min 45 sec)
Heartbeat CPU 0 instructions: 500000000 cycles: 223617825 heartbeat IPC: 2.702 cumulative IPC: 2.132 (Simulation time: 00 hr 40 min 29 sec)
Heartbeat CPU 0 instructions: 510000003 cycles: 227289970 heartbeat IPC: 2.723 cumulative IPC: 2.142 (Simulation time: 00 hr 41 min 14 sec)
Heartbeat CPU 0 instructions: 520000001 cycles: 230694089 heartbeat IPC: 2.938 cumulative IPC: 2.154 (Simulation time: 00 hr 42 min 01 sec)
Heartbeat CPU 0 instructions: 530000002 cycles: 234366076 heartbeat IPC: 2.723 cumulative IPC: 2.164 (Simulation time: 00 hr 42 min 46 sec)
Heartbeat CPU 0 instructions: 540000000 cycles: 237890665 heartbeat IPC: 2.837 cumulative IPC: 2.174 (Simulation time: 00 hr 43 min 31 sec)
Heartbeat CPU 0 instructions: 550000001 cycles: 241580485 heartbeat IPC: 2.71 cumulative IPC: 2.183 (Simulation time: 00 hr 44 min 16 sec)
Heartbeat CPU 0 instructions: 560000000 cycles: 245569322 heartbeat IPC: 2.507 cumulative IPC: 2.189 (Simulation time: 00 hr 45 min 03 sec)
Heartbeat CPU 0 instructions: 570000004 cycles: 251627495 heartbeat IPC: 1.651 cumulative IPC: 2.175 (Simulation time: 00 hr 46 min 02 sec)
Heartbeat CPU 0 instructions: 580000003 cycles: 261682016 heartbeat IPC: 0.9946 cumulative IPC: 2.127 (Simulation time: 00 hr 47 min 23 sec)
Heartbeat CPU 0 instructions: 590000002 cycles: 273728890 heartbeat IPC: 0.8301 cumulative IPC: 2.067 (Simulation time: 00 hr 48 min 57 sec)
Heartbeat CPU 0 instructions: 600000000 cycles: 277472368 heartbeat IPC: 2.671 cumulative IPC: 2.076 (Simulation time: 00 hr 49 min 43 sec)
Heartbeat CPU 0 instructions: 610000000 cycles: 281324332 heartbeat IPC: 2.596 cumulative IPC: 2.083 (Simulation time: 00 hr 50 min 30 sec)
Heartbeat CPU 0 instructions: 620000001 cycles: 284754535 heartbeat IPC: 2.915 cumulative IPC: 2.094 (Simulation time: 00 hr 51 min 16 sec)
Heartbeat CPU 0 instructions: 630000002 cycles: 289021410 heartbeat IPC: 2.344 cumulative IPC: 2.098 (Simulation time: 00 hr 52 min 03 sec)
Heartbeat CPU 0 instructions: 640000001 cycles: 292916946 heartbeat IPC: 2.567 cumulative IPC: 2.104 (Simulation time: 00 hr 52 min 48 sec)
Heartbeat CPU 0 instructions: 650000000 cycles: 296669763 heartbeat IPC: 2.665 cumulative IPC: 2.112 (Simulation time: 00 hr 53 min 32 sec)
Simulation finished CPU 0 instructions: 600000001 cycles: 284132628 cumulative IPC: 2.112 (Simulation time: 00 hr 53 min 32 sec)
Simulation complete CPU 0 instructions: 600000001 cycles: 284132628 cumulative IPC: 2.112 (Simulation time: 00 hr 53 min 32 sec)

ChampSim completed all CPUs

=== Simulation ===
CPU 0 runs traces/400.perlbench-41B.champsimtrace.xz
Region of Interest Statistics

CPU 0 cumulative IPC: 2.112 instructions: 600000001 cycles: 284132628
CPU 0 Branch Prediction Accuracy: 96.56% MPKI: 7.112 Average ROB Occupancy at Mispredict: 47.26
Branch type MPKI
BRANCH_DIRECT_JUMP: 0.0123
BRANCH_INDIRECT: 0.323
BRANCH_CONDITIONAL: 6.56
BRANCH_DIRECT_CALL: 0.0043
BRANCH_INDIRECT_CALL: 0.2
BRANCH_RETURN: 0.00828

LLC TOTAL        ACCESS:     540345 HIT:     318056 MISS:     222289
LLC LOAD         ACCESS:     403134 HIT:     201176 MISS:     201958
LLC RFO          ACCESS:      32526 HIT:      27110 MISS:       5416
LLC PREFETCH     ACCESS:          0 HIT:          0 MISS:          0
LLC WRITE        ACCESS:      85605 HIT:      81997 MISS:       3608
LLC TRANSLATION  ACCESS:      19080 HIT:       7773 MISS:      11307
LLC PREFETCH REQUESTED:          0 ISSUED:          0 USEFUL:          0 USELESS:          0
LLC AVERAGE MISS LATENCY: 503 cycles
cpu0_DTLB TOTAL        ACCESS:  141922001 HIT:  141234359 MISS:     687642
cpu0_DTLB LOAD         ACCESS:  141922001 HIT:  141234359 MISS:     687642
cpu0_DTLB RFO          ACCESS:          0 HIT:          0 MISS:          0
cpu0_DTLB PREFETCH     ACCESS:          0 HIT:          0 MISS:          0
cpu0_DTLB WRITE        ACCESS:          0 HIT:          0 MISS:          0
cpu0_DTLB TRANSLATION  ACCESS:          0 HIT:          0 MISS:          0
cpu0_DTLB PREFETCH REQUESTED:          0 ISSUED:          0 USEFUL:          0 USELESS:          0
cpu0_DTLB AVERAGE MISS LATENCY: 14.94 cycles
cpu0_ITLB TOTAL        ACCESS:    4860173 HIT:    4807062 MISS:      53111
cpu0_ITLB LOAD         ACCESS:    4860173 HIT:    4807062 MISS:      53111
cpu0_ITLB RFO          ACCESS:          0 HIT:          0 MISS:          0
cpu0_ITLB PREFETCH     ACCESS:          0 HIT:          0 MISS:          0
cpu0_ITLB WRITE        ACCESS:          0 HIT:          0 MISS:          0
cpu0_ITLB TRANSLATION  ACCESS:          0 HIT:          0 MISS:          0
cpu0_ITLB PREFETCH REQUESTED:          0 ISSUED:          0 USEFUL:          0 USELESS:          0
cpu0_ITLB AVERAGE MISS LATENCY: 7.761 cycles
cpu0_L1D TOTAL        ACCESS:  188572021 HIT:  186851410 MISS:    1720611
cpu0_L1D LOAD         ACCESS:  105203797 HIT:  103848062 MISS:    1355735
cpu0_L1D RFO          ACCESS:          0 HIT:          0 MISS:          0
cpu0_L1D PREFETCH     ACCESS:          0 HIT:          0 MISS:          0
cpu0_L1D WRITE        ACCESS:   83343764 HIT:   83002286 MISS:     341478
cpu0_L1D TRANSLATION  ACCESS:      24460 HIT:       1062 MISS:      23398
cpu0_L1D PREFETCH REQUESTED:          0 ISSUED:          0 USEFUL:          0 USELESS:          0
cpu0_L1D AVERAGE MISS LATENCY: 70.96 cycles
cpu0_L1I TOTAL        ACCESS:    5598185 HIT:    4854529 MISS:     743656
cpu0_L1I LOAD         ACCESS:    5598185 HIT:    4854529 MISS:     743656
cpu0_L1I RFO          ACCESS:          0 HIT:          0 MISS:          0
cpu0_L1I PREFETCH     ACCESS:          0 HIT:          0 MISS:          0
cpu0_L1I WRITE        ACCESS:          0 HIT:          0 MISS:          0
cpu0_L1I TRANSLATION  ACCESS:          0 HIT:          0 MISS:          0
cpu0_L1I PREFETCH REQUESTED:          0 ISSUED:          0 USEFUL:          0 USELESS:          0
cpu0_L1I AVERAGE MISS LATENCY: 11.51 cycles
cpu0_L2C TOTAL        ACCESS:    1666035 HIT:    1209458 MISS:     456577
cpu0_L2C LOAD         ACCESS:    1315929 HIT:     912795 MISS:     403134
cpu0_L2C RFO          ACCESS:      88344 HIT:      55817 MISS:      32527
cpu0_L2C PREFETCH     ACCESS:          0 HIT:          0 MISS:          0
cpu0_L2C WRITE        ACCESS:     238432 HIT:     236596 MISS:       1836
cpu0_L2C TRANSLATION  ACCESS:      23330 HIT:       4250 MISS:      19080
cpu0_L2C PREFETCH REQUESTED:          0 ISSUED:          0 USEFUL:          0 USELESS:          0
cpu0_L2C AVERAGE MISS LATENCY: 265.3 cycles
cpu0_STLB TOTAL        ACCESS:     507475 HIT:     484681 MISS:      22794
cpu0_STLB LOAD         ACCESS:     507475 HIT:     484681 MISS:      22794
cpu0_STLB RFO          ACCESS:          0 HIT:          0 MISS:          0
cpu0_STLB PREFETCH     ACCESS:          0 HIT:          0 MISS:          0
cpu0_STLB WRITE        ACCESS:          0 HIT:          0 MISS:          0
cpu0_STLB TRANSLATION  ACCESS:          0 HIT:          0 MISS:          0
cpu0_STLB PREFETCH REQUESTED:          0 ISSUED:          0 USEFUL:          0 USELESS:          0
cpu0_STLB AVERAGE MISS LATENCY: 331.4 cycles

DRAM Statistics

Channel 0 RQ ROW_BUFFER_HIT:      52947
  ROW_BUFFER_MISS:     165732
 AVG DBUS CONGESTED CYCLE: 3.71
WQ ROW_BUFFER_HIT: Channel 0 
  ROW_BUFFER_MISS:       2662
  FULL:       3169
