WARNING: physical memory size is smaller than virtual memory size.

*** ChampSim Multicore Out-of-Order Simulator ***
Warmup Instructions: 50000000
Simulation Instructions: 600000000
Number of CPUs: 1
Page size: 4096

Off-chip DRAM Size: 4 GiB Channels: 1 Width: 64-bit Data Race: 3200 MT/s
Heartbeat CPU 0 instructions: 10000001 cycles: 2500318 heartbeat IPC: 3.999 cumulative IPC: 3.999 (Simulation time: 00 hr 00 min 28 sec)
Heartbeat CPU 0 instructions: 20000002 cycles: 5037114 heartbeat IPC: 3.942 cumulative IPC: 3.971 (Simulation time: 00 hr 00 min 59 sec)
Heartbeat CPU 0 instructions: 30000002 cycles: 7537114 heartbeat IPC: 4 cumulative IPC: 3.98 (Simulation time: 00 hr 01 min 30 sec)
Heartbeat CPU 0 instructions: 40000002 cycles: 10037114 heartbeat IPC: 4 cumulative IPC: 3.985 (Simulation time: 00 hr 02 min 04 sec)
Heartbeat CPU 0 instructions: 50000002 cycles: 12537114 heartbeat IPC: 4 cumulative IPC: 3.988 (Simulation time: 00 hr 02 min 37 sec)
Warmup finished CPU 0 instructions: 50000002 cycles: 12537115 cumulative IPC: 3.988 (Simulation time: 00 hr 02 min 37 sec)
Warmup complete CPU 0 instructions: 50000002 cycles: 12537115 cumulative IPC: 3.988 (Simulation time: 00 hr 02 min 37 sec)
Heartbeat CPU 0 instructions: 60000000 cycles: 17713577 heartbeat IPC: 1.932 cumulative IPC: 1.932 (Simulation time: 00 hr 03 min 25 sec)
Heartbeat CPU 0 instructions: 70000002 cycles: 22604998 heartbeat IPC: 2.044 cumulative IPC: 1.987 (Simulation time: 00 hr 04 min 12 sec)
Heartbeat CPU 0 instructions: 80000001 cycles: 27960974 heartbeat IPC: 1.867 cumulative IPC: 1.945 (Simulation time: 00 hr 05 min 01 sec)
Heartbeat CPU 0 instructions: 90000001 cycles: 32825792 heartbeat IPC: 2.056 cumulative IPC: 1.972 (Simulation time: 00 hr 05 min 49 sec)
Heartbeat CPU 0 instructions: 100000000 cycles: 37940137 heartbeat IPC: 1.955 cumulative IPC: 1.968 (Simulation time: 00 hr 06 min 38 sec)
Heartbeat CPU 0 instructions: 110000000 cycles: 42816438 heartbeat IPC: 2.051 cumulative IPC: 1.982 (Simulation time: 00 hr 07 min 27 sec)
Heartbeat CPU 0 instructions: 120000001 cycles: 48007418 heartbeat IPC: 1.926 cumulative IPC: 1.973 (Simulation time: 00 hr 08 min 18 sec)
Heartbeat CPU 0 instructions: 130000001 cycles: 53157604 heartbeat IPC: 1.942 cumulative IPC: 1.969 (Simulation time: 00 hr 09 min 09 sec)
Heartbeat CPU 0 instructions: 140000001 cycles: 58478193 heartbeat IPC: 1.879 cumulative IPC: 1.959 (Simulation time: 00 hr 10 min 07 sec)
Heartbeat CPU 0 instructions: 150000001 cycles: 63797399 heartbeat IPC: 1.88 cumulative IPC: 1.951 (Simulation time: 00 hr 11 min 06 sec)
Heartbeat CPU 0 instructions: 160000004 cycles: 69004773 heartbeat IPC: 1.92 cumulative IPC: 1.948 (Simulation time: 00 hr 12 min 04 sec)
Heartbeat CPU 0 instructions: 170000000 cycles: 79106050 heartbeat IPC: 0.99 cumulative IPC: 1.803 (Simulation time: 00 hr 13 min 28 sec)
Heartbeat CPU 0 instructions: 180000004 cycles: 89571715 heartbeat IPC: 0.9555 cumulative IPC: 1.688 (Simulation time: 00 hr 15 min 26 sec)
Heartbeat CPU 0 instructions: 190000001 cycles: 100153116 heartbeat IPC: 0.9451 cumulative IPC: 1.598 (Simulation time: 00 hr 17 min 21 sec)
Heartbeat CPU 0 instructions: 200000003 cycles: 104931827 heartbeat IPC: 2.093 cumulative IPC: 1.623 (Simulation time: 00 hr 18 min 28 sec)
Heartbeat CPU 0 instructions: 210000001 cycles: 109852596 heartbeat IPC: 2.032 cumulative IPC: 1.644 (Simulation time: 00 hr 19 min 40 sec)
Heartbeat CPU 0 instructions: 220000000 cycles: 114681635 heartbeat IPC: 2.071 cumulative IPC: 1.664 (Simulation time: 00 hr 20 min 56 sec)
Heartbeat CPU 0 instructions: 230000002 cycles: 120002334 heartbeat IPC: 1.879 cumulative IPC: 1.675 (Simulation time: 00 hr 22 min 13 sec)
Heartbeat CPU 0 instructions: 240000000 cycles: 124846978 heartbeat IPC: 2.064 cumulative IPC: 1.692 (Simulation time: 00 hr 23 min 31 sec)
Heartbeat CPU 0 instructions: 250000000 cycles: 129994772 heartbeat IPC: 1.943 cumulative IPC: 1.703 (Simulation time: 00 hr 24 min 47 sec)
Heartbeat CPU 0 instructions: 260000000 cycles: 135010647 heartbeat IPC: 1.994 cumulative IPC: 1.715 (Simulation time: 00 hr 26 min 01 sec)
Heartbeat CPU 0 instructions: 270000002 cycles: 139897145 heartbeat IPC: 2.046 cumulative IPC: 1.727 (Simulation time: 00 hr 27 min 10 sec)
Heartbeat CPU 0 instructions: 280000002 cycles: 144796437 heartbeat IPC: 2.041 cumulative IPC: 1.739 (Simulation time: 00 hr 28 min 22 sec)
Heartbeat CPU 0 instructions: 290000001 cycles: 150164884 heartbeat IPC: 1.863 cumulative IPC: 1.744 (Simulation time: 00 hr 29 min 37 sec)
Heartbeat CPU 0 instructions: 300000003 cycles: 155217914 heartbeat IPC: 1.979 cumulative IPC: 1.752 (Simulation time: 00 hr 30 min 47 sec)
Heartbeat CPU 0 instructions: 310000001 cycles: 160521200 heartbeat IPC: 1.886 cumulative IPC: 1.757 (Simulation time: 00 hr 31 min 55 sec)
Heartbeat CPU 0 instructions: 320000003 cycles: 165730748 heartbeat IPC: 1.92 cumulative IPC: 1.762 (Simulation time: 00 hr 33 min 05 sec)
Heartbeat CPU 0 instructions: 330000003 cycles: 171024586 heartbeat IPC: 1.889 cumulative IPC: 1.767 (Simulation time: 00 hr 34 min 10 sec)
Heartbeat CPU 0 instructions: 340000000 cycles: 181300894 heartbeat IPC: 0.9731 cumulative IPC: 1.718 (Simulation time: 00 hr 35 min 58 sec)
Heartbeat CPU 0 instructions: 350000000 cycles: 192177360 heartbeat IPC: 0.9194 cumulative IPC: 1.67 (Simulation time: 00 hr 37 min 56 sec)
Heartbeat CPU 0 instructions: 360000004 cycles: 202835109 heartbeat IPC: 0.9383 cumulative IPC: 1.629 (Simulation time: 00 hr 39 min 55 sec)
Heartbeat CPU 0 instructions: 370000000 cycles: 207247687 heartbeat IPC: 2.266 cumulative IPC: 1.643 (Simulation time: 00 hr 41 min 00 sec)
Heartbeat CPU 0 instructions: 380000001 cycles: 212182731 heartbeat IPC: 2.026 cumulative IPC: 1.653 (Simulation time: 00 hr 42 min 08 sec)
Heartbeat CPU 0 instructions: 390000002 cycles: 217006704 heartbeat IPC: 2.073 cumulative IPC: 1.663 (Simulation time: 00 hr 43 min 16 sec)
Heartbeat CPU 0 instructions: 400000004 cycles: 221939584 heartbeat IPC: 2.027 cumulative IPC: 1.671 (Simulation time: 00 hr 44 min 26 sec)
Heartbeat CPU 0 instructions: 410000000 cycles: 226669128 heartbeat IPC: 2.114 cumulative IPC: 1.681 (Simulation time: 00 hr 45 min 36 sec)
Heartbeat CPU 0 instructions: 420000000 cycles: 231809008 heartbeat IPC: 1.946 cumulative IPC: 1.687 (Simulation time: 00 hr 46 min 45 sec)
Heartbeat CPU 0 instructions: 430000001 cycles: 236270493 heartbeat IPC: 2.241 cumulative IPC: 1.698 (Simulation time: 00 hr 47 min 53 sec)
Heartbeat CPU 0 instructions: 440000000 cycles: 241609051 heartbeat IPC: 1.873 cumulative IPC: 1.703 (Simulation time: 00 hr 49 min 08 sec)
Heartbeat CPU 0 instructions: 450000002 cycles: 246266462 heartbeat IPC: 2.147 cumulative IPC: 1.711 (Simulation time: 00 hr 50 min 14 sec)
Heartbeat CPU 0 instructions: 460000000 cycles: 251050163 heartbeat IPC: 2.09 cumulative IPC: 1.719 (Simulation time: 00 hr 51 min 20 sec)
Heartbeat CPU 0 instructions: 470000000 cycles: 256020644 heartbeat IPC: 2.012 cumulative IPC: 1.725 (Simulation time: 00 hr 52 min 24 sec)
Heartbeat CPU 0 instructions: 480000003 cycles: 260789216 heartbeat IPC: 2.097 cumulative IPC: 1.732 (Simulation time: 00 hr 53 min 26 sec)
Heartbeat CPU 0 instructions: 490000000 cycles: 265387603 heartbeat IPC: 2.175 cumulative IPC: 1.74 (Simulation time: 00 hr 54 min 27 sec)
Heartbeat CPU 0 instructions: 500000000 cycles: 270403607 heartbeat IPC: 1.994 cumulative IPC: 1.745 (Simulation time: 00 hr 55 min 32 sec)
Heartbeat CPU 0 instructions: 510000003 cycles: 276011691 heartbeat IPC: 1.783 cumulative IPC: 1.746 (Simulation time: 00 hr 56 min 40 sec)
Heartbeat CPU 0 instructions: 520000001 cycles: 280691443 heartbeat IPC: 2.137 cumulative IPC: 1.753 (Simulation time: 00 hr 57 min 45 sec)
Heartbeat CPU 0 instructions: 530000002 cycles: 285827929 heartbeat IPC: 1.947 cumulative IPC: 1.756 (Simulation time: 00 hr 58 min 56 sec)
Heartbeat CPU 0 instructions: 540000000 cycles: 290938681 heartbeat IPC: 1.957 cumulative IPC: 1.76 (Simulation time: 01 hr 00 min 19 sec)
Heartbeat CPU 0 instructions: 550000001 cycles: 295739428 heartbeat IPC: 2.083 cumulative IPC: 1.766 (Simulation time: 01 hr 01 min 51 sec)
Heartbeat CPU 0 instructions: 560000000 cycles: 300938337 heartbeat IPC: 1.923 cumulative IPC: 1.768 (Simulation time: 01 hr 03 min 20 sec)
Heartbeat CPU 0 instructions: 570000004 cycles: 308178367 heartbeat IPC: 1.381 cumulative IPC: 1.759 (Simulation time: 01 hr 04 min 59 sec)
Heartbeat CPU 0 instructions: 580000003 cycles: 319643562 heartbeat IPC: 0.8722 cumulative IPC: 1.726 (Simulation time: 01 hr 07 min 11 sec)
Heartbeat CPU 0 instructions: 590000002 cycles: 332713271 heartbeat IPC: 0.7651 cumulative IPC: 1.687 (Simulation time: 01 hr 09 min 31 sec)
Heartbeat CPU 0 instructions: 600000000 cycles: 337329600 heartbeat IPC: 2.166 cumulative IPC: 1.693 (Simulation time: 01 hr 10 min 39 sec)
Heartbeat CPU 0 instructions: 610000002 cycles: 341823040 heartbeat IPC: 2.225 cumulative IPC: 1.701 (Simulation time: 01 hr 11 min 47 sec)
Heartbeat CPU 0 instructions: 620000000 cycles: 346632605 heartbeat IPC: 2.079 cumulative IPC: 1.706 (Simulation time: 01 hr 12 min 52 sec)
Heartbeat CPU 0 instructions: 630000002 cycles: 351720098 heartbeat IPC: 1.966 cumulative IPC: 1.71 (Simulation time: 01 hr 14 min 05 sec)
Heartbeat CPU 0 instructions: 640000001 cycles: 356570563 heartbeat IPC: 2.062 cumulative IPC: 1.715 (Simulation time: 01 hr 15 min 15 sec)
Heartbeat CPU 0 instructions: 650000000 cycles: 361122148 heartbeat IPC: 2.197 cumulative IPC: 1.721 (Simulation time: 01 hr 16 min 20 sec)
Simulation finished CPU 0 instructions: 600000001 cycles: 348585035 cumulative IPC: 1.721 (Simulation time: 01 hr 16 min 20 sec)
Simulation complete CPU 0 instructions: 600000001 cycles: 348585035 cumulative IPC: 1.721 (Simulation time: 01 hr 16 min 20 sec)

ChampSim completed all CPUs

=== Simulation ===
CPU 0 runs traces/400.perlbench-41B.champsimtrace.xz
Region of Interest Statistics

CPU 0 cumulative IPC: 1.721 instructions: 600000001 cycles: 348585035
CPU 0 Branch Prediction Accuracy: 93.95% MPKI: 12.5 Average ROB Occupancy at Mispredict: 29.58
Branch type MPKI
BRANCH_DIRECT_JUMP: 0.0123
BRANCH_INDIRECT: 0.323
BRANCH_CONDITIONAL: 12
BRANCH_DIRECT_CALL: 0.0043
BRANCH_INDIRECT_CALL: 0.2
BRANCH_RETURN: 0.00828

LLC TOTAL        ACCESS:     940243 HIT:     512402 MISS:     427841
LLC LOAD         ACCESS:     401481 HIT:     208708 MISS:     192773
LLC RFO          ACCESS:      32799 HIT:      15992 MISS:      16807
LLC PREFETCH     ACCESS:     401481 HIT:     194668 MISS:     206813
LLC WRITE        ACCESS:      85431 HIT:      84898 MISS:        533
LLC TRANSLATION  ACCESS:      19051 HIT:       8136 MISS:      10915
LLC PREFETCH REQUESTED:     401481 ISSUED:     401481 USEFUL:      76022 USELESS:      79865
LLC AVERAGE MISS LATENCY: 579.7 cycles
cpu0_DTLB TOTAL        ACCESS:  153677112 HIT:  152999706 MISS:     677406
cpu0_DTLB LOAD         ACCESS:  153677112 HIT:  152999706 MISS:     677406
cpu0_DTLB RFO          ACCESS:          0 HIT:          0 MISS:          0
cpu0_DTLB PREFETCH     ACCESS:          0 HIT:          0 MISS:          0
cpu0_DTLB WRITE        ACCESS:          0 HIT:          0 MISS:          0
cpu0_DTLB TRANSLATION  ACCESS:          0 HIT:          0 MISS:          0
cpu0_DTLB PREFETCH REQUESTED:          0 ISSUED:          0 USEFUL:          0 USELESS:          0
cpu0_DTLB AVERAGE MISS LATENCY: 17.53 cycles
cpu0_ITLB TOTAL        ACCESS:    4835566 HIT:    4777673 MISS:      57893
cpu0_ITLB LOAD         ACCESS:    4835566 HIT:    4777673 MISS:      57893
cpu0_ITLB RFO          ACCESS:          0 HIT:          0 MISS:          0
cpu0_ITLB PREFETCH     ACCESS:          0 HIT:          0 MISS:          0
cpu0_ITLB WRITE        ACCESS:          0 HIT:          0 MISS:          0
cpu0_ITLB TRANSLATION  ACCESS:          0 HIT:          0 MISS:          0
cpu0_ITLB PREFETCH REQUESTED:          0 ISSUED:          0 USEFUL:          0 USELESS:          0
cpu0_ITLB AVERAGE MISS LATENCY: 8.094 cycles
cpu0_L1D TOTAL        ACCESS:  200292768 HIT:  198557851 MISS:    1734917
cpu0_L1D LOAD         ACCESS:  117050390 HIT:  115700140 MISS:    1350250
cpu0_L1D RFO          ACCESS:          0 HIT:          0 MISS:          0
cpu0_L1D PREFETCH     ACCESS:          0 HIT:          0 MISS:          0
cpu0_L1D WRITE        ACCESS:   83217917 HIT:   82856676 MISS:     361241
cpu0_L1D TRANSLATION  ACCESS:      24461 HIT:       1035 MISS:      23426
cpu0_L1D PREFETCH REQUESTED:          0 ISSUED:          0 USEFUL:          0 USELESS:          0
cpu0_L1D AVERAGE MISS LATENCY: 84.43 cycles
cpu0_L1I TOTAL        ACCESS:    5577879 HIT:    4816272 MISS:     761607
cpu0_L1I LOAD         ACCESS:    5577879 HIT:    4816272 MISS:     761607
cpu0_L1I RFO          ACCESS:          0 HIT:          0 MISS:          0
cpu0_L1I PREFETCH     ACCESS:          0 HIT:          0 MISS:          0
cpu0_L1I WRITE        ACCESS:          0 HIT:          0 MISS:          0
cpu0_L1I TRANSLATION  ACCESS:          0 HIT:          0 MISS:          0
cpu0_L1I PREFETCH REQUESTED:          0 ISSUED:          0 USEFUL:          0 USELESS:          0
cpu0_L1I AVERAGE MISS LATENCY: 13.81 cycles
cpu0_L2C TOTAL        ACCESS:    1667882 HIT:    1212733 MISS:     455149
cpu0_L2C LOAD         ACCESS:    1317047 HIT:     915566 MISS:     401481
cpu0_L2C RFO          ACCESS:      88639 HIT:      55840 MISS:      32799
cpu0_L2C PREFETCH     ACCESS:          0 HIT:          0 MISS:          0
cpu0_L2C WRITE        ACCESS:     238852 HIT:     237034 MISS:       1818
cpu0_L2C TRANSLATION  ACCESS:      23344 HIT:       4293 MISS:      19051
cpu0_L2C PREFETCH REQUESTED:          0 ISSUED:          0 USEFUL:          0 USELESS:          0
cpu0_L2C AVERAGE MISS LATENCY: 323.9 cycles
cpu0_STLB TOTAL        ACCESS:     505216 HIT:     482426 MISS:      22790
cpu0_STLB LOAD         ACCESS:     505216 HIT:     482426 MISS:      22790
cpu0_STLB RFO          ACCESS:          0 HIT:          0 MISS:          0
cpu0_STLB PREFETCH     ACCESS:          0 HIT:          0 MISS:          0
cpu0_STLB WRITE        ACCESS:          0 HIT:          0 MISS:          0
cpu0_STLB TRANSLATION  ACCESS:          0 HIT:          0 MISS:          0
cpu0_STLB PREFETCH REQUESTED:          0 ISSUED:          0 USEFUL:          0 USELESS:          0
cpu0_STLB AVERAGE MISS LATENCY: 403.7 cycles

DRAM Statistics

Channel 0 RQ ROW_BUFFER_HIT:      64303
  ROW_BUFFER_MISS:     298745
 AVG DBUS CONGESTED CYCLE: 3.873
WQ ROW_BUFFER_HIT: Channel 0 
  ROW_BUFFER_MISS:       5450
  FULL:      42406
