WARNING: physical memory size is smaller than virtual memory size.

*** ChampSim Multicore Out-of-Order Simulator ***
Warmup Instructions: 50000000
Simulation Instructions: 600000000
Number of CPUs: 1
Page size: 4096

Off-chip DRAM Size: 4 GiB Channels: 1 Width: 64-bit Data Race: 3200 MT/s
Heartbeat CPU 0 instructions: 10000001 cycles: 2500318 heartbeat IPC: 3.999 cumulative IPC: 3.999 (Simulation time: 00 hr 00 min 29 sec)
Heartbeat CPU 0 instructions: 20000002 cycles: 5037122 heartbeat IPC: 3.942 cumulative IPC: 3.971 (Simulation time: 00 hr 01 min 05 sec)
Heartbeat CPU 0 instructions: 30000002 cycles: 7537122 heartbeat IPC: 4 cumulative IPC: 3.98 (Simulation time: 00 hr 01 min 41 sec)
Heartbeat CPU 0 instructions: 40000002 cycles: 10037122 heartbeat IPC: 4 cumulative IPC: 3.985 (Simulation time: 00 hr 02 min 19 sec)
Heartbeat CPU 0 instructions: 50000002 cycles: 12537122 heartbeat IPC: 4 cumulative IPC: 3.988 (Simulation time: 00 hr 02 min 57 sec)
Warmup finished CPU 0 instructions: 50000002 cycles: 12537123 cumulative IPC: 3.988 (Simulation time: 00 hr 02 min 57 sec)
Warmup complete CPU 0 instructions: 50000002 cycles: 12537123 cumulative IPC: 3.988 (Simulation time: 00 hr 02 min 57 sec)
Heartbeat CPU 0 instructions: 60000000 cycles: 17152968 heartbeat IPC: 2.166 cumulative IPC: 2.166 (Simulation time: 00 hr 03 min 53 sec)
Heartbeat CPU 0 instructions: 70000004 cycles: 21426083 heartbeat IPC: 2.34 cumulative IPC: 2.25 (Simulation time: 00 hr 04 min 44 sec)
Heartbeat CPU 0 instructions: 80000001 cycles: 26017264 heartbeat IPC: 2.178 cumulative IPC: 2.225 (Simulation time: 00 hr 05 min 40 sec)
Heartbeat CPU 0 instructions: 90000001 cycles: 30143367 heartbeat IPC: 2.424 cumulative IPC: 2.272 (Simulation time: 00 hr 06 min 32 sec)
Heartbeat CPU 0 instructions: 100000000 cycles: 34200610 heartbeat IPC: 2.465 cumulative IPC: 2.308 (Simulation time: 00 hr 07 min 24 sec)
Heartbeat CPU 0 instructions: 110000000 cycles: 38440421 heartbeat IPC: 2.359 cumulative IPC: 2.316 (Simulation time: 00 hr 08 min 11 sec)
Heartbeat CPU 0 instructions: 120000001 cycles: 42445649 heartbeat IPC: 2.497 cumulative IPC: 2.34 (Simulation time: 00 hr 08 min 57 sec)
Heartbeat CPU 0 instructions: 130000001 cycles: 46180859 heartbeat IPC: 2.677 cumulative IPC: 2.378 (Simulation time: 00 hr 09 min 42 sec)
Heartbeat CPU 0 instructions: 140000001 cycles: 50339740 heartbeat IPC: 2.404 cumulative IPC: 2.381 (Simulation time: 00 hr 10 min 30 sec)
Heartbeat CPU 0 instructions: 150000001 cycles: 54539523 heartbeat IPC: 2.381 cumulative IPC: 2.381 (Simulation time: 00 hr 11 min 16 sec)
Heartbeat CPU 0 instructions: 160000004 cycles: 58957751 heartbeat IPC: 2.263 cumulative IPC: 2.37 (Simulation time: 00 hr 12 min 07 sec)
Heartbeat CPU 0 instructions: 170000000 cycles: 68765455 heartbeat IPC: 1.02 cumulative IPC: 2.134 (Simulation time: 00 hr 13 min 28 sec)
Heartbeat CPU 0 instructions: 180000004 cycles: 79494387 heartbeat IPC: 0.9321 cumulative IPC: 1.942 (Simulation time: 00 hr 14 min 54 sec)
Heartbeat CPU 0 instructions: 190000001 cycles: 89691385 heartbeat IPC: 0.9807 cumulative IPC: 1.815 (Simulation time: 00 hr 16 min 18 sec)
Heartbeat CPU 0 instructions: 200000004 cycles: 93467705 heartbeat IPC: 2.648 cumulative IPC: 1.853 (Simulation time: 00 hr 17 min 05 sec)
Heartbeat CPU 0 instructions: 210000001 cycles: 97388430 heartbeat IPC: 2.551 cumulative IPC: 1.886 (Simulation time: 00 hr 17 min 53 sec)
Heartbeat CPU 0 instructions: 220000000 cycles: 101346846 heartbeat IPC: 2.526 cumulative IPC: 1.914 (Simulation time: 00 hr 18 min 39 sec)
Heartbeat CPU 0 instructions: 230000002 cycles: 106027424 heartbeat IPC: 2.136 cumulative IPC: 1.925 (Simulation time: 00 hr 19 min 30 sec)
Heartbeat CPU 0 instructions: 240000000 cycles: 110224665 heartbeat IPC: 2.383 cumulative IPC: 1.945 (Simulation time: 00 hr 20 min 17 sec)
Heartbeat CPU 0 instructions: 250000000 cycles: 114548705 heartbeat IPC: 2.313 cumulative IPC: 1.961 (Simulation time: 00 hr 21 min 05 sec)
Heartbeat CPU 0 instructions: 260000000 cycles: 118737964 heartbeat IPC: 2.387 cumulative IPC: 1.977 (Simulation time: 00 hr 21 min 55 sec)
Heartbeat CPU 0 instructions: 270000002 cycles: 122595144 heartbeat IPC: 2.593 cumulative IPC: 1.999 (Simulation time: 00 hr 22 min 40 sec)
Heartbeat CPU 0 instructions: 280000002 cycles: 126774351 heartbeat IPC: 2.393 cumulative IPC: 2.013 (Simulation time: 00 hr 23 min 27 sec)
Heartbeat CPU 0 instructions: 290000001 cycles: 130674254 heartbeat IPC: 2.564 cumulative IPC: 2.032 (Simulation time: 00 hr 24 min 13 sec)
Heartbeat CPU 0 instructions: 300000003 cycles: 134511936 heartbeat IPC: 2.606 cumulative IPC: 2.05 (Simulation time: 00 hr 25 min 00 sec)
Heartbeat CPU 0 instructions: 310000001 cycles: 138645409 heartbeat IPC: 2.419 cumulative IPC: 2.062 (Simulation time: 00 hr 25 min 46 sec)
Heartbeat CPU 0 instructions: 320000003 cycles: 142729521 heartbeat IPC: 2.449 cumulative IPC: 2.074 (Simulation time: 00 hr 26 min 31 sec)
Heartbeat CPU 0 instructions: 330000003 cycles: 147146813 heartbeat IPC: 2.264 cumulative IPC: 2.08 (Simulation time: 00 hr 27 min 19 sec)
Heartbeat CPU 0 instructions: 340000000 cycles: 157193410 heartbeat IPC: 0.9954 cumulative IPC: 2.005 (Simulation time: 00 hr 28 min 41 sec)
Heartbeat CPU 0 instructions: 350000000 cycles: 168271021 heartbeat IPC: 0.9027 cumulative IPC: 1.926 (Simulation time: 00 hr 30 min 11 sec)
Heartbeat CPU 0 instructions: 360000004 cycles: 178415984 heartbeat IPC: 0.9857 cumulative IPC: 1.869 (Simulation time: 00 hr 31 min 33 sec)
Heartbeat CPU 0 instructions: 370000000 cycles: 181861899 heartbeat IPC: 2.902 cumulative IPC: 1.89 (Simulation time: 00 hr 32 min 17 sec)
Heartbeat CPU 0 instructions: 380000001 cycles: 185282443 heartbeat IPC: 2.924 cumulative IPC: 1.91 (Simulation time: 00 hr 33 min 00 sec)
Heartbeat CPU 0 instructions: 390000004 cycles: 189029354 heartbeat IPC: 2.669 cumulative IPC: 1.926 (Simulation time: 00 hr 33 min 46 sec)
Heartbeat CPU 0 instructions: 400000004 cycles: 192842482 heartbeat IPC: 2.623 cumulative IPC: 1.941 (Simulation time: 00 hr 34 min 31 sec)
Heartbeat CPU 0 instructions: 410000001 cycles: 196501153 heartbeat IPC: 2.733 cumulative IPC: 1.957 (Simulation time: 00 hr 35 min 15 sec)
Heartbeat CPU 0 instructions: 420000003 cycles: 200555955 heartbeat IPC: 2.466 cumulative IPC: 1.968 (Simulation time: 00 hr 36 min 02 sec)
Heartbeat CPU 0 instructions: 430000001 cycles: 204216748 heartbeat IPC: 2.732 cumulative IPC: 1.982 (Simulation time: 00 hr 36 min 47 sec)
Heartbeat CPU 0 instructions: 440000004 cycles: 208303688 heartbeat IPC: 2.447 cumulative IPC: 1.992 (Simulation time: 00 hr 37 min 34 sec)
Heartbeat CPU 0 instructions: 450000002 cycles: 212040754 heartbeat IPC: 2.676 cumulative IPC: 2.005 (Simulation time: 00 hr 38 min 19 sec)
Heartbeat CPU 0 instructions: 460000000 cycles: 215716452 heartbeat IPC: 2.721 cumulative IPC: 2.018 (Simulation time: 00 hr 39 min 03 sec)
Heartbeat CPU 0 instructions: 470000000 cycles: 219184490 heartbeat IPC: 2.883 cumulative IPC: 2.032 (Simulation time: 00 hr 39 min 47 sec)
Heartbeat CPU 0 instructions: 480000003 cycles: 223007207 heartbeat IPC: 2.616 cumulative IPC: 2.043 (Simulation time: 00 hr 40 min 31 sec)
Heartbeat CPU 0 instructions: 490000000 cycles: 226640256 heartbeat IPC: 2.753 cumulative IPC: 2.055 (Simulation time: 00 hr 41 min 14 sec)
Heartbeat CPU 0 instructions: 500000000 cycles: 230337098 heartbeat IPC: 2.705 cumulative IPC: 2.066 (Simulation time: 00 hr 41 min 58 sec)
Heartbeat CPU 0 instructions: 510000003 cycles: 233982385 heartbeat IPC: 2.743 cumulative IPC: 2.077 (Simulation time: 00 hr 42 min 42 sec)
Heartbeat CPU 0 instructions: 520000001 cycles: 237398100 heartbeat IPC: 2.928 cumulative IPC: 2.09 (Simulation time: 00 hr 43 min 25 sec)
Heartbeat CPU 0 instructions: 530000002 cycles: 241065068 heartbeat IPC: 2.727 cumulative IPC: 2.1 (Simulation time: 00 hr 44 min 10 sec)
Heartbeat CPU 0 instructions: 540000000 cycles: 244599010 heartbeat IPC: 2.83 cumulative IPC: 2.112 (Simulation time: 00 hr 44 min 54 sec)
Heartbeat CPU 0 instructions: 550000001 cycles: 248293382 heartbeat IPC: 2.707 cumulative IPC: 2.121 (Simulation time: 00 hr 45 min 40 sec)
Heartbeat CPU 0 instructions: 560000000 cycles: 252265278 heartbeat IPC: 2.518 cumulative IPC: 2.127 (Simulation time: 00 hr 46 min 25 sec)
Heartbeat CPU 0 instructions: 570000004 cycles: 258655429 heartbeat IPC: 1.565 cumulative IPC: 2.113 (Simulation time: 00 hr 47 min 27 sec)
Heartbeat CPU 0 instructions: 580000003 cycles: 270050442 heartbeat IPC: 0.8776 cumulative IPC: 2.058 (Simulation time: 00 hr 48 min 57 sec)
Heartbeat CPU 0 instructions: 590000002 cycles: 283189089 heartbeat IPC: 0.7611 cumulative IPC: 1.995 (Simulation time: 00 hr 50 min 37 sec)
Heartbeat CPU 0 instructions: 600000000 cycles: 286933770 heartbeat IPC: 2.67 cumulative IPC: 2.004 (Simulation time: 00 hr 51 min 22 sec)
Heartbeat CPU 0 instructions: 610000000 cycles: 290794398 heartbeat IPC: 2.59 cumulative IPC: 2.013 (Simulation time: 00 hr 52 min 08 sec)
Heartbeat CPU 0 instructions: 620000001 cycles: 294229835 heartbeat IPC: 2.911 cumulative IPC: 2.023 (Simulation time: 00 hr 52 min 52 sec)
Heartbeat CPU 0 instructions: 630000002 cycles: 298509289 heartbeat IPC: 2.337 cumulative IPC: 2.028 (Simulation time: 00 hr 53 min 40 sec)
Heartbeat CPU 0 instructions: 640000001 cycles: 302405841 heartbeat IPC: 2.566 cumulative IPC: 2.035 (Simulation time: 00 hr 54 min 23 sec)
Heartbeat CPU 0 instructions: 650000000 cycles: 306161344 heartbeat IPC: 2.663 cumulative IPC: 2.043 (Simulation time: 00 hr 55 min 06 sec)
Simulation finished CPU 0 instructions: 600000001 cycles: 293624223 cumulative IPC: 2.043 (Simulation time: 00 hr 55 min 06 sec)
Simulation complete CPU 0 instructions: 600000001 cycles: 293624223 cumulative IPC: 2.043 (Simulation time: 00 hr 55 min 06 sec)

ChampSim completed all CPUs

=== Simulation ===
CPU 0 runs traces/400.perlbench-41B.champsimtrace.xz
Region of Interest Statistics

CPU 0 cumulative IPC: 2.043 instructions: 600000001 cycles: 293624223
CPU 0 Branch Prediction Accuracy: 96.56% MPKI: 7.112 Average ROB Occupancy at Mispredict: 47.44
Branch type MPKI
BRANCH_DIRECT_JUMP: 0.0123
BRANCH_INDIRECT: 0.323
BRANCH_CONDITIONAL: 6.56
BRANCH_DIRECT_CALL: 0.0043
BRANCH_INDIRECT_CALL: 0.2
BRANCH_RETURN: 0.00828

LLC TOTAL        ACCESS:     592318 HIT:     316434 MISS:     275884
LLC LOAD         ACCESS:     402697 HIT:     179615 MISS:     223082
LLC RFO          ACCESS:      32520 HIT:      17938 MISS:      14582
LLC PREFETCH     ACCESS:      53143 HIT:      25469 MISS:      27674
LLC WRITE        ACCESS:      84927 HIT:      84765 MISS:        162
LLC TRANSLATION  ACCESS:      19031 HIT:       8647 MISS:      10384
LLC PREFETCH REQUESTED:      53143 ISSUED:      53143 USEFUL:      17217 USELESS:       7035
LLC AVERAGE MISS LATENCY: 578.2 cycles
cpu0_DTLB TOTAL        ACCESS:  141912693 HIT:  141225496 MISS:     687197
cpu0_DTLB LOAD         ACCESS:  141912693 HIT:  141225496 MISS:     687197
cpu0_DTLB RFO          ACCESS:          0 HIT:          0 MISS:          0
cpu0_DTLB PREFETCH     ACCESS:          0 HIT:          0 MISS:          0
cpu0_DTLB WRITE        ACCESS:          0 HIT:          0 MISS:          0
cpu0_DTLB TRANSLATION  ACCESS:          0 HIT:          0 MISS:          0
cpu0_DTLB PREFETCH REQUESTED:          0 ISSUED:          0 USEFUL:          0 USELESS:          0
cpu0_DTLB AVERAGE MISS LATENCY: 15.3 cycles
cpu0_ITLB TOTAL        ACCESS:    4860482 HIT:    4807370 MISS:      53112
cpu0_ITLB LOAD         ACCESS:    4860482 HIT:    4807370 MISS:      53112
cpu0_ITLB RFO          ACCESS:          0 HIT:          0 MISS:          0
cpu0_ITLB PREFETCH     ACCESS:          0 HIT:          0 MISS:          0
cpu0_ITLB WRITE        ACCESS:          0 HIT:          0 MISS:          0
cpu0_ITLB TRANSLATION  ACCESS:          0 HIT:          0 MISS:          0
cpu0_ITLB PREFETCH REQUESTED:          0 ISSUED:          0 USEFUL:          0 USELESS:          0
cpu0_ITLB AVERAGE MISS LATENCY: 8.396 cycles
cpu0_L1D TOTAL        ACCESS:  188563636 HIT:  186827748 MISS:    1735888
cpu0_L1D LOAD         ACCESS:  105196272 HIT:  103841326 MISS:    1354946
cpu0_L1D RFO          ACCESS:          0 HIT:          0 MISS:          0
cpu0_L1D PREFETCH     ACCESS:          0 HIT:          0 MISS:          0
cpu0_L1D WRITE        ACCESS:   83342901 HIT:   82985356 MISS:     357545
cpu0_L1D TRANSLATION  ACCESS:      24463 HIT:       1066 MISS:      23397
cpu0_L1D PREFETCH REQUESTED:          0 ISSUED:          0 USEFUL:          0 USELESS:          0
cpu0_L1D AVERAGE MISS LATENCY: 86.55 cycles
cpu0_L1I TOTAL        ACCESS:    5598375 HIT:    4854692 MISS:     743683
cpu0_L1I LOAD         ACCESS:    5598375 HIT:    4854692 MISS:     743683
cpu0_L1I RFO          ACCESS:          0 HIT:          0 MISS:          0
cpu0_L1I PREFETCH     ACCESS:          0 HIT:          0 MISS:          0
cpu0_L1I WRITE        ACCESS:          0 HIT:          0 MISS:          0
cpu0_L1I TRANSLATION  ACCESS:          0 HIT:          0 MISS:          0
cpu0_L1I PREFETCH REQUESTED:          0 ISSUED:          0 USEFUL:          0 USELESS:          0
cpu0_L1I AVERAGE MISS LATENCY: 13.18 cycles
cpu0_L2C TOTAL        ACCESS:    1665589 HIT:    1209562 MISS:     456027
cpu0_L2C LOAD         ACCESS:    1315907 HIT:     913210 MISS:     402697
cpu0_L2C RFO          ACCESS:      88366 HIT:      55846 MISS:      32520
cpu0_L2C PREFETCH     ACCESS:          0 HIT:          0 MISS:          0
cpu0_L2C WRITE        ACCESS:     237988 HIT:     236209 MISS:       1779
cpu0_L2C TRANSLATION  ACCESS:      23328 HIT:       4297 MISS:      19031
cpu0_L2C PREFETCH REQUESTED:          0 ISSUED:          0 USEFUL:          0 USELESS:          0
cpu0_L2C AVERAGE MISS LATENCY: 332.1 cycles
cpu0_STLB TOTAL        ACCESS:     507434 HIT:     484640 MISS:      22794
cpu0_STLB LOAD         ACCESS:     507434 HIT:     484640 MISS:      22794
cpu0_STLB RFO          ACCESS:          0 HIT:          0 MISS:          0
cpu0_STLB PREFETCH     ACCESS:          0 HIT:          0 MISS:          0
cpu0_STLB WRITE        ACCESS:          0 HIT:          0 MISS:          0
cpu0_STLB TRANSLATION  ACCESS:          0 HIT:          0 MISS:          0
cpu0_STLB PREFETCH REQUESTED:          0 ISSUED:          0 USEFUL:          0 USELESS:          0
cpu0_STLB AVERAGE MISS LATENCY: 343.8 cycles

DRAM Statistics

Channel 0 RQ ROW_BUFFER_HIT:      49382
  ROW_BUFFER_MISS:     221236
 AVG DBUS CONGESTED CYCLE: 3.819
WQ ROW_BUFFER_HIT: Channel 0 
  ROW_BUFFER_MISS:       7233
  FULL:      31181
