WARNING: physical memory size is smaller than virtual memory size.

*** ChampSim Multicore Out-of-Order Simulator ***
Warmup Instructions: 50000000
Simulation Instructions: 600000000
Number of CPUs: 1
Page size: 4096

Off-chip DRAM Size: 4 GiB Channels: 1 Width: 64-bit Data Race: 3200 MT/s
Heartbeat CPU 0 instructions: 10000001 cycles: 2500318 heartbeat IPC: 3.999 cumulative IPC: 3.999 (Simulation time: 00 hr 00 min 36 sec)
Heartbeat CPU 0 instructions: 20000002 cycles: 5037131 heartbeat IPC: 3.942 cumulative IPC: 3.971 (Simulation time: 00 hr 01 min 11 sec)
Heartbeat CPU 0 instructions: 30000002 cycles: 7537131 heartbeat IPC: 4 cumulative IPC: 3.98 (Simulation time: 00 hr 01 min 46 sec)
Heartbeat CPU 0 instructions: 40000002 cycles: 10037131 heartbeat IPC: 4 cumulative IPC: 3.985 (Simulation time: 00 hr 02 min 22 sec)
Heartbeat CPU 0 instructions: 50000002 cycles: 12537131 heartbeat IPC: 4 cumulative IPC: 3.988 (Simulation time: 00 hr 02 min 56 sec)
Warmup finished CPU 0 instructions: 50000002 cycles: 12537132 cumulative IPC: 3.988 (Simulation time: 00 hr 02 min 56 sec)
Warmup complete CPU 0 instructions: 50000002 cycles: 12537132 cumulative IPC: 3.988 (Simulation time: 00 hr 02 min 56 sec)
Heartbeat CPU 0 instructions: 60000000 cycles: 17162311 heartbeat IPC: 2.162 cumulative IPC: 2.162 (Simulation time: 00 hr 03 min 43 sec)
Heartbeat CPU 0 instructions: 70000004 cycles: 21452991 heartbeat IPC: 2.331 cumulative IPC: 2.243 (Simulation time: 00 hr 04 min 34 sec)
Heartbeat CPU 0 instructions: 80000001 cycles: 26060820 heartbeat IPC: 2.17 cumulative IPC: 2.218 (Simulation time: 00 hr 05 min 23 sec)
Heartbeat CPU 0 instructions: 90000001 cycles: 30198476 heartbeat IPC: 2.417 cumulative IPC: 2.265 (Simulation time: 00 hr 06 min 11 sec)
Heartbeat CPU 0 instructions: 100000000 cycles: 34257101 heartbeat IPC: 2.464 cumulative IPC: 2.302 (Simulation time: 00 hr 06 min 55 sec)
Heartbeat CPU 0 instructions: 110000000 cycles: 38494650 heartbeat IPC: 2.36 cumulative IPC: 2.311 (Simulation time: 00 hr 07 min 38 sec)
Heartbeat CPU 0 instructions: 120000001 cycles: 42510520 heartbeat IPC: 2.49 cumulative IPC: 2.335 (Simulation time: 00 hr 08 min 21 sec)
Heartbeat CPU 0 instructions: 130000001 cycles: 46259209 heartbeat IPC: 2.668 cumulative IPC: 2.372 (Simulation time: 00 hr 09 min 07 sec)
Heartbeat CPU 0 instructions: 140000001 cycles: 50451743 heartbeat IPC: 2.385 cumulative IPC: 2.374 (Simulation time: 00 hr 09 min 54 sec)
Heartbeat CPU 0 instructions: 150000001 cycles: 54673108 heartbeat IPC: 2.369 cumulative IPC: 2.373 (Simulation time: 00 hr 10 min 41 sec)
Heartbeat CPU 0 instructions: 160000004 cycles: 59115950 heartbeat IPC: 2.251 cumulative IPC: 2.362 (Simulation time: 00 hr 11 min 26 sec)
Heartbeat CPU 0 instructions: 170000000 cycles: 68948415 heartbeat IPC: 1.017 cumulative IPC: 2.127 (Simulation time: 00 hr 12 min 46 sec)
Heartbeat CPU 0 instructions: 180000004 cycles: 79804179 heartbeat IPC: 0.9212 cumulative IPC: 1.933 (Simulation time: 00 hr 14 min 14 sec)
Heartbeat CPU 0 instructions: 190000001 cycles: 91613066 heartbeat IPC: 0.8468 cumulative IPC: 1.77 (Simulation time: 00 hr 15 min 44 sec)
Heartbeat CPU 0 instructions: 200000004 cycles: 95405829 heartbeat IPC: 2.637 cumulative IPC: 1.81 (Simulation time: 00 hr 16 min 31 sec)
Heartbeat CPU 0 instructions: 210000001 cycles: 99324987 heartbeat IPC: 2.552 cumulative IPC: 1.844 (Simulation time: 00 hr 17 min 16 sec)
Heartbeat CPU 0 instructions: 220000000 cycles: 103289056 heartbeat IPC: 2.523 cumulative IPC: 1.873 (Simulation time: 00 hr 18 min 02 sec)
Heartbeat CPU 0 instructions: 230000002 cycles: 107983865 heartbeat IPC: 2.13 cumulative IPC: 1.886 (Simulation time: 00 hr 18 min 51 sec)
Heartbeat CPU 0 instructions: 240000000 cycles: 112207320 heartbeat IPC: 2.368 cumulative IPC: 1.906 (Simulation time: 00 hr 19 min 39 sec)
Heartbeat CPU 0 instructions: 250000000 cycles: 116540638 heartbeat IPC: 2.308 cumulative IPC: 1.923 (Simulation time: 00 hr 20 min 29 sec)
Heartbeat CPU 0 instructions: 260000000 cycles: 120729499 heartbeat IPC: 2.387 cumulative IPC: 1.941 (Simulation time: 00 hr 21 min 20 sec)
Heartbeat CPU 0 instructions: 270000002 cycles: 124589800 heartbeat IPC: 2.59 cumulative IPC: 1.963 (Simulation time: 00 hr 22 min 07 sec)
Heartbeat CPU 0 instructions: 280000002 cycles: 128764525 heartbeat IPC: 2.395 cumulative IPC: 1.979 (Simulation time: 00 hr 22 min 51 sec)
Heartbeat CPU 0 instructions: 290000001 cycles: 132681411 heartbeat IPC: 2.553 cumulative IPC: 1.998 (Simulation time: 00 hr 23 min 35 sec)
Heartbeat CPU 0 instructions: 300000003 cycles: 136524765 heartbeat IPC: 2.602 cumulative IPC: 2.016 (Simulation time: 00 hr 24 min 20 sec)
Heartbeat CPU 0 instructions: 310000001 cycles: 140688082 heartbeat IPC: 2.402 cumulative IPC: 2.029 (Simulation time: 00 hr 25 min 07 sec)
Heartbeat CPU 0 instructions: 320000003 cycles: 144794688 heartbeat IPC: 2.435 cumulative IPC: 2.041 (Simulation time: 00 hr 25 min 54 sec)
Heartbeat CPU 0 instructions: 330000003 cycles: 149222370 heartbeat IPC: 2.259 cumulative IPC: 2.049 (Simulation time: 00 hr 26 min 39 sec)
Heartbeat CPU 0 instructions: 340000000 cycles: 159789961 heartbeat IPC: 0.9463 cumulative IPC: 1.969 (Simulation time: 00 hr 27 min 56 sec)
Heartbeat CPU 0 instructions: 350000000 cycles: 171541359 heartbeat IPC: 0.851 cumulative IPC: 1.887 (Simulation time: 00 hr 29 min 21 sec)
Heartbeat CPU 0 instructions: 360000004 cycles: 183602753 heartbeat IPC: 0.8291 cumulative IPC: 1.812 (Simulation time: 00 hr 30 min 47 sec)
Heartbeat CPU 0 instructions: 370000000 cycles: 187044506 heartbeat IPC: 2.905 cumulative IPC: 1.834 (Simulation time: 00 hr 31 min 29 sec)
Heartbeat CPU 0 instructions: 380000001 cycles: 190469155 heartbeat IPC: 2.92 cumulative IPC: 1.855 (Simulation time: 00 hr 32 min 10 sec)
Heartbeat CPU 0 instructions: 390000004 cycles: 194216453 heartbeat IPC: 2.669 cumulative IPC: 1.871 (Simulation time: 00 hr 32 min 52 sec)
Heartbeat CPU 0 instructions: 400000004 cycles: 198029662 heartbeat IPC: 2.622 cumulative IPC: 1.887 (Simulation time: 00 hr 33 min 34 sec)
Heartbeat CPU 0 instructions: 410000001 cycles: 201706213 heartbeat IPC: 2.72 cumulative IPC: 1.903 (Simulation time: 00 hr 34 min 16 sec)
Heartbeat CPU 0 instructions: 420000003 cycles: 205906202 heartbeat IPC: 2.381 cumulative IPC: 1.913 (Simulation time: 00 hr 35 min 02 sec)
Heartbeat CPU 0 instructions: 430000001 cycles: 209596653 heartbeat IPC: 2.71 cumulative IPC: 1.928 (Simulation time: 00 hr 35 min 47 sec)
Heartbeat CPU 0 instructions: 440000004 cycles: 213699944 heartbeat IPC: 2.437 cumulative IPC: 1.939 (Simulation time: 00 hr 36 min 32 sec)
Heartbeat CPU 0 instructions: 450000002 cycles: 217444419 heartbeat IPC: 2.671 cumulative IPC: 1.952 (Simulation time: 00 hr 37 min 17 sec)
Heartbeat CPU 0 instructions: 460000000 cycles: 221126662 heartbeat IPC: 2.716 cumulative IPC: 1.966 (Simulation time: 00 hr 38 min 02 sec)
Heartbeat CPU 0 instructions: 470000000 cycles: 224599587 heartbeat IPC: 2.879 cumulative IPC: 1.981 (Simulation time: 00 hr 38 min 45 sec)
Heartbeat CPU 0 instructions: 480000003 cycles: 228512766 heartbeat IPC: 2.555 cumulative IPC: 1.991 (Simulation time: 00 hr 39 min 31 sec)
Heartbeat CPU 0 instructions: 490000000 cycles: 232147154 heartbeat IPC: 2.751 cumulative IPC: 2.004 (Simulation time: 00 hr 40 min 14 sec)
Heartbeat CPU 0 instructions: 500000000 cycles: 235857528 heartbeat IPC: 2.695 cumulative IPC: 2.015 (Simulation time: 00 hr 40 min 58 sec)
Heartbeat CPU 0 instructions: 510000003 cycles: 239662917 heartbeat IPC: 2.628 cumulative IPC: 2.025 (Simulation time: 00 hr 41 min 44 sec)
Heartbeat CPU 0 instructions: 520000001 cycles: 243079302 heartbeat IPC: 2.927 cumulative IPC: 2.039 (Simulation time: 00 hr 42 min 28 sec)
Heartbeat CPU 0 instructions: 530000002 cycles: 246852582 heartbeat IPC: 2.65 cumulative IPC: 2.049 (Simulation time: 00 hr 43 min 12 sec)
Heartbeat CPU 0 instructions: 540000000 cycles: 250396892 heartbeat IPC: 2.821 cumulative IPC: 2.06 (Simulation time: 00 hr 43 min 55 sec)
Heartbeat CPU 0 instructions: 550000001 cycles: 254103340 heartbeat IPC: 2.698 cumulative IPC: 2.07 (Simulation time: 00 hr 44 min 40 sec)
Heartbeat CPU 0 instructions: 560000000 cycles: 258268292 heartbeat IPC: 2.401 cumulative IPC: 2.075 (Simulation time: 00 hr 45 min 27 sec)
Heartbeat CPU 0 instructions: 570000004 cycles: 265239586 heartbeat IPC: 1.434 cumulative IPC: 2.058 (Simulation time: 00 hr 46 min 31 sec)
Heartbeat CPU 0 instructions: 580000003 cycles: 277905467 heartbeat IPC: 0.7895 cumulative IPC: 1.997 (Simulation time: 00 hr 48 min 05 sec)
Heartbeat CPU 0 instructions: 590000002 cycles: 293656354 heartbeat IPC: 0.6349 cumulative IPC: 1.921 (Simulation time: 00 hr 49 min 50 sec)
Heartbeat CPU 0 instructions: 600000000 cycles: 297509821 heartbeat IPC: 2.595 cumulative IPC: 1.93 (Simulation time: 00 hr 50 min 32 sec)
Heartbeat CPU 0 instructions: 610000000 cycles: 301370404 heartbeat IPC: 2.59 cumulative IPC: 1.939 (Simulation time: 00 hr 51 min 14 sec)
Heartbeat CPU 0 instructions: 620000001 cycles: 304804219 heartbeat IPC: 2.912 cumulative IPC: 1.95 (Simulation time: 00 hr 51 min 55 sec)
Heartbeat CPU 0 instructions: 630000002 cycles: 309085815 heartbeat IPC: 2.336 cumulative IPC: 1.956 (Simulation time: 00 hr 52 min 39 sec)
Heartbeat CPU 0 instructions: 640000001 cycles: 312983391 heartbeat IPC: 2.566 cumulative IPC: 1.964 (Simulation time: 00 hr 53 min 22 sec)
Heartbeat CPU 0 instructions: 650000000 cycles: 316739307 heartbeat IPC: 2.662 cumulative IPC: 1.972 (Simulation time: 00 hr 54 min 04 sec)
Simulation finished CPU 0 instructions: 600000001 cycles: 304202177 cumulative IPC: 1.972 (Simulation time: 00 hr 54 min 04 sec)
Simulation complete CPU 0 instructions: 600000001 cycles: 304202177 cumulative IPC: 1.972 (Simulation time: 00 hr 54 min 04 sec)

ChampSim completed all CPUs

=== Simulation ===
CPU 0 runs traces/400.perlbench-41B.champsimtrace.xz
Region of Interest Statistics

CPU 0 cumulative IPC: 1.972 instructions: 600000001 cycles: 304202177
CPU 0 Branch Prediction Accuracy: 96.56% MPKI: 7.112 Average ROB Occupancy at Mispredict: 47.45
Branch type MPKI
BRANCH_DIRECT_JUMP: 0.0123
BRANCH_INDIRECT: 0.323
BRANCH_CONDITIONAL: 6.56
BRANCH_DIRECT_CALL: 0.0043
BRANCH_INDIRECT_CALL: 0.2
BRANCH_RETURN: 0.00828

LLC TOTAL        ACCESS:     936956 HIT:     453038 MISS:     483918
LLC LOAD         ACCESS:     400364 HIT:     200190 MISS:     200174
LLC RFO          ACCESS:      32486 HIT:      16826 MISS:      15660
LLC PREFETCH     ACCESS:     400364 HIT:     186557 MISS:     213807
LLC WRITE        ACCESS:      84737 HIT:      47981 MISS:      36756
LLC TRANSLATION  ACCESS:      19005 HIT:       1484 MISS:      17521
LLC PREFETCH REQUESTED:     400364 ISSUED:     400364 USEFUL:      53219 USELESS:     116668
LLC AVERAGE MISS LATENCY: 544.7 cycles
cpu0_DTLB TOTAL        ACCESS:  141893780 HIT:  141205909 MISS:     687871
cpu0_DTLB LOAD         ACCESS:  141893780 HIT:  141205909 MISS:     687871
cpu0_DTLB RFO          ACCESS:          0 HIT:          0 MISS:          0
cpu0_DTLB PREFETCH     ACCESS:          0 HIT:          0 MISS:          0
cpu0_DTLB WRITE        ACCESS:          0 HIT:          0 MISS:          0
cpu0_DTLB TRANSLATION  ACCESS:          0 HIT:          0 MISS:          0
cpu0_DTLB PREFETCH REQUESTED:          0 ISSUED:          0 USEFUL:          0 USELESS:          0
cpu0_DTLB AVERAGE MISS LATENCY: 23.18 cycles
cpu0_ITLB TOTAL        ACCESS:    4858747 HIT:    4805616 MISS:      53131
cpu0_ITLB LOAD         ACCESS:    4858747 HIT:    4805616 MISS:      53131
cpu0_ITLB RFO          ACCESS:          0 HIT:          0 MISS:          0
cpu0_ITLB PREFETCH     ACCESS:          0 HIT:          0 MISS:          0
cpu0_ITLB WRITE        ACCESS:          0 HIT:          0 MISS:          0
cpu0_ITLB TRANSLATION  ACCESS:          0 HIT:          0 MISS:          0
cpu0_ITLB PREFETCH REQUESTED:          0 ISSUED:          0 USEFUL:          0 USELESS:          0
cpu0_ITLB AVERAGE MISS LATENCY: 9.504 cycles
cpu0_L1D TOTAL        ACCESS:  188550985 HIT:  186835103 MISS:    1715882
cpu0_L1D LOAD         ACCESS:  105184089 HIT:  103840738 MISS:    1343351
cpu0_L1D RFO          ACCESS:          0 HIT:          0 MISS:          0
cpu0_L1D PREFETCH     ACCESS:          0 HIT:          0 MISS:          0
cpu0_L1D WRITE        ACCESS:   83342434 HIT:   82993309 MISS:     349125
cpu0_L1D TRANSLATION  ACCESS:      24462 HIT:       1056 MISS:      23406
cpu0_L1D PREFETCH REQUESTED:          0 ISSUED:          0 USEFUL:          0 USELESS:          0
cpu0_L1D AVERAGE MISS LATENCY: 86.02 cycles
cpu0_L1I TOTAL        ACCESS:    5596337 HIT:    4853083 MISS:     743254
cpu0_L1I LOAD         ACCESS:    5596337 HIT:    4853083 MISS:     743254
cpu0_L1I RFO          ACCESS:          0 HIT:          0 MISS:          0
cpu0_L1I PREFETCH     ACCESS:          0 HIT:          0 MISS:          0
cpu0_L1I WRITE        ACCESS:          0 HIT:          0 MISS:          0
cpu0_L1I TRANSLATION  ACCESS:          0 HIT:          0 MISS:          0
cpu0_L1I PREFETCH REQUESTED:          0 ISSUED:          0 USEFUL:          0 USELESS:          0
cpu0_L1I AVERAGE MISS LATENCY: 26.17 cycles
cpu0_L2C TOTAL        ACCESS:    1665654 HIT:    1212030 MISS:     453624
cpu0_L2C LOAD         ACCESS:    1315967 HIT:     915603 MISS:     400364
cpu0_L2C RFO          ACCESS:      88332 HIT:      55846 MISS:      32486
cpu0_L2C PREFETCH     ACCESS:          0 HIT:          0 MISS:          0
cpu0_L2C WRITE        ACCESS:     238018 HIT:     236249 MISS:       1769
cpu0_L2C TRANSLATION  ACCESS:      23337 HIT:       4332 MISS:      19005
cpu0_L2C PREFETCH REQUESTED:          0 ISSUED:          0 USEFUL:          0 USELESS:          0
cpu0_L2C AVERAGE MISS LATENCY: 347.6 cycles
cpu0_STLB TOTAL        ACCESS:     507282 HIT:     484487 MISS:      22795
cpu0_STLB LOAD         ACCESS:     507282 HIT:     484487 MISS:      22795
cpu0_STLB RFO          ACCESS:          0 HIT:          0 MISS:          0
cpu0_STLB PREFETCH     ACCESS:          0 HIT:          0 MISS:          0
cpu0_STLB WRITE        ACCESS:          0 HIT:          0 MISS:          0
cpu0_STLB TRANSLATION  ACCESS:          0 HIT:          0 MISS:          0
cpu0_STLB PREFETCH REQUESTED:          0 ISSUED:          0 USEFUL:          0 USELESS:          0
cpu0_STLB AVERAGE MISS LATENCY: 593.6 cycles

DRAM Statistics

Channel 0 RQ ROW_BUFFER_HIT:      49894
  ROW_BUFFER_MISS:     337247
 AVG DBUS CONGESTED CYCLE: 3.885
WQ ROW_BUFFER_HIT: Channel 0 
  ROW_BUFFER_MISS:       8311
  FULL:      38406
