WARNING: physical memory size is smaller than virtual memory size.

*** ChampSim Multicore Out-of-Order Simulator ***
Warmup Instructions: 50000000
Simulation Instructions: 600000000
Number of CPUs: 1
Page size: 4096

CPU 0 Tage branch predictor
Off-chip DRAM Size: 4 GiB Channels: 1 Width: 64-bit Data Race: 3200 MT/s
Heartbeat CPU 0 instructions: 10000001 cycles: 2500318 heartbeat IPC: 3.999 cumulative IPC: 3.999 (Simulation time: 00 hr 00 min 42 sec)
Heartbeat CPU 0 instructions: 20000002 cycles: 5037121 heartbeat IPC: 3.942 cumulative IPC: 3.971 (Simulation time: 00 hr 01 min 27 sec)
Heartbeat CPU 0 instructions: 30000002 cycles: 7537121 heartbeat IPC: 4 cumulative IPC: 3.98 (Simulation time: 00 hr 02 min 07 sec)
Heartbeat CPU 0 instructions: 40000002 cycles: 10037121 heartbeat IPC: 4 cumulative IPC: 3.985 (Simulation time: 00 hr 02 min 50 sec)
Heartbeat CPU 0 instructions: 50000002 cycles: 12537121 heartbeat IPC: 4 cumulative IPC: 3.988 (Simulation time: 00 hr 03 min 31 sec)
Warmup finished CPU 0 instructions: 50000002 cycles: 12537122 cumulative IPC: 3.988 (Simulation time: 00 hr 03 min 31 sec)
Warmup complete CPU 0 instructions: 50000002 cycles: 12537122 cumulative IPC: 3.988 (Simulation time: 00 hr 03 min 31 sec)
Heartbeat CPU 0 instructions: 60000001 cycles: 15562866 heartbeat IPC: 3.305 cumulative IPC: 3.305 (Simulation time: 00 hr 04 min 22 sec)
Heartbeat CPU 0 instructions: 70000004 cycles: 18672580 heartbeat IPC: 3.216 cumulative IPC: 3.26 (Simulation time: 00 hr 05 min 13 sec)
Heartbeat CPU 0 instructions: 80000001 cycles: 21754449 heartbeat IPC: 3.245 cumulative IPC: 3.255 (Simulation time: 00 hr 06 min 01 sec)
Heartbeat CPU 0 instructions: 90000001 cycles: 24728923 heartbeat IPC: 3.362 cumulative IPC: 3.281 (Simulation time: 00 hr 06 min 52 sec)
Heartbeat CPU 0 instructions: 100000000 cycles: 27670598 heartbeat IPC: 3.399 cumulative IPC: 3.304 (Simulation time: 00 hr 07 min 40 sec)
Heartbeat CPU 0 instructions: 110000000 cycles: 30631686 heartbeat IPC: 3.377 cumulative IPC: 3.316 (Simulation time: 00 hr 08 min 27 sec)
Heartbeat CPU 0 instructions: 120000001 cycles: 33631811 heartbeat IPC: 3.333 cumulative IPC: 3.318 (Simulation time: 00 hr 09 min 15 sec)
Heartbeat CPU 0 instructions: 130000001 cycles: 36522714 heartbeat IPC: 3.459 cumulative IPC: 3.335 (Simulation time: 00 hr 10 min 04 sec)
Heartbeat CPU 0 instructions: 140000001 cycles: 39618274 heartbeat IPC: 3.23 cumulative IPC: 3.323 (Simulation time: 00 hr 10 min 51 sec)
Heartbeat CPU 0 instructions: 150000001 cycles: 42671426 heartbeat IPC: 3.275 cumulative IPC: 3.318 (Simulation time: 00 hr 11 min 41 sec)
Heartbeat CPU 0 instructions: 160000004 cycles: 45743858 heartbeat IPC: 3.255 cumulative IPC: 3.313 (Simulation time: 00 hr 12 min 32 sec)
Heartbeat CPU 0 instructions: 170000000 cycles: 53479256 heartbeat IPC: 1.293 cumulative IPC: 2.931 (Simulation time: 00 hr 13 min 52 sec)
Heartbeat CPU 0 instructions: 180000004 cycles: 62107721 heartbeat IPC: 1.159 cumulative IPC: 2.623 (Simulation time: 00 hr 15 min 17 sec)
Heartbeat CPU 0 instructions: 190000001 cycles: 70963635 heartbeat IPC: 1.129 cumulative IPC: 2.396 (Simulation time: 00 hr 16 min 45 sec)
Heartbeat CPU 0 instructions: 200000004 cycles: 73959686 heartbeat IPC: 3.338 cumulative IPC: 2.442 (Simulation time: 00 hr 17 min 34 sec)
Heartbeat CPU 0 instructions: 210000001 cycles: 76942092 heartbeat IPC: 3.353 cumulative IPC: 2.484 (Simulation time: 00 hr 18 min 23 sec)
Heartbeat CPU 0 instructions: 220000000 cycles: 79846524 heartbeat IPC: 3.443 cumulative IPC: 2.526 (Simulation time: 00 hr 19 min 11 sec)
Heartbeat CPU 0 instructions: 230000002 cycles: 82916686 heartbeat IPC: 3.257 cumulative IPC: 2.558 (Simulation time: 00 hr 20 min 01 sec)
Heartbeat CPU 0 instructions: 240000003 cycles: 85977258 heartbeat IPC: 3.267 cumulative IPC: 2.587 (Simulation time: 00 hr 20 min 50 sec)
Heartbeat CPU 0 instructions: 250000000 cycles: 89034401 heartbeat IPC: 3.271 cumulative IPC: 2.614 (Simulation time: 00 hr 21 min 40 sec)
Heartbeat CPU 0 instructions: 260000002 cycles: 92018734 heartbeat IPC: 3.351 cumulative IPC: 2.642 (Simulation time: 00 hr 22 min 29 sec)
Heartbeat CPU 0 instructions: 270000002 cycles: 94952383 heartbeat IPC: 3.409 cumulative IPC: 2.669 (Simulation time: 00 hr 23 min 17 sec)
Heartbeat CPU 0 instructions: 280000002 cycles: 97851472 heartbeat IPC: 3.449 cumulative IPC: 2.696 (Simulation time: 00 hr 24 min 04 sec)
Heartbeat CPU 0 instructions: 290000002 cycles: 100823748 heartbeat IPC: 3.364 cumulative IPC: 2.718 (Simulation time: 00 hr 24 min 52 sec)
Heartbeat CPU 0 instructions: 300000003 cycles: 103746689 heartbeat IPC: 3.421 cumulative IPC: 2.741 (Simulation time: 00 hr 25 min 41 sec)
Heartbeat CPU 0 instructions: 310000001 cycles: 106831574 heartbeat IPC: 3.242 cumulative IPC: 2.757 (Simulation time: 00 hr 26 min 30 sec)
Heartbeat CPU 0 instructions: 320000003 cycles: 109864464 heartbeat IPC: 3.297 cumulative IPC: 2.774 (Simulation time: 00 hr 27 min 18 sec)
Heartbeat CPU 0 instructions: 330000003 cycles: 112888362 heartbeat IPC: 3.307 cumulative IPC: 2.79 (Simulation time: 00 hr 28 min 07 sec)
Heartbeat CPU 0 instructions: 340000000 cycles: 121099267 heartbeat IPC: 1.218 cumulative IPC: 2.671 (Simulation time: 00 hr 29 min 27 sec)
Heartbeat CPU 0 instructions: 350000000 cycles: 130413386 heartbeat IPC: 1.074 cumulative IPC: 2.545 (Simulation time: 00 hr 30 min 55 sec)
Heartbeat CPU 0 instructions: 360000004 cycles: 139364620 heartbeat IPC: 1.117 cumulative IPC: 2.444 (Simulation time: 00 hr 32 min 22 sec)
Heartbeat CPU 0 instructions: 370000000 cycles: 142345118 heartbeat IPC: 3.355 cumulative IPC: 2.465 (Simulation time: 00 hr 33 min 10 sec)
Heartbeat CPU 0 instructions: 380000003 cycles: 145289000 heartbeat IPC: 3.397 cumulative IPC: 2.486 (Simulation time: 00 hr 33 min 59 sec)
Heartbeat CPU 0 instructions: 390000002 cycles: 148279167 heartbeat IPC: 3.344 cumulative IPC: 2.505 (Simulation time: 00 hr 34 min 47 sec)
Heartbeat CPU 0 instructions: 400000004 cycles: 151186699 heartbeat IPC: 3.439 cumulative IPC: 2.524 (Simulation time: 00 hr 35 min 36 sec)
Heartbeat CPU 0 instructions: 410000002 cycles: 154149804 heartbeat IPC: 3.375 cumulative IPC: 2.542 (Simulation time: 00 hr 36 min 26 sec)
Heartbeat CPU 0 instructions: 420000003 cycles: 157297969 heartbeat IPC: 3.176 cumulative IPC: 2.556 (Simulation time: 00 hr 37 min 16 sec)
Heartbeat CPU 0 instructions: 430000001 cycles: 160324543 heartbeat IPC: 3.304 cumulative IPC: 2.571 (Simulation time: 00 hr 38 min 06 sec)
Heartbeat CPU 0 instructions: 440000004 cycles: 163475887 heartbeat IPC: 3.173 cumulative IPC: 2.584 (Simulation time: 00 hr 38 min 57 sec)
Heartbeat CPU 0 instructions: 450000002 cycles: 166414810 heartbeat IPC: 3.403 cumulative IPC: 2.599 (Simulation time: 00 hr 39 min 45 sec)
Heartbeat CPU 0 instructions: 460000000 cycles: 169357021 heartbeat IPC: 3.399 cumulative IPC: 2.614 (Simulation time: 00 hr 40 min 34 sec)
Heartbeat CPU 0 instructions: 470000001 cycles: 172224793 heartbeat IPC: 3.487 cumulative IPC: 2.63 (Simulation time: 00 hr 41 min 22 sec)
Heartbeat CPU 0 instructions: 480000003 cycles: 175293816 heartbeat IPC: 3.258 cumulative IPC: 2.642 (Simulation time: 00 hr 42 min 10 sec)
Heartbeat CPU 0 instructions: 490000004 cycles: 178127927 heartbeat IPC: 3.528 cumulative IPC: 2.657 (Simulation time: 00 hr 42 min 59 sec)
Heartbeat CPU 0 instructions: 500000004 cycles: 181120630 heartbeat IPC: 3.341 cumulative IPC: 2.669 (Simulation time: 00 hr 43 min 49 sec)
Heartbeat CPU 0 instructions: 510000003 cycles: 184177457 heartbeat IPC: 3.271 cumulative IPC: 2.68 (Simulation time: 00 hr 44 min 40 sec)
Heartbeat CPU 0 instructions: 520000001 cycles: 187078091 heartbeat IPC: 3.448 cumulative IPC: 2.693 (Simulation time: 00 hr 45 min 32 sec)
Heartbeat CPU 0 instructions: 530000001 cycles: 190104535 heartbeat IPC: 3.304 cumulative IPC: 2.703 (Simulation time: 00 hr 46 min 20 sec)
Heartbeat CPU 0 instructions: 540000000 cycles: 193079370 heartbeat IPC: 3.362 cumulative IPC: 2.714 (Simulation time: 00 hr 47 min 07 sec)
Heartbeat CPU 0 instructions: 550000001 cycles: 196076247 heartbeat IPC: 3.337 cumulative IPC: 2.724 (Simulation time: 00 hr 47 min 55 sec)
Heartbeat CPU 0 instructions: 560000000 cycles: 199223830 heartbeat IPC: 3.177 cumulative IPC: 2.732 (Simulation time: 00 hr 48 min 50 sec)
Heartbeat CPU 0 instructions: 570000004 cycles: 204521508 heartbeat IPC: 1.888 cumulative IPC: 2.709 (Simulation time: 00 hr 49 min 53 sec)
Heartbeat CPU 0 instructions: 580000003 cycles: 213989429 heartbeat IPC: 1.056 cumulative IPC: 2.631 (Simulation time: 00 hr 51 min 20 sec)
Heartbeat CPU 0 instructions: 590000002 cycles: 225188067 heartbeat IPC: 0.893 cumulative IPC: 2.539 (Simulation time: 00 hr 52 min 56 sec)
Heartbeat CPU 0 instructions: 600000004 cycles: 228285367 heartbeat IPC: 3.229 cumulative IPC: 2.549 (Simulation time: 00 hr 53 min 47 sec)
Heartbeat CPU 0 instructions: 610000002 cycles: 231268439 heartbeat IPC: 3.352 cumulative IPC: 2.56 (Simulation time: 00 hr 54 min 37 sec)
Heartbeat CPU 0 instructions: 620000001 cycles: 234057592 heartbeat IPC: 3.585 cumulative IPC: 2.573 (Simulation time: 00 hr 55 min 25 sec)
Heartbeat CPU 0 instructions: 630000002 cycles: 237047114 heartbeat IPC: 3.345 cumulative IPC: 2.583 (Simulation time: 00 hr 56 min 12 sec)
Heartbeat CPU 0 instructions: 640000004 cycles: 240004071 heartbeat IPC: 3.382 cumulative IPC: 2.594 (Simulation time: 00 hr 57 min 00 sec)
Heartbeat CPU 0 instructions: 650000000 cycles: 242761486 heartbeat IPC: 3.627 cumulative IPC: 2.606 (Simulation time: 00 hr 57 min 46 sec)
Simulation finished CPU 0 instructions: 600000001 cycles: 230224366 cumulative IPC: 2.606 (Simulation time: 00 hr 57 min 46 sec)
Simulation complete CPU 0 instructions: 600000001 cycles: 230224366 cumulative IPC: 2.606 (Simulation time: 00 hr 57 min 46 sec)

ChampSim completed all CPUs

=== Simulation ===
CPU 0 runs traces/400.perlbench-41B.champsimtrace.xz
Region of Interest Statistics

CPU 0 cumulative IPC: 2.606 instructions: 600000001 cycles: 230224366
CPU 0 Branch Prediction Accuracy: 99.19% MPKI: 1.684 Average ROB Occupancy at Mispredict: 102.2
Branch type MPKI
BRANCH_DIRECT_JUMP: 0.0123
BRANCH_INDIRECT: 0.323
BRANCH_CONDITIONAL: 1.14
BRANCH_DIRECT_CALL: 0.0043
BRANCH_INDIRECT_CALL: 0.2
BRANCH_RETURN: 0.00828

LLC TOTAL        ACCESS:     938710 HIT:     484331 MISS:     454379
LLC LOAD         ACCESS:     401353 HIT:     197296 MISS:     204057
LLC RFO          ACCESS:      32435 HIT:      15423 MISS:      17012
LLC PREFETCH     ACCESS:     401353 HIT:     181600 MISS:     219753
LLC WRITE        ACCESS:      84536 HIT:      82255 MISS:       2281
LLC TRANSLATION  ACCESS:      19033 HIT:       7757 MISS:      11276
LLC PREFETCH REQUESTED:     401353 ISSUED:     401353 USEFUL:      70843 USELESS:      92049
LLC AVERAGE MISS LATENCY: 669.4 cycles
cpu0_DTLB TOTAL        ACCESS:  129765447 HIT:  129061684 MISS:     703763
cpu0_DTLB LOAD         ACCESS:  129765447 HIT:  129061684 MISS:     703763
cpu0_DTLB RFO          ACCESS:          0 HIT:          0 MISS:          0
cpu0_DTLB PREFETCH     ACCESS:          0 HIT:          0 MISS:          0
cpu0_DTLB WRITE        ACCESS:          0 HIT:          0 MISS:          0
cpu0_DTLB TRANSLATION  ACCESS:          0 HIT:          0 MISS:          0
cpu0_DTLB PREFETCH REQUESTED:          0 ISSUED:          0 USEFUL:          0 USELESS:          0
cpu0_DTLB AVERAGE MISS LATENCY: 18.49 cycles
cpu0_ITLB TOTAL        ACCESS:    4870320 HIT:    4808161 MISS:      62159
cpu0_ITLB LOAD         ACCESS:    4870320 HIT:    4808161 MISS:      62159
cpu0_ITLB RFO          ACCESS:          0 HIT:          0 MISS:          0
cpu0_ITLB PREFETCH     ACCESS:          0 HIT:          0 MISS:          0
cpu0_ITLB WRITE        ACCESS:          0 HIT:          0 MISS:          0
cpu0_ITLB TRANSLATION  ACCESS:          0 HIT:          0 MISS:          0
cpu0_ITLB PREFETCH REQUESTED:          0 ISSUED:          0 USEFUL:          0 USELESS:          0
cpu0_ITLB AVERAGE MISS LATENCY: 7.617 cycles
cpu0_L1D TOTAL        ACCESS:  174355302 HIT:  172552706 MISS:    1802596
cpu0_L1D LOAD         ACCESS:   91334127 HIT:   89930595 MISS:    1403532
cpu0_L1D RFO          ACCESS:          0 HIT:          0 MISS:          0
cpu0_L1D PREFETCH     ACCESS:          0 HIT:          0 MISS:          0
cpu0_L1D WRITE        ACCESS:   82996711 HIT:   82621044 MISS:     375667
cpu0_L1D TRANSLATION  ACCESS:      24464 HIT:       1067 MISS:      23397
cpu0_L1D PREFETCH REQUESTED:          0 ISSUED:          0 USEFUL:          0 USELESS:          0
cpu0_L1D AVERAGE MISS LATENCY: 96.14 cycles
cpu0_L1I TOTAL        ACCESS:    5649887 HIT:    4845831 MISS:     804056
cpu0_L1I LOAD         ACCESS:    5649887 HIT:    4845831 MISS:     804056
cpu0_L1I RFO          ACCESS:          0 HIT:          0 MISS:          0
cpu0_L1I PREFETCH     ACCESS:          0 HIT:          0 MISS:          0
cpu0_L1I WRITE        ACCESS:          0 HIT:          0 MISS:          0
cpu0_L1I TRANSLATION  ACCESS:          0 HIT:          0 MISS:          0
cpu0_L1I PREFETCH REQUESTED:          0 ISSUED:          0 USEFUL:          0 USELESS:          0
cpu0_L1I AVERAGE MISS LATENCY: 14.88 cycles
cpu0_L2C TOTAL        ACCESS:    1667934 HIT:    1213352 MISS:     454582
cpu0_L2C LOAD         ACCESS:    1315191 HIT:     913838 MISS:     401353
cpu0_L2C RFO          ACCESS:      89638 HIT:      57203 MISS:      32435
cpu0_L2C PREFETCH     ACCESS:          0 HIT:          0 MISS:          0
cpu0_L2C WRITE        ACCESS:     239785 HIT:     238024 MISS:       1761
cpu0_L2C TRANSLATION  ACCESS:      23320 HIT:       4287 MISS:      19033
cpu0_L2C PREFETCH REQUESTED:          0 ISSUED:          0 USEFUL:          0 USELESS:          0
cpu0_L2C AVERAGE MISS LATENCY: 404.2 cycles
cpu0_STLB TOTAL        ACCESS:     508801 HIT:     486014 MISS:      22787
cpu0_STLB LOAD         ACCESS:     508801 HIT:     486014 MISS:      22787
cpu0_STLB RFO          ACCESS:          0 HIT:          0 MISS:          0
cpu0_STLB PREFETCH     ACCESS:          0 HIT:          0 MISS:          0
cpu0_STLB WRITE        ACCESS:          0 HIT:          0 MISS:          0
cpu0_STLB TRANSLATION  ACCESS:          0 HIT:          0 MISS:          0
cpu0_STLB PREFETCH REQUESTED:          0 ISSUED:          0 USEFUL:          0 USELESS:          0
cpu0_STLB AVERAGE MISS LATENCY: 474.9 cycles

DRAM Statistics

Channel 0 RQ ROW_BUFFER_HIT:      68852
  ROW_BUFFER_MISS:     304285
 AVG DBUS CONGESTED CYCLE: 3.905
WQ ROW_BUFFER_HIT: Channel 0 
  ROW_BUFFER_MISS:       3868
  FULL:      43359
