WARNING: physical memory size is smaller than virtual memory size.

*** ChampSim Multicore Out-of-Order Simulator ***
Warmup Instructions: 50000000
Simulation Instructions: 600000000
Number of CPUs: 1
Page size: 4096

Off-chip DRAM Size: 4 GiB Channels: 1 Width: 64-bit Data Race: 3200 MT/s
Heartbeat CPU 0 instructions: 10000001 cycles: 2500318 heartbeat IPC: 3.999 cumulative IPC: 3.999 (Simulation time: 00 hr 00 min 34 sec)
Heartbeat CPU 0 instructions: 20000002 cycles: 5037108 heartbeat IPC: 3.942 cumulative IPC: 3.971 (Simulation time: 00 hr 01 min 13 sec)
Heartbeat CPU 0 instructions: 30000002 cycles: 7537108 heartbeat IPC: 4 cumulative IPC: 3.98 (Simulation time: 00 hr 01 min 46 sec)
Heartbeat CPU 0 instructions: 40000002 cycles: 10037108 heartbeat IPC: 4 cumulative IPC: 3.985 (Simulation time: 00 hr 02 min 19 sec)
Heartbeat CPU 0 instructions: 50000002 cycles: 12537108 heartbeat IPC: 4 cumulative IPC: 3.988 (Simulation time: 00 hr 02 min 52 sec)
Warmup finished CPU 0 instructions: 50000002 cycles: 12537109 cumulative IPC: 3.988 (Simulation time: 00 hr 02 min 52 sec)
Warmup complete CPU 0 instructions: 50000002 cycles: 12537109 cumulative IPC: 3.988 (Simulation time: 00 hr 02 min 52 sec)
Heartbeat CPU 0 instructions: 60000000 cycles: 17725569 heartbeat IPC: 1.927 cumulative IPC: 1.927 (Simulation time: 00 hr 03 min 42 sec)
Heartbeat CPU 0 instructions: 70000002 cycles: 22642565 heartbeat IPC: 2.034 cumulative IPC: 1.979 (Simulation time: 00 hr 04 min 32 sec)
Heartbeat CPU 0 instructions: 80000001 cycles: 28032506 heartbeat IPC: 1.855 cumulative IPC: 1.936 (Simulation time: 00 hr 05 min 24 sec)
Heartbeat CPU 0 instructions: 90000001 cycles: 32929733 heartbeat IPC: 2.042 cumulative IPC: 1.961 (Simulation time: 00 hr 06 min 13 sec)
Heartbeat CPU 0 instructions: 100000000 cycles: 38064111 heartbeat IPC: 1.948 cumulative IPC: 1.959 (Simulation time: 00 hr 07 min 04 sec)
Heartbeat CPU 0 instructions: 110000000 cycles: 42968002 heartbeat IPC: 2.039 cumulative IPC: 1.972 (Simulation time: 00 hr 07 min 52 sec)
Heartbeat CPU 0 instructions: 120000001 cycles: 48174427 heartbeat IPC: 1.921 cumulative IPC: 1.964 (Simulation time: 00 hr 08 min 43 sec)
Heartbeat CPU 0 instructions: 130000001 cycles: 53353413 heartbeat IPC: 1.931 cumulative IPC: 1.96 (Simulation time: 00 hr 09 min 34 sec)
Heartbeat CPU 0 instructions: 140000001 cycles: 58692699 heartbeat IPC: 1.873 cumulative IPC: 1.95 (Simulation time: 00 hr 10 min 28 sec)
Heartbeat CPU 0 instructions: 150000001 cycles: 64043545 heartbeat IPC: 1.869 cumulative IPC: 1.942 (Simulation time: 00 hr 11 min 20 sec)
Heartbeat CPU 0 instructions: 160000004 cycles: 69275256 heartbeat IPC: 1.911 cumulative IPC: 1.939 (Simulation time: 00 hr 12 min 11 sec)
Heartbeat CPU 0 instructions: 170000000 cycles: 78202876 heartbeat IPC: 1.12 cumulative IPC: 1.827 (Simulation time: 00 hr 13 min 24 sec)
Heartbeat CPU 0 instructions: 180000004 cycles: 87627270 heartbeat IPC: 1.061 cumulative IPC: 1.731 (Simulation time: 00 hr 14 min 41 sec)
Heartbeat CPU 0 instructions: 190000001 cycles: 99951838 heartbeat IPC: 0.8114 cumulative IPC: 1.602 (Simulation time: 00 hr 16 min 13 sec)
Heartbeat CPU 0 instructions: 200000003 cycles: 104745610 heartbeat IPC: 2.086 cumulative IPC: 1.627 (Simulation time: 00 hr 17 min 03 sec)
Heartbeat CPU 0 instructions: 210000001 cycles: 109677765 heartbeat IPC: 2.028 cumulative IPC: 1.647 (Simulation time: 00 hr 17 min 54 sec)
Heartbeat CPU 0 instructions: 220000000 cycles: 114522080 heartbeat IPC: 2.064 cumulative IPC: 1.667 (Simulation time: 00 hr 18 min 44 sec)
Heartbeat CPU 0 instructions: 230000002 cycles: 119860881 heartbeat IPC: 1.873 cumulative IPC: 1.677 (Simulation time: 00 hr 19 min 36 sec)
Heartbeat CPU 0 instructions: 240000000 cycles: 124732316 heartbeat IPC: 2.053 cumulative IPC: 1.693 (Simulation time: 00 hr 20 min 26 sec)
Heartbeat CPU 0 instructions: 250000000 cycles: 129905471 heartbeat IPC: 1.933 cumulative IPC: 1.704 (Simulation time: 00 hr 21 min 16 sec)
Heartbeat CPU 0 instructions: 260000000 cycles: 134957553 heartbeat IPC: 1.979 cumulative IPC: 1.715 (Simulation time: 00 hr 22 min 06 sec)
Heartbeat CPU 0 instructions: 270000002 cycles: 139862003 heartbeat IPC: 2.039 cumulative IPC: 1.728 (Simulation time: 00 hr 22 min 56 sec)
Heartbeat CPU 0 instructions: 280000002 cycles: 144788662 heartbeat IPC: 2.03 cumulative IPC: 1.739 (Simulation time: 00 hr 23 min 46 sec)
Heartbeat CPU 0 instructions: 290000001 cycles: 150172379 heartbeat IPC: 1.857 cumulative IPC: 1.744 (Simulation time: 00 hr 24 min 38 sec)
Heartbeat CPU 0 instructions: 300000003 cycles: 155259498 heartbeat IPC: 1.966 cumulative IPC: 1.752 (Simulation time: 00 hr 25 min 30 sec)
Heartbeat CPU 0 instructions: 310000001 cycles: 160583212 heartbeat IPC: 1.878 cumulative IPC: 1.756 (Simulation time: 00 hr 26 min 22 sec)
Heartbeat CPU 0 instructions: 320000003 cycles: 165819025 heartbeat IPC: 1.91 cumulative IPC: 1.761 (Simulation time: 00 hr 27 min 14 sec)
Heartbeat CPU 0 instructions: 330000003 cycles: 171149385 heartbeat IPC: 1.876 cumulative IPC: 1.765 (Simulation time: 00 hr 28 min 05 sec)
Heartbeat CPU 0 instructions: 340000000 cycles: 180227555 heartbeat IPC: 1.102 cumulative IPC: 1.729 (Simulation time: 00 hr 29 min 20 sec)
Heartbeat CPU 0 instructions: 350000000 cycles: 190600195 heartbeat IPC: 0.9641 cumulative IPC: 1.685 (Simulation time: 00 hr 30 min 42 sec)
Heartbeat CPU 0 instructions: 360000004 cycles: 202493952 heartbeat IPC: 0.8408 cumulative IPC: 1.632 (Simulation time: 00 hr 32 min 10 sec)
Heartbeat CPU 0 instructions: 370000000 cycles: 206922567 heartbeat IPC: 2.258 cumulative IPC: 1.646 (Simulation time: 00 hr 32 min 58 sec)
Heartbeat CPU 0 instructions: 380000001 cycles: 211853154 heartbeat IPC: 2.028 cumulative IPC: 1.656 (Simulation time: 00 hr 33 min 47 sec)
Heartbeat CPU 0 instructions: 390000002 cycles: 216691421 heartbeat IPC: 2.067 cumulative IPC: 1.665 (Simulation time: 00 hr 34 min 36 sec)
Heartbeat CPU 0 instructions: 400000004 cycles: 221636029 heartbeat IPC: 2.022 cumulative IPC: 1.674 (Simulation time: 00 hr 35 min 26 sec)
Heartbeat CPU 0 instructions: 410000000 cycles: 226380740 heartbeat IPC: 2.108 cumulative IPC: 1.683 (Simulation time: 00 hr 36 min 15 sec)
Heartbeat CPU 0 instructions: 420000000 cycles: 231546186 heartbeat IPC: 1.936 cumulative IPC: 1.689 (Simulation time: 00 hr 37 min 05 sec)
Heartbeat CPU 0 instructions: 430000001 cycles: 236040748 heartbeat IPC: 2.225 cumulative IPC: 1.7 (Simulation time: 00 hr 37 min 53 sec)
Heartbeat CPU 0 instructions: 440000000 cycles: 241415052 heartbeat IPC: 1.861 cumulative IPC: 1.704 (Simulation time: 00 hr 38 min 44 sec)
Heartbeat CPU 0 instructions: 450000002 cycles: 246096376 heartbeat IPC: 2.136 cumulative IPC: 1.713 (Simulation time: 00 hr 39 min 33 sec)
Heartbeat CPU 0 instructions: 460000000 cycles: 250912422 heartbeat IPC: 2.076 cumulative IPC: 1.72 (Simulation time: 00 hr 40 min 22 sec)
Heartbeat CPU 0 instructions: 470000000 cycles: 255912235 heartbeat IPC: 2 cumulative IPC: 1.726 (Simulation time: 00 hr 41 min 12 sec)
Heartbeat CPU 0 instructions: 480000003 cycles: 260747766 heartbeat IPC: 2.068 cumulative IPC: 1.732 (Simulation time: 00 hr 42 min 01 sec)
Heartbeat CPU 0 instructions: 490000000 cycles: 265371296 heartbeat IPC: 2.163 cumulative IPC: 1.74 (Simulation time: 00 hr 42 min 49 sec)
Heartbeat CPU 0 instructions: 500000000 cycles: 270405242 heartbeat IPC: 1.987 cumulative IPC: 1.745 (Simulation time: 00 hr 43 min 37 sec)
Heartbeat CPU 0 instructions: 510000003 cycles: 276116756 heartbeat IPC: 1.751 cumulative IPC: 1.745 (Simulation time: 00 hr 44 min 27 sec)
Heartbeat CPU 0 instructions: 520000001 cycles: 280822358 heartbeat IPC: 2.125 cumulative IPC: 1.752 (Simulation time: 00 hr 45 min 14 sec)
Heartbeat CPU 0 instructions: 530000002 cycles: 286019912 heartbeat IPC: 1.924 cumulative IPC: 1.755 (Simulation time: 00 hr 46 min 02 sec)
Heartbeat CPU 0 instructions: 540000000 cycles: 291156974 heartbeat IPC: 1.947 cumulative IPC: 1.759 (Simulation time: 00 hr 46 min 49 sec)
Heartbeat CPU 0 instructions: 550000001 cycles: 295980810 heartbeat IPC: 2.073 cumulative IPC: 1.764 (Simulation time: 00 hr 47 min 36 sec)
Heartbeat CPU 0 instructions: 560000000 cycles: 301287103 heartbeat IPC: 1.885 cumulative IPC: 1.766 (Simulation time: 00 hr 48 min 26 sec)
Heartbeat CPU 0 instructions: 570000004 cycles: 308696395 heartbeat IPC: 1.35 cumulative IPC: 1.756 (Simulation time: 00 hr 49 min 32 sec)
Heartbeat CPU 0 instructions: 580000003 cycles: 317067282 heartbeat IPC: 1.195 cumulative IPC: 1.74 (Simulation time: 00 hr 50 min 47 sec)
Heartbeat CPU 0 instructions: 590000002 cycles: 332063992 heartbeat IPC: 0.6668 cumulative IPC: 1.69 (Simulation time: 00 hr 52 min 38 sec)
Heartbeat CPU 0 instructions: 600000000 cycles: 336723164 heartbeat IPC: 2.146 cumulative IPC: 1.697 (Simulation time: 00 hr 53 min 25 sec)
Heartbeat CPU 0 instructions: 610000002 cycles: 341225662 heartbeat IPC: 2.221 cumulative IPC: 1.704 (Simulation time: 00 hr 54 min 14 sec)
Heartbeat CPU 0 instructions: 620000000 cycles: 346033470 heartbeat IPC: 2.08 cumulative IPC: 1.709 (Simulation time: 00 hr 55 min 04 sec)
Heartbeat CPU 0 instructions: 630000002 cycles: 351130400 heartbeat IPC: 1.962 cumulative IPC: 1.713 (Simulation time: 00 hr 55 min 56 sec)
Heartbeat CPU 0 instructions: 640000001 cycles: 355987923 heartbeat IPC: 2.059 cumulative IPC: 1.718 (Simulation time: 00 hr 56 min 48 sec)
Heartbeat CPU 0 instructions: 650000000 cycles: 360549404 heartbeat IPC: 2.192 cumulative IPC: 1.724 (Simulation time: 00 hr 57 min 33 sec)
Simulation finished CPU 0 instructions: 600000001 cycles: 348012297 cumulative IPC: 1.724 (Simulation time: 00 hr 57 min 33 sec)
Simulation complete CPU 0 instructions: 600000001 cycles: 348012297 cumulative IPC: 1.724 (Simulation time: 00 hr 57 min 33 sec)

ChampSim completed all CPUs

=== Simulation ===
CPU 0 runs traces/400.perlbench-41B.champsimtrace.xz
Region of Interest Statistics

CPU 0 cumulative IPC: 1.724 instructions: 600000001 cycles: 348012297
CPU 0 Branch Prediction Accuracy: 93.95% MPKI: 12.5 Average ROB Occupancy at Mispredict: 29.68
Branch type MPKI
BRANCH_DIRECT_JUMP: 0.0123
BRANCH_INDIRECT: 0.323
BRANCH_CONDITIONAL: 12
BRANCH_DIRECT_CALL: 0.0043
BRANCH_INDIRECT_CALL: 0.2
BRANCH_RETURN: 0.00828

LLC TOTAL        ACCESS:     595720 HIT:     315865 MISS:     279855
LLC LOAD         ACCESS:     403691 HIT:     211161 MISS:     192530
LLC RFO          ACCESS:      32507 HIT:      16097 MISS:      16410
LLC PREFETCH     ACCESS:      54840 HIT:      30977 MISS:      23863
LLC WRITE        ACCESS:      85650 HIT:      54207 MISS:      31443
LLC TRANSLATION  ACCESS:      19032 HIT:       3423 MISS:      15609
LLC PREFETCH REQUESTED:      54840 ISSUED:      54840 USEFUL:      13557 USELESS:       7173
LLC AVERAGE MISS LATENCY: 499.3 cycles
cpu0_DTLB TOTAL        ACCESS:  153665511 HIT:  152987421 MISS:     678090
cpu0_DTLB LOAD         ACCESS:  153665511 HIT:  152987421 MISS:     678090
cpu0_DTLB RFO          ACCESS:          0 HIT:          0 MISS:          0
cpu0_DTLB PREFETCH     ACCESS:          0 HIT:          0 MISS:          0
cpu0_DTLB WRITE        ACCESS:          0 HIT:          0 MISS:          0
cpu0_DTLB TRANSLATION  ACCESS:          0 HIT:          0 MISS:          0
cpu0_DTLB PREFETCH REQUESTED:          0 ISSUED:          0 USEFUL:          0 USELESS:          0
cpu0_DTLB AVERAGE MISS LATENCY: 20.17 cycles
cpu0_ITLB TOTAL        ACCESS:    4835266 HIT:    4777444 MISS:      57822
cpu0_ITLB LOAD         ACCESS:    4835266 HIT:    4777444 MISS:      57822
cpu0_ITLB RFO          ACCESS:          0 HIT:          0 MISS:          0
cpu0_ITLB PREFETCH     ACCESS:          0 HIT:          0 MISS:          0
cpu0_ITLB WRITE        ACCESS:          0 HIT:          0 MISS:          0
cpu0_ITLB TRANSLATION  ACCESS:          0 HIT:          0 MISS:          0
cpu0_ITLB PREFETCH REQUESTED:          0 ISSUED:          0 USEFUL:          0 USELESS:          0
cpu0_ITLB AVERAGE MISS LATENCY: 6.677 cycles
cpu0_L1D TOTAL        ACCESS:  200278834 HIT:  198552129 MISS:    1726705
cpu0_L1D LOAD         ACCESS:  117036114 HIT:  115686708 MISS:    1349406
cpu0_L1D RFO          ACCESS:          0 HIT:          0 MISS:          0
cpu0_L1D PREFETCH     ACCESS:          0 HIT:          0 MISS:          0
cpu0_L1D WRITE        ACCESS:   83218257 HIT:   82864383 MISS:     353874
cpu0_L1D TRANSLATION  ACCESS:      24463 HIT:       1038 MISS:      23425
cpu0_L1D PREFETCH REQUESTED:          0 ISSUED:          0 USEFUL:          0 USELESS:          0
cpu0_L1D AVERAGE MISS LATENCY: 75.42 cycles
cpu0_L1I TOTAL        ACCESS:    5577804 HIT:    4816671 MISS:     761133
cpu0_L1I LOAD         ACCESS:    5577804 HIT:    4816671 MISS:     761133
cpu0_L1I RFO          ACCESS:          0 HIT:          0 MISS:          0
cpu0_L1I PREFETCH     ACCESS:          0 HIT:          0 MISS:          0
cpu0_L1I WRITE        ACCESS:          0 HIT:          0 MISS:          0
cpu0_L1I TRANSLATION  ACCESS:          0 HIT:          0 MISS:          0
cpu0_L1I PREFETCH REQUESTED:          0 ISSUED:          0 USEFUL:          0 USELESS:          0
cpu0_L1I AVERAGE MISS LATENCY: 18.41 cycles
cpu0_L2C TOTAL        ACCESS:    1667891 HIT:    1210835 MISS:     457056
cpu0_L2C LOAD         ACCESS:    1317083 HIT:     913392 MISS:     403691
cpu0_L2C RFO          ACCESS:      88600 HIT:      56093 MISS:      32507
cpu0_L2C PREFETCH     ACCESS:          0 HIT:          0 MISS:          0
cpu0_L2C WRITE        ACCESS:     238862 HIT:     237036 MISS:       1826
cpu0_L2C TRANSLATION  ACCESS:      23346 HIT:       4314 MISS:      19032
cpu0_L2C PREFETCH REQUESTED:          0 ISSUED:          0 USEFUL:          0 USELESS:          0
cpu0_L2C AVERAGE MISS LATENCY: 293.3 cycles
cpu0_STLB TOTAL        ACCESS:     505228 HIT:     482437 MISS:      22791
cpu0_STLB LOAD         ACCESS:     505228 HIT:     482437 MISS:      22791
cpu0_STLB RFO          ACCESS:          0 HIT:          0 MISS:          0
cpu0_STLB PREFETCH     ACCESS:          0 HIT:          0 MISS:          0
cpu0_STLB WRITE        ACCESS:          0 HIT:          0 MISS:          0
cpu0_STLB TRANSLATION  ACCESS:          0 HIT:          0 MISS:          0
cpu0_STLB PREFETCH REQUESTED:          0 ISSUED:          0 USEFUL:          0 USELESS:          0
cpu0_STLB AVERAGE MISS LATENCY: 481.7 cycles

DRAM Statistics

Channel 0 RQ ROW_BUFFER_HIT:      35732
  ROW_BUFFER_MISS:     208481
 AVG DBUS CONGESTED CYCLE: 3.82
WQ ROW_BUFFER_HIT: Channel 0 
  ROW_BUFFER_MISS:       9679
  FULL:      30923
