WARNING: physical memory size is smaller than virtual memory size.

*** ChampSim Multicore Out-of-Order Simulator ***
Warmup Instructions: 50000000
Simulation Instructions: 600000000
Number of CPUs: 1
Page size: 4096

CPU 0 Tage branch predictor
Off-chip DRAM Size: 4 GiB Channels: 1 Width: 64-bit Data Race: 3200 MT/s
Heartbeat CPU 0 instructions: 10000001 cycles: 2500318 heartbeat IPC: 3.999 cumulative IPC: 3.999 (Simulation time: 00 hr 01 min 01 sec)
Heartbeat CPU 0 instructions: 20000002 cycles: 5037133 heartbeat IPC: 3.942 cumulative IPC: 3.971 (Simulation time: 00 hr 02 min 06 sec)
Heartbeat CPU 0 instructions: 30000002 cycles: 7537133 heartbeat IPC: 4 cumulative IPC: 3.98 (Simulation time: 00 hr 03 min 04 sec)
Heartbeat CPU 0 instructions: 40000002 cycles: 10037133 heartbeat IPC: 4 cumulative IPC: 3.985 (Simulation time: 00 hr 04 min 03 sec)
Heartbeat CPU 0 instructions: 50000002 cycles: 12537133 heartbeat IPC: 4 cumulative IPC: 3.988 (Simulation time: 00 hr 05 min 06 sec)
Warmup finished CPU 0 instructions: 50000002 cycles: 12537134 cumulative IPC: 3.988 (Simulation time: 00 hr 05 min 06 sec)
Warmup complete CPU 0 instructions: 50000002 cycles: 12537134 cumulative IPC: 3.988 (Simulation time: 00 hr 05 min 06 sec)
Heartbeat CPU 0 instructions: 60000001 cycles: 15514534 heartbeat IPC: 3.359 cumulative IPC: 3.359 (Simulation time: 00 hr 06 min 39 sec)
Heartbeat CPU 0 instructions: 70000004 cycles: 18595316 heartbeat IPC: 3.246 cumulative IPC: 3.301 (Simulation time: 00 hr 08 min 24 sec)
Heartbeat CPU 0 instructions: 80000001 cycles: 21647470 heartbeat IPC: 3.276 cumulative IPC: 3.293 (Simulation time: 00 hr 10 min 04 sec)
Heartbeat CPU 0 instructions: 90000001 cycles: 24594257 heartbeat IPC: 3.394 cumulative IPC: 3.318 (Simulation time: 00 hr 11 min 43 sec)
Heartbeat CPU 0 instructions: 100000000 cycles: 27511110 heartbeat IPC: 3.428 cumulative IPC: 3.339 (Simulation time: 00 hr 13 min 20 sec)
Heartbeat CPU 0 instructions: 110000000 cycles: 30456959 heartbeat IPC: 3.395 cumulative IPC: 3.348 (Simulation time: 00 hr 14 min 51 sec)
Heartbeat CPU 0 instructions: 120000001 cycles: 33434374 heartbeat IPC: 3.359 cumulative IPC: 3.35 (Simulation time: 00 hr 16 min 26 sec)
Heartbeat CPU 0 instructions: 130000001 cycles: 36295315 heartbeat IPC: 3.495 cumulative IPC: 3.367 (Simulation time: 00 hr 18 min 02 sec)
Heartbeat CPU 0 instructions: 140000001 cycles: 39342079 heartbeat IPC: 3.282 cumulative IPC: 3.358 (Simulation time: 00 hr 19 min 25 sec)
Heartbeat CPU 0 instructions: 150000001 cycles: 42355969 heartbeat IPC: 3.318 cumulative IPC: 3.354 (Simulation time: 00 hr 20 min 58 sec)
Heartbeat CPU 0 instructions: 160000004 cycles: 45367853 heartbeat IPC: 3.32 cumulative IPC: 3.351 (Simulation time: 00 hr 22 min 33 sec)
Heartbeat CPU 0 instructions: 170000000 cycles: 53542273 heartbeat IPC: 1.223 cumulative IPC: 2.926 (Simulation time: 00 hr 25 min 04 sec)
Heartbeat CPU 0 instructions: 180000004 cycles: 62233800 heartbeat IPC: 1.151 cumulative IPC: 2.616 (Simulation time: 00 hr 27 min 33 sec)
Heartbeat CPU 0 instructions: 190000001 cycles: 70567920 heartbeat IPC: 1.2 cumulative IPC: 2.413 (Simulation time: 00 hr 30 min 07 sec)
Heartbeat CPU 0 instructions: 200000004 cycles: 73534048 heartbeat IPC: 3.371 cumulative IPC: 2.459 (Simulation time: 00 hr 31 min 33 sec)
Heartbeat CPU 0 instructions: 210000001 cycles: 76496121 heartbeat IPC: 3.376 cumulative IPC: 2.502 (Simulation time: 00 hr 33 min 01 sec)
Heartbeat CPU 0 instructions: 220000000 cycles: 79389992 heartbeat IPC: 3.456 cumulative IPC: 2.543 (Simulation time: 00 hr 34 min 22 sec)
Heartbeat CPU 0 instructions: 230000002 cycles: 82418978 heartbeat IPC: 3.301 cumulative IPC: 2.576 (Simulation time: 00 hr 35 min 43 sec)
Heartbeat CPU 0 instructions: 240000003 cycles: 85458009 heartbeat IPC: 3.291 cumulative IPC: 2.606 (Simulation time: 00 hr 37 min 04 sec)
Heartbeat CPU 0 instructions: 250000000 cycles: 88486975 heartbeat IPC: 3.301 cumulative IPC: 2.633 (Simulation time: 00 hr 38 min 22 sec)
Heartbeat CPU 0 instructions: 260000002 cycles: 91456457 heartbeat IPC: 3.368 cumulative IPC: 2.661 (Simulation time: 00 hr 39 min 39 sec)
Heartbeat CPU 0 instructions: 270000002 cycles: 94367975 heartbeat IPC: 3.435 cumulative IPC: 2.688 (Simulation time: 00 hr 41 min 02 sec)
Heartbeat CPU 0 instructions: 280000002 cycles: 97258257 heartbeat IPC: 3.46 cumulative IPC: 2.715 (Simulation time: 00 hr 42 min 27 sec)
Heartbeat CPU 0 instructions: 290000002 cycles: 100221762 heartbeat IPC: 3.374 cumulative IPC: 2.737 (Simulation time: 00 hr 43 min 45 sec)
Heartbeat CPU 0 instructions: 300000003 cycles: 103127148 heartbeat IPC: 3.442 cumulative IPC: 2.76 (Simulation time: 00 hr 44 min 42 sec)
Heartbeat CPU 0 instructions: 310000001 cycles: 106166696 heartbeat IPC: 3.29 cumulative IPC: 2.777 (Simulation time: 00 hr 45 min 35 sec)
Heartbeat CPU 0 instructions: 320000003 cycles: 109179377 heartbeat IPC: 3.319 cumulative IPC: 2.794 (Simulation time: 00 hr 46 min 26 sec)
Heartbeat CPU 0 instructions: 330000003 cycles: 112168628 heartbeat IPC: 3.345 cumulative IPC: 2.81 (Simulation time: 00 hr 47 min 16 sec)
Heartbeat CPU 0 instructions: 340000000 cycles: 120527506 heartbeat IPC: 1.196 cumulative IPC: 2.685 (Simulation time: 00 hr 48 min 40 sec)
Heartbeat CPU 0 instructions: 350000000 cycles: 129454198 heartbeat IPC: 1.12 cumulative IPC: 2.566 (Simulation time: 00 hr 50 min 09 sec)
Heartbeat CPU 0 instructions: 360000004 cycles: 137861920 heartbeat IPC: 1.189 cumulative IPC: 2.474 (Simulation time: 00 hr 51 min 34 sec)
Heartbeat CPU 0 instructions: 370000000 cycles: 140833302 heartbeat IPC: 3.365 cumulative IPC: 2.494 (Simulation time: 00 hr 52 min 22 sec)
Heartbeat CPU 0 instructions: 380000003 cycles: 143754956 heartbeat IPC: 3.423 cumulative IPC: 2.515 (Simulation time: 00 hr 53 min 09 sec)
Heartbeat CPU 0 instructions: 390000002 cycles: 146736057 heartbeat IPC: 3.354 cumulative IPC: 2.534 (Simulation time: 00 hr 53 min 55 sec)
Heartbeat CPU 0 instructions: 400000004 cycles: 149639097 heartbeat IPC: 3.445 cumulative IPC: 2.553 (Simulation time: 00 hr 54 min 41 sec)
Heartbeat CPU 0 instructions: 410000002 cycles: 152585975 heartbeat IPC: 3.393 cumulative IPC: 2.571 (Simulation time: 00 hr 55 min 26 sec)
Heartbeat CPU 0 instructions: 420000003 cycles: 155713086 heartbeat IPC: 3.198 cumulative IPC: 2.584 (Simulation time: 00 hr 56 min 13 sec)
Heartbeat CPU 0 instructions: 430000001 cycles: 158728494 heartbeat IPC: 3.316 cumulative IPC: 2.599 (Simulation time: 00 hr 56 min 59 sec)
Heartbeat CPU 0 instructions: 440000004 cycles: 161863583 heartbeat IPC: 3.19 cumulative IPC: 2.612 (Simulation time: 00 hr 57 min 46 sec)
Heartbeat CPU 0 instructions: 450000002 cycles: 164792140 heartbeat IPC: 3.415 cumulative IPC: 2.627 (Simulation time: 00 hr 58 min 32 sec)
Heartbeat CPU 0 instructions: 460000000 cycles: 167726591 heartbeat IPC: 3.408 cumulative IPC: 2.642 (Simulation time: 00 hr 59 min 18 sec)
Heartbeat CPU 0 instructions: 470000001 cycles: 170582528 heartbeat IPC: 3.501 cumulative IPC: 2.657 (Simulation time: 01 hr 00 min 03 sec)
Heartbeat CPU 0 instructions: 480000003 cycles: 173635891 heartbeat IPC: 3.275 cumulative IPC: 2.669 (Simulation time: 01 hr 00 min 50 sec)
Heartbeat CPU 0 instructions: 490000004 cycles: 176466102 heartbeat IPC: 3.533 cumulative IPC: 2.684 (Simulation time: 01 hr 01 min 35 sec)
Heartbeat CPU 0 instructions: 500000004 cycles: 179453715 heartbeat IPC: 3.347 cumulative IPC: 2.696 (Simulation time: 01 hr 02 min 21 sec)
Heartbeat CPU 0 instructions: 510000003 cycles: 182481994 heartbeat IPC: 3.302 cumulative IPC: 2.707 (Simulation time: 01 hr 03 min 09 sec)
Heartbeat CPU 0 instructions: 520000001 cycles: 185373450 heartbeat IPC: 3.458 cumulative IPC: 2.719 (Simulation time: 01 hr 03 min 55 sec)
Heartbeat CPU 0 instructions: 530000001 cycles: 188382474 heartbeat IPC: 3.323 cumulative IPC: 2.73 (Simulation time: 01 hr 04 min 42 sec)
Heartbeat CPU 0 instructions: 540000000 cycles: 191340587 heartbeat IPC: 3.381 cumulative IPC: 2.74 (Simulation time: 01 hr 05 min 29 sec)
Heartbeat CPU 0 instructions: 550000001 cycles: 194325588 heartbeat IPC: 3.35 cumulative IPC: 2.75 (Simulation time: 01 hr 06 min 17 sec)
Heartbeat CPU 0 instructions: 560000000 cycles: 197407962 heartbeat IPC: 3.244 cumulative IPC: 2.759 (Simulation time: 01 hr 07 min 03 sec)
Heartbeat CPU 0 instructions: 570000004 cycles: 202916676 heartbeat IPC: 1.815 cumulative IPC: 2.731 (Simulation time: 01 hr 08 min 04 sec)
Heartbeat CPU 0 instructions: 580000003 cycles: 212362229 heartbeat IPC: 1.059 cumulative IPC: 2.652 (Simulation time: 01 hr 09 min 30 sec)
Heartbeat CPU 0 instructions: 590000002 cycles: 223201674 heartbeat IPC: 0.9226 cumulative IPC: 2.563 (Simulation time: 01 hr 11 min 08 sec)
Heartbeat CPU 0 instructions: 600000004 cycles: 226268936 heartbeat IPC: 3.26 cumulative IPC: 2.573 (Simulation time: 01 hr 11 min 55 sec)
Heartbeat CPU 0 instructions: 610000002 cycles: 229237824 heartbeat IPC: 3.368 cumulative IPC: 2.584 (Simulation time: 01 hr 12 min 42 sec)
Heartbeat CPU 0 instructions: 620000001 cycles: 232013086 heartbeat IPC: 3.603 cumulative IPC: 2.597 (Simulation time: 01 hr 13 min 28 sec)
Heartbeat CPU 0 instructions: 630000002 cycles: 234982623 heartbeat IPC: 3.368 cumulative IPC: 2.607 (Simulation time: 01 hr 14 min 16 sec)
Heartbeat CPU 0 instructions: 640000004 cycles: 237933076 heartbeat IPC: 3.389 cumulative IPC: 2.618 (Simulation time: 01 hr 15 min 02 sec)
Heartbeat CPU 0 instructions: 650000000 cycles: 240684248 heartbeat IPC: 3.635 cumulative IPC: 2.63 (Simulation time: 01 hr 15 min 48 sec)
Simulation finished CPU 0 instructions: 600000001 cycles: 228147116 cumulative IPC: 2.63 (Simulation time: 01 hr 15 min 48 sec)
Simulation complete CPU 0 instructions: 600000001 cycles: 228147116 cumulative IPC: 2.63 (Simulation time: 01 hr 15 min 48 sec)

ChampSim completed all CPUs

=== Simulation ===
CPU 0 runs traces/400.perlbench-41B.champsimtrace.xz
Region of Interest Statistics

CPU 0 cumulative IPC: 2.63 instructions: 600000001 cycles: 228147116
CPU 0 Branch Prediction Accuracy: 99.19% MPKI: 1.684 Average ROB Occupancy at Mispredict: 102.6
Branch type MPKI
BRANCH_DIRECT_JUMP: 0.0123
BRANCH_INDIRECT: 0.323
BRANCH_CONDITIONAL: 1.14
BRANCH_DIRECT_CALL: 0.0043
BRANCH_INDIRECT_CALL: 0.2
BRANCH_RETURN: 0.00828

LLC TOTAL        ACCESS:     540329 HIT:     265196 MISS:     275133
LLC LOAD         ACCESS:     403688 HIT:     156105 MISS:     247583
LLC RFO          ACCESS:      32522 HIT:      15802 MISS:      16720
LLC PREFETCH     ACCESS:          0 HIT:          0 MISS:          0
LLC WRITE        ACCESS:      85027 HIT:      84493 MISS:        534
LLC TRANSLATION  ACCESS:      19092 HIT:       8796 MISS:      10296
LLC PREFETCH REQUESTED:          0 ISSUED:          0 USEFUL:          0 USELESS:          0
LLC AVERAGE MISS LATENCY: 637.6 cycles
cpu0_DTLB TOTAL        ACCESS:  129762301 HIT:  129057827 MISS:     704474
cpu0_DTLB LOAD         ACCESS:  129762301 HIT:  129057827 MISS:     704474
cpu0_DTLB RFO          ACCESS:          0 HIT:          0 MISS:          0
cpu0_DTLB PREFETCH     ACCESS:          0 HIT:          0 MISS:          0
cpu0_DTLB WRITE        ACCESS:          0 HIT:          0 MISS:          0
cpu0_DTLB TRANSLATION  ACCESS:          0 HIT:          0 MISS:          0
cpu0_DTLB PREFETCH REQUESTED:          0 ISSUED:          0 USEFUL:          0 USELESS:          0
cpu0_DTLB AVERAGE MISS LATENCY: 15.96 cycles
cpu0_ITLB TOTAL        ACCESS:    4877129 HIT:    4815028 MISS:      62101
cpu0_ITLB LOAD         ACCESS:    4877129 HIT:    4815028 MISS:      62101
cpu0_ITLB RFO          ACCESS:          0 HIT:          0 MISS:          0
cpu0_ITLB PREFETCH     ACCESS:          0 HIT:          0 MISS:          0
cpu0_ITLB WRITE        ACCESS:          0 HIT:          0 MISS:          0
cpu0_ITLB TRANSLATION  ACCESS:          0 HIT:          0 MISS:          0
cpu0_ITLB PREFETCH REQUESTED:          0 ISSUED:          0 USEFUL:          0 USELESS:          0
cpu0_ITLB AVERAGE MISS LATENCY: 7.015 cycles
cpu0_L1D TOTAL        ACCESS:  174344022 HIT:  172528185 MISS:    1815837
cpu0_L1D LOAD         ACCESS:   91324417 HIT:   89907093 MISS:    1417324
cpu0_L1D RFO          ACCESS:          0 HIT:          0 MISS:          0
cpu0_L1D PREFETCH     ACCESS:          0 HIT:          0 MISS:          0
cpu0_L1D WRITE        ACCESS:   82995146 HIT:   82620032 MISS:     375114
cpu0_L1D TRANSLATION  ACCESS:      24459 HIT:       1060 MISS:      23399
cpu0_L1D PREFETCH REQUESTED:          0 ISSUED:          0 USEFUL:          0 USELESS:          0
cpu0_L1D AVERAGE MISS LATENCY: 95.32 cycles
cpu0_L1I TOTAL        ACCESS:    5655906 HIT:    4850837 MISS:     805069
cpu0_L1I LOAD         ACCESS:    5655906 HIT:    4850837 MISS:     805069
cpu0_L1I RFO          ACCESS:          0 HIT:          0 MISS:          0
cpu0_L1I PREFETCH     ACCESS:          0 HIT:          0 MISS:          0
cpu0_L1I WRITE        ACCESS:          0 HIT:          0 MISS:          0
cpu0_L1I TRANSLATION  ACCESS:          0 HIT:          0 MISS:          0
cpu0_L1I PREFETCH REQUESTED:          0 ISSUED:          0 USEFUL:          0 USELESS:          0
cpu0_L1I AVERAGE MISS LATENCY: 13.9 cycles
cpu0_L2C TOTAL        ACCESS:    1667918 HIT:    1210791 MISS:     457127
cpu0_L2C LOAD         ACCESS:    1315233 HIT:     911544 MISS:     403689
cpu0_L2C RFO          ACCESS:      89657 HIT:      57134 MISS:      32523
cpu0_L2C PREFETCH     ACCESS:          0 HIT:          0 MISS:          0
cpu0_L2C WRITE        ACCESS:     239707 HIT:     237884 MISS:       1823
cpu0_L2C TRANSLATION  ACCESS:      23321 HIT:       4229 MISS:      19092
cpu0_L2C PREFETCH REQUESTED:          0 ISSUED:          0 USEFUL:          0 USELESS:          0
cpu0_L2C AVERAGE MISS LATENCY: 404.3 cycles
cpu0_STLB TOTAL        ACCESS:     509153 HIT:     486367 MISS:      22786
cpu0_STLB LOAD         ACCESS:     509153 HIT:     486367 MISS:      22786
cpu0_STLB RFO          ACCESS:          0 HIT:          0 MISS:          0
cpu0_STLB PREFETCH     ACCESS:          0 HIT:          0 MISS:          0
cpu0_STLB WRITE        ACCESS:          0 HIT:          0 MISS:          0
cpu0_STLB TRANSLATION  ACCESS:          0 HIT:          0 MISS:          0
cpu0_STLB PREFETCH REQUESTED:          0 ISSUED:          0 USEFUL:          0 USELESS:          0
cpu0_STLB AVERAGE MISS LATENCY: 391.3 cycles

DRAM Statistics

Channel 0 RQ ROW_BUFFER_HIT:      48575
  ROW_BUFFER_MISS:     225990
 AVG DBUS CONGESTED CYCLE: 3.845
WQ ROW_BUFFER_HIT: Channel 0 
  ROW_BUFFER_MISS:       5028
  FULL:      39307
