WARNING: physical memory size is smaller than virtual memory size.

*** ChampSim Multicore Out-of-Order Simulator ***
Warmup Instructions: 50000000
Simulation Instructions: 600000000
Number of CPUs: 1
Page size: 4096

Off-chip DRAM Size: 4 GiB Channels: 1 Width: 64-bit Data Race: 3200 MT/s
Heartbeat CPU 0 instructions: 10000000 cycles: 2500061 heartbeat IPC: 4 cumulative IPC: 4 (Simulation time: 00 hr 00 min 33 sec)
Heartbeat CPU 0 instructions: 20000000 cycles: 5000061 heartbeat IPC: 4 cumulative IPC: 4 (Simulation time: 00 hr 01 min 05 sec)
Heartbeat CPU 0 instructions: 30000000 cycles: 7500061 heartbeat IPC: 4 cumulative IPC: 4 (Simulation time: 00 hr 01 min 38 sec)
Heartbeat CPU 0 instructions: 40000000 cycles: 10000061 heartbeat IPC: 4 cumulative IPC: 4 (Simulation time: 00 hr 02 min 10 sec)
Heartbeat CPU 0 instructions: 50000000 cycles: 12500061 heartbeat IPC: 4 cumulative IPC: 4 (Simulation time: 00 hr 02 min 44 sec)
Warmup finished CPU 0 instructions: 50000000 cycles: 12500062 cumulative IPC: 4 (Simulation time: 00 hr 02 min 44 sec)
Warmup complete CPU 0 instructions: 50000000 cycles: 12500062 cumulative IPC: 4 (Simulation time: 00 hr 02 min 44 sec)
Heartbeat CPU 0 instructions: 60000002 cycles: 16446623 heartbeat IPC: 2.534 cumulative IPC: 2.534 (Simulation time: 00 hr 03 min 29 sec)
Heartbeat CPU 0 instructions: 70000003 cycles: 20770663 heartbeat IPC: 2.313 cumulative IPC: 2.418 (Simulation time: 00 hr 04 min 17 sec)
Heartbeat CPU 0 instructions: 80000003 cycles: 25247437 heartbeat IPC: 2.234 cumulative IPC: 2.353 (Simulation time: 00 hr 05 min 07 sec)
Heartbeat CPU 0 instructions: 90000000 cycles: 28939876 heartbeat IPC: 2.708 cumulative IPC: 2.433 (Simulation time: 00 hr 05 min 51 sec)
Heartbeat CPU 0 instructions: 100000003 cycles: 32843908 heartbeat IPC: 2.561 cumulative IPC: 2.458 (Simulation time: 00 hr 06 min 37 sec)
Heartbeat CPU 0 instructions: 110000002 cycles: 36950135 heartbeat IPC: 2.435 cumulative IPC: 2.454 (Simulation time: 00 hr 07 min 23 sec)
Heartbeat CPU 0 instructions: 120000001 cycles: 40668359 heartbeat IPC: 2.689 cumulative IPC: 2.485 (Simulation time: 00 hr 08 min 09 sec)
Heartbeat CPU 0 instructions: 130000003 cycles: 44444328 heartbeat IPC: 2.648 cumulative IPC: 2.504 (Simulation time: 00 hr 08 min 54 sec)
Heartbeat CPU 0 instructions: 140000002 cycles: 48579315 heartbeat IPC: 2.418 cumulative IPC: 2.495 (Simulation time: 00 hr 09 min 39 sec)
Heartbeat CPU 0 instructions: 150000001 cycles: 52632664 heartbeat IPC: 2.467 cumulative IPC: 2.492 (Simulation time: 00 hr 10 min 24 sec)
Heartbeat CPU 0 instructions: 160000000 cycles: 56291651 heartbeat IPC: 2.733 cumulative IPC: 2.512 (Simulation time: 00 hr 11 min 09 sec)
Heartbeat CPU 0 instructions: 170000001 cycles: 60472265 heartbeat IPC: 2.392 cumulative IPC: 2.501 (Simulation time: 00 hr 11 min 54 sec)
Heartbeat CPU 0 instructions: 180000001 cycles: 63937266 heartbeat IPC: 2.886 cumulative IPC: 2.527 (Simulation time: 00 hr 12 min 37 sec)
Heartbeat CPU 0 instructions: 190000002 cycles: 67527991 heartbeat IPC: 2.785 cumulative IPC: 2.544 (Simulation time: 00 hr 13 min 23 sec)
Heartbeat CPU 0 instructions: 200000002 cycles: 71313896 heartbeat IPC: 2.641 cumulative IPC: 2.55 (Simulation time: 00 hr 14 min 07 sec)
Heartbeat CPU 0 instructions: 210000000 cycles: 74955829 heartbeat IPC: 2.746 cumulative IPC: 2.562 (Simulation time: 00 hr 14 min 52 sec)
Heartbeat CPU 0 instructions: 220000001 cycles: 78831156 heartbeat IPC: 2.58 cumulative IPC: 2.563 (Simulation time: 00 hr 15 min 34 sec)
Heartbeat CPU 0 instructions: 230000002 cycles: 82675247 heartbeat IPC: 2.601 cumulative IPC: 2.565 (Simulation time: 00 hr 16 min 16 sec)
Heartbeat CPU 0 instructions: 240000001 cycles: 86888453 heartbeat IPC: 2.373 cumulative IPC: 2.554 (Simulation time: 00 hr 17 min 01 sec)
Heartbeat CPU 0 instructions: 250000003 cycles: 91461585 heartbeat IPC: 2.187 cumulative IPC: 2.533 (Simulation time: 00 hr 17 min 45 sec)
Heartbeat CPU 0 instructions: 260000000 cycles: 95258713 heartbeat IPC: 2.634 cumulative IPC: 2.537 (Simulation time: 00 hr 18 min 27 sec)
Heartbeat CPU 0 instructions: 270000003 cycles: 102644537 heartbeat IPC: 1.354 cumulative IPC: 2.441 (Simulation time: 00 hr 19 min 27 sec)
Heartbeat CPU 0 instructions: 280000000 cycles: 116717294 heartbeat IPC: 0.7106 cumulative IPC: 2.207 (Simulation time: 00 hr 21 min 01 sec)
Heartbeat CPU 0 instructions: 290000000 cycles: 133302685 heartbeat IPC: 0.6029 cumulative IPC: 1.987 (Simulation time: 00 hr 22 min 51 sec)
Heartbeat CPU 0 instructions: 300000003 cycles: 143966694 heartbeat IPC: 0.9377 cumulative IPC: 1.902 (Simulation time: 00 hr 24 min 18 sec)
Heartbeat CPU 0 instructions: 310000004 cycles: 159217601 heartbeat IPC: 0.6557 cumulative IPC: 1.772 (Simulation time: 00 hr 26 min 05 sec)
Heartbeat CPU 0 instructions: 320000004 cycles: 165866084 heartbeat IPC: 1.504 cumulative IPC: 1.76 (Simulation time: 00 hr 27 min 03 sec)
Heartbeat CPU 0 instructions: 330000000 cycles: 169941021 heartbeat IPC: 2.454 cumulative IPC: 1.778 (Simulation time: 00 hr 27 min 48 sec)
Heartbeat CPU 0 instructions: 340000001 cycles: 174175829 heartbeat IPC: 2.361 cumulative IPC: 1.794 (Simulation time: 00 hr 28 min 33 sec)
Heartbeat CPU 0 instructions: 350000004 cycles: 178319821 heartbeat IPC: 2.413 cumulative IPC: 1.809 (Simulation time: 00 hr 29 min 18 sec)
Heartbeat CPU 0 instructions: 360000003 cycles: 182109212 heartbeat IPC: 2.639 cumulative IPC: 1.828 (Simulation time: 00 hr 30 min 00 sec)
Heartbeat CPU 0 instructions: 370000001 cycles: 185761961 heartbeat IPC: 2.738 cumulative IPC: 1.847 (Simulation time: 00 hr 30 min 42 sec)
Heartbeat CPU 0 instructions: 380000004 cycles: 189294387 heartbeat IPC: 2.831 cumulative IPC: 1.867 (Simulation time: 00 hr 31 min 24 sec)
Heartbeat CPU 0 instructions: 390000002 cycles: 193039915 heartbeat IPC: 2.67 cumulative IPC: 1.883 (Simulation time: 00 hr 32 min 07 sec)
Heartbeat CPU 0 instructions: 400000000 cycles: 197066522 heartbeat IPC: 2.483 cumulative IPC: 1.896 (Simulation time: 00 hr 32 min 51 sec)
Heartbeat CPU 0 instructions: 410000000 cycles: 205969038 heartbeat IPC: 1.123 cumulative IPC: 1.861 (Simulation time: 00 hr 34 min 01 sec)
Heartbeat CPU 0 instructions: 420000003 cycles: 220729154 heartbeat IPC: 0.6775 cumulative IPC: 1.777 (Simulation time: 00 hr 35 min 40 sec)
Heartbeat CPU 0 instructions: 430000000 cycles: 231751204 heartbeat IPC: 0.9073 cumulative IPC: 1.733 (Simulation time: 00 hr 37 min 02 sec)
Heartbeat CPU 0 instructions: 440000004 cycles: 242652739 heartbeat IPC: 0.9173 cumulative IPC: 1.695 (Simulation time: 00 hr 38 min 23 sec)
Heartbeat CPU 0 instructions: 450000001 cycles: 253722444 heartbeat IPC: 0.9034 cumulative IPC: 1.658 (Simulation time: 00 hr 39 min 44 sec)
Heartbeat CPU 0 instructions: 460000002 cycles: 271931833 heartbeat IPC: 0.5492 cumulative IPC: 1.58 (Simulation time: 00 hr 41 min 42 sec)
Heartbeat CPU 0 instructions: 470000003 cycles: 284361103 heartbeat IPC: 0.8046 cumulative IPC: 1.545 (Simulation time: 00 hr 43 min 13 sec)
Heartbeat CPU 0 instructions: 480000003 cycles: 288789709 heartbeat IPC: 2.258 cumulative IPC: 1.556 (Simulation time: 00 hr 44 min 02 sec)
Heartbeat CPU 0 instructions: 490000001 cycles: 292756876 heartbeat IPC: 2.521 cumulative IPC: 1.57 (Simulation time: 00 hr 44 min 49 sec)
Heartbeat CPU 0 instructions: 500000002 cycles: 296552825 heartbeat IPC: 2.634 cumulative IPC: 1.584 (Simulation time: 00 hr 45 min 34 sec)
Heartbeat CPU 0 instructions: 510000000 cycles: 300070818 heartbeat IPC: 2.843 cumulative IPC: 1.6 (Simulation time: 00 hr 46 min 18 sec)
Heartbeat CPU 0 instructions: 520000000 cycles: 303757411 heartbeat IPC: 2.713 cumulative IPC: 1.614 (Simulation time: 00 hr 47 min 02 sec)
Heartbeat CPU 0 instructions: 530000001 cycles: 318283433 heartbeat IPC: 0.6884 cumulative IPC: 1.57 (Simulation time: 00 hr 48 min 48 sec)
Heartbeat CPU 0 instructions: 540000000 cycles: 334939166 heartbeat IPC: 0.6004 cumulative IPC: 1.52 (Simulation time: 00 hr 50 min 48 sec)
Heartbeat CPU 0 instructions: 550000004 cycles: 353593000 heartbeat IPC: 0.5361 cumulative IPC: 1.466 (Simulation time: 00 hr 52 min 57 sec)
Heartbeat CPU 0 instructions: 560000004 cycles: 358348859 heartbeat IPC: 2.103 cumulative IPC: 1.475 (Simulation time: 00 hr 53 min 47 sec)
Heartbeat CPU 0 instructions: 570000001 cycles: 361490639 heartbeat IPC: 3.183 cumulative IPC: 1.49 (Simulation time: 00 hr 54 min 27 sec)
Heartbeat CPU 0 instructions: 580000003 cycles: 365048766 heartbeat IPC: 2.81 cumulative IPC: 1.503 (Simulation time: 00 hr 55 min 08 sec)
Heartbeat CPU 0 instructions: 590000002 cycles: 368682005 heartbeat IPC: 2.752 cumulative IPC: 1.516 (Simulation time: 00 hr 55 min 50 sec)
Heartbeat CPU 0 instructions: 600000003 cycles: 371751416 heartbeat IPC: 3.258 cumulative IPC: 1.531 (Simulation time: 00 hr 56 min 32 sec)
Heartbeat CPU 0 instructions: 610000001 cycles: 375266545 heartbeat IPC: 2.845 cumulative IPC: 1.544 (Simulation time: 00 hr 57 min 18 sec)
Heartbeat CPU 0 instructions: 620000000 cycles: 379286254 heartbeat IPC: 2.488 cumulative IPC: 1.554 (Simulation time: 00 hr 58 min 06 sec)
Heartbeat CPU 0 instructions: 630000002 cycles: 382656754 heartbeat IPC: 2.967 cumulative IPC: 1.567 (Simulation time: 00 hr 58 min 50 sec)
Heartbeat CPU 0 instructions: 640000004 cycles: 386653772 heartbeat IPC: 2.502 cumulative IPC: 1.577 (Simulation time: 00 hr 59 min 36 sec)
Heartbeat CPU 0 instructions: 650000001 cycles: 390471077 heartbeat IPC: 2.62 cumulative IPC: 1.587 (Simulation time: 01 hr 00 min 22 sec)
Simulation finished CPU 0 instructions: 600000001 cycles: 377971016 cumulative IPC: 1.587 (Simulation time: 01 hr 00 min 22 sec)
Simulation complete CPU 0 instructions: 600000001 cycles: 377971016 cumulative IPC: 1.587 (Simulation time: 01 hr 00 min 22 sec)

ChampSim completed all CPUs

=== Simulation ===
CPU 0 runs traces/400.perlbench-50B.champsimtrace.xz
Region of Interest Statistics

CPU 0 cumulative IPC: 1.587 instructions: 600000001 cycles: 377971016
CPU 0 Branch Prediction Accuracy: 96.2% MPKI: 7.839 Average ROB Occupancy at Mispredict: 44.54
Branch type MPKI
BRANCH_DIRECT_JUMP: 0.0176
BRANCH_INDIRECT: 0.38
BRANCH_CONDITIONAL: 6.99
BRANCH_DIRECT_CALL: 0.0067
BRANCH_INDIRECT_CALL: 0.431
BRANCH_RETURN: 0.0161

LLC TOTAL        ACCESS:     779279 HIT:     261865 MISS:     517414
LLC LOAD         ACCESS:     582509 HIT:     189692 MISS:     392817
LLC RFO          ACCESS:      47468 HIT:      17133 MISS:      30335
LLC PREFETCH     ACCESS:          0 HIT:          0 MISS:          0
LLC WRITE        ACCESS:     127268 HIT:      52460 MISS:      74808
LLC TRANSLATION  ACCESS:      22034 HIT:       2580 MISS:      19454
LLC PREFETCH REQUESTED:          0 ISSUED:          0 USEFUL:          0 USELESS:          0
LLC AVERAGE MISS LATENCY: 483.8 cycles
cpu0_DTLB TOTAL        ACCESS:  146457300 HIT:  145149377 MISS:    1307923
cpu0_DTLB LOAD         ACCESS:  146457300 HIT:  145149377 MISS:    1307923
cpu0_DTLB RFO          ACCESS:          0 HIT:          0 MISS:          0
cpu0_DTLB PREFETCH     ACCESS:          0 HIT:          0 MISS:          0
cpu0_DTLB WRITE        ACCESS:          0 HIT:          0 MISS:          0
cpu0_DTLB TRANSLATION  ACCESS:          0 HIT:          0 MISS:          0
cpu0_DTLB PREFETCH REQUESTED:          0 ISSUED:          0 USEFUL:          0 USELESS:          0
cpu0_DTLB AVERAGE MISS LATENCY: 15.8 cycles
cpu0_ITLB TOTAL        ACCESS:    8986811 HIT:    8802222 MISS:     184589
cpu0_ITLB LOAD         ACCESS:    8986811 HIT:    8802222 MISS:     184589
cpu0_ITLB RFO          ACCESS:          0 HIT:          0 MISS:          0
cpu0_ITLB PREFETCH     ACCESS:          0 HIT:          0 MISS:          0
cpu0_ITLB WRITE        ACCESS:          0 HIT:          0 MISS:          0
cpu0_ITLB TRANSLATION  ACCESS:          0 HIT:          0 MISS:          0
cpu0_ITLB PREFETCH REQUESTED:          0 ISSUED:          0 USEFUL:          0 USELESS:          0
cpu0_ITLB AVERAGE MISS LATENCY: 4.302 cycles
cpu0_L1D TOTAL        ACCESS:  193195954 HIT:  189491519 MISS:    3704435
cpu0_L1D LOAD         ACCESS:  107351820 HIT:  104301347 MISS:    3050473
cpu0_L1D RFO          ACCESS:          0 HIT:          0 MISS:          0
cpu0_L1D PREFETCH     ACCESS:          0 HIT:          0 MISS:          0
cpu0_L1D WRITE        ACCESS:   85815618 HIT:   85188754 MISS:     626864
cpu0_L1D TRANSLATION  ACCESS:      28516 HIT:       1418 MISS:      27098
cpu0_L1D PREFETCH REQUESTED:          0 ISSUED:          0 USEFUL:          0 USELESS:          0
cpu0_L1D AVERAGE MISS LATENCY: 65.02 cycles
cpu0_L1I TOTAL        ACCESS:   10421154 HIT:    8659643 MISS:    1761511
cpu0_L1I LOAD         ACCESS:   10421154 HIT:    8659643 MISS:    1761511
cpu0_L1I RFO          ACCESS:          0 HIT:          0 MISS:          0
cpu0_L1I PREFETCH     ACCESS:          0 HIT:          0 MISS:          0
cpu0_L1I WRITE        ACCESS:          0 HIT:          0 MISS:          0
cpu0_L1I TRANSLATION  ACCESS:          0 HIT:          0 MISS:          0
cpu0_L1I PREFETCH REQUESTED:          0 ISSUED:          0 USEFUL:          0 USELESS:          0
cpu0_L1I AVERAGE MISS LATENCY: 26.48 cycles
cpu0_L2C TOTAL        ACCESS:    3834370 HIT:    3179057 MISS:     655313
cpu0_L2C LOAD         ACCESS:    3104899 HIT:    2522390 MISS:     582509
cpu0_L2C RFO          ACCESS:     191579 HIT:     144111 MISS:      47468
cpu0_L2C PREFETCH     ACCESS:          0 HIT:          0 MISS:          0
cpu0_L2C WRITE        ACCESS:     510867 HIT:     507565 MISS:       3302
cpu0_L2C TRANSLATION  ACCESS:      27025 HIT:       4991 MISS:      22034
cpu0_L2C PREFETCH REQUESTED:          0 ISSUED:          0 USEFUL:          0 USELESS:          0
cpu0_L2C AVERAGE MISS LATENCY: 402.6 cycles
cpu0_STLB TOTAL        ACCESS:    1008736 HIT:     982045 MISS:      26691
cpu0_STLB LOAD         ACCESS:    1008736 HIT:     982045 MISS:      26691
cpu0_STLB RFO          ACCESS:          0 HIT:          0 MISS:          0
cpu0_STLB PREFETCH     ACCESS:          0 HIT:          0 MISS:          0
cpu0_STLB WRITE        ACCESS:          0 HIT:          0 MISS:          0
cpu0_STLB TRANSLATION  ACCESS:          0 HIT:          0 MISS:          0
cpu0_STLB PREFETCH REQUESTED:          0 ISSUED:          0 USEFUL:          0 USELESS:          0
cpu0_STLB AVERAGE MISS LATENCY: 567.4 cycles

DRAM Statistics

Channel 0 RQ ROW_BUFFER_HIT:      56983
  ROW_BUFFER_MISS:     384652
 AVG DBUS CONGESTED CYCLE: 3.847
WQ ROW_BUFFER_HIT: Channel 0 
  ROW_BUFFER_MISS:      15831
  FULL:      72464
