WARNING: physical memory size is smaller than virtual memory size.

*** ChampSim Multicore Out-of-Order Simulator ***
Warmup Instructions: 50000000
Simulation Instructions: 600000000
Number of CPUs: 1
Page size: 4096

CPU 0 Tage branch predictor
Off-chip DRAM Size: 4 GiB Channels: 1 Width: 64-bit Data Race: 3200 MT/s
Heartbeat CPU 0 instructions: 10000000 cycles: 2500061 heartbeat IPC: 4 cumulative IPC: 4 (Simulation time: 00 hr 00 min 58 sec)
Heartbeat CPU 0 instructions: 20000000 cycles: 5000061 heartbeat IPC: 4 cumulative IPC: 4 (Simulation time: 00 hr 02 min 07 sec)
Heartbeat CPU 0 instructions: 30000000 cycles: 7500061 heartbeat IPC: 4 cumulative IPC: 4 (Simulation time: 00 hr 03 min 21 sec)
Heartbeat CPU 0 instructions: 40000000 cycles: 10000061 heartbeat IPC: 4 cumulative IPC: 4 (Simulation time: 00 hr 04 min 41 sec)
Heartbeat CPU 0 instructions: 50000000 cycles: 12500061 heartbeat IPC: 4 cumulative IPC: 4 (Simulation time: 00 hr 06 min 00 sec)
Warmup finished CPU 0 instructions: 50000000 cycles: 12500062 cumulative IPC: 4 (Simulation time: 00 hr 06 min 00 sec)
Warmup complete CPU 0 instructions: 50000000 cycles: 12500062 cumulative IPC: 4 (Simulation time: 00 hr 06 min 00 sec)
Heartbeat CPU 0 instructions: 60000004 cycles: 15504489 heartbeat IPC: 3.328 cumulative IPC: 3.328 (Simulation time: 00 hr 07 min 39 sec)
Heartbeat CPU 0 instructions: 70000003 cycles: 18370762 heartbeat IPC: 3.489 cumulative IPC: 3.407 (Simulation time: 00 hr 09 min 18 sec)
Heartbeat CPU 0 instructions: 80000002 cycles: 21382300 heartbeat IPC: 3.321 cumulative IPC: 3.378 (Simulation time: 00 hr 10 min 53 sec)
Heartbeat CPU 0 instructions: 90000000 cycles: 24100329 heartbeat IPC: 3.679 cumulative IPC: 3.448 (Simulation time: 00 hr 12 min 19 sec)
Heartbeat CPU 0 instructions: 100000003 cycles: 26857493 heartbeat IPC: 3.627 cumulative IPC: 3.483 (Simulation time: 00 hr 13 min 54 sec)
Heartbeat CPU 0 instructions: 110000001 cycles: 29755202 heartbeat IPC: 3.451 cumulative IPC: 3.477 (Simulation time: 00 hr 15 min 20 sec)
Heartbeat CPU 0 instructions: 120000001 cycles: 32471687 heartbeat IPC: 3.681 cumulative IPC: 3.505 (Simulation time: 00 hr 16 min 37 sec)
Heartbeat CPU 0 instructions: 130000003 cycles: 35371153 heartbeat IPC: 3.449 cumulative IPC: 3.498 (Simulation time: 00 hr 18 min 02 sec)
Heartbeat CPU 0 instructions: 140000002 cycles: 38204957 heartbeat IPC: 3.529 cumulative IPC: 3.501 (Simulation time: 00 hr 19 min 26 sec)
Heartbeat CPU 0 instructions: 150000001 cycles: 40975005 heartbeat IPC: 3.61 cumulative IPC: 3.512 (Simulation time: 00 hr 20 min 48 sec)
Heartbeat CPU 0 instructions: 160000000 cycles: 43892634 heartbeat IPC: 3.427 cumulative IPC: 3.504 (Simulation time: 00 hr 22 min 07 sec)
Heartbeat CPU 0 instructions: 170000001 cycles: 46821114 heartbeat IPC: 3.415 cumulative IPC: 3.496 (Simulation time: 00 hr 23 min 27 sec)
Heartbeat CPU 0 instructions: 180000000 cycles: 49612148 heartbeat IPC: 3.583 cumulative IPC: 3.503 (Simulation time: 00 hr 24 min 47 sec)
Heartbeat CPU 0 instructions: 190000002 cycles: 52319155 heartbeat IPC: 3.694 cumulative IPC: 3.516 (Simulation time: 00 hr 26 min 10 sec)
Heartbeat CPU 0 instructions: 200000002 cycles: 55139904 heartbeat IPC: 3.545 cumulative IPC: 3.518 (Simulation time: 00 hr 27 min 34 sec)
Heartbeat CPU 0 instructions: 210000000 cycles: 58032807 heartbeat IPC: 3.457 cumulative IPC: 3.514 (Simulation time: 00 hr 28 min 57 sec)
Heartbeat CPU 0 instructions: 220000001 cycles: 60785586 heartbeat IPC: 3.633 cumulative IPC: 3.521 (Simulation time: 00 hr 30 min 19 sec)
Heartbeat CPU 0 instructions: 230000002 cycles: 63675284 heartbeat IPC: 3.461 cumulative IPC: 3.517 (Simulation time: 00 hr 31 min 43 sec)
Heartbeat CPU 0 instructions: 240000004 cycles: 66627331 heartbeat IPC: 3.387 cumulative IPC: 3.51 (Simulation time: 00 hr 33 min 08 sec)
Heartbeat CPU 0 instructions: 250000003 cycles: 69518216 heartbeat IPC: 3.459 cumulative IPC: 3.508 (Simulation time: 00 hr 34 min 29 sec)
Heartbeat CPU 0 instructions: 260000001 cycles: 72304888 heartbeat IPC: 3.589 cumulative IPC: 3.511 (Simulation time: 00 hr 35 min 49 sec)
Heartbeat CPU 0 instructions: 270000002 cycles: 78175360 heartbeat IPC: 1.703 cumulative IPC: 3.35 (Simulation time: 00 hr 37 min 39 sec)
Heartbeat CPU 0 instructions: 280000000 cycles: 87596062 heartbeat IPC: 1.061 cumulative IPC: 3.063 (Simulation time: 00 hr 39 min 59 sec)
Heartbeat CPU 0 instructions: 290000000 cycles: 95389782 heartbeat IPC: 1.283 cumulative IPC: 2.895 (Simulation time: 00 hr 41 min 41 sec)
Heartbeat CPU 0 instructions: 300000003 cycles: 100632361 heartbeat IPC: 1.907 cumulative IPC: 2.837 (Simulation time: 00 hr 42 min 50 sec)
Heartbeat CPU 0 instructions: 310000001 cycles: 108877861 heartbeat IPC: 1.213 cumulative IPC: 2.698 (Simulation time: 00 hr 44 min 18 sec)
Heartbeat CPU 0 instructions: 320000004 cycles: 112661542 heartbeat IPC: 2.643 cumulative IPC: 2.696 (Simulation time: 00 hr 45 min 13 sec)
Heartbeat CPU 0 instructions: 330000000 cycles: 115819569 heartbeat IPC: 3.167 cumulative IPC: 2.71 (Simulation time: 00 hr 46 min 01 sec)
Heartbeat CPU 0 instructions: 340000001 cycles: 118997418 heartbeat IPC: 3.147 cumulative IPC: 2.723 (Simulation time: 00 hr 46 min 51 sec)
Heartbeat CPU 0 instructions: 350000000 cycles: 122344806 heartbeat IPC: 2.987 cumulative IPC: 2.731 (Simulation time: 00 hr 47 min 41 sec)
Heartbeat CPU 0 instructions: 360000004 cycles: 125489785 heartbeat IPC: 3.18 cumulative IPC: 2.744 (Simulation time: 00 hr 48 min 31 sec)
Heartbeat CPU 0 instructions: 370000001 cycles: 128579292 heartbeat IPC: 3.237 cumulative IPC: 2.757 (Simulation time: 00 hr 49 min 19 sec)
Heartbeat CPU 0 instructions: 380000004 cycles: 131685975 heartbeat IPC: 3.219 cumulative IPC: 2.769 (Simulation time: 00 hr 50 min 08 sec)
Heartbeat CPU 0 instructions: 390000002 cycles: 134923215 heartbeat IPC: 3.089 cumulative IPC: 2.777 (Simulation time: 00 hr 50 min 58 sec)
Heartbeat CPU 0 instructions: 400000000 cycles: 138227674 heartbeat IPC: 3.026 cumulative IPC: 2.784 (Simulation time: 00 hr 51 min 48 sec)
Heartbeat CPU 0 instructions: 410000000 cycles: 144610040 heartbeat IPC: 1.567 cumulative IPC: 2.725 (Simulation time: 00 hr 52 min 56 sec)
Heartbeat CPU 0 instructions: 420000003 cycles: 153604484 heartbeat IPC: 1.112 cumulative IPC: 2.622 (Simulation time: 00 hr 54 min 19 sec)
Heartbeat CPU 0 instructions: 430000000 cycles: 159373408 heartbeat IPC: 1.733 cumulative IPC: 2.587 (Simulation time: 00 hr 55 min 25 sec)
Heartbeat CPU 0 instructions: 440000004 cycles: 164322301 heartbeat IPC: 2.021 cumulative IPC: 2.569 (Simulation time: 00 hr 56 min 25 sec)
Heartbeat CPU 0 instructions: 450000001 cycles: 169139452 heartbeat IPC: 2.076 cumulative IPC: 2.554 (Simulation time: 00 hr 57 min 24 sec)
Heartbeat CPU 0 instructions: 460000002 cycles: 177266620 heartbeat IPC: 1.23 cumulative IPC: 2.488 (Simulation time: 00 hr 58 min 43 sec)
Heartbeat CPU 0 instructions: 470000003 cycles: 184695559 heartbeat IPC: 1.346 cumulative IPC: 2.439 (Simulation time: 00 hr 59 min 57 sec)
Heartbeat CPU 0 instructions: 480000000 cycles: 188088741 heartbeat IPC: 2.947 cumulative IPC: 2.449 (Simulation time: 01 hr 00 min 46 sec)
Heartbeat CPU 0 instructions: 490000001 cycles: 191709940 heartbeat IPC: 2.762 cumulative IPC: 2.455 (Simulation time: 01 hr 01 min 38 sec)
Heartbeat CPU 0 instructions: 500000002 cycles: 195188415 heartbeat IPC: 2.875 cumulative IPC: 2.463 (Simulation time: 01 hr 02 min 28 sec)
Heartbeat CPU 0 instructions: 510000000 cycles: 198633120 heartbeat IPC: 2.903 cumulative IPC: 2.471 (Simulation time: 01 hr 03 min 20 sec)
Heartbeat CPU 0 instructions: 520000000 cycles: 202114195 heartbeat IPC: 2.873 cumulative IPC: 2.479 (Simulation time: 01 hr 04 min 10 sec)
Heartbeat CPU 0 instructions: 530000001 cycles: 211461282 heartbeat IPC: 1.07 cumulative IPC: 2.413 (Simulation time: 01 hr 05 min 33 sec)
Heartbeat CPU 0 instructions: 540000000 cycles: 220426807 heartbeat IPC: 1.115 cumulative IPC: 2.357 (Simulation time: 01 hr 06 min 56 sec)
Heartbeat CPU 0 instructions: 550000004 cycles: 230501714 heartbeat IPC: 0.9926 cumulative IPC: 2.294 (Simulation time: 01 hr 08 min 26 sec)
Heartbeat CPU 0 instructions: 560000004 cycles: 234120566 heartbeat IPC: 2.763 cumulative IPC: 2.301 (Simulation time: 01 hr 09 min 17 sec)
Heartbeat CPU 0 instructions: 570000002 cycles: 236942991 heartbeat IPC: 3.543 cumulative IPC: 2.317 (Simulation time: 01 hr 10 min 05 sec)
Heartbeat CPU 0 instructions: 580000000 cycles: 239867804 heartbeat IPC: 3.419 cumulative IPC: 2.331 (Simulation time: 01 hr 10 min 51 sec)
Heartbeat CPU 0 instructions: 590000001 cycles: 242793780 heartbeat IPC: 3.418 cumulative IPC: 2.345 (Simulation time: 01 hr 11 min 37 sec)
Heartbeat CPU 0 instructions: 600000003 cycles: 245487879 heartbeat IPC: 3.712 cumulative IPC: 2.361 (Simulation time: 01 hr 12 min 22 sec)
Heartbeat CPU 0 instructions: 610000001 cycles: 248352005 heartbeat IPC: 3.491 cumulative IPC: 2.374 (Simulation time: 01 hr 13 min 10 sec)
Heartbeat CPU 0 instructions: 620000004 cycles: 251305826 heartbeat IPC: 3.385 cumulative IPC: 2.387 (Simulation time: 01 hr 13 min 58 sec)
Heartbeat CPU 0 instructions: 630000002 cycles: 254117421 heartbeat IPC: 3.557 cumulative IPC: 2.4 (Simulation time: 01 hr 14 min 44 sec)
Heartbeat CPU 0 instructions: 640000004 cycles: 257164910 heartbeat IPC: 3.281 cumulative IPC: 2.411 (Simulation time: 01 hr 15 min 31 sec)
Heartbeat CPU 0 instructions: 650000001 cycles: 259874523 heartbeat IPC: 3.691 cumulative IPC: 2.425 (Simulation time: 01 hr 16 min 16 sec)
Simulation finished CPU 0 instructions: 600000001 cycles: 247374462 cumulative IPC: 2.425 (Simulation time: 01 hr 16 min 16 sec)
Simulation complete CPU 0 instructions: 600000001 cycles: 247374462 cumulative IPC: 2.425 (Simulation time: 01 hr 16 min 16 sec)

ChampSim completed all CPUs

=== Simulation ===
CPU 0 runs traces/400.perlbench-50B.champsimtrace.xz
Region of Interest Statistics

CPU 0 cumulative IPC: 2.425 instructions: 600000001 cycles: 247374462
CPU 0 Branch Prediction Accuracy: 99.01% MPKI: 2.04 Average ROB Occupancy at Mispredict: 95.04
Branch type MPKI
BRANCH_DIRECT_JUMP: 0.0176
BRANCH_INDIRECT: 0.38
BRANCH_CONDITIONAL: 1.19
BRANCH_DIRECT_CALL: 0.0067
BRANCH_INDIRECT_CALL: 0.431
BRANCH_RETURN: 0.0161

LLC TOTAL        ACCESS:     768926 HIT:     458534 MISS:     310392
LLC LOAD         ACCESS:     573947 HIT:     296649 MISS:     277298
LLC RFO          ACCESS:      46734 HIT:      26174 MISS:      20560
LLC PREFETCH     ACCESS:          0 HIT:          0 MISS:          0
LLC WRITE        ACCESS:     126178 HIT:     125616 MISS:        562
LLC TRANSLATION  ACCESS:      22067 HIT:      10095 MISS:      11972
LLC PREFETCH REQUESTED:          0 ISSUED:          0 USEFUL:          0 USELESS:          0
LLC AVERAGE MISS LATENCY: 606.6 cycles
cpu0_DTLB TOTAL        ACCESS:  133220300 HIT:  131866199 MISS:    1354101
cpu0_DTLB LOAD         ACCESS:  133220300 HIT:  131866199 MISS:    1354101
cpu0_DTLB RFO          ACCESS:          0 HIT:          0 MISS:          0
cpu0_DTLB PREFETCH     ACCESS:          0 HIT:          0 MISS:          0
cpu0_DTLB WRITE        ACCESS:          0 HIT:          0 MISS:          0
cpu0_DTLB TRANSLATION  ACCESS:          0 HIT:          0 MISS:          0
cpu0_DTLB PREFETCH REQUESTED:          0 ISSUED:          0 USEFUL:          0 USELESS:          0
cpu0_DTLB AVERAGE MISS LATENCY: 11.83 cycles
cpu0_ITLB TOTAL        ACCESS:    9000208 HIT:    8790843 MISS:     209365
cpu0_ITLB LOAD         ACCESS:    9000208 HIT:    8790843 MISS:     209365
cpu0_ITLB RFO          ACCESS:          0 HIT:          0 MISS:          0
cpu0_ITLB PREFETCH     ACCESS:          0 HIT:          0 MISS:          0
cpu0_ITLB WRITE        ACCESS:          0 HIT:          0 MISS:          0
cpu0_ITLB TRANSLATION  ACCESS:          0 HIT:          0 MISS:          0
cpu0_ITLB PREFETCH REQUESTED:          0 ISSUED:          0 USEFUL:          0 USELESS:          0
cpu0_ITLB AVERAGE MISS LATENCY: 3.04 cycles
cpu0_L1D TOTAL        ACCESS:  178245145 HIT:  174445265 MISS:    3799880
cpu0_L1D LOAD         ACCESS:   92727962 HIT:   89611488 MISS:    3116474
cpu0_L1D RFO          ACCESS:          0 HIT:          0 MISS:          0
cpu0_L1D PREFETCH     ACCESS:          0 HIT:          0 MISS:          0
cpu0_L1D WRITE        ACCESS:   85488655 HIT:   84832362 MISS:     656293
cpu0_L1D TRANSLATION  ACCESS:      28528 HIT:       1415 MISS:      27113
cpu0_L1D PREFETCH REQUESTED:          0 ISSUED:          0 USEFUL:          0 USELESS:          0
cpu0_L1D AVERAGE MISS LATENCY: 51.83 cycles
cpu0_L1I TOTAL        ACCESS:   10519449 HIT:    8620731 MISS:    1898718
cpu0_L1I LOAD         ACCESS:   10519449 HIT:    8620731 MISS:    1898718
cpu0_L1I RFO          ACCESS:          0 HIT:          0 MISS:          0
cpu0_L1I PREFETCH     ACCESS:          0 HIT:          0 MISS:          0
cpu0_L1I WRITE        ACCESS:          0 HIT:          0 MISS:          0
cpu0_L1I TRANSLATION  ACCESS:          0 HIT:          0 MISS:          0
cpu0_L1I PREFETCH REQUESTED:          0 ISSUED:          0 USEFUL:          0 USELESS:          0
cpu0_L1I AVERAGE MISS LATENCY: 11.02 cycles
cpu0_L2C TOTAL        ACCESS:    3840286 HIT:    3194410 MISS:     645876
cpu0_L2C LOAD         ACCESS:    3103746 HIT:    2529798 MISS:     573948
cpu0_L2C RFO          ACCESS:     194866 HIT:     148132 MISS:      46734
cpu0_L2C PREFETCH     ACCESS:          0 HIT:          0 MISS:          0
cpu0_L2C WRITE        ACCESS:     514638 HIT:     511511 MISS:       3127
cpu0_L2C TRANSLATION  ACCESS:      27036 HIT:       4969 MISS:      22067
cpu0_L2C PREFETCH REQUESTED:          0 ISSUED:          0 USEFUL:          0 USELESS:          0
cpu0_L2C AVERAGE MISS LATENCY: 311.9 cycles
cpu0_STLB TOTAL        ACCESS:    1009923 HIT:     983232 MISS:      26691
cpu0_STLB LOAD         ACCESS:    1009923 HIT:     983232 MISS:      26691
cpu0_STLB RFO          ACCESS:          0 HIT:          0 MISS:          0
cpu0_STLB PREFETCH     ACCESS:          0 HIT:          0 MISS:          0
cpu0_STLB WRITE        ACCESS:          0 HIT:          0 MISS:          0
cpu0_STLB TRANSLATION  ACCESS:          0 HIT:          0 MISS:          0
cpu0_STLB PREFETCH REQUESTED:          0 ISSUED:          0 USEFUL:          0 USELESS:          0
cpu0_STLB AVERAGE MISS LATENCY: 399.8 cycles

DRAM Statistics

Channel 0 RQ ROW_BUFFER_HIT:      62252
  ROW_BUFFER_MISS:     247487
 AVG DBUS CONGESTED CYCLE: 3.835
WQ ROW_BUFFER_HIT: Channel 0 
  ROW_BUFFER_MISS:       6100
  FULL:      42199
