WARNING: physical memory size is smaller than virtual memory size.

*** ChampSim Multicore Out-of-Order Simulator ***
Warmup Instructions: 50000000
Simulation Instructions: 600000000
Number of CPUs: 1
Page size: 4096

Off-chip DRAM Size: 4 GiB Channels: 1 Width: 64-bit Data Race: 3200 MT/s
Heartbeat CPU 0 instructions: 10000000 cycles: 2500061 heartbeat IPC: 4 cumulative IPC: 4 (Simulation time: 00 hr 00 min 35 sec)
Heartbeat CPU 0 instructions: 20000000 cycles: 5000061 heartbeat IPC: 4 cumulative IPC: 4 (Simulation time: 00 hr 01 min 07 sec)
Heartbeat CPU 0 instructions: 30000000 cycles: 7500061 heartbeat IPC: 4 cumulative IPC: 4 (Simulation time: 00 hr 01 min 40 sec)
Heartbeat CPU 0 instructions: 40000000 cycles: 10000061 heartbeat IPC: 4 cumulative IPC: 4 (Simulation time: 00 hr 02 min 12 sec)
Heartbeat CPU 0 instructions: 50000000 cycles: 12500061 heartbeat IPC: 4 cumulative IPC: 4 (Simulation time: 00 hr 02 min 47 sec)
Warmup finished CPU 0 instructions: 50000000 cycles: 12500062 cumulative IPC: 4 (Simulation time: 00 hr 02 min 47 sec)
Warmup complete CPU 0 instructions: 50000000 cycles: 12500062 cumulative IPC: 4 (Simulation time: 00 hr 02 min 47 sec)
Heartbeat CPU 0 instructions: 60000002 cycles: 16911341 heartbeat IPC: 2.267 cumulative IPC: 2.267 (Simulation time: 00 hr 03 min 34 sec)
Heartbeat CPU 0 instructions: 70000003 cycles: 21897820 heartbeat IPC: 2.005 cumulative IPC: 2.128 (Simulation time: 00 hr 04 min 22 sec)
Heartbeat CPU 0 instructions: 80000001 cycles: 27247190 heartbeat IPC: 1.869 cumulative IPC: 2.034 (Simulation time: 00 hr 05 min 14 sec)
Heartbeat CPU 0 instructions: 90000000 cycles: 31546012 heartbeat IPC: 2.326 cumulative IPC: 2.1 (Simulation time: 00 hr 06 min 01 sec)
Heartbeat CPU 0 instructions: 100000003 cycles: 36406147 heartbeat IPC: 2.058 cumulative IPC: 2.092 (Simulation time: 00 hr 06 min 50 sec)
Heartbeat CPU 0 instructions: 110000002 cycles: 41284204 heartbeat IPC: 2.05 cumulative IPC: 2.084 (Simulation time: 00 hr 07 min 37 sec)
Heartbeat CPU 0 instructions: 120000001 cycles: 46280693 heartbeat IPC: 2.001 cumulative IPC: 2.072 (Simulation time: 00 hr 08 min 24 sec)
Heartbeat CPU 0 instructions: 130000003 cycles: 50851474 heartbeat IPC: 2.188 cumulative IPC: 2.086 (Simulation time: 00 hr 09 min 12 sec)
Heartbeat CPU 0 instructions: 140000002 cycles: 55744742 heartbeat IPC: 2.044 cumulative IPC: 2.081 (Simulation time: 00 hr 09 min 58 sec)
Heartbeat CPU 0 instructions: 150000001 cycles: 60416524 heartbeat IPC: 2.141 cumulative IPC: 2.087 (Simulation time: 00 hr 10 min 48 sec)
Heartbeat CPU 0 instructions: 160000000 cycles: 65057180 heartbeat IPC: 2.155 cumulative IPC: 2.093 (Simulation time: 00 hr 11 min 36 sec)
Heartbeat CPU 0 instructions: 170000000 cycles: 70394497 heartbeat IPC: 1.874 cumulative IPC: 2.073 (Simulation time: 00 hr 12 min 27 sec)
Heartbeat CPU 0 instructions: 180000001 cycles: 76116472 heartbeat IPC: 1.748 cumulative IPC: 2.043 (Simulation time: 00 hr 13 min 20 sec)
Heartbeat CPU 0 instructions: 190000002 cycles: 80593267 heartbeat IPC: 2.234 cumulative IPC: 2.056 (Simulation time: 00 hr 14 min 08 sec)
Heartbeat CPU 0 instructions: 200000002 cycles: 85503685 heartbeat IPC: 2.036 cumulative IPC: 2.055 (Simulation time: 00 hr 14 min 57 sec)
Heartbeat CPU 0 instructions: 210000000 cycles: 90509961 heartbeat IPC: 1.997 cumulative IPC: 2.051 (Simulation time: 00 hr 15 min 46 sec)
Heartbeat CPU 0 instructions: 220000001 cycles: 95435925 heartbeat IPC: 2.03 cumulative IPC: 2.05 (Simulation time: 00 hr 16 min 37 sec)
Heartbeat CPU 0 instructions: 230000002 cycles: 100685487 heartbeat IPC: 1.905 cumulative IPC: 2.041 (Simulation time: 00 hr 17 min 30 sec)
Heartbeat CPU 0 instructions: 240000001 cycles: 105653016 heartbeat IPC: 2.013 cumulative IPC: 2.04 (Simulation time: 00 hr 18 min 19 sec)
Heartbeat CPU 0 instructions: 250000003 cycles: 110841288 heartbeat IPC: 1.927 cumulative IPC: 2.034 (Simulation time: 00 hr 19 min 06 sec)
Heartbeat CPU 0 instructions: 260000001 cycles: 115703850 heartbeat IPC: 2.057 cumulative IPC: 2.035 (Simulation time: 00 hr 19 min 53 sec)
Heartbeat CPU 0 instructions: 270000000 cycles: 123461484 heartbeat IPC: 1.289 cumulative IPC: 1.983 (Simulation time: 00 hr 20 min 54 sec)
Heartbeat CPU 0 instructions: 280000000 cycles: 134473153 heartbeat IPC: 0.9081 cumulative IPC: 1.886 (Simulation time: 00 hr 22 min 15 sec)
Heartbeat CPU 0 instructions: 290000001 cycles: 144287357 heartbeat IPC: 1.019 cumulative IPC: 1.821 (Simulation time: 00 hr 23 min 31 sec)
Heartbeat CPU 0 instructions: 300000003 cycles: 152271609 heartbeat IPC: 1.252 cumulative IPC: 1.789 (Simulation time: 00 hr 24 min 44 sec)
Heartbeat CPU 0 instructions: 310000004 cycles: 164016751 heartbeat IPC: 0.8514 cumulative IPC: 1.716 (Simulation time: 00 hr 26 min 20 sec)
Heartbeat CPU 0 instructions: 320000004 cycles: 170034059 heartbeat IPC: 1.662 cumulative IPC: 1.714 (Simulation time: 00 hr 27 min 16 sec)
Heartbeat CPU 0 instructions: 330000000 cycles: 175335065 heartbeat IPC: 1.886 cumulative IPC: 1.72 (Simulation time: 00 hr 28 min 06 sec)
Heartbeat CPU 0 instructions: 340000001 cycles: 180565909 heartbeat IPC: 1.912 cumulative IPC: 1.726 (Simulation time: 00 hr 28 min 54 sec)
Heartbeat CPU 0 instructions: 350000000 cycles: 186011873 heartbeat IPC: 1.836 cumulative IPC: 1.729 (Simulation time: 00 hr 29 min 45 sec)
Heartbeat CPU 0 instructions: 360000003 cycles: 191202279 heartbeat IPC: 1.927 cumulative IPC: 1.735 (Simulation time: 00 hr 30 min 37 sec)
Heartbeat CPU 0 instructions: 370000001 cycles: 196274630 heartbeat IPC: 1.971 cumulative IPC: 1.741 (Simulation time: 00 hr 31 min 28 sec)
Heartbeat CPU 0 instructions: 380000004 cycles: 201619803 heartbeat IPC: 1.871 cumulative IPC: 1.745 (Simulation time: 00 hr 32 min 21 sec)
Heartbeat CPU 0 instructions: 390000002 cycles: 207067880 heartbeat IPC: 1.836 cumulative IPC: 1.747 (Simulation time: 00 hr 33 min 14 sec)
Heartbeat CPU 0 instructions: 400000000 cycles: 212611036 heartbeat IPC: 1.804 cumulative IPC: 1.749 (Simulation time: 00 hr 34 min 08 sec)
Heartbeat CPU 0 instructions: 410000000 cycles: 220825824 heartbeat IPC: 1.217 cumulative IPC: 1.728 (Simulation time: 00 hr 35 min 18 sec)
Heartbeat CPU 0 instructions: 420000001 cycles: 231603243 heartbeat IPC: 0.9279 cumulative IPC: 1.689 (Simulation time: 00 hr 36 min 42 sec)
Heartbeat CPU 0 instructions: 430000000 cycles: 239595344 heartbeat IPC: 1.251 cumulative IPC: 1.673 (Simulation time: 00 hr 37 min 54 sec)
Heartbeat CPU 0 instructions: 440000002 cycles: 247698886 heartbeat IPC: 1.234 cumulative IPC: 1.658 (Simulation time: 00 hr 39 min 06 sec)
Heartbeat CPU 0 instructions: 450000000 cycles: 255186189 heartbeat IPC: 1.336 cumulative IPC: 1.648 (Simulation time: 00 hr 40 min 13 sec)
Heartbeat CPU 0 instructions: 460000002 cycles: 266692172 heartbeat IPC: 0.8691 cumulative IPC: 1.613 (Simulation time: 00 hr 41 min 41 sec)
Heartbeat CPU 0 instructions: 470000000 cycles: 277504990 heartbeat IPC: 0.9248 cumulative IPC: 1.585 (Simulation time: 00 hr 43 min 03 sec)
Heartbeat CPU 0 instructions: 480000000 cycles: 283002692 heartbeat IPC: 1.819 cumulative IPC: 1.59 (Simulation time: 00 hr 43 min 53 sec)
Heartbeat CPU 0 instructions: 490000001 cycles: 288676972 heartbeat IPC: 1.762 cumulative IPC: 1.593 (Simulation time: 00 hr 44 min 43 sec)
Heartbeat CPU 0 instructions: 500000002 cycles: 294270526 heartbeat IPC: 1.788 cumulative IPC: 1.597 (Simulation time: 00 hr 45 min 33 sec)
Heartbeat CPU 0 instructions: 510000000 cycles: 299928315 heartbeat IPC: 1.767 cumulative IPC: 1.6 (Simulation time: 00 hr 46 min 24 sec)
Heartbeat CPU 0 instructions: 520000000 cycles: 305639824 heartbeat IPC: 1.751 cumulative IPC: 1.603 (Simulation time: 00 hr 47 min 15 sec)
Heartbeat CPU 0 instructions: 530000001 cycles: 317175772 heartbeat IPC: 0.8669 cumulative IPC: 1.575 (Simulation time: 00 hr 48 min 36 sec)
Heartbeat CPU 0 instructions: 540000000 cycles: 327987025 heartbeat IPC: 0.925 cumulative IPC: 1.553 (Simulation time: 00 hr 49 min 57 sec)
Heartbeat CPU 0 instructions: 550000002 cycles: 341439762 heartbeat IPC: 0.7433 cumulative IPC: 1.52 (Simulation time: 00 hr 51 min 39 sec)
Heartbeat CPU 0 instructions: 560000004 cycles: 346436442 heartbeat IPC: 2.001 cumulative IPC: 1.527 (Simulation time: 00 hr 52 min 30 sec)
Heartbeat CPU 0 instructions: 570000001 cycles: 350854845 heartbeat IPC: 2.263 cumulative IPC: 1.537 (Simulation time: 00 hr 53 min 15 sec)
Heartbeat CPU 0 instructions: 580000003 cycles: 355101956 heartbeat IPC: 2.355 cumulative IPC: 1.547 (Simulation time: 00 hr 53 min 59 sec)
Heartbeat CPU 0 instructions: 590000001 cycles: 360014352 heartbeat IPC: 2.036 cumulative IPC: 1.554 (Simulation time: 00 hr 54 min 52 sec)
Heartbeat CPU 0 instructions: 600000003 cycles: 364658191 heartbeat IPC: 2.153 cumulative IPC: 1.562 (Simulation time: 00 hr 55 min 42 sec)
Heartbeat CPU 0 instructions: 610000001 cycles: 369525276 heartbeat IPC: 2.055 cumulative IPC: 1.569 (Simulation time: 00 hr 56 min 29 sec)
Heartbeat CPU 0 instructions: 620000000 cycles: 374593331 heartbeat IPC: 1.973 cumulative IPC: 1.574 (Simulation time: 00 hr 57 min 21 sec)
Heartbeat CPU 0 instructions: 630000002 cycles: 378842670 heartbeat IPC: 2.353 cumulative IPC: 1.583 (Simulation time: 00 hr 58 min 10 sec)
Heartbeat CPU 0 instructions: 640000004 cycles: 384161669 heartbeat IPC: 1.88 cumulative IPC: 1.587 (Simulation time: 00 hr 58 min 58 sec)
Heartbeat CPU 0 instructions: 650000001 cycles: 388924761 heartbeat IPC: 2.099 cumulative IPC: 1.594 (Simulation time: 00 hr 59 min 45 sec)
Simulation finished CPU 0 instructions: 600000001 cycles: 376424700 cumulative IPC: 1.594 (Simulation time: 00 hr 59 min 45 sec)
Simulation complete CPU 0 instructions: 600000001 cycles: 376424700 cumulative IPC: 1.594 (Simulation time: 00 hr 59 min 45 sec)

ChampSim completed all CPUs

=== Simulation ===
CPU 0 runs traces/400.perlbench-50B.champsimtrace.xz
Region of Interest Statistics

CPU 0 cumulative IPC: 1.594 instructions: 600000001 cycles: 376424700
CPU 0 Branch Prediction Accuracy: 93.83% MPKI: 12.71 Average ROB Occupancy at Mispredict: 29.62
Branch type MPKI
BRANCH_DIRECT_JUMP: 0.0176
BRANCH_INDIRECT: 0.38
BRANCH_CONDITIONAL: 11.9
BRANCH_DIRECT_CALL: 0.0067
BRANCH_INDIRECT_CALL: 0.431
BRANCH_RETURN: 0.0161

LLC TOTAL        ACCESS:     785559 HIT:     474651 MISS:     310908
LLC LOAD         ACCESS:     587668 HIT:     318547 MISS:     269121
LLC RFO          ACCESS:      47594 HIT:      34488 MISS:      13106
LLC PREFETCH     ACCESS:          0 HIT:          0 MISS:          0
LLC WRITE        ACCESS:     128336 HIT:     115589 MISS:      12747
LLC TRANSLATION  ACCESS:      21961 HIT:       6027 MISS:      15934
LLC PREFETCH REQUESTED:          0 ISSUED:          0 USEFUL:          0 USELESS:          0
LLC AVERAGE MISS LATENCY: 471.4 cycles
cpu0_DTLB TOTAL        ACCESS:  156763329 HIT:  155460915 MISS:    1302414
cpu0_DTLB LOAD         ACCESS:  156763329 HIT:  155460915 MISS:    1302414
cpu0_DTLB RFO          ACCESS:          0 HIT:          0 MISS:          0
cpu0_DTLB PREFETCH     ACCESS:          0 HIT:          0 MISS:          0
cpu0_DTLB WRITE        ACCESS:          0 HIT:          0 MISS:          0
cpu0_DTLB TRANSLATION  ACCESS:          0 HIT:          0 MISS:          0
cpu0_DTLB PREFETCH REQUESTED:          0 ISSUED:          0 USEFUL:          0 USELESS:          0
cpu0_DTLB AVERAGE MISS LATENCY: 13.44 cycles
cpu0_ITLB TOTAL        ACCESS:    8933162 HIT:    8734622 MISS:     198540
cpu0_ITLB LOAD         ACCESS:    8933162 HIT:    8734622 MISS:     198540
cpu0_ITLB RFO          ACCESS:          0 HIT:          0 MISS:          0
cpu0_ITLB PREFETCH     ACCESS:          0 HIT:          0 MISS:          0
cpu0_ITLB WRITE        ACCESS:          0 HIT:          0 MISS:          0
cpu0_ITLB TRANSLATION  ACCESS:          0 HIT:          0 MISS:          0
cpu0_ITLB PREFETCH REQUESTED:          0 ISSUED:          0 USEFUL:          0 USELESS:          0
cpu0_ITLB AVERAGE MISS LATENCY: 3.324 cycles
cpu0_L1D TOTAL        ACCESS:  203597194 HIT:  199938276 MISS:    3658918
cpu0_L1D LOAD         ACCESS:  117920421 HIT:  114904596 MISS:    3015825
cpu0_L1D RFO          ACCESS:          0 HIT:          0 MISS:          0
cpu0_L1D PREFETCH     ACCESS:          0 HIT:          0 MISS:          0
cpu0_L1D WRITE        ACCESS:   85648228 HIT:   85032280 MISS:     615948
cpu0_L1D TRANSLATION  ACCESS:      28545 HIT:       1400 MISS:      27145
cpu0_L1D PREFETCH REQUESTED:          0 ISSUED:          0 USEFUL:          0 USELESS:          0
cpu0_L1D AVERAGE MISS LATENCY: 44.41 cycles
cpu0_L1I TOTAL        ACCESS:   10371921 HIT:    8574929 MISS:    1796992
cpu0_L1I LOAD         ACCESS:   10371921 HIT:    8574929 MISS:    1796992
cpu0_L1I RFO          ACCESS:          0 HIT:          0 MISS:          0
cpu0_L1I PREFETCH     ACCESS:          0 HIT:          0 MISS:          0
cpu0_L1I WRITE        ACCESS:          0 HIT:          0 MISS:          0
cpu0_L1I TRANSLATION  ACCESS:          0 HIT:          0 MISS:          0
cpu0_L1I PREFETCH REQUESTED:          0 ISSUED:          0 USEFUL:          0 USELESS:          0
cpu0_L1I AVERAGE MISS LATENCY: 13.32 cycles
cpu0_L2C TOTAL        ACCESS:    3837091 HIT:    3176599 MISS:     660492
cpu0_L2C LOAD         ACCESS:    3106370 HIT:    2518702 MISS:     587668
cpu0_L2C RFO          ACCESS:     191796 HIT:     144202 MISS:      47594
cpu0_L2C PREFETCH     ACCESS:          0 HIT:          0 MISS:          0
cpu0_L2C WRITE        ACCESS:     511868 HIT:     508599 MISS:       3269
cpu0_L2C TRANSLATION  ACCESS:      27057 HIT:       5096 MISS:      21961
cpu0_L2C PREFETCH REQUESTED:          0 ISSUED:          0 USEFUL:          0 USELESS:          0
cpu0_L2C AVERAGE MISS LATENCY: 242.3 cycles
cpu0_STLB TOTAL        ACCESS:    1009328 HIT:     982635 MISS:      26693
cpu0_STLB LOAD         ACCESS:    1009328 HIT:     982635 MISS:      26693
cpu0_STLB RFO          ACCESS:          0 HIT:          0 MISS:          0
cpu0_STLB PREFETCH     ACCESS:          0 HIT:          0 MISS:          0
cpu0_STLB WRITE        ACCESS:          0 HIT:          0 MISS:          0
cpu0_STLB TRANSLATION  ACCESS:          0 HIT:          0 MISS:          0
cpu0_STLB PREFETCH REQUESTED:          0 ISSUED:          0 USEFUL:          0 USELESS:          0
cpu0_STLB AVERAGE MISS LATENCY: 438.3 cycles

DRAM Statistics

Channel 0 RQ ROW_BUFFER_HIT:      70784
  ROW_BUFFER_MISS:     227318
 AVG DBUS CONGESTED CYCLE: 3.721
WQ ROW_BUFFER_HIT: Channel 0 
  ROW_BUFFER_MISS:       6641
  FULL:      11674
