WARNING: physical memory size is smaller than virtual memory size.

*** ChampSim Multicore Out-of-Order Simulator ***
Warmup Instructions: 50000000
Simulation Instructions: 600000000
Number of CPUs: 1
Page size: 4096

CPU 0 Tage branch predictor
Off-chip DRAM Size: 4 GiB Channels: 1 Width: 64-bit Data Race: 3200 MT/s
Heartbeat CPU 0 instructions: 10000001 cycles: 2500318 heartbeat IPC: 3.999 cumulative IPC: 3.999 (Simulation time: 00 hr 00 min 59 sec)
Heartbeat CPU 0 instructions: 20000002 cycles: 5037108 heartbeat IPC: 3.942 cumulative IPC: 3.971 (Simulation time: 00 hr 02 min 00 sec)
Heartbeat CPU 0 instructions: 30000002 cycles: 7537108 heartbeat IPC: 4 cumulative IPC: 3.98 (Simulation time: 00 hr 02 min 56 sec)
Heartbeat CPU 0 instructions: 40000002 cycles: 10037108 heartbeat IPC: 4 cumulative IPC: 3.985 (Simulation time: 00 hr 03 min 52 sec)
Heartbeat CPU 0 instructions: 50000002 cycles: 12537108 heartbeat IPC: 4 cumulative IPC: 3.988 (Simulation time: 00 hr 04 min 50 sec)
Warmup finished CPU 0 instructions: 50000002 cycles: 12537109 cumulative IPC: 3.988 (Simulation time: 00 hr 04 min 50 sec)
Warmup complete CPU 0 instructions: 50000002 cycles: 12537109 cumulative IPC: 3.988 (Simulation time: 00 hr 04 min 50 sec)
Heartbeat CPU 0 instructions: 60000001 cycles: 15516585 heartbeat IPC: 3.356 cumulative IPC: 3.356 (Simulation time: 00 hr 06 min 05 sec)
Heartbeat CPU 0 instructions: 70000004 cycles: 18591630 heartbeat IPC: 3.252 cumulative IPC: 3.303 (Simulation time: 00 hr 07 min 28 sec)
Heartbeat CPU 0 instructions: 80000001 cycles: 21639584 heartbeat IPC: 3.281 cumulative IPC: 3.296 (Simulation time: 00 hr 08 min 45 sec)
Heartbeat CPU 0 instructions: 90000001 cycles: 24588132 heartbeat IPC: 3.391 cumulative IPC: 3.319 (Simulation time: 00 hr 09 min 57 sec)
Heartbeat CPU 0 instructions: 100000000 cycles: 27506393 heartbeat IPC: 3.427 cumulative IPC: 3.34 (Simulation time: 00 hr 11 min 04 sec)
Heartbeat CPU 0 instructions: 110000000 cycles: 30459211 heartbeat IPC: 3.387 cumulative IPC: 3.348 (Simulation time: 00 hr 12 min 09 sec)
Heartbeat CPU 0 instructions: 120000001 cycles: 33431857 heartbeat IPC: 3.364 cumulative IPC: 3.35 (Simulation time: 00 hr 13 min 14 sec)
Heartbeat CPU 0 instructions: 130000001 cycles: 36288316 heartbeat IPC: 3.501 cumulative IPC: 3.368 (Simulation time: 00 hr 14 min 22 sec)
Heartbeat CPU 0 instructions: 140000001 cycles: 39330941 heartbeat IPC: 3.287 cumulative IPC: 3.359 (Simulation time: 00 hr 15 min 27 sec)
Heartbeat CPU 0 instructions: 150000001 cycles: 42346852 heartbeat IPC: 3.316 cumulative IPC: 3.355 (Simulation time: 00 hr 16 min 31 sec)
Heartbeat CPU 0 instructions: 160000004 cycles: 45366033 heartbeat IPC: 3.312 cumulative IPC: 3.351 (Simulation time: 00 hr 17 min 35 sec)
Heartbeat CPU 0 instructions: 170000000 cycles: 52917312 heartbeat IPC: 1.324 cumulative IPC: 2.972 (Simulation time: 00 hr 19 min 17 sec)
Heartbeat CPU 0 instructions: 180000004 cycles: 61234137 heartbeat IPC: 1.202 cumulative IPC: 2.67 (Simulation time: 00 hr 21 min 29 sec)
Heartbeat CPU 0 instructions: 190000001 cycles: 69254665 heartbeat IPC: 1.247 cumulative IPC: 2.468 (Simulation time: 00 hr 23 min 34 sec)
Heartbeat CPU 0 instructions: 200000004 cycles: 72217195 heartbeat IPC: 3.375 cumulative IPC: 2.513 (Simulation time: 00 hr 24 min 42 sec)
Heartbeat CPU 0 instructions: 210000001 cycles: 75175776 heartbeat IPC: 3.38 cumulative IPC: 2.554 (Simulation time: 00 hr 25 min 48 sec)
Heartbeat CPU 0 instructions: 220000000 cycles: 78067575 heartbeat IPC: 3.458 cumulative IPC: 2.594 (Simulation time: 00 hr 26 min 52 sec)
Heartbeat CPU 0 instructions: 230000002 cycles: 81093808 heartbeat IPC: 3.304 cumulative IPC: 2.626 (Simulation time: 00 hr 27 min 58 sec)
Heartbeat CPU 0 instructions: 240000003 cycles: 84130232 heartbeat IPC: 3.293 cumulative IPC: 2.654 (Simulation time: 00 hr 29 min 07 sec)
Heartbeat CPU 0 instructions: 250000000 cycles: 87158345 heartbeat IPC: 3.302 cumulative IPC: 2.68 (Simulation time: 00 hr 30 min 14 sec)
Heartbeat CPU 0 instructions: 260000002 cycles: 90132327 heartbeat IPC: 3.362 cumulative IPC: 2.706 (Simulation time: 00 hr 31 min 20 sec)
Heartbeat CPU 0 instructions: 270000002 cycles: 93050049 heartbeat IPC: 3.427 cumulative IPC: 2.732 (Simulation time: 00 hr 32 min 25 sec)
Heartbeat CPU 0 instructions: 280000002 cycles: 95940382 heartbeat IPC: 3.46 cumulative IPC: 2.758 (Simulation time: 00 hr 33 min 31 sec)
Heartbeat CPU 0 instructions: 290000002 cycles: 98899897 heartbeat IPC: 3.379 cumulative IPC: 2.779 (Simulation time: 00 hr 34 min 50 sec)
Heartbeat CPU 0 instructions: 300000003 cycles: 101802347 heartbeat IPC: 3.445 cumulative IPC: 2.801 (Simulation time: 00 hr 36 min 09 sec)
Heartbeat CPU 0 instructions: 310000001 cycles: 104834995 heartbeat IPC: 3.297 cumulative IPC: 2.817 (Simulation time: 00 hr 37 min 25 sec)
Heartbeat CPU 0 instructions: 320000003 cycles: 107843375 heartbeat IPC: 3.324 cumulative IPC: 2.833 (Simulation time: 00 hr 38 min 40 sec)
Heartbeat CPU 0 instructions: 330000003 cycles: 110834034 heartbeat IPC: 3.344 cumulative IPC: 2.849 (Simulation time: 00 hr 39 min 50 sec)
Heartbeat CPU 0 instructions: 340000000 cycles: 118604628 heartbeat IPC: 1.287 cumulative IPC: 2.734 (Simulation time: 00 hr 41 min 38 sec)
Heartbeat CPU 0 instructions: 350000000 cycles: 127139740 heartbeat IPC: 1.172 cumulative IPC: 2.618 (Simulation time: 00 hr 43 min 35 sec)
Heartbeat CPU 0 instructions: 360000004 cycles: 135195673 heartbeat IPC: 1.241 cumulative IPC: 2.527 (Simulation time: 00 hr 45 min 26 sec)
Heartbeat CPU 0 instructions: 370000000 cycles: 138164265 heartbeat IPC: 3.369 cumulative IPC: 2.547 (Simulation time: 00 hr 46 min 29 sec)
Heartbeat CPU 0 instructions: 380000003 cycles: 141084109 heartbeat IPC: 3.425 cumulative IPC: 2.567 (Simulation time: 00 hr 47 min 33 sec)
Heartbeat CPU 0 instructions: 390000002 cycles: 144061659 heartbeat IPC: 3.358 cumulative IPC: 2.585 (Simulation time: 00 hr 48 min 36 sec)
Heartbeat CPU 0 instructions: 400000004 cycles: 146966774 heartbeat IPC: 3.442 cumulative IPC: 2.604 (Simulation time: 00 hr 49 min 40 sec)
Heartbeat CPU 0 instructions: 410000002 cycles: 149909565 heartbeat IPC: 3.398 cumulative IPC: 2.621 (Simulation time: 00 hr 50 min 53 sec)
Heartbeat CPU 0 instructions: 420000003 cycles: 153014686 heartbeat IPC: 3.22 cumulative IPC: 2.634 (Simulation time: 00 hr 52 min 22 sec)
Heartbeat CPU 0 instructions: 430000001 cycles: 156022887 heartbeat IPC: 3.324 cumulative IPC: 2.648 (Simulation time: 00 hr 53 min 44 sec)
Heartbeat CPU 0 instructions: 440000004 cycles: 159160975 heartbeat IPC: 3.187 cumulative IPC: 2.66 (Simulation time: 00 hr 54 min 59 sec)
Heartbeat CPU 0 instructions: 450000002 cycles: 162085960 heartbeat IPC: 3.419 cumulative IPC: 2.675 (Simulation time: 00 hr 56 min 10 sec)
Heartbeat CPU 0 instructions: 460000000 cycles: 165019936 heartbeat IPC: 3.408 cumulative IPC: 2.689 (Simulation time: 00 hr 57 min 21 sec)
Heartbeat CPU 0 instructions: 470000001 cycles: 167875926 heartbeat IPC: 3.501 cumulative IPC: 2.704 (Simulation time: 00 hr 58 min 34 sec)
Heartbeat CPU 0 instructions: 480000003 cycles: 170930785 heartbeat IPC: 3.273 cumulative IPC: 2.715 (Simulation time: 00 hr 59 min 45 sec)
Heartbeat CPU 0 instructions: 490000004 cycles: 173763917 heartbeat IPC: 3.53 cumulative IPC: 2.729 (Simulation time: 01 hr 00 min 53 sec)
Heartbeat CPU 0 instructions: 500000004 cycles: 176748573 heartbeat IPC: 3.35 cumulative IPC: 2.74 (Simulation time: 01 hr 01 min 59 sec)
Heartbeat CPU 0 instructions: 510000003 cycles: 179762037 heartbeat IPC: 3.318 cumulative IPC: 2.751 (Simulation time: 01 hr 03 min 07 sec)
Heartbeat CPU 0 instructions: 520000001 cycles: 182650148 heartbeat IPC: 3.462 cumulative IPC: 2.763 (Simulation time: 01 hr 04 min 12 sec)
Heartbeat CPU 0 instructions: 530000001 cycles: 185652992 heartbeat IPC: 3.33 cumulative IPC: 2.773 (Simulation time: 01 hr 05 min 16 sec)
Heartbeat CPU 0 instructions: 540000000 cycles: 188613307 heartbeat IPC: 3.378 cumulative IPC: 2.783 (Simulation time: 01 hr 06 min 19 sec)
Heartbeat CPU 0 instructions: 550000001 cycles: 191595972 heartbeat IPC: 3.353 cumulative IPC: 2.792 (Simulation time: 01 hr 07 min 23 sec)
Heartbeat CPU 0 instructions: 560000000 cycles: 194678605 heartbeat IPC: 3.244 cumulative IPC: 2.8 (Simulation time: 01 hr 08 min 29 sec)
Heartbeat CPU 0 instructions: 570000004 cycles: 199824557 heartbeat IPC: 1.943 cumulative IPC: 2.776 (Simulation time: 01 hr 09 min 52 sec)
Heartbeat CPU 0 instructions: 580000003 cycles: 208705236 heartbeat IPC: 1.126 cumulative IPC: 2.702 (Simulation time: 01 hr 11 min 50 sec)
Heartbeat CPU 0 instructions: 590000002 cycles: 219071252 heartbeat IPC: 0.9647 cumulative IPC: 2.615 (Simulation time: 01 hr 13 min 59 sec)
Heartbeat CPU 0 instructions: 600000004 cycles: 222125986 heartbeat IPC: 3.274 cumulative IPC: 2.624 (Simulation time: 01 hr 15 min 03 sec)
Heartbeat CPU 0 instructions: 610000002 cycles: 225093793 heartbeat IPC: 3.369 cumulative IPC: 2.635 (Simulation time: 01 hr 16 min 07 sec)
Heartbeat CPU 0 instructions: 620000001 cycles: 227866407 heartbeat IPC: 3.607 cumulative IPC: 2.647 (Simulation time: 01 hr 17 min 09 sec)
Heartbeat CPU 0 instructions: 630000002 cycles: 230838612 heartbeat IPC: 3.365 cumulative IPC: 2.657 (Simulation time: 01 hr 18 min 11 sec)
Heartbeat CPU 0 instructions: 640000004 cycles: 233788740 heartbeat IPC: 3.39 cumulative IPC: 2.667 (Simulation time: 01 hr 19 min 14 sec)
Heartbeat CPU 0 instructions: 650000000 cycles: 236539973 heartbeat IPC: 3.635 cumulative IPC: 2.679 (Simulation time: 01 hr 20 min 12 sec)
Simulation finished CPU 0 instructions: 600000001 cycles: 224002866 cumulative IPC: 2.679 (Simulation time: 01 hr 20 min 12 sec)
Simulation complete CPU 0 instructions: 600000001 cycles: 224002866 cumulative IPC: 2.679 (Simulation time: 01 hr 20 min 12 sec)

ChampSim completed all CPUs

=== Simulation ===
CPU 0 runs traces/400.perlbench-41B.champsimtrace.xz
Region of Interest Statistics

CPU 0 cumulative IPC: 2.679 instructions: 600000001 cycles: 224002866
CPU 0 Branch Prediction Accuracy: 99.19% MPKI: 1.684 Average ROB Occupancy at Mispredict: 102.4
Branch type MPKI
BRANCH_DIRECT_JUMP: 0.0123
BRANCH_INDIRECT: 0.323
BRANCH_CONDITIONAL: 1.14
BRANCH_DIRECT_CALL: 0.0043
BRANCH_INDIRECT_CALL: 0.2
BRANCH_RETURN: 0.00828

LLC TOTAL        ACCESS:     593267 HIT:     318873 MISS:     274394
LLC LOAD         ACCESS:     403657 HIT:     183266 MISS:     220391
LLC RFO          ACCESS:      32509 HIT:      16517 MISS:      15992
LLC PREFETCH     ACCESS:      52952 HIT:      25491 MISS:      27461
LLC WRITE        ACCESS:      85046 HIT:      84565 MISS:        481
LLC TRANSLATION  ACCESS:      19103 HIT:       9034 MISS:      10069
LLC PREFETCH REQUESTED:      52952 ISSUED:      52952 USEFUL:      17187 USELESS:       6960
LLC AVERAGE MISS LATENCY: 647.4 cycles
cpu0_DTLB TOTAL        ACCESS:  129774546 HIT:  129069987 MISS:     704559
cpu0_DTLB LOAD         ACCESS:  129774546 HIT:  129069987 MISS:     704559
cpu0_DTLB RFO          ACCESS:          0 HIT:          0 MISS:          0
cpu0_DTLB PREFETCH     ACCESS:          0 HIT:          0 MISS:          0
cpu0_DTLB WRITE        ACCESS:          0 HIT:          0 MISS:          0
cpu0_DTLB TRANSLATION  ACCESS:          0 HIT:          0 MISS:          0
cpu0_DTLB PREFETCH REQUESTED:          0 ISSUED:          0 USEFUL:          0 USELESS:          0
cpu0_DTLB AVERAGE MISS LATENCY: 15.42 cycles
cpu0_ITLB TOTAL        ACCESS:    4878974 HIT:    4816878 MISS:      62096
cpu0_ITLB LOAD         ACCESS:    4878974 HIT:    4816878 MISS:      62096
cpu0_ITLB RFO          ACCESS:          0 HIT:          0 MISS:          0
cpu0_ITLB PREFETCH     ACCESS:          0 HIT:          0 MISS:          0
cpu0_ITLB WRITE        ACCESS:          0 HIT:          0 MISS:          0
cpu0_ITLB TRANSLATION  ACCESS:          0 HIT:          0 MISS:          0
cpu0_ITLB PREFETCH REQUESTED:          0 ISSUED:          0 USEFUL:          0 USELESS:          0
cpu0_ITLB AVERAGE MISS LATENCY: 6.852 cycles
cpu0_L1D TOTAL        ACCESS:  174355420 HIT:  172555013 MISS:    1800407
cpu0_L1D LOAD         ACCESS:   91333062 HIT:   89931442 MISS:    1401620
cpu0_L1D RFO          ACCESS:          0 HIT:          0 MISS:          0
cpu0_L1D PREFETCH     ACCESS:          0 HIT:          0 MISS:          0
cpu0_L1D WRITE        ACCESS:   82997901 HIT:   82622506 MISS:     375395
cpu0_L1D TRANSLATION  ACCESS:      24457 HIT:       1065 MISS:      23392
cpu0_L1D PREFETCH REQUESTED:          0 ISSUED:          0 USEFUL:          0 USELESS:          0
cpu0_L1D AVERAGE MISS LATENCY: 89.41 cycles
cpu0_L1I TOTAL        ACCESS:    5658230 HIT:    4852910 MISS:     805320
cpu0_L1I LOAD         ACCESS:    5658230 HIT:    4852910 MISS:     805320
cpu0_L1I RFO          ACCESS:          0 HIT:          0 MISS:          0
cpu0_L1I PREFETCH     ACCESS:          0 HIT:          0 MISS:          0
cpu0_L1I WRITE        ACCESS:          0 HIT:          0 MISS:          0
cpu0_L1I TRANSLATION  ACCESS:          0 HIT:          0 MISS:          0
cpu0_L1I PREFETCH REQUESTED:          0 ISSUED:          0 USEFUL:          0 USELESS:          0
cpu0_L1I AVERAGE MISS LATENCY: 11.62 cycles
cpu0_L2C TOTAL        ACCESS:    1667833 HIT:    1210740 MISS:     457093
cpu0_L2C LOAD         ACCESS:    1315257 HIT:     911599 MISS:     403658
cpu0_L2C RFO          ACCESS:      89595 HIT:      57085 MISS:      32510
cpu0_L2C PREFETCH     ACCESS:          0 HIT:          0 MISS:          0
cpu0_L2C WRITE        ACCESS:     239663 HIT:     237841 MISS:       1822
cpu0_L2C TRANSLATION  ACCESS:      23318 HIT:       4215 MISS:      19103
cpu0_L2C PREFETCH REQUESTED:          0 ISSUED:          0 USEFUL:          0 USELESS:          0
cpu0_L2C AVERAGE MISS LATENCY: 368 cycles
cpu0_STLB TOTAL        ACCESS:     509117 HIT:     486332 MISS:      22785
cpu0_STLB LOAD         ACCESS:     509117 HIT:     486332 MISS:      22785
cpu0_STLB RFO          ACCESS:          0 HIT:          0 MISS:          0
cpu0_STLB PREFETCH     ACCESS:          0 HIT:          0 MISS:          0
cpu0_STLB WRITE        ACCESS:          0 HIT:          0 MISS:          0
cpu0_STLB TRANSLATION  ACCESS:          0 HIT:          0 MISS:          0
cpu0_STLB PREFETCH REQUESTED:          0 ISSUED:          0 USEFUL:          0 USELESS:          0
cpu0_STLB AVERAGE MISS LATENCY: 371.6 cycles

DRAM Statistics

Channel 0 RQ ROW_BUFFER_HIT:      53571
  ROW_BUFFER_MISS:     214607
 AVG DBUS CONGESTED CYCLE: 3.853
WQ ROW_BUFFER_HIT: Channel 0 
  ROW_BUFFER_MISS:       5136
  FULL:      35046
