WARNING: physical memory size is smaller than virtual memory size.

*** ChampSim Multicore Out-of-Order Simulator ***
Warmup Instructions: 50000000
Simulation Instructions: 600000000
Number of CPUs: 1
Page size: 4096

Off-chip DRAM Size: 4 GiB Channels: 1 Width: 64-bit Data Race: 3200 MT/s
Heartbeat CPU 0 instructions: 10000001 cycles: 2500318 heartbeat IPC: 3.999 cumulative IPC: 3.999 (Simulation time: 00 hr 00 min 52 sec)
Heartbeat CPU 0 instructions: 20000002 cycles: 5037110 heartbeat IPC: 3.942 cumulative IPC: 3.971 (Simulation time: 00 hr 01 min 46 sec)
Heartbeat CPU 0 instructions: 30000002 cycles: 7537110 heartbeat IPC: 4 cumulative IPC: 3.98 (Simulation time: 00 hr 02 min 34 sec)
Heartbeat CPU 0 instructions: 40000002 cycles: 10037110 heartbeat IPC: 4 cumulative IPC: 3.985 (Simulation time: 00 hr 03 min 22 sec)
Heartbeat CPU 0 instructions: 50000002 cycles: 12537110 heartbeat IPC: 4 cumulative IPC: 3.988 (Simulation time: 00 hr 04 min 08 sec)
Warmup finished CPU 0 instructions: 50000002 cycles: 12537111 cumulative IPC: 3.988 (Simulation time: 00 hr 04 min 08 sec)
Warmup complete CPU 0 instructions: 50000002 cycles: 12537111 cumulative IPC: 3.988 (Simulation time: 00 hr 04 min 08 sec)
Heartbeat CPU 0 instructions: 60000000 cycles: 17707820 heartbeat IPC: 1.934 cumulative IPC: 1.934 (Simulation time: 00 hr 05 min 17 sec)
Heartbeat CPU 0 instructions: 70000002 cycles: 22605168 heartbeat IPC: 2.042 cumulative IPC: 1.986 (Simulation time: 00 hr 06 min 27 sec)
Heartbeat CPU 0 instructions: 80000001 cycles: 27971264 heartbeat IPC: 1.864 cumulative IPC: 1.944 (Simulation time: 00 hr 07 min 44 sec)
Heartbeat CPU 0 instructions: 90000001 cycles: 32852564 heartbeat IPC: 2.049 cumulative IPC: 1.969 (Simulation time: 00 hr 09 min 11 sec)
Heartbeat CPU 0 instructions: 100000000 cycles: 37969416 heartbeat IPC: 1.954 cumulative IPC: 1.966 (Simulation time: 00 hr 10 min 34 sec)
Heartbeat CPU 0 instructions: 110000000 cycles: 42860819 heartbeat IPC: 2.044 cumulative IPC: 1.979 (Simulation time: 00 hr 11 min 45 sec)
Heartbeat CPU 0 instructions: 120000001 cycles: 48050067 heartbeat IPC: 1.927 cumulative IPC: 1.971 (Simulation time: 00 hr 12 min 54 sec)
Heartbeat CPU 0 instructions: 130000001 cycles: 53205403 heartbeat IPC: 1.94 cumulative IPC: 1.967 (Simulation time: 00 hr 14 min 02 sec)
Heartbeat CPU 0 instructions: 140000001 cycles: 58518190 heartbeat IPC: 1.882 cumulative IPC: 1.957 (Simulation time: 00 hr 15 min 09 sec)
Heartbeat CPU 0 instructions: 150000001 cycles: 63844245 heartbeat IPC: 1.878 cumulative IPC: 1.949 (Simulation time: 00 hr 16 min 18 sec)
Heartbeat CPU 0 instructions: 160000004 cycles: 69051607 heartbeat IPC: 1.92 cumulative IPC: 1.946 (Simulation time: 00 hr 17 min 24 sec)
Heartbeat CPU 0 instructions: 170000000 cycles: 79145759 heartbeat IPC: 0.9907 cumulative IPC: 1.802 (Simulation time: 00 hr 19 min 05 sec)
Heartbeat CPU 0 instructions: 180000004 cycles: 89673108 heartbeat IPC: 0.9499 cumulative IPC: 1.685 (Simulation time: 00 hr 20 min 52 sec)
Heartbeat CPU 0 instructions: 190000001 cycles: 100307901 heartbeat IPC: 0.9403 cumulative IPC: 1.595 (Simulation time: 00 hr 22 min 50 sec)
Heartbeat CPU 0 instructions: 200000003 cycles: 105074699 heartbeat IPC: 2.098 cumulative IPC: 1.621 (Simulation time: 00 hr 24 min 06 sec)
Heartbeat CPU 0 instructions: 210000001 cycles: 109996106 heartbeat IPC: 2.032 cumulative IPC: 1.642 (Simulation time: 00 hr 25 min 18 sec)
Heartbeat CPU 0 instructions: 220000000 cycles: 114829779 heartbeat IPC: 2.069 cumulative IPC: 1.662 (Simulation time: 00 hr 26 min 26 sec)
Heartbeat CPU 0 instructions: 230000002 cycles: 120146080 heartbeat IPC: 1.881 cumulative IPC: 1.673 (Simulation time: 00 hr 27 min 34 sec)
Heartbeat CPU 0 instructions: 240000000 cycles: 124988680 heartbeat IPC: 2.065 cumulative IPC: 1.69 (Simulation time: 00 hr 28 min 37 sec)
Heartbeat CPU 0 instructions: 250000000 cycles: 130140906 heartbeat IPC: 1.941 cumulative IPC: 1.701 (Simulation time: 00 hr 29 min 42 sec)
Heartbeat CPU 0 instructions: 260000000 cycles: 135162122 heartbeat IPC: 1.992 cumulative IPC: 1.713 (Simulation time: 00 hr 30 min 50 sec)
Heartbeat CPU 0 instructions: 270000002 cycles: 140053623 heartbeat IPC: 2.044 cumulative IPC: 1.725 (Simulation time: 00 hr 31 min 56 sec)
Heartbeat CPU 0 instructions: 280000002 cycles: 144964967 heartbeat IPC: 2.036 cumulative IPC: 1.737 (Simulation time: 00 hr 33 min 00 sec)
Heartbeat CPU 0 instructions: 290000001 cycles: 150330429 heartbeat IPC: 1.864 cumulative IPC: 1.742 (Simulation time: 00 hr 34 min 10 sec)
Heartbeat CPU 0 instructions: 300000003 cycles: 155384997 heartbeat IPC: 1.978 cumulative IPC: 1.75 (Simulation time: 00 hr 35 min 20 sec)
Heartbeat CPU 0 instructions: 310000001 cycles: 160678537 heartbeat IPC: 1.889 cumulative IPC: 1.755 (Simulation time: 00 hr 36 min 43 sec)
Heartbeat CPU 0 instructions: 320000003 cycles: 165884445 heartbeat IPC: 1.921 cumulative IPC: 1.761 (Simulation time: 00 hr 38 min 07 sec)
Heartbeat CPU 0 instructions: 330000003 cycles: 171182756 heartbeat IPC: 1.887 cumulative IPC: 1.765 (Simulation time: 00 hr 39 min 28 sec)
Heartbeat CPU 0 instructions: 340000000 cycles: 181433384 heartbeat IPC: 0.9755 cumulative IPC: 1.717 (Simulation time: 00 hr 41 min 33 sec)
Heartbeat CPU 0 instructions: 350000000 cycles: 192533228 heartbeat IPC: 0.9009 cumulative IPC: 1.667 (Simulation time: 00 hr 43 min 35 sec)
Heartbeat CPU 0 instructions: 360000004 cycles: 203168341 heartbeat IPC: 0.9403 cumulative IPC: 1.626 (Simulation time: 00 hr 45 min 24 sec)
Heartbeat CPU 0 instructions: 370000000 cycles: 207580682 heartbeat IPC: 2.266 cumulative IPC: 1.641 (Simulation time: 00 hr 46 min 26 sec)
Heartbeat CPU 0 instructions: 380000001 cycles: 212499413 heartbeat IPC: 2.033 cumulative IPC: 1.65 (Simulation time: 00 hr 47 min 31 sec)
Heartbeat CPU 0 instructions: 390000002 cycles: 217323283 heartbeat IPC: 2.073 cumulative IPC: 1.66 (Simulation time: 00 hr 48 min 34 sec)
Heartbeat CPU 0 instructions: 400000004 cycles: 222260491 heartbeat IPC: 2.025 cumulative IPC: 1.669 (Simulation time: 00 hr 49 min 37 sec)
Heartbeat CPU 0 instructions: 410000000 cycles: 226987028 heartbeat IPC: 2.116 cumulative IPC: 1.679 (Simulation time: 00 hr 50 min 41 sec)
Heartbeat CPU 0 instructions: 420000000 cycles: 232102074 heartbeat IPC: 1.955 cumulative IPC: 1.685 (Simulation time: 00 hr 51 min 46 sec)
Heartbeat CPU 0 instructions: 430000001 cycles: 236561404 heartbeat IPC: 2.242 cumulative IPC: 1.696 (Simulation time: 00 hr 52 min 58 sec)
Heartbeat CPU 0 instructions: 440000000 cycles: 241912164 heartbeat IPC: 1.869 cumulative IPC: 1.7 (Simulation time: 00 hr 54 min 30 sec)
Heartbeat CPU 0 instructions: 450000002 cycles: 246582547 heartbeat IPC: 2.141 cumulative IPC: 1.709 (Simulation time: 00 hr 55 min 47 sec)
Heartbeat CPU 0 instructions: 460000000 cycles: 251375225 heartbeat IPC: 2.087 cumulative IPC: 1.717 (Simulation time: 00 hr 56 min 59 sec)
Heartbeat CPU 0 instructions: 470000000 cycles: 256352708 heartbeat IPC: 2.009 cumulative IPC: 1.723 (Simulation time: 00 hr 58 min 09 sec)
Heartbeat CPU 0 instructions: 480000003 cycles: 261138120 heartbeat IPC: 2.09 cumulative IPC: 1.73 (Simulation time: 00 hr 59 min 19 sec)
Heartbeat CPU 0 instructions: 490000000 cycles: 265746913 heartbeat IPC: 2.17 cumulative IPC: 1.738 (Simulation time: 01 hr 00 min 34 sec)
Heartbeat CPU 0 instructions: 500000000 cycles: 270767088 heartbeat IPC: 1.992 cumulative IPC: 1.743 (Simulation time: 01 hr 01 min 50 sec)
Heartbeat CPU 0 instructions: 510000003 cycles: 276380387 heartbeat IPC: 1.781 cumulative IPC: 1.743 (Simulation time: 01 hr 03 min 07 sec)
Heartbeat CPU 0 instructions: 520000001 cycles: 281068600 heartbeat IPC: 2.133 cumulative IPC: 1.75 (Simulation time: 01 hr 04 min 15 sec)
Heartbeat CPU 0 instructions: 530000002 cycles: 286204717 heartbeat IPC: 1.947 cumulative IPC: 1.754 (Simulation time: 01 hr 05 min 24 sec)
Heartbeat CPU 0 instructions: 540000000 cycles: 291322754 heartbeat IPC: 1.954 cumulative IPC: 1.758 (Simulation time: 01 hr 06 min 33 sec)
Heartbeat CPU 0 instructions: 550000001 cycles: 296130111 heartbeat IPC: 2.08 cumulative IPC: 1.763 (Simulation time: 01 hr 07 min 40 sec)
Heartbeat CPU 0 instructions: 560000000 cycles: 301342536 heartbeat IPC: 1.918 cumulative IPC: 1.766 (Simulation time: 01 hr 08 min 48 sec)
Heartbeat CPU 0 instructions: 570000004 cycles: 308424855 heartbeat IPC: 1.412 cumulative IPC: 1.757 (Simulation time: 01 hr 10 min 14 sec)
Heartbeat CPU 0 instructions: 580000003 cycles: 319959169 heartbeat IPC: 0.867 cumulative IPC: 1.724 (Simulation time: 01 hr 12 min 16 sec)
Heartbeat CPU 0 instructions: 590000002 cycles: 333083474 heartbeat IPC: 0.7619 cumulative IPC: 1.685 (Simulation time: 01 hr 14 min 29 sec)
Heartbeat CPU 0 instructions: 600000000 cycles: 337648144 heartbeat IPC: 2.191 cumulative IPC: 1.692 (Simulation time: 01 hr 15 min 34 sec)
Heartbeat CPU 0 instructions: 610000002 cycles: 342137018 heartbeat IPC: 2.228 cumulative IPC: 1.699 (Simulation time: 01 hr 16 min 38 sec)
Heartbeat CPU 0 instructions: 620000000 cycles: 346943065 heartbeat IPC: 2.081 cumulative IPC: 1.705 (Simulation time: 01 hr 17 min 48 sec)
Heartbeat CPU 0 instructions: 630000002 cycles: 352028323 heartbeat IPC: 1.966 cumulative IPC: 1.708 (Simulation time: 01 hr 18 min 52 sec)
Heartbeat CPU 0 instructions: 640000001 cycles: 356880243 heartbeat IPC: 2.061 cumulative IPC: 1.713 (Simulation time: 01 hr 19 min 58 sec)
Heartbeat CPU 0 instructions: 650000000 cycles: 361437993 heartbeat IPC: 2.194 cumulative IPC: 1.72 (Simulation time: 01 hr 21 min 00 sec)
Simulation finished CPU 0 instructions: 600000001 cycles: 348900884 cumulative IPC: 1.72 (Simulation time: 01 hr 21 min 00 sec)
Simulation complete CPU 0 instructions: 600000001 cycles: 348900884 cumulative IPC: 1.72 (Simulation time: 01 hr 21 min 00 sec)

ChampSim completed all CPUs

=== Simulation ===
CPU 0 runs traces/400.perlbench-41B.champsimtrace.xz
Region of Interest Statistics

CPU 0 cumulative IPC: 1.72 instructions: 600000001 cycles: 348900884
CPU 0 Branch Prediction Accuracy: 93.95% MPKI: 12.5 Average ROB Occupancy at Mispredict: 29.67
Branch type MPKI
BRANCH_DIRECT_JUMP: 0.0123
BRANCH_INDIRECT: 0.323
BRANCH_CONDITIONAL: 12
BRANCH_DIRECT_CALL: 0.0043
BRANCH_INDIRECT_CALL: 0.2
BRANCH_RETURN: 0.00828

LLC TOTAL        ACCESS:     594920 HIT:     321131 MISS:     273789
LLC LOAD         ACCESS:     403180 HIT:     183509 MISS:     219671
LLC RFO          ACCESS:      32564 HIT:      16580 MISS:      15984
LLC PREFETCH     ACCESS:      54614 HIT:      26972 MISS:      27642
LLC WRITE        ACCESS:      85558 HIT:      85211 MISS:        347
LLC TRANSLATION  ACCESS:      19004 HIT:       8859 MISS:      10145
LLC PREFETCH REQUESTED:      54614 ISSUED:      54614 USEFUL:      17251 USELESS:       6896
LLC AVERAGE MISS LATENCY: 571 cycles
cpu0_DTLB TOTAL        ACCESS:  153678227 HIT:  153000333 MISS:     677894
cpu0_DTLB LOAD         ACCESS:  153678227 HIT:  153000333 MISS:     677894
cpu0_DTLB RFO          ACCESS:          0 HIT:          0 MISS:          0
cpu0_DTLB PREFETCH     ACCESS:          0 HIT:          0 MISS:          0
cpu0_DTLB WRITE        ACCESS:          0 HIT:          0 MISS:          0
cpu0_DTLB TRANSLATION  ACCESS:          0 HIT:          0 MISS:          0
cpu0_DTLB PREFETCH REQUESTED:          0 ISSUED:          0 USEFUL:          0 USELESS:          0
cpu0_DTLB AVERAGE MISS LATENCY: 15.71 cycles
cpu0_ITLB TOTAL        ACCESS:    4837020 HIT:    4779171 MISS:      57849
cpu0_ITLB LOAD         ACCESS:    4837020 HIT:    4779171 MISS:      57849
cpu0_ITLB RFO          ACCESS:          0 HIT:          0 MISS:          0
cpu0_ITLB PREFETCH     ACCESS:          0 HIT:          0 MISS:          0
cpu0_ITLB WRITE        ACCESS:          0 HIT:          0 MISS:          0
cpu0_ITLB TRANSLATION  ACCESS:          0 HIT:          0 MISS:          0
cpu0_ITLB PREFETCH REQUESTED:          0 ISSUED:          0 USEFUL:          0 USELESS:          0
cpu0_ITLB AVERAGE MISS LATENCY: 7.419 cycles
cpu0_L1D TOTAL        ACCESS:  200286204 HIT:  198552710 MISS:    1733494
cpu0_L1D LOAD         ACCESS:  117043870 HIT:  115695042 MISS:    1348828
cpu0_L1D RFO          ACCESS:          0 HIT:          0 MISS:          0
cpu0_L1D PREFETCH     ACCESS:          0 HIT:          0 MISS:          0
cpu0_L1D WRITE        ACCESS:   83217870 HIT:   82856630 MISS:     361240
cpu0_L1D TRANSLATION  ACCESS:      24464 HIT:       1038 MISS:      23426
cpu0_L1D PREFETCH REQUESTED:          0 ISSUED:          0 USEFUL:          0 USELESS:          0
cpu0_L1D AVERAGE MISS LATENCY: 85.52 cycles
cpu0_L1I TOTAL        ACCESS:    5579510 HIT:    4817912 MISS:     761598
cpu0_L1I LOAD         ACCESS:    5579510 HIT:    4817912 MISS:     761598
cpu0_L1I RFO          ACCESS:          0 HIT:          0 MISS:          0
cpu0_L1I PREFETCH     ACCESS:          0 HIT:          0 MISS:          0
cpu0_L1I WRITE        ACCESS:          0 HIT:          0 MISS:          0
cpu0_L1I TRANSLATION  ACCESS:          0 HIT:          0 MISS:          0
cpu0_L1I PREFETCH REQUESTED:          0 ISSUED:          0 USEFUL:          0 USELESS:          0
cpu0_L1I AVERAGE MISS LATENCY: 12.52 cycles
cpu0_L2C TOTAL        ACCESS:    1667895 HIT:    1211365 MISS:     456530
cpu0_L2C LOAD         ACCESS:    1317037 HIT:     913857 MISS:     403180
cpu0_L2C RFO          ACCESS:      88638 HIT:      56074 MISS:      32564
cpu0_L2C PREFETCH     ACCESS:          0 HIT:          0 MISS:          0
cpu0_L2C WRITE        ACCESS:     238875 HIT:     237093 MISS:       1782
cpu0_L2C TRANSLATION  ACCESS:      23345 HIT:       4341 MISS:      19004
cpu0_L2C PREFETCH REQUESTED:          0 ISSUED:          0 USEFUL:          0 USELESS:          0
cpu0_L2C AVERAGE MISS LATENCY: 324.8 cycles
cpu0_STLB TOTAL        ACCESS:     505207 HIT:     482417 MISS:      22790
cpu0_STLB LOAD         ACCESS:     505207 HIT:     482417 MISS:      22790
cpu0_STLB RFO          ACCESS:          0 HIT:          0 MISS:          0
cpu0_STLB PREFETCH     ACCESS:          0 HIT:          0 MISS:          0
cpu0_STLB WRITE        ACCESS:          0 HIT:          0 MISS:          0
cpu0_STLB TRANSLATION  ACCESS:          0 HIT:          0 MISS:          0
cpu0_STLB PREFETCH REQUESTED:          0 ISSUED:          0 USEFUL:          0 USELESS:          0
cpu0_STLB AVERAGE MISS LATENCY: 346.3 cycles

DRAM Statistics

Channel 0 RQ ROW_BUFFER_HIT:      47351
  ROW_BUFFER_MISS:     220933
 AVG DBUS CONGESTED CYCLE: 3.821
WQ ROW_BUFFER_HIT: Channel 0 
  ROW_BUFFER_MISS:       7567
  FULL:      33183
