WARNING: physical memory size is smaller than virtual memory size.

*** ChampSim Multicore Out-of-Order Simulator ***
Warmup Instructions: 50000000
Simulation Instructions: 600000000
Number of CPUs: 1
Page size: 4096

Off-chip DRAM Size: 4 GiB Channels: 1 Width: 64-bit Data Race: 3200 MT/s
Heartbeat CPU 0 instructions: 10000000 cycles: 2500061 heartbeat IPC: 4 cumulative IPC: 4 (Simulation time: 00 hr 00 min 27 sec)
Heartbeat CPU 0 instructions: 20000000 cycles: 5000061 heartbeat IPC: 4 cumulative IPC: 4 (Simulation time: 00 hr 00 min 57 sec)
Heartbeat CPU 0 instructions: 30000000 cycles: 7500061 heartbeat IPC: 4 cumulative IPC: 4 (Simulation time: 00 hr 01 min 31 sec)
Heartbeat CPU 0 instructions: 40000000 cycles: 10000061 heartbeat IPC: 4 cumulative IPC: 4 (Simulation time: 00 hr 02 min 08 sec)
Heartbeat CPU 0 instructions: 50000000 cycles: 12500061 heartbeat IPC: 4 cumulative IPC: 4 (Simulation time: 00 hr 02 min 46 sec)
Warmup finished CPU 0 instructions: 50000000 cycles: 12500062 cumulative IPC: 4 (Simulation time: 00 hr 02 min 46 sec)
Warmup complete CPU 0 instructions: 50000000 cycles: 12500062 cumulative IPC: 4 (Simulation time: 00 hr 02 min 46 sec)
Heartbeat CPU 0 instructions: 60000002 cycles: 16444688 heartbeat IPC: 2.535 cumulative IPC: 2.535 (Simulation time: 00 hr 03 min 37 sec)
Heartbeat CPU 0 instructions: 70000003 cycles: 20760893 heartbeat IPC: 2.317 cumulative IPC: 2.421 (Simulation time: 00 hr 04 min 29 sec)
Heartbeat CPU 0 instructions: 80000003 cycles: 25229157 heartbeat IPC: 2.238 cumulative IPC: 2.357 (Simulation time: 00 hr 05 min 22 sec)
Heartbeat CPU 0 instructions: 90000000 cycles: 28920814 heartbeat IPC: 2.709 cumulative IPC: 2.436 (Simulation time: 00 hr 06 min 12 sec)
Heartbeat CPU 0 instructions: 100000003 cycles: 32818788 heartbeat IPC: 2.565 cumulative IPC: 2.461 (Simulation time: 00 hr 07 min 04 sec)
Heartbeat CPU 0 instructions: 110000002 cycles: 36920325 heartbeat IPC: 2.438 cumulative IPC: 2.457 (Simulation time: 00 hr 07 min 51 sec)
Heartbeat CPU 0 instructions: 120000001 cycles: 40635683 heartbeat IPC: 2.692 cumulative IPC: 2.488 (Simulation time: 00 hr 08 min 36 sec)
Heartbeat CPU 0 instructions: 130000003 cycles: 44404658 heartbeat IPC: 2.653 cumulative IPC: 2.507 (Simulation time: 00 hr 09 min 20 sec)
Heartbeat CPU 0 instructions: 140000002 cycles: 48538024 heartbeat IPC: 2.419 cumulative IPC: 2.497 (Simulation time: 00 hr 10 min 06 sec)
Heartbeat CPU 0 instructions: 150000001 cycles: 52589949 heartbeat IPC: 2.468 cumulative IPC: 2.494 (Simulation time: 00 hr 10 min 51 sec)
Heartbeat CPU 0 instructions: 160000000 cycles: 56247531 heartbeat IPC: 2.734 cumulative IPC: 2.514 (Simulation time: 00 hr 11 min 35 sec)
Heartbeat CPU 0 instructions: 170000001 cycles: 60421737 heartbeat IPC: 2.396 cumulative IPC: 2.504 (Simulation time: 00 hr 12 min 24 sec)
Heartbeat CPU 0 instructions: 180000001 cycles: 63882371 heartbeat IPC: 2.89 cumulative IPC: 2.53 (Simulation time: 00 hr 13 min 08 sec)
Heartbeat CPU 0 instructions: 190000002 cycles: 67465761 heartbeat IPC: 2.791 cumulative IPC: 2.547 (Simulation time: 00 hr 13 min 52 sec)
Heartbeat CPU 0 instructions: 200000002 cycles: 71249161 heartbeat IPC: 2.643 cumulative IPC: 2.553 (Simulation time: 00 hr 14 min 36 sec)
Heartbeat CPU 0 instructions: 210000000 cycles: 74888079 heartbeat IPC: 2.748 cumulative IPC: 2.565 (Simulation time: 00 hr 15 min 20 sec)
Heartbeat CPU 0 instructions: 220000001 cycles: 78754029 heartbeat IPC: 2.587 cumulative IPC: 2.566 (Simulation time: 00 hr 16 min 05 sec)
Heartbeat CPU 0 instructions: 230000002 cycles: 82594747 heartbeat IPC: 2.604 cumulative IPC: 2.568 (Simulation time: 00 hr 16 min 50 sec)
Heartbeat CPU 0 instructions: 240000001 cycles: 86801493 heartbeat IPC: 2.377 cumulative IPC: 2.557 (Simulation time: 00 hr 17 min 38 sec)
Heartbeat CPU 0 instructions: 250000003 cycles: 91366485 heartbeat IPC: 2.191 cumulative IPC: 2.536 (Simulation time: 00 hr 18 min 26 sec)
Heartbeat CPU 0 instructions: 260000000 cycles: 95159478 heartbeat IPC: 2.636 cumulative IPC: 2.541 (Simulation time: 00 hr 19 min 10 sec)
Heartbeat CPU 0 instructions: 270000003 cycles: 102284498 heartbeat IPC: 1.404 cumulative IPC: 2.45 (Simulation time: 00 hr 20 min 13 sec)
Heartbeat CPU 0 instructions: 280000000 cycles: 113058774 heartbeat IPC: 0.9281 cumulative IPC: 2.287 (Simulation time: 00 hr 21 min 41 sec)
Heartbeat CPU 0 instructions: 290000000 cycles: 123123587 heartbeat IPC: 0.9936 cumulative IPC: 2.17 (Simulation time: 00 hr 23 min 03 sec)
Heartbeat CPU 0 instructions: 300000003 cycles: 130590702 heartbeat IPC: 1.339 cumulative IPC: 2.117 (Simulation time: 00 hr 24 min 12 sec)
Heartbeat CPU 0 instructions: 310000004 cycles: 141367010 heartbeat IPC: 0.928 cumulative IPC: 2.018 (Simulation time: 00 hr 25 min 40 sec)
Heartbeat CPU 0 instructions: 320000004 cycles: 146435209 heartbeat IPC: 1.973 cumulative IPC: 2.016 (Simulation time: 00 hr 26 min 35 sec)
Heartbeat CPU 0 instructions: 330000000 cycles: 150513592 heartbeat IPC: 2.452 cumulative IPC: 2.029 (Simulation time: 00 hr 27 min 21 sec)
Heartbeat CPU 0 instructions: 340000001 cycles: 154832357 heartbeat IPC: 2.315 cumulative IPC: 2.037 (Simulation time: 00 hr 28 min 09 sec)
Heartbeat CPU 0 instructions: 350000004 cycles: 159294398 heartbeat IPC: 2.241 cumulative IPC: 2.044 (Simulation time: 00 hr 28 min 57 sec)
Heartbeat CPU 0 instructions: 360000003 cycles: 163453944 heartbeat IPC: 2.404 cumulative IPC: 2.054 (Simulation time: 00 hr 29 min 44 sec)
Heartbeat CPU 0 instructions: 370000001 cycles: 167511565 heartbeat IPC: 2.464 cumulative IPC: 2.064 (Simulation time: 00 hr 30 min 31 sec)
Heartbeat CPU 0 instructions: 380000004 cycles: 171420607 heartbeat IPC: 2.558 cumulative IPC: 2.077 (Simulation time: 00 hr 31 min 18 sec)
Heartbeat CPU 0 instructions: 390000002 cycles: 175495023 heartbeat IPC: 2.454 cumulative IPC: 2.086 (Simulation time: 00 hr 32 min 05 sec)
Heartbeat CPU 0 instructions: 400000000 cycles: 179864565 heartbeat IPC: 2.289 cumulative IPC: 2.091 (Simulation time: 00 hr 32 min 53 sec)
Heartbeat CPU 0 instructions: 410000000 cycles: 187460198 heartbeat IPC: 1.317 cumulative IPC: 2.058 (Simulation time: 00 hr 33 min 59 sec)
Heartbeat CPU 0 instructions: 420000003 cycles: 198674527 heartbeat IPC: 0.8917 cumulative IPC: 1.987 (Simulation time: 00 hr 35 min 28 sec)
Heartbeat CPU 0 instructions: 430000000 cycles: 206430647 heartbeat IPC: 1.289 cumulative IPC: 1.959 (Simulation time: 00 hr 36 min 40 sec)
Heartbeat CPU 0 instructions: 440000004 cycles: 213162004 heartbeat IPC: 1.486 cumulative IPC: 1.944 (Simulation time: 00 hr 37 min 44 sec)
Heartbeat CPU 0 instructions: 450000001 cycles: 220039679 heartbeat IPC: 1.454 cumulative IPC: 1.927 (Simulation time: 00 hr 38 min 49 sec)
Heartbeat CPU 0 instructions: 460000002 cycles: 230890053 heartbeat IPC: 0.9216 cumulative IPC: 1.877 (Simulation time: 00 hr 40 min 16 sec)
Heartbeat CPU 0 instructions: 470000003 cycles: 240090368 heartbeat IPC: 1.087 cumulative IPC: 1.845 (Simulation time: 00 hr 41 min 34 sec)
Heartbeat CPU 0 instructions: 480000003 cycles: 244383599 heartbeat IPC: 2.329 cumulative IPC: 1.854 (Simulation time: 00 hr 42 min 22 sec)
Heartbeat CPU 0 instructions: 490000001 cycles: 249133051 heartbeat IPC: 2.106 cumulative IPC: 1.859 (Simulation time: 00 hr 43 min 13 sec)
Heartbeat CPU 0 instructions: 500000002 cycles: 253602594 heartbeat IPC: 2.237 cumulative IPC: 1.866 (Simulation time: 00 hr 44 min 03 sec)
Heartbeat CPU 0 instructions: 510000000 cycles: 257881143 heartbeat IPC: 2.337 cumulative IPC: 1.875 (Simulation time: 00 hr 44 min 51 sec)
Heartbeat CPU 0 instructions: 520000000 cycles: 262343005 heartbeat IPC: 2.241 cumulative IPC: 1.881 (Simulation time: 00 hr 45 min 40 sec)
Heartbeat CPU 0 instructions: 530000001 cycles: 273841719 heartbeat IPC: 0.8697 cumulative IPC: 1.837 (Simulation time: 00 hr 47 min 09 sec)
Heartbeat CPU 0 instructions: 540000000 cycles: 285026963 heartbeat IPC: 0.894 cumulative IPC: 1.798 (Simulation time: 00 hr 48 min 40 sec)
Heartbeat CPU 0 instructions: 550000004 cycles: 297576533 heartbeat IPC: 0.7968 cumulative IPC: 1.754 (Simulation time: 00 hr 50 min 17 sec)
Heartbeat CPU 0 instructions: 560000004 cycles: 301761931 heartbeat IPC: 2.389 cumulative IPC: 1.763 (Simulation time: 00 hr 51 min 05 sec)
Heartbeat CPU 0 instructions: 570000001 cycles: 304891457 heartbeat IPC: 3.195 cumulative IPC: 1.778 (Simulation time: 00 hr 51 min 48 sec)
Heartbeat CPU 0 instructions: 580000003 cycles: 308438561 heartbeat IPC: 2.819 cumulative IPC: 1.791 (Simulation time: 00 hr 52 min 31 sec)
Heartbeat CPU 0 instructions: 590000002 cycles: 312066467 heartbeat IPC: 2.756 cumulative IPC: 1.803 (Simulation time: 00 hr 53 min 14 sec)
Heartbeat CPU 0 instructions: 600000003 cycles: 315132463 heartbeat IPC: 3.262 cumulative IPC: 1.817 (Simulation time: 00 hr 53 min 57 sec)
Heartbeat CPU 0 instructions: 610000001 cycles: 318641741 heartbeat IPC: 2.85 cumulative IPC: 1.829 (Simulation time: 00 hr 54 min 39 sec)
Heartbeat CPU 0 instructions: 620000000 cycles: 322660604 heartbeat IPC: 2.488 cumulative IPC: 1.838 (Simulation time: 00 hr 55 min 22 sec)
Heartbeat CPU 0 instructions: 630000002 cycles: 326028758 heartbeat IPC: 2.969 cumulative IPC: 1.85 (Simulation time: 00 hr 56 min 02 sec)
Heartbeat CPU 0 instructions: 640000004 cycles: 330042731 heartbeat IPC: 2.491 cumulative IPC: 1.858 (Simulation time: 00 hr 56 min 41 sec)
Heartbeat CPU 0 instructions: 650000001 cycles: 333869597 heartbeat IPC: 2.613 cumulative IPC: 1.867 (Simulation time: 00 hr 57 min 19 sec)
Simulation finished CPU 0 instructions: 600000001 cycles: 321369536 cumulative IPC: 1.867 (Simulation time: 00 hr 57 min 19 sec)
Simulation complete CPU 0 instructions: 600000001 cycles: 321369536 cumulative IPC: 1.867 (Simulation time: 00 hr 57 min 19 sec)

ChampSim completed all CPUs

=== Simulation ===
CPU 0 runs traces/400.perlbench-50B.champsimtrace.xz
Region of Interest Statistics

CPU 0 cumulative IPC: 1.867 instructions: 600000001 cycles: 321369536
CPU 0 Branch Prediction Accuracy: 96.2% MPKI: 7.839 Average ROB Occupancy at Mispredict: 43.68
Branch type MPKI
BRANCH_DIRECT_JUMP: 0.0176
BRANCH_INDIRECT: 0.38
BRANCH_CONDITIONAL: 6.99
BRANCH_DIRECT_CALL: 0.0067
BRANCH_INDIRECT_CALL: 0.431
BRANCH_RETURN: 0.0161

LLC TOTAL        ACCESS:     838940 HIT:     526405 MISS:     312535
LLC LOAD         ACCESS:     577651 HIT:     324867 MISS:     252784
LLC RFO          ACCESS:      47472 HIT:      28632 MISS:      18840
LLC PREFETCH     ACCESS:      64501 HIT:      35960 MISS:      28541
LLC WRITE        ACCESS:     127181 HIT:     126919 MISS:        262
LLC TRANSLATION  ACCESS:      22135 HIT:      10027 MISS:      12108
LLC PREFETCH REQUESTED:      64501 ISSUED:      64501 USEFUL:      17725 USELESS:       6855
LLC AVERAGE MISS LATENCY: 542.7 cycles
cpu0_DTLB TOTAL        ACCESS:  146513297 HIT:  145207318 MISS:    1305979
cpu0_DTLB LOAD         ACCESS:  146513297 HIT:  145207318 MISS:    1305979
cpu0_DTLB RFO          ACCESS:          0 HIT:          0 MISS:          0
cpu0_DTLB PREFETCH     ACCESS:          0 HIT:          0 MISS:          0
cpu0_DTLB WRITE        ACCESS:          0 HIT:          0 MISS:          0
cpu0_DTLB TRANSLATION  ACCESS:          0 HIT:          0 MISS:          0
cpu0_DTLB PREFETCH REQUESTED:          0 ISSUED:          0 USEFUL:          0 USELESS:          0
cpu0_DTLB AVERAGE MISS LATENCY: 11.84 cycles
cpu0_ITLB TOTAL        ACCESS:    8990940 HIT:    8806465 MISS:     184475
cpu0_ITLB LOAD         ACCESS:    8990940 HIT:    8806465 MISS:     184475
cpu0_ITLB RFO          ACCESS:          0 HIT:          0 MISS:          0
cpu0_ITLB PREFETCH     ACCESS:          0 HIT:          0 MISS:          0
cpu0_ITLB WRITE        ACCESS:          0 HIT:          0 MISS:          0
cpu0_ITLB TRANSLATION  ACCESS:          0 HIT:          0 MISS:          0
cpu0_ITLB PREFETCH REQUESTED:          0 ISSUED:          0 USEFUL:          0 USELESS:          0
cpu0_ITLB AVERAGE MISS LATENCY: 3.574 cycles
cpu0_L1D TOTAL        ACCESS:  193285755 HIT:  189622784 MISS:    3662971
cpu0_L1D LOAD         ACCESS:  107439752 HIT:  104427312 MISS:    3012440
cpu0_L1D RFO          ACCESS:          0 HIT:          0 MISS:          0
cpu0_L1D PREFETCH     ACCESS:          0 HIT:          0 MISS:          0
cpu0_L1D WRITE        ACCESS:   85817485 HIT:   85194048 MISS:     623437
cpu0_L1D TRANSLATION  ACCESS:      28518 HIT:       1424 MISS:      27094
cpu0_L1D PREFETCH REQUESTED:          0 ISSUED:          0 USEFUL:          0 USELESS:          0
cpu0_L1D AVERAGE MISS LATENCY: 46.94 cycles
cpu0_L1I TOTAL        ACCESS:   10425027 HIT:    8662467 MISS:    1762560
cpu0_L1I LOAD         ACCESS:   10425027 HIT:    8662467 MISS:    1762560
cpu0_L1I RFO          ACCESS:          0 HIT:          0 MISS:          0
cpu0_L1I PREFETCH     ACCESS:          0 HIT:          0 MISS:          0
cpu0_L1I WRITE        ACCESS:          0 HIT:          0 MISS:          0
cpu0_L1I TRANSLATION  ACCESS:          0 HIT:          0 MISS:          0
cpu0_L1I PREFETCH REQUESTED:          0 ISSUED:          0 USEFUL:          0 USELESS:          0
cpu0_L1I AVERAGE MISS LATENCY: 11.03 cycles
cpu0_L2C TOTAL        ACCESS:    3834639 HIT:    3184185 MISS:     650454
cpu0_L2C LOAD         ACCESS:    3104955 HIT:    2527304 MISS:     577651
cpu0_L2C RFO          ACCESS:     191558 HIT:     144085 MISS:      47473
cpu0_L2C PREFETCH     ACCESS:          0 HIT:          0 MISS:          0
cpu0_L2C WRITE        ACCESS:     511097 HIT:     507902 MISS:       3195
cpu0_L2C TRANSLATION  ACCESS:      27029 HIT:       4894 MISS:      22135
cpu0_L2C PREFETCH REQUESTED:          0 ISSUED:          0 USEFUL:          0 USELESS:          0
cpu0_L2C AVERAGE MISS LATENCY: 255 cycles
cpu0_STLB TOTAL        ACCESS:    1008394 HIT:     981702 MISS:      26692
cpu0_STLB LOAD         ACCESS:    1008394 HIT:     981702 MISS:      26692
cpu0_STLB RFO          ACCESS:          0 HIT:          0 MISS:          0
cpu0_STLB PREFETCH     ACCESS:          0 HIT:          0 MISS:          0
cpu0_STLB WRITE        ACCESS:          0 HIT:          0 MISS:          0
cpu0_STLB TRANSLATION  ACCESS:          0 HIT:          0 MISS:          0
cpu0_STLB PREFETCH REQUESTED:          0 ISSUED:          0 USEFUL:          0 USELESS:          0
cpu0_STLB AVERAGE MISS LATENCY: 361 cycles

DRAM Statistics

Channel 0 RQ ROW_BUFFER_HIT:      65333
  ROW_BUFFER_MISS:     241956
 AVG DBUS CONGESTED CYCLE: 3.806
WQ ROW_BUFFER_HIT: Channel 0 
  ROW_BUFFER_MISS:       7589
  FULL:      31888
