WARNING: physical memory size is smaller than virtual memory size.

*** ChampSim Multicore Out-of-Order Simulator ***
Warmup Instructions: 50000000
Simulation Instructions: 600000000
Number of CPUs: 1
Page size: 4096

Off-chip DRAM Size: 4 GiB Channels: 1 Width: 64-bit Data Race: 3200 MT/s
Heartbeat CPU 0 instructions: 10000000 cycles: 2500061 heartbeat IPC: 4 cumulative IPC: 4 (Simulation time: 00 hr 00 min 33 sec)
Heartbeat CPU 0 instructions: 20000000 cycles: 5000061 heartbeat IPC: 4 cumulative IPC: 4 (Simulation time: 00 hr 01 min 06 sec)
Heartbeat CPU 0 instructions: 30000000 cycles: 7500061 heartbeat IPC: 4 cumulative IPC: 4 (Simulation time: 00 hr 01 min 37 sec)
Heartbeat CPU 0 instructions: 40000000 cycles: 10000061 heartbeat IPC: 4 cumulative IPC: 4 (Simulation time: 00 hr 02 min 08 sec)
Heartbeat CPU 0 instructions: 50000000 cycles: 12500061 heartbeat IPC: 4 cumulative IPC: 4 (Simulation time: 00 hr 02 min 40 sec)
Warmup finished CPU 0 instructions: 50000000 cycles: 12500062 cumulative IPC: 4 (Simulation time: 00 hr 02 min 40 sec)
Warmup complete CPU 0 instructions: 50000000 cycles: 12500062 cumulative IPC: 4 (Simulation time: 00 hr 02 min 40 sec)
Heartbeat CPU 0 instructions: 60000002 cycles: 16911341 heartbeat IPC: 2.267 cumulative IPC: 2.267 (Simulation time: 00 hr 03 min 25 sec)
Heartbeat CPU 0 instructions: 70000003 cycles: 21897820 heartbeat IPC: 2.005 cumulative IPC: 2.128 (Simulation time: 00 hr 04 min 12 sec)
Heartbeat CPU 0 instructions: 80000001 cycles: 27247190 heartbeat IPC: 1.869 cumulative IPC: 2.034 (Simulation time: 00 hr 04 min 59 sec)
Heartbeat CPU 0 instructions: 90000000 cycles: 31546012 heartbeat IPC: 2.326 cumulative IPC: 2.1 (Simulation time: 00 hr 05 min 43 sec)
Heartbeat CPU 0 instructions: 100000003 cycles: 36406147 heartbeat IPC: 2.058 cumulative IPC: 2.092 (Simulation time: 00 hr 06 min 28 sec)
Heartbeat CPU 0 instructions: 110000002 cycles: 41284204 heartbeat IPC: 2.05 cumulative IPC: 2.084 (Simulation time: 00 hr 07 min 14 sec)
Heartbeat CPU 0 instructions: 120000001 cycles: 46280693 heartbeat IPC: 2.001 cumulative IPC: 2.072 (Simulation time: 00 hr 08 min 02 sec)
Heartbeat CPU 0 instructions: 130000003 cycles: 50851474 heartbeat IPC: 2.188 cumulative IPC: 2.086 (Simulation time: 00 hr 08 min 49 sec)
Heartbeat CPU 0 instructions: 140000002 cycles: 55744742 heartbeat IPC: 2.044 cumulative IPC: 2.081 (Simulation time: 00 hr 09 min 37 sec)
Heartbeat CPU 0 instructions: 150000001 cycles: 60416524 heartbeat IPC: 2.141 cumulative IPC: 2.087 (Simulation time: 00 hr 10 min 28 sec)
Heartbeat CPU 0 instructions: 160000000 cycles: 65057180 heartbeat IPC: 2.155 cumulative IPC: 2.093 (Simulation time: 00 hr 11 min 17 sec)
Heartbeat CPU 0 instructions: 170000000 cycles: 70394497 heartbeat IPC: 1.874 cumulative IPC: 2.073 (Simulation time: 00 hr 12 min 12 sec)
Heartbeat CPU 0 instructions: 180000001 cycles: 76116472 heartbeat IPC: 1.748 cumulative IPC: 2.043 (Simulation time: 00 hr 13 min 25 sec)
Heartbeat CPU 0 instructions: 190000002 cycles: 80593267 heartbeat IPC: 2.234 cumulative IPC: 2.056 (Simulation time: 00 hr 14 min 33 sec)
Heartbeat CPU 0 instructions: 200000002 cycles: 85504005 heartbeat IPC: 2.036 cumulative IPC: 2.055 (Simulation time: 00 hr 15 min 39 sec)
Heartbeat CPU 0 instructions: 210000000 cycles: 90510281 heartbeat IPC: 1.997 cumulative IPC: 2.051 (Simulation time: 00 hr 16 min 46 sec)
Heartbeat CPU 0 instructions: 220000001 cycles: 95437245 heartbeat IPC: 2.03 cumulative IPC: 2.05 (Simulation time: 00 hr 17 min 54 sec)
Heartbeat CPU 0 instructions: 230000002 cycles: 100688077 heartbeat IPC: 1.904 cumulative IPC: 2.041 (Simulation time: 00 hr 19 min 10 sec)
Heartbeat CPU 0 instructions: 240000001 cycles: 105655781 heartbeat IPC: 2.013 cumulative IPC: 2.04 (Simulation time: 00 hr 20 min 23 sec)
Heartbeat CPU 0 instructions: 250000003 cycles: 110844358 heartbeat IPC: 1.927 cumulative IPC: 2.034 (Simulation time: 00 hr 21 min 37 sec)
Heartbeat CPU 0 instructions: 260000001 cycles: 115706920 heartbeat IPC: 2.057 cumulative IPC: 2.035 (Simulation time: 00 hr 22 min 52 sec)
Heartbeat CPU 0 instructions: 270000000 cycles: 123508440 heartbeat IPC: 1.282 cumulative IPC: 1.982 (Simulation time: 00 hr 24 min 26 sec)
Heartbeat CPU 0 instructions: 280000000 cycles: 135315316 heartbeat IPC: 0.847 cumulative IPC: 1.873 (Simulation time: 00 hr 26 min 26 sec)
Heartbeat CPU 0 instructions: 290000001 cycles: 145705842 heartbeat IPC: 0.9624 cumulative IPC: 1.802 (Simulation time: 00 hr 28 min 15 sec)
Heartbeat CPU 0 instructions: 300000003 cycles: 153339653 heartbeat IPC: 1.31 cumulative IPC: 1.775 (Simulation time: 00 hr 29 min 43 sec)
Heartbeat CPU 0 instructions: 310000004 cycles: 164449448 heartbeat IPC: 0.9001 cumulative IPC: 1.711 (Simulation time: 00 hr 31 min 38 sec)
Heartbeat CPU 0 instructions: 320000004 cycles: 170157733 heartbeat IPC: 1.752 cumulative IPC: 1.713 (Simulation time: 00 hr 32 min 50 sec)
Heartbeat CPU 0 instructions: 330000000 cycles: 175467795 heartbeat IPC: 1.883 cumulative IPC: 1.718 (Simulation time: 00 hr 33 min 56 sec)
Heartbeat CPU 0 instructions: 340000001 cycles: 180726109 heartbeat IPC: 1.902 cumulative IPC: 1.724 (Simulation time: 00 hr 35 min 02 sec)
Heartbeat CPU 0 instructions: 350000000 cycles: 186179602 heartbeat IPC: 1.834 cumulative IPC: 1.727 (Simulation time: 00 hr 36 min 15 sec)
Heartbeat CPU 0 instructions: 360000003 cycles: 191388024 heartbeat IPC: 1.92 cumulative IPC: 1.733 (Simulation time: 00 hr 37 min 29 sec)
Heartbeat CPU 0 instructions: 370000001 cycles: 196506188 heartbeat IPC: 1.954 cumulative IPC: 1.739 (Simulation time: 00 hr 38 min 39 sec)
Heartbeat CPU 0 instructions: 380000004 cycles: 201904646 heartbeat IPC: 1.852 cumulative IPC: 1.742 (Simulation time: 00 hr 39 min 51 sec)
Heartbeat CPU 0 instructions: 390000002 cycles: 207356826 heartbeat IPC: 1.834 cumulative IPC: 1.745 (Simulation time: 00 hr 41 min 03 sec)
Heartbeat CPU 0 instructions: 400000000 cycles: 212903984 heartbeat IPC: 1.803 cumulative IPC: 1.746 (Simulation time: 00 hr 42 min 16 sec)
Heartbeat CPU 0 instructions: 410000000 cycles: 221488864 heartbeat IPC: 1.165 cumulative IPC: 1.723 (Simulation time: 00 hr 43 min 59 sec)
Heartbeat CPU 0 instructions: 420000001 cycles: 233106331 heartbeat IPC: 0.8608 cumulative IPC: 1.677 (Simulation time: 00 hr 46 min 03 sec)
Heartbeat CPU 0 instructions: 430000000 cycles: 241141739 heartbeat IPC: 1.244 cumulative IPC: 1.662 (Simulation time: 00 hr 47 min 47 sec)
Heartbeat CPU 0 instructions: 440000002 cycles: 248394078 heartbeat IPC: 1.379 cumulative IPC: 1.653 (Simulation time: 00 hr 49 min 18 sec)
Heartbeat CPU 0 instructions: 450000000 cycles: 255321901 heartbeat IPC: 1.443 cumulative IPC: 1.647 (Simulation time: 00 hr 50 min 44 sec)
Heartbeat CPU 0 instructions: 460000002 cycles: 266355898 heartbeat IPC: 0.9063 cumulative IPC: 1.615 (Simulation time: 00 hr 52 min 41 sec)
Heartbeat CPU 0 instructions: 470000000 cycles: 276423914 heartbeat IPC: 0.9932 cumulative IPC: 1.591 (Simulation time: 00 hr 54 min 29 sec)
Heartbeat CPU 0 instructions: 480000000 cycles: 281930807 heartbeat IPC: 1.816 cumulative IPC: 1.596 (Simulation time: 00 hr 55 min 41 sec)
Heartbeat CPU 0 instructions: 490000001 cycles: 287753200 heartbeat IPC: 1.718 cumulative IPC: 1.599 (Simulation time: 00 hr 56 min 56 sec)
Heartbeat CPU 0 instructions: 500000002 cycles: 293420621 heartbeat IPC: 1.764 cumulative IPC: 1.602 (Simulation time: 00 hr 58 min 16 sec)
Heartbeat CPU 0 instructions: 510000000 cycles: 299184587 heartbeat IPC: 1.735 cumulative IPC: 1.605 (Simulation time: 00 hr 59 min 58 sec)
Heartbeat CPU 0 instructions: 520000000 cycles: 305011721 heartbeat IPC: 1.716 cumulative IPC: 1.607 (Simulation time: 01 hr 01 min 38 sec)
Heartbeat CPU 0 instructions: 530000001 cycles: 317087208 heartbeat IPC: 0.8281 cumulative IPC: 1.576 (Simulation time: 01 hr 04 min 01 sec)
Heartbeat CPU 0 instructions: 540000000 cycles: 328414169 heartbeat IPC: 0.8828 cumulative IPC: 1.551 (Simulation time: 01 hr 06 min 01 sec)
Heartbeat CPU 0 instructions: 550000002 cycles: 341648482 heartbeat IPC: 0.7556 cumulative IPC: 1.519 (Simulation time: 01 hr 08 min 09 sec)
Heartbeat CPU 0 instructions: 560000004 cycles: 346499040 heartbeat IPC: 2.062 cumulative IPC: 1.527 (Simulation time: 01 hr 09 min 17 sec)
Heartbeat CPU 0 instructions: 570000001 cycles: 350912765 heartbeat IPC: 2.266 cumulative IPC: 1.537 (Simulation time: 01 hr 10 min 22 sec)
Heartbeat CPU 0 instructions: 580000003 cycles: 355160502 heartbeat IPC: 2.354 cumulative IPC: 1.547 (Simulation time: 01 hr 11 min 27 sec)
Heartbeat CPU 0 instructions: 590000001 cycles: 360068157 heartbeat IPC: 2.038 cumulative IPC: 1.554 (Simulation time: 01 hr 12 min 40 sec)
Heartbeat CPU 0 instructions: 600000003 cycles: 364712595 heartbeat IPC: 2.153 cumulative IPC: 1.562 (Simulation time: 01 hr 13 min 53 sec)
Heartbeat CPU 0 instructions: 610000001 cycles: 369575827 heartbeat IPC: 2.056 cumulative IPC: 1.568 (Simulation time: 01 hr 14 min 57 sec)
Heartbeat CPU 0 instructions: 620000000 cycles: 374645541 heartbeat IPC: 1.972 cumulative IPC: 1.574 (Simulation time: 01 hr 16 min 08 sec)
Heartbeat CPU 0 instructions: 630000002 cycles: 378893093 heartbeat IPC: 2.354 cumulative IPC: 1.583 (Simulation time: 01 hr 17 min 16 sec)
Heartbeat CPU 0 instructions: 640000004 cycles: 384218392 heartbeat IPC: 1.878 cumulative IPC: 1.587 (Simulation time: 01 hr 18 min 35 sec)
Heartbeat CPU 0 instructions: 650000001 cycles: 388983944 heartbeat IPC: 2.098 cumulative IPC: 1.594 (Simulation time: 01 hr 20 min 04 sec)
Simulation finished CPU 0 instructions: 600000001 cycles: 376483883 cumulative IPC: 1.594 (Simulation time: 01 hr 20 min 04 sec)
Simulation complete CPU 0 instructions: 600000001 cycles: 376483883 cumulative IPC: 1.594 (Simulation time: 01 hr 20 min 04 sec)

ChampSim completed all CPUs

=== Simulation ===
CPU 0 runs traces/400.perlbench-50B.champsimtrace.xz
Region of Interest Statistics

CPU 0 cumulative IPC: 1.594 instructions: 600000001 cycles: 376483883
CPU 0 Branch Prediction Accuracy: 93.83% MPKI: 12.71 Average ROB Occupancy at Mispredict: 29.58
Branch type MPKI
BRANCH_DIRECT_JUMP: 0.0176
BRANCH_INDIRECT: 0.38
BRANCH_CONDITIONAL: 11.9
BRANCH_DIRECT_CALL: 0.0067
BRANCH_INDIRECT_CALL: 0.431
BRANCH_RETURN: 0.0161

LLC TOTAL        ACCESS:     785377 HIT:     478228 MISS:     307149
LLC LOAD         ACCESS:     587598 HIT:     312801 MISS:     274797
LLC RFO          ACCESS:      47497 HIT:      27298 MISS:      20199
LLC PREFETCH     ACCESS:          0 HIT:          0 MISS:          0
LLC WRITE        ACCESS:     128213 HIT:     127837 MISS:        376
LLC TRANSLATION  ACCESS:      22069 HIT:      10292 MISS:      11777
LLC PREFETCH REQUESTED:          0 ISSUED:          0 USEFUL:          0 USELESS:          0
LLC AVERAGE MISS LATENCY: 545 cycles
cpu0_DTLB TOTAL        ACCESS:  156763344 HIT:  155461417 MISS:    1301927
cpu0_DTLB LOAD         ACCESS:  156763344 HIT:  155461417 MISS:    1301927
cpu0_DTLB RFO          ACCESS:          0 HIT:          0 MISS:          0
cpu0_DTLB PREFETCH     ACCESS:          0 HIT:          0 MISS:          0
cpu0_DTLB WRITE        ACCESS:          0 HIT:          0 MISS:          0
cpu0_DTLB TRANSLATION  ACCESS:          0 HIT:          0 MISS:          0
cpu0_DTLB PREFETCH REQUESTED:          0 ISSUED:          0 USEFUL:          0 USELESS:          0
cpu0_DTLB AVERAGE MISS LATENCY: 12.07 cycles
cpu0_ITLB TOTAL        ACCESS:    8932540 HIT:    8733984 MISS:     198556
cpu0_ITLB LOAD         ACCESS:    8932540 HIT:    8733984 MISS:     198556
cpu0_ITLB RFO          ACCESS:          0 HIT:          0 MISS:          0
cpu0_ITLB PREFETCH     ACCESS:          0 HIT:          0 MISS:          0
cpu0_ITLB WRITE        ACCESS:          0 HIT:          0 MISS:          0
cpu0_ITLB TRANSLATION  ACCESS:          0 HIT:          0 MISS:          0
cpu0_ITLB PREFETCH REQUESTED:          0 ISSUED:          0 USEFUL:          0 USELESS:          0
cpu0_ITLB AVERAGE MISS LATENCY: 3.279 cycles
cpu0_L1D TOTAL        ACCESS:  203599253 HIT:  199920229 MISS:    3679024
cpu0_L1D LOAD         ACCESS:  117922941 HIT:  114901155 MISS:    3021786
cpu0_L1D RFO          ACCESS:          0 HIT:          0 MISS:          0
cpu0_L1D PREFETCH     ACCESS:          0 HIT:          0 MISS:          0
cpu0_L1D WRITE        ACCESS:   85647767 HIT:   85017666 MISS:     630101
cpu0_L1D TRANSLATION  ACCESS:      28545 HIT:       1408 MISS:      27137
cpu0_L1D PREFETCH REQUESTED:          0 ISSUED:          0 USEFUL:          0 USELESS:          0
cpu0_L1D AVERAGE MISS LATENCY: 50.44 cycles
cpu0_L1I TOTAL        ACCESS:   10371104 HIT:    8573643 MISS:    1797461
cpu0_L1I LOAD         ACCESS:   10371104 HIT:    8573643 MISS:    1797461
cpu0_L1I RFO          ACCESS:          0 HIT:          0 MISS:          0
cpu0_L1I PREFETCH     ACCESS:          0 HIT:          0 MISS:          0
cpu0_L1I WRITE        ACCESS:          0 HIT:          0 MISS:          0
cpu0_L1I TRANSLATION  ACCESS:          0 HIT:          0 MISS:          0
cpu0_L1I PREFETCH REQUESTED:          0 ISSUED:          0 USEFUL:          0 USELESS:          0
cpu0_L1I AVERAGE MISS LATENCY: 11.51 cycles
cpu0_L2C TOTAL        ACCESS:    3837098 HIT:    3176627 MISS:     660471
cpu0_L2C LOAD         ACCESS:    3106337 HIT:    2518739 MISS:     587598
cpu0_L2C RFO          ACCESS:     191824 HIT:     144327 MISS:      47497
cpu0_L2C PREFETCH     ACCESS:          0 HIT:          0 MISS:          0
cpu0_L2C WRITE        ACCESS:     511882 HIT:     508575 MISS:       3307
cpu0_L2C TRANSLATION  ACCESS:      27055 HIT:       4986 MISS:      22069
cpu0_L2C PREFETCH REQUESTED:          0 ISSUED:          0 USEFUL:          0 USELESS:          0
cpu0_L2C AVERAGE MISS LATENCY: 273.8 cycles
cpu0_STLB TOTAL        ACCESS:    1009383 HIT:     982690 MISS:      26693
cpu0_STLB LOAD         ACCESS:    1009383 HIT:     982690 MISS:      26693
cpu0_STLB RFO          ACCESS:          0 HIT:          0 MISS:          0
cpu0_STLB PREFETCH     ACCESS:          0 HIT:          0 MISS:          0
cpu0_STLB WRITE        ACCESS:          0 HIT:          0 MISS:          0
cpu0_STLB TRANSLATION  ACCESS:          0 HIT:          0 MISS:          0
cpu0_STLB PREFETCH REQUESTED:          0 ISSUED:          0 USEFUL:          0 USELESS:          0
cpu0_STLB AVERAGE MISS LATENCY: 370.2 cycles

DRAM Statistics

Channel 0 RQ ROW_BUFFER_HIT:      54461
  ROW_BUFFER_MISS:     252270
 AVG DBUS CONGESTED CYCLE: 3.803
WQ ROW_BUFFER_HIT: Channel 0 
  ROW_BUFFER_MISS:       8871
  FULL:      39175
