WARNING: physical memory size is smaller than virtual memory size.

*** ChampSim Multicore Out-of-Order Simulator ***
Warmup Instructions: 50000000
Simulation Instructions: 600000000
Number of CPUs: 1
Page size: 4096

CPU 0 Tage branch predictor
Off-chip DRAM Size: 4 GiB Channels: 1 Width: 64-bit Data Race: 3200 MT/s
Heartbeat CPU 0 instructions: 10000001 cycles: 2500318 heartbeat IPC: 3.999 cumulative IPC: 3.999 (Simulation time: 00 hr 00 min 38 sec)
Heartbeat CPU 0 instructions: 20000002 cycles: 5037108 heartbeat IPC: 3.942 cumulative IPC: 3.971 (Simulation time: 00 hr 01 min 25 sec)
Heartbeat CPU 0 instructions: 30000002 cycles: 7537108 heartbeat IPC: 4 cumulative IPC: 3.98 (Simulation time: 00 hr 02 min 10 sec)
Heartbeat CPU 0 instructions: 40000002 cycles: 10037108 heartbeat IPC: 4 cumulative IPC: 3.985 (Simulation time: 00 hr 02 min 55 sec)
Heartbeat CPU 0 instructions: 50000002 cycles: 12537108 heartbeat IPC: 4 cumulative IPC: 3.988 (Simulation time: 00 hr 03 min 41 sec)
Warmup finished CPU 0 instructions: 50000002 cycles: 12537109 cumulative IPC: 3.988 (Simulation time: 00 hr 03 min 41 sec)
Warmup complete CPU 0 instructions: 50000002 cycles: 12537109 cumulative IPC: 3.988 (Simulation time: 00 hr 03 min 41 sec)
Heartbeat CPU 0 instructions: 60000001 cycles: 15515658 heartbeat IPC: 3.357 cumulative IPC: 3.357 (Simulation time: 00 hr 04 min 34 sec)
Heartbeat CPU 0 instructions: 70000004 cycles: 18590493 heartbeat IPC: 3.252 cumulative IPC: 3.304 (Simulation time: 00 hr 05 min 30 sec)
Heartbeat CPU 0 instructions: 80000001 cycles: 21636505 heartbeat IPC: 3.283 cumulative IPC: 3.297 (Simulation time: 00 hr 06 min 26 sec)
Heartbeat CPU 0 instructions: 90000001 cycles: 24586014 heartbeat IPC: 3.39 cumulative IPC: 3.32 (Simulation time: 00 hr 07 min 19 sec)
Heartbeat CPU 0 instructions: 100000000 cycles: 27507011 heartbeat IPC: 3.423 cumulative IPC: 3.34 (Simulation time: 00 hr 08 min 06 sec)
Heartbeat CPU 0 instructions: 110000000 cycles: 30458486 heartbeat IPC: 3.388 cumulative IPC: 3.348 (Simulation time: 00 hr 08 min 54 sec)
Heartbeat CPU 0 instructions: 120000001 cycles: 33431358 heartbeat IPC: 3.364 cumulative IPC: 3.35 (Simulation time: 00 hr 09 min 41 sec)
Heartbeat CPU 0 instructions: 130000001 cycles: 36289761 heartbeat IPC: 3.498 cumulative IPC: 3.368 (Simulation time: 00 hr 10 min 31 sec)
Heartbeat CPU 0 instructions: 140000001 cycles: 39337117 heartbeat IPC: 3.282 cumulative IPC: 3.358 (Simulation time: 00 hr 11 min 18 sec)
Heartbeat CPU 0 instructions: 150000001 cycles: 42353998 heartbeat IPC: 3.315 cumulative IPC: 3.354 (Simulation time: 00 hr 12 min 10 sec)
Heartbeat CPU 0 instructions: 160000004 cycles: 45371538 heartbeat IPC: 3.314 cumulative IPC: 3.35 (Simulation time: 00 hr 12 min 59 sec)
Heartbeat CPU 0 instructions: 170000000 cycles: 53018997 heartbeat IPC: 1.308 cumulative IPC: 2.964 (Simulation time: 00 hr 14 min 16 sec)
Heartbeat CPU 0 instructions: 180000004 cycles: 61340263 heartbeat IPC: 1.202 cumulative IPC: 2.664 (Simulation time: 00 hr 15 min 39 sec)
Heartbeat CPU 0 instructions: 190000001 cycles: 69396685 heartbeat IPC: 1.241 cumulative IPC: 2.462 (Simulation time: 00 hr 17 min 04 sec)
Heartbeat CPU 0 instructions: 200000004 cycles: 72363255 heartbeat IPC: 3.371 cumulative IPC: 2.507 (Simulation time: 00 hr 17 min 53 sec)
Heartbeat CPU 0 instructions: 210000001 cycles: 75324291 heartbeat IPC: 3.377 cumulative IPC: 2.548 (Simulation time: 00 hr 18 min 42 sec)
Heartbeat CPU 0 instructions: 220000000 cycles: 78216442 heartbeat IPC: 3.458 cumulative IPC: 2.588 (Simulation time: 00 hr 19 min 29 sec)
Heartbeat CPU 0 instructions: 230000002 cycles: 81244041 heartbeat IPC: 3.303 cumulative IPC: 2.62 (Simulation time: 00 hr 20 min 18 sec)
Heartbeat CPU 0 instructions: 240000003 cycles: 84282887 heartbeat IPC: 3.291 cumulative IPC: 2.648 (Simulation time: 00 hr 21 min 09 sec)
Heartbeat CPU 0 instructions: 250000000 cycles: 87307880 heartbeat IPC: 3.306 cumulative IPC: 2.675 (Simulation time: 00 hr 21 min 59 sec)
Heartbeat CPU 0 instructions: 260000002 cycles: 90280775 heartbeat IPC: 3.364 cumulative IPC: 2.701 (Simulation time: 00 hr 22 min 48 sec)
Heartbeat CPU 0 instructions: 270000002 cycles: 93198793 heartbeat IPC: 3.427 cumulative IPC: 2.727 (Simulation time: 00 hr 23 min 36 sec)
Heartbeat CPU 0 instructions: 280000002 cycles: 96090451 heartbeat IPC: 3.458 cumulative IPC: 2.753 (Simulation time: 00 hr 24 min 24 sec)
Heartbeat CPU 0 instructions: 290000002 cycles: 99050924 heartbeat IPC: 3.378 cumulative IPC: 2.774 (Simulation time: 00 hr 25 min 11 sec)
Heartbeat CPU 0 instructions: 300000003 cycles: 101955589 heartbeat IPC: 3.443 cumulative IPC: 2.796 (Simulation time: 00 hr 25 min 58 sec)
Heartbeat CPU 0 instructions: 310000001 cycles: 104990009 heartbeat IPC: 3.296 cumulative IPC: 2.812 (Simulation time: 00 hr 26 min 47 sec)
Heartbeat CPU 0 instructions: 320000003 cycles: 107997794 heartbeat IPC: 3.325 cumulative IPC: 2.828 (Simulation time: 00 hr 27 min 35 sec)
Heartbeat CPU 0 instructions: 330000003 cycles: 110990062 heartbeat IPC: 3.342 cumulative IPC: 2.844 (Simulation time: 00 hr 28 min 25 sec)
Heartbeat CPU 0 instructions: 340000000 cycles: 118847086 heartbeat IPC: 1.273 cumulative IPC: 2.728 (Simulation time: 00 hr 29 min 43 sec)
Heartbeat CPU 0 instructions: 350000000 cycles: 127364878 heartbeat IPC: 1.174 cumulative IPC: 2.613 (Simulation time: 00 hr 31 min 09 sec)
Heartbeat CPU 0 instructions: 360000004 cycles: 135447646 heartbeat IPC: 1.237 cumulative IPC: 2.522 (Simulation time: 00 hr 32 min 30 sec)
Heartbeat CPU 0 instructions: 370000000 cycles: 138419197 heartbeat IPC: 3.365 cumulative IPC: 2.542 (Simulation time: 00 hr 33 min 18 sec)
Heartbeat CPU 0 instructions: 380000003 cycles: 141339035 heartbeat IPC: 3.425 cumulative IPC: 2.562 (Simulation time: 00 hr 34 min 07 sec)
Heartbeat CPU 0 instructions: 390000002 cycles: 144318048 heartbeat IPC: 3.357 cumulative IPC: 2.58 (Simulation time: 00 hr 34 min 55 sec)
Heartbeat CPU 0 instructions: 400000004 cycles: 147222669 heartbeat IPC: 3.443 cumulative IPC: 2.599 (Simulation time: 00 hr 35 min 42 sec)
Heartbeat CPU 0 instructions: 410000002 cycles: 150166344 heartbeat IPC: 3.397 cumulative IPC: 2.616 (Simulation time: 00 hr 36 min 29 sec)
Heartbeat CPU 0 instructions: 420000003 cycles: 153285824 heartbeat IPC: 3.206 cumulative IPC: 2.629 (Simulation time: 00 hr 37 min 18 sec)
Heartbeat CPU 0 instructions: 430000001 cycles: 156295247 heartbeat IPC: 3.323 cumulative IPC: 2.643 (Simulation time: 00 hr 38 min 06 sec)
Heartbeat CPU 0 instructions: 440000004 cycles: 159435713 heartbeat IPC: 3.184 cumulative IPC: 2.655 (Simulation time: 00 hr 38 min 56 sec)
Heartbeat CPU 0 instructions: 450000002 cycles: 162364034 heartbeat IPC: 3.415 cumulative IPC: 2.67 (Simulation time: 00 hr 39 min 44 sec)
Heartbeat CPU 0 instructions: 460000000 cycles: 165298779 heartbeat IPC: 3.407 cumulative IPC: 2.684 (Simulation time: 00 hr 40 min 31 sec)
Heartbeat CPU 0 instructions: 470000001 cycles: 168155241 heartbeat IPC: 3.501 cumulative IPC: 2.699 (Simulation time: 00 hr 41 min 19 sec)
Heartbeat CPU 0 instructions: 480000003 cycles: 171211773 heartbeat IPC: 3.272 cumulative IPC: 2.71 (Simulation time: 00 hr 42 min 08 sec)
Heartbeat CPU 0 instructions: 490000004 cycles: 174047318 heartbeat IPC: 3.527 cumulative IPC: 2.724 (Simulation time: 00 hr 42 min 55 sec)
Heartbeat CPU 0 instructions: 500000004 cycles: 177032160 heartbeat IPC: 3.35 cumulative IPC: 2.736 (Simulation time: 00 hr 43 min 42 sec)
Heartbeat CPU 0 instructions: 510000003 cycles: 180048024 heartbeat IPC: 3.316 cumulative IPC: 2.746 (Simulation time: 00 hr 44 min 32 sec)
Heartbeat CPU 0 instructions: 520000001 cycles: 182936500 heartbeat IPC: 3.462 cumulative IPC: 2.758 (Simulation time: 00 hr 45 min 21 sec)
Heartbeat CPU 0 instructions: 530000001 cycles: 185939801 heartbeat IPC: 3.33 cumulative IPC: 2.768 (Simulation time: 00 hr 46 min 09 sec)
Heartbeat CPU 0 instructions: 540000000 cycles: 188898122 heartbeat IPC: 3.38 cumulative IPC: 2.778 (Simulation time: 00 hr 46 min 57 sec)
Heartbeat CPU 0 instructions: 550000001 cycles: 191882038 heartbeat IPC: 3.351 cumulative IPC: 2.788 (Simulation time: 00 hr 47 min 45 sec)
Heartbeat CPU 0 instructions: 560000000 cycles: 194962422 heartbeat IPC: 3.246 cumulative IPC: 2.796 (Simulation time: 00 hr 48 min 34 sec)
Heartbeat CPU 0 instructions: 570000004 cycles: 200149114 heartbeat IPC: 1.928 cumulative IPC: 2.772 (Simulation time: 00 hr 49 min 37 sec)
Heartbeat CPU 0 instructions: 580000003 cycles: 209013980 heartbeat IPC: 1.128 cumulative IPC: 2.698 (Simulation time: 00 hr 51 min 03 sec)
Heartbeat CPU 0 instructions: 590000002 cycles: 219492733 heartbeat IPC: 0.9543 cumulative IPC: 2.609 (Simulation time: 00 hr 52 min 39 sec)
Heartbeat CPU 0 instructions: 600000004 cycles: 222548345 heartbeat IPC: 3.273 cumulative IPC: 2.619 (Simulation time: 00 hr 53 min 27 sec)
Heartbeat CPU 0 instructions: 610000002 cycles: 225515067 heartbeat IPC: 3.371 cumulative IPC: 2.629 (Simulation time: 00 hr 54 min 14 sec)
Heartbeat CPU 0 instructions: 620000001 cycles: 228288532 heartbeat IPC: 3.606 cumulative IPC: 2.642 (Simulation time: 00 hr 55 min 00 sec)
Heartbeat CPU 0 instructions: 630000002 cycles: 231261224 heartbeat IPC: 3.364 cumulative IPC: 2.652 (Simulation time: 00 hr 55 min 46 sec)
Heartbeat CPU 0 instructions: 640000004 cycles: 234211676 heartbeat IPC: 3.389 cumulative IPC: 2.662 (Simulation time: 00 hr 56 min 26 sec)
Heartbeat CPU 0 instructions: 650000000 cycles: 236962105 heartbeat IPC: 3.636 cumulative IPC: 2.673 (Simulation time: 00 hr 57 min 02 sec)
Simulation finished CPU 0 instructions: 600000001 cycles: 224424998 cumulative IPC: 2.673 (Simulation time: 00 hr 57 min 02 sec)
Simulation complete CPU 0 instructions: 600000001 cycles: 224424998 cumulative IPC: 2.673 (Simulation time: 00 hr 57 min 02 sec)

ChampSim completed all CPUs

=== Simulation ===
CPU 0 runs traces/400.perlbench-41B.champsimtrace.xz
Region of Interest Statistics

CPU 0 cumulative IPC: 2.673 instructions: 600000001 cycles: 224424998
CPU 0 Branch Prediction Accuracy: 99.19% MPKI: 1.684 Average ROB Occupancy at Mispredict: 102.4
Branch type MPKI
BRANCH_DIRECT_JUMP: 0.0123
BRANCH_INDIRECT: 0.323
BRANCH_CONDITIONAL: 1.14
BRANCH_DIRECT_CALL: 0.0043
BRANCH_INDIRECT_CALL: 0.2
BRANCH_RETURN: 0.00828

LLC TOTAL        ACCESS:     593465 HIT:     316892 MISS:     276573
LLC LOAD         ACCESS:     403703 HIT:     180085 MISS:     223618
LLC RFO          ACCESS:      32565 HIT:      18007 MISS:      14558
LLC PREFETCH     ACCESS:      53003 HIT:      25055 MISS:      27948
LLC WRITE        ACCESS:      85081 HIT:      84948 MISS:        133
LLC TRANSLATION  ACCESS:      19113 HIT:       8797 MISS:      10316
LLC PREFETCH REQUESTED:      53003 ISSUED:      53003 USEFUL:      17440 USELESS:       7083
LLC AVERAGE MISS LATENCY: 645 cycles
cpu0_DTLB TOTAL        ACCESS:  129776667 HIT:  129072179 MISS:     704488
cpu0_DTLB LOAD         ACCESS:  129776667 HIT:  129072179 MISS:     704488
cpu0_DTLB RFO          ACCESS:          0 HIT:          0 MISS:          0
cpu0_DTLB PREFETCH     ACCESS:          0 HIT:          0 MISS:          0
cpu0_DTLB WRITE        ACCESS:          0 HIT:          0 MISS:          0
cpu0_DTLB TRANSLATION  ACCESS:          0 HIT:          0 MISS:          0
cpu0_DTLB PREFETCH REQUESTED:          0 ISSUED:          0 USEFUL:          0 USELESS:          0
cpu0_DTLB AVERAGE MISS LATENCY: 15.65 cycles
cpu0_ITLB TOTAL        ACCESS:    4879285 HIT:    4817168 MISS:      62117
cpu0_ITLB LOAD         ACCESS:    4879285 HIT:    4817168 MISS:      62117
cpu0_ITLB RFO          ACCESS:          0 HIT:          0 MISS:          0
cpu0_ITLB PREFETCH     ACCESS:          0 HIT:          0 MISS:          0
cpu0_ITLB WRITE        ACCESS:          0 HIT:          0 MISS:          0
cpu0_ITLB TRANSLATION  ACCESS:          0 HIT:          0 MISS:          0
cpu0_ITLB PREFETCH REQUESTED:          0 ISSUED:          0 USEFUL:          0 USELESS:          0
cpu0_ITLB AVERAGE MISS LATENCY: 6.945 cycles
cpu0_L1D TOTAL        ACCESS:  174357321 HIT:  172557395 MISS:    1799926
cpu0_L1D LOAD         ACCESS:   91334908 HIT:   89932856 MISS:    1402052
cpu0_L1D RFO          ACCESS:          0 HIT:          0 MISS:          0
cpu0_L1D PREFETCH     ACCESS:          0 HIT:          0 MISS:          0
cpu0_L1D WRITE        ACCESS:   82997958 HIT:   82623478 MISS:     374480
cpu0_L1D TRANSLATION  ACCESS:      24455 HIT:       1061 MISS:      23394
cpu0_L1D PREFETCH REQUESTED:          0 ISSUED:          0 USEFUL:          0 USELESS:          0
cpu0_L1D AVERAGE MISS LATENCY: 89.61 cycles
cpu0_L1I TOTAL        ACCESS:    5658550 HIT:    4853272 MISS:     805278
cpu0_L1I LOAD         ACCESS:    5658550 HIT:    4853272 MISS:     805278
cpu0_L1I RFO          ACCESS:          0 HIT:          0 MISS:          0
cpu0_L1I PREFETCH     ACCESS:          0 HIT:          0 MISS:          0
cpu0_L1I WRITE        ACCESS:          0 HIT:          0 MISS:          0
cpu0_L1I TRANSLATION  ACCESS:          0 HIT:          0 MISS:          0
cpu0_L1I PREFETCH REQUESTED:          0 ISSUED:          0 USEFUL:          0 USELESS:          0
cpu0_L1I AVERAGE MISS LATENCY: 12.05 cycles
cpu0_L2C TOTAL        ACCESS:    1667843 HIT:    1210629 MISS:     457214
cpu0_L2C LOAD         ACCESS:    1315258 HIT:     911554 MISS:     403704
cpu0_L2C RFO          ACCESS:      89601 HIT:      57035 MISS:      32566
cpu0_L2C PREFETCH     ACCESS:          0 HIT:          0 MISS:          0
cpu0_L2C WRITE        ACCESS:     239666 HIT:     237835 MISS:       1831
cpu0_L2C TRANSLATION  ACCESS:      23318 HIT:       4205 MISS:      19113
cpu0_L2C PREFETCH REQUESTED:          0 ISSUED:          0 USEFUL:          0 USELESS:          0
cpu0_L2C AVERAGE MISS LATENCY: 369.3 cycles
cpu0_STLB TOTAL        ACCESS:     509123 HIT:     486339 MISS:      22784
cpu0_STLB LOAD         ACCESS:     509123 HIT:     486339 MISS:      22784
cpu0_STLB RFO          ACCESS:          0 HIT:          0 MISS:          0
cpu0_STLB PREFETCH     ACCESS:          0 HIT:          0 MISS:          0
cpu0_STLB WRITE        ACCESS:          0 HIT:          0 MISS:          0
cpu0_STLB TRANSLATION  ACCESS:          0 HIT:          0 MISS:          0
cpu0_STLB PREFETCH REQUESTED:          0 ISSUED:          0 USEFUL:          0 USELESS:          0
cpu0_STLB AVERAGE MISS LATENCY: 379.1 cycles

DRAM Statistics

Channel 0 RQ ROW_BUFFER_HIT:      54453
  ROW_BUFFER_MISS:     216162
 AVG DBUS CONGESTED CYCLE: 3.851
WQ ROW_BUFFER_HIT: Channel 0 
  ROW_BUFFER_MISS:       4771
  FULL:      33539
