WARNING: physical memory size is smaller than virtual memory size.

*** ChampSim Multicore Out-of-Order Simulator ***
Warmup Instructions: 50000000
Simulation Instructions: 600000000
Number of CPUs: 1
Page size: 4096

CPU 0 Tage branch predictor
Off-chip DRAM Size: 4 GiB Channels: 1 Width: 64-bit Data Race: 3200 MT/s
Heartbeat CPU 0 instructions: 10000001 cycles: 2500318 heartbeat IPC: 3.999 cumulative IPC: 3.999 (Simulation time: 00 hr 00 min 18 sec)
Heartbeat CPU 0 instructions: 20000002 cycles: 5037117 heartbeat IPC: 3.942 cumulative IPC: 3.971 (Simulation time: 00 hr 00 min 40 sec)
Heartbeat CPU 0 instructions: 30000002 cycles: 7537117 heartbeat IPC: 4 cumulative IPC: 3.98 (Simulation time: 00 hr 01 min 04 sec)
Heartbeat CPU 0 instructions: 40000002 cycles: 10037117 heartbeat IPC: 4 cumulative IPC: 3.985 (Simulation time: 00 hr 01 min 35 sec)
Heartbeat CPU 0 instructions: 50000002 cycles: 12537117 heartbeat IPC: 4 cumulative IPC: 3.988 (Simulation time: 00 hr 02 min 09 sec)
Warmup finished CPU 0 instructions: 50000002 cycles: 12537118 cumulative IPC: 3.988 (Simulation time: 00 hr 02 min 09 sec)
Warmup complete CPU 0 instructions: 50000002 cycles: 12537118 cumulative IPC: 3.988 (Simulation time: 00 hr 02 min 09 sec)
Heartbeat CPU 0 instructions: 60000001 cycles: 15566124 heartbeat IPC: 3.301 cumulative IPC: 3.301 (Simulation time: 00 hr 02 min 55 sec)
Heartbeat CPU 0 instructions: 70000004 cycles: 18680595 heartbeat IPC: 3.211 cumulative IPC: 3.255 (Simulation time: 00 hr 03 min 43 sec)
Heartbeat CPU 0 instructions: 80000001 cycles: 21772288 heartbeat IPC: 3.234 cumulative IPC: 3.248 (Simulation time: 00 hr 04 min 30 sec)
Heartbeat CPU 0 instructions: 90000001 cycles: 24750243 heartbeat IPC: 3.358 cumulative IPC: 3.275 (Simulation time: 00 hr 05 min 16 sec)
Heartbeat CPU 0 instructions: 100000000 cycles: 27701953 heartbeat IPC: 3.388 cumulative IPC: 3.297 (Simulation time: 00 hr 06 min 02 sec)
Heartbeat CPU 0 instructions: 110000000 cycles: 30667808 heartbeat IPC: 3.372 cumulative IPC: 3.309 (Simulation time: 00 hr 06 min 49 sec)
Heartbeat CPU 0 instructions: 120000001 cycles: 33670143 heartbeat IPC: 3.331 cumulative IPC: 3.312 (Simulation time: 00 hr 07 min 36 sec)
Heartbeat CPU 0 instructions: 130000001 cycles: 36566044 heartbeat IPC: 3.453 cumulative IPC: 3.329 (Simulation time: 00 hr 08 min 24 sec)
Heartbeat CPU 0 instructions: 140000001 cycles: 39676510 heartbeat IPC: 3.215 cumulative IPC: 3.316 (Simulation time: 00 hr 09 min 13 sec)
Heartbeat CPU 0 instructions: 150000001 cycles: 42738407 heartbeat IPC: 3.266 cumulative IPC: 3.311 (Simulation time: 00 hr 10 min 00 sec)
Heartbeat CPU 0 instructions: 160000004 cycles: 45803532 heartbeat IPC: 3.263 cumulative IPC: 3.307 (Simulation time: 00 hr 10 min 52 sec)
Heartbeat CPU 0 instructions: 170000000 cycles: 53237444 heartbeat IPC: 1.345 cumulative IPC: 2.948 (Simulation time: 00 hr 12 min 17 sec)
Heartbeat CPU 0 instructions: 180000004 cycles: 61749204 heartbeat IPC: 1.175 cumulative IPC: 2.642 (Simulation time: 00 hr 13 min 47 sec)
Heartbeat CPU 0 instructions: 190000001 cycles: 71212798 heartbeat IPC: 1.057 cumulative IPC: 2.386 (Simulation time: 00 hr 15 min 31 sec)
Heartbeat CPU 0 instructions: 200000004 cycles: 74210613 heartbeat IPC: 3.336 cumulative IPC: 2.432 (Simulation time: 00 hr 16 min 39 sec)
Heartbeat CPU 0 instructions: 210000001 cycles: 77198504 heartbeat IPC: 3.347 cumulative IPC: 2.474 (Simulation time: 00 hr 17 min 44 sec)
Heartbeat CPU 0 instructions: 220000000 cycles: 80104229 heartbeat IPC: 3.441 cumulative IPC: 2.516 (Simulation time: 00 hr 18 min 44 sec)
Heartbeat CPU 0 instructions: 230000002 cycles: 83183933 heartbeat IPC: 3.247 cumulative IPC: 2.548 (Simulation time: 00 hr 19 min 47 sec)
Heartbeat CPU 0 instructions: 240000003 cycles: 86258092 heartbeat IPC: 3.253 cumulative IPC: 2.577 (Simulation time: 00 hr 20 min 53 sec)
Heartbeat CPU 0 instructions: 250000000 cycles: 89321634 heartbeat IPC: 3.264 cumulative IPC: 2.605 (Simulation time: 00 hr 22 min 05 sec)
Heartbeat CPU 0 instructions: 260000002 cycles: 92320564 heartbeat IPC: 3.335 cumulative IPC: 2.632 (Simulation time: 00 hr 23 min 17 sec)
Heartbeat CPU 0 instructions: 270000002 cycles: 95260583 heartbeat IPC: 3.401 cumulative IPC: 2.659 (Simulation time: 00 hr 24 min 30 sec)
Heartbeat CPU 0 instructions: 280000002 cycles: 98171206 heartbeat IPC: 3.436 cumulative IPC: 2.686 (Simulation time: 00 hr 25 min 41 sec)
Heartbeat CPU 0 instructions: 290000002 cycles: 101157271 heartbeat IPC: 3.349 cumulative IPC: 2.708 (Simulation time: 00 hr 26 min 51 sec)
Heartbeat CPU 0 instructions: 300000003 cycles: 104096222 heartbeat IPC: 3.403 cumulative IPC: 2.73 (Simulation time: 00 hr 28 min 00 sec)
Heartbeat CPU 0 instructions: 310000001 cycles: 107190305 heartbeat IPC: 3.232 cumulative IPC: 2.747 (Simulation time: 00 hr 29 min 09 sec)
Heartbeat CPU 0 instructions: 320000003 cycles: 110235508 heartbeat IPC: 3.284 cumulative IPC: 2.764 (Simulation time: 00 hr 30 min 18 sec)
Heartbeat CPU 0 instructions: 330000003 cycles: 113285273 heartbeat IPC: 3.279 cumulative IPC: 2.779 (Simulation time: 00 hr 31 min 26 sec)
Heartbeat CPU 0 instructions: 340000000 cycles: 120996231 heartbeat IPC: 1.297 cumulative IPC: 2.674 (Simulation time: 00 hr 33 min 14 sec)
Heartbeat CPU 0 instructions: 350000000 cycles: 130010499 heartbeat IPC: 1.109 cumulative IPC: 2.554 (Simulation time: 00 hr 35 min 13 sec)
Heartbeat CPU 0 instructions: 360000004 cycles: 139298500 heartbeat IPC: 1.077 cumulative IPC: 2.446 (Simulation time: 00 hr 37 min 12 sec)
Heartbeat CPU 0 instructions: 370000000 cycles: 142279164 heartbeat IPC: 3.355 cumulative IPC: 2.466 (Simulation time: 00 hr 38 min 16 sec)
Heartbeat CPU 0 instructions: 380000003 cycles: 145228100 heartbeat IPC: 3.391 cumulative IPC: 2.487 (Simulation time: 00 hr 39 min 21 sec)
Heartbeat CPU 0 instructions: 390000002 cycles: 148222492 heartbeat IPC: 3.34 cumulative IPC: 2.506 (Simulation time: 00 hr 40 min 26 sec)
Heartbeat CPU 0 instructions: 400000004 cycles: 151130872 heartbeat IPC: 3.438 cumulative IPC: 2.525 (Simulation time: 00 hr 41 min 27 sec)
Heartbeat CPU 0 instructions: 410000002 cycles: 154106705 heartbeat IPC: 3.36 cumulative IPC: 2.543 (Simulation time: 00 hr 42 min 29 sec)
Heartbeat CPU 0 instructions: 420000003 cycles: 157303956 heartbeat IPC: 3.128 cumulative IPC: 2.556 (Simulation time: 00 hr 43 min 32 sec)
Heartbeat CPU 0 instructions: 430000001 cycles: 160338194 heartbeat IPC: 3.296 cumulative IPC: 2.571 (Simulation time: 00 hr 44 min 35 sec)
Heartbeat CPU 0 instructions: 440000004 cycles: 163502877 heartbeat IPC: 3.16 cumulative IPC: 2.583 (Simulation time: 00 hr 45 min 41 sec)
Heartbeat CPU 0 instructions: 450000002 cycles: 166448755 heartbeat IPC: 3.395 cumulative IPC: 2.599 (Simulation time: 00 hr 46 min 46 sec)
Heartbeat CPU 0 instructions: 460000000 cycles: 169403213 heartbeat IPC: 3.385 cumulative IPC: 2.614 (Simulation time: 00 hr 47 min 48 sec)
Heartbeat CPU 0 instructions: 470000001 cycles: 172282793 heartbeat IPC: 3.473 cumulative IPC: 2.629 (Simulation time: 00 hr 48 min 51 sec)
Heartbeat CPU 0 instructions: 480000003 cycles: 175382191 heartbeat IPC: 3.226 cumulative IPC: 2.641 (Simulation time: 00 hr 49 min 57 sec)
Heartbeat CPU 0 instructions: 490000004 cycles: 178221354 heartbeat IPC: 3.522 cumulative IPC: 2.656 (Simulation time: 00 hr 50 min 59 sec)
Heartbeat CPU 0 instructions: 500000004 cycles: 181221552 heartbeat IPC: 3.333 cumulative IPC: 2.668 (Simulation time: 00 hr 52 min 01 sec)
Heartbeat CPU 0 instructions: 510000003 cycles: 184322441 heartbeat IPC: 3.225 cumulative IPC: 2.678 (Simulation time: 00 hr 53 min 04 sec)
Heartbeat CPU 0 instructions: 520000001 cycles: 187229385 heartbeat IPC: 3.44 cumulative IPC: 2.69 (Simulation time: 00 hr 54 min 09 sec)
Heartbeat CPU 0 instructions: 530000001 cycles: 190284552 heartbeat IPC: 3.273 cumulative IPC: 2.7 (Simulation time: 00 hr 55 min 11 sec)
Heartbeat CPU 0 instructions: 540000000 cycles: 193271102 heartbeat IPC: 3.348 cumulative IPC: 2.711 (Simulation time: 00 hr 56 min 13 sec)
Heartbeat CPU 0 instructions: 550000001 cycles: 196274182 heartbeat IPC: 3.33 cumulative IPC: 2.721 (Simulation time: 00 hr 57 min 17 sec)
Heartbeat CPU 0 instructions: 560000000 cycles: 199459917 heartbeat IPC: 3.139 cumulative IPC: 2.728 (Simulation time: 00 hr 58 min 23 sec)
Heartbeat CPU 0 instructions: 570000004 cycles: 204911384 heartbeat IPC: 1.834 cumulative IPC: 2.703 (Simulation time: 00 hr 59 min 45 sec)
Heartbeat CPU 0 instructions: 580000003 cycles: 213062232 heartbeat IPC: 1.227 cumulative IPC: 2.643 (Simulation time: 01 hr 02 min 00 sec)
Heartbeat CPU 0 instructions: 590000002 cycles: 225512288 heartbeat IPC: 0.8032 cumulative IPC: 2.536 (Simulation time: 01 hr 04 min 58 sec)
Heartbeat CPU 0 instructions: 600000004 cycles: 228641822 heartbeat IPC: 3.195 cumulative IPC: 2.545 (Simulation time: 01 hr 06 min 14 sec)
Heartbeat CPU 0 instructions: 610000002 cycles: 231622124 heartbeat IPC: 3.355 cumulative IPC: 2.556 (Simulation time: 01 hr 07 min 24 sec)
Heartbeat CPU 0 instructions: 620000001 cycles: 234408926 heartbeat IPC: 3.588 cumulative IPC: 2.569 (Simulation time: 01 hr 08 min 32 sec)
Heartbeat CPU 0 instructions: 630000002 cycles: 237401029 heartbeat IPC: 3.342 cumulative IPC: 2.579 (Simulation time: 01 hr 09 min 40 sec)
Heartbeat CPU 0 instructions: 640000004 cycles: 240355974 heartbeat IPC: 3.384 cumulative IPC: 2.59 (Simulation time: 01 hr 10 min 50 sec)
Heartbeat CPU 0 instructions: 650000000 cycles: 243111969 heartbeat IPC: 3.628 cumulative IPC: 2.602 (Simulation time: 01 hr 11 min 55 sec)
Simulation finished CPU 0 instructions: 600000001 cycles: 230574853 cumulative IPC: 2.602 (Simulation time: 01 hr 11 min 55 sec)
Simulation complete CPU 0 instructions: 600000001 cycles: 230574853 cumulative IPC: 2.602 (Simulation time: 01 hr 11 min 55 sec)

ChampSim completed all CPUs

=== Simulation ===
CPU 0 runs traces/400.perlbench-41B.champsimtrace.xz
Region of Interest Statistics

CPU 0 cumulative IPC: 2.602 instructions: 600000001 cycles: 230574853
CPU 0 Branch Prediction Accuracy: 99.19% MPKI: 1.684 Average ROB Occupancy at Mispredict: 102.8
Branch type MPKI
BRANCH_DIRECT_JUMP: 0.0123
BRANCH_INDIRECT: 0.323
BRANCH_CONDITIONAL: 1.14
BRANCH_DIRECT_CALL: 0.0043
BRANCH_INDIRECT_CALL: 0.2
BRANCH_RETURN: 0.00828

LLC TOTAL        ACCESS:     940162 HIT:     493060 MISS:     447102
LLC LOAD         ACCESS:     401976 HIT:     214446 MISS:     187530
LLC RFO          ACCESS:      32423 HIT:      12415 MISS:      20008
LLC PREFETCH     ACCESS:     401976 HIT:     207768 MISS:     194208
LLC WRITE        ACCESS:      84636 HIT:      54403 MISS:      30233
LLC TRANSLATION  ACCESS:      19151 HIT:       4028 MISS:      15123
LLC PREFETCH REQUESTED:     401976 ISSUED:     401976 USEFUL:      60272 USELESS:      86845
LLC AVERAGE MISS LATENCY: 633.1 cycles
cpu0_DTLB TOTAL        ACCESS:  129738889 HIT:  129034162 MISS:     704727
cpu0_DTLB LOAD         ACCESS:  129738889 HIT:  129034162 MISS:     704727
cpu0_DTLB RFO          ACCESS:          0 HIT:          0 MISS:          0
cpu0_DTLB PREFETCH     ACCESS:          0 HIT:          0 MISS:          0
cpu0_DTLB WRITE        ACCESS:          0 HIT:          0 MISS:          0
cpu0_DTLB TRANSLATION  ACCESS:          0 HIT:          0 MISS:          0
cpu0_DTLB PREFETCH REQUESTED:          0 ISSUED:          0 USEFUL:          0 USELESS:          0
cpu0_DTLB AVERAGE MISS LATENCY: 22.09 cycles
cpu0_ITLB TOTAL        ACCESS:    4869947 HIT:    4807783 MISS:      62164
cpu0_ITLB LOAD         ACCESS:    4869947 HIT:    4807783 MISS:      62164
cpu0_ITLB RFO          ACCESS:          0 HIT:          0 MISS:          0
cpu0_ITLB PREFETCH     ACCESS:          0 HIT:          0 MISS:          0
cpu0_ITLB WRITE        ACCESS:          0 HIT:          0 MISS:          0
cpu0_ITLB TRANSLATION  ACCESS:          0 HIT:          0 MISS:          0
cpu0_ITLB PREFETCH REQUESTED:          0 ISSUED:          0 USEFUL:          0 USELESS:          0
cpu0_ITLB AVERAGE MISS LATENCY: 7.679 cycles
cpu0_L1D TOTAL        ACCESS:  174330545 HIT:  172530899 MISS:    1799646
cpu0_L1D LOAD         ACCESS:   91309449 HIT:   89909729 MISS:    1399720
cpu0_L1D RFO          ACCESS:          0 HIT:          0 MISS:          0
cpu0_L1D PREFETCH     ACCESS:          0 HIT:          0 MISS:          0
cpu0_L1D WRITE        ACCESS:   82996634 HIT:   82620110 MISS:     376524
cpu0_L1D TRANSLATION  ACCESS:      24462 HIT:       1060 MISS:      23402
cpu0_L1D PREFETCH REQUESTED:          0 ISSUED:          0 USEFUL:          0 USELESS:          0
cpu0_L1D AVERAGE MISS LATENCY: 92.65 cycles
cpu0_L1I TOTAL        ACCESS:    5649354 HIT:    4845975 MISS:     803379
cpu0_L1I LOAD         ACCESS:    5649354 HIT:    4845975 MISS:     803379
cpu0_L1I RFO          ACCESS:          0 HIT:          0 MISS:          0
cpu0_L1I PREFETCH     ACCESS:          0 HIT:          0 MISS:          0
cpu0_L1I WRITE        ACCESS:          0 HIT:          0 MISS:          0
cpu0_L1I TRANSLATION  ACCESS:          0 HIT:          0 MISS:          0
cpu0_L1I PREFETCH REQUESTED:          0 ISSUED:          0 USEFUL:          0 USELESS:          0
cpu0_L1I AVERAGE MISS LATENCY: 14.89 cycles
cpu0_L2C TOTAL        ACCESS:    1667715 HIT:    1212341 MISS:     455374
cpu0_L2C LOAD         ACCESS:    1315189 HIT:     913213 MISS:     401976
cpu0_L2C RFO          ACCESS:      89634 HIT:      57211 MISS:      32423
cpu0_L2C PREFETCH     ACCESS:          0 HIT:          0 MISS:          0
cpu0_L2C WRITE        ACCESS:     239573 HIT:     237749 MISS:       1824
cpu0_L2C TRANSLATION  ACCESS:      23319 HIT:       4168 MISS:      19151
cpu0_L2C PREFETCH REQUESTED:          0 ISSUED:          0 USEFUL:          0 USELESS:          0
cpu0_L2C AVERAGE MISS LATENCY: 385.8 cycles
cpu0_STLB TOTAL        ACCESS:     508808 HIT:     486020 MISS:      22788
cpu0_STLB LOAD         ACCESS:     508808 HIT:     486020 MISS:      22788
cpu0_STLB RFO          ACCESS:          0 HIT:          0 MISS:          0
cpu0_STLB PREFETCH     ACCESS:          0 HIT:          0 MISS:          0
cpu0_STLB WRITE        ACCESS:          0 HIT:          0 MISS:          0
cpu0_STLB TRANSLATION  ACCESS:          0 HIT:          0 MISS:          0
cpu0_STLB PREFETCH REQUESTED:          0 ISSUED:          0 USEFUL:          0 USELESS:          0
cpu0_STLB AVERAGE MISS LATENCY: 597 cycles

DRAM Statistics

Channel 0 RQ ROW_BUFFER_HIT:      55076
  ROW_BUFFER_MISS:     293725
 AVG DBUS CONGESTED CYCLE: 3.91
WQ ROW_BUFFER_HIT: Channel 0 
  ROW_BUFFER_MISS:       5414
  FULL:      47776
