WARNING: physical memory size is smaller than virtual memory size.

*** ChampSim Multicore Out-of-Order Simulator ***
Warmup Instructions: 50000000
Simulation Instructions: 600000000
Number of CPUs: 1
Page size: 4096

Off-chip DRAM Size: 4 GiB Channels: 1 Width: 64-bit Data Race: 3200 MT/s
Heartbeat CPU 0 instructions: 10000001 cycles: 2500318 heartbeat IPC: 3.999 cumulative IPC: 3.999 (Simulation time: 00 hr 00 min 55 sec)
Heartbeat CPU 0 instructions: 20000002 cycles: 5037128 heartbeat IPC: 3.942 cumulative IPC: 3.971 (Simulation time: 00 hr 01 min 56 sec)
Heartbeat CPU 0 instructions: 30000002 cycles: 7537128 heartbeat IPC: 4 cumulative IPC: 3.98 (Simulation time: 00 hr 02 min 44 sec)
Heartbeat CPU 0 instructions: 40000002 cycles: 10037128 heartbeat IPC: 4 cumulative IPC: 3.985 (Simulation time: 00 hr 03 min 32 sec)
Heartbeat CPU 0 instructions: 50000002 cycles: 12537128 heartbeat IPC: 4 cumulative IPC: 3.988 (Simulation time: 00 hr 04 min 18 sec)
Warmup finished CPU 0 instructions: 50000002 cycles: 12537129 cumulative IPC: 3.988 (Simulation time: 00 hr 04 min 18 sec)
Warmup complete CPU 0 instructions: 50000002 cycles: 12537129 cumulative IPC: 3.988 (Simulation time: 00 hr 04 min 18 sec)
Heartbeat CPU 0 instructions: 60000000 cycles: 17725802 heartbeat IPC: 1.927 cumulative IPC: 1.927 (Simulation time: 00 hr 05 min 27 sec)
Heartbeat CPU 0 instructions: 70000002 cycles: 22635518 heartbeat IPC: 2.037 cumulative IPC: 1.981 (Simulation time: 00 hr 06 min 38 sec)
Heartbeat CPU 0 instructions: 80000001 cycles: 28018019 heartbeat IPC: 1.858 cumulative IPC: 1.938 (Simulation time: 00 hr 07 min 50 sec)
Heartbeat CPU 0 instructions: 90000001 cycles: 32915619 heartbeat IPC: 2.042 cumulative IPC: 1.963 (Simulation time: 00 hr 08 min 57 sec)
Heartbeat CPU 0 instructions: 100000000 cycles: 38042228 heartbeat IPC: 1.951 cumulative IPC: 1.96 (Simulation time: 00 hr 10 min 06 sec)
Heartbeat CPU 0 instructions: 110000000 cycles: 42947344 heartbeat IPC: 2.039 cumulative IPC: 1.973 (Simulation time: 00 hr 11 min 13 sec)
Heartbeat CPU 0 instructions: 120000001 cycles: 48152793 heartbeat IPC: 1.921 cumulative IPC: 1.965 (Simulation time: 00 hr 12 min 23 sec)
Heartbeat CPU 0 instructions: 130000001 cycles: 53324233 heartbeat IPC: 1.934 cumulative IPC: 1.961 (Simulation time: 00 hr 13 min 47 sec)
Heartbeat CPU 0 instructions: 140000001 cycles: 58655979 heartbeat IPC: 1.876 cumulative IPC: 1.951 (Simulation time: 00 hr 15 min 09 sec)
Heartbeat CPU 0 instructions: 150000001 cycles: 63988649 heartbeat IPC: 1.875 cumulative IPC: 1.944 (Simulation time: 00 hr 16 min 27 sec)
Heartbeat CPU 0 instructions: 160000004 cycles: 69219111 heartbeat IPC: 1.912 cumulative IPC: 1.941 (Simulation time: 00 hr 17 min 38 sec)
Heartbeat CPU 0 instructions: 170000000 cycles: 80292930 heartbeat IPC: 0.903 cumulative IPC: 1.771 (Simulation time: 00 hr 19 min 36 sec)
Heartbeat CPU 0 instructions: 180000004 cycles: 91926880 heartbeat IPC: 0.8596 cumulative IPC: 1.637 (Simulation time: 00 hr 21 min 41 sec)
Heartbeat CPU 0 instructions: 190000001 cycles: 103338821 heartbeat IPC: 0.8763 cumulative IPC: 1.542 (Simulation time: 00 hr 23 min 44 sec)
Heartbeat CPU 0 instructions: 200000003 cycles: 108111059 heartbeat IPC: 2.095 cumulative IPC: 1.569 (Simulation time: 00 hr 24 min 51 sec)
Heartbeat CPU 0 instructions: 210000001 cycles: 113032195 heartbeat IPC: 2.032 cumulative IPC: 1.592 (Simulation time: 00 hr 26 min 00 sec)
Heartbeat CPU 0 instructions: 220000000 cycles: 117862833 heartbeat IPC: 2.07 cumulative IPC: 1.614 (Simulation time: 00 hr 27 min 20 sec)
Heartbeat CPU 0 instructions: 230000002 cycles: 123189556 heartbeat IPC: 1.877 cumulative IPC: 1.627 (Simulation time: 00 hr 28 min 43 sec)
Heartbeat CPU 0 instructions: 240000000 cycles: 128037258 heartbeat IPC: 2.063 cumulative IPC: 1.645 (Simulation time: 00 hr 30 min 02 sec)
Heartbeat CPU 0 instructions: 250000000 cycles: 133195096 heartbeat IPC: 1.939 cumulative IPC: 1.658 (Simulation time: 00 hr 31 min 21 sec)
Heartbeat CPU 0 instructions: 260000000 cycles: 138226514 heartbeat IPC: 1.988 cumulative IPC: 1.671 (Simulation time: 00 hr 32 min 31 sec)
Heartbeat CPU 0 instructions: 270000002 cycles: 143110596 heartbeat IPC: 2.047 cumulative IPC: 1.685 (Simulation time: 00 hr 33 min 37 sec)
Heartbeat CPU 0 instructions: 280000002 cycles: 148022719 heartbeat IPC: 2.036 cumulative IPC: 1.698 (Simulation time: 00 hr 34 min 40 sec)
Heartbeat CPU 0 instructions: 290000001 cycles: 153392264 heartbeat IPC: 1.862 cumulative IPC: 1.704 (Simulation time: 00 hr 35 min 48 sec)
Heartbeat CPU 0 instructions: 300000003 cycles: 158455293 heartbeat IPC: 1.975 cumulative IPC: 1.713 (Simulation time: 00 hr 36 min 56 sec)
Heartbeat CPU 0 instructions: 310000001 cycles: 163749964 heartbeat IPC: 1.889 cumulative IPC: 1.719 (Simulation time: 00 hr 38 min 01 sec)
Heartbeat CPU 0 instructions: 320000003 cycles: 168958051 heartbeat IPC: 1.92 cumulative IPC: 1.726 (Simulation time: 00 hr 39 min 07 sec)
Heartbeat CPU 0 instructions: 330000003 cycles: 174249121 heartbeat IPC: 1.89 cumulative IPC: 1.731 (Simulation time: 00 hr 40 min 12 sec)
Heartbeat CPU 0 instructions: 340000000 cycles: 184988320 heartbeat IPC: 0.9312 cumulative IPC: 1.682 (Simulation time: 00 hr 42 min 03 sec)
Heartbeat CPU 0 instructions: 350000000 cycles: 197389005 heartbeat IPC: 0.8064 cumulative IPC: 1.623 (Simulation time: 00 hr 44 min 38 sec)
Heartbeat CPU 0 instructions: 360000004 cycles: 208592346 heartbeat IPC: 0.8926 cumulative IPC: 1.581 (Simulation time: 00 hr 47 min 00 sec)
Heartbeat CPU 0 instructions: 370000000 cycles: 213008622 heartbeat IPC: 2.264 cumulative IPC: 1.596 (Simulation time: 00 hr 48 min 12 sec)
Heartbeat CPU 0 instructions: 380000001 cycles: 217928320 heartbeat IPC: 2.033 cumulative IPC: 1.607 (Simulation time: 00 hr 49 min 26 sec)
Heartbeat CPU 0 instructions: 390000002 cycles: 222752695 heartbeat IPC: 2.073 cumulative IPC: 1.617 (Simulation time: 00 hr 50 min 38 sec)
Heartbeat CPU 0 instructions: 400000004 cycles: 227687901 heartbeat IPC: 2.026 cumulative IPC: 1.627 (Simulation time: 00 hr 51 min 49 sec)
Heartbeat CPU 0 instructions: 410000000 cycles: 232413246 heartbeat IPC: 2.116 cumulative IPC: 1.637 (Simulation time: 00 hr 52 min 58 sec)
Heartbeat CPU 0 instructions: 420000000 cycles: 237582072 heartbeat IPC: 1.935 cumulative IPC: 1.644 (Simulation time: 00 hr 54 min 09 sec)
Heartbeat CPU 0 instructions: 430000001 cycles: 242052494 heartbeat IPC: 2.237 cumulative IPC: 1.656 (Simulation time: 00 hr 55 min 16 sec)
Heartbeat CPU 0 instructions: 440000000 cycles: 247407401 heartbeat IPC: 1.867 cumulative IPC: 1.66 (Simulation time: 00 hr 56 min 27 sec)
Heartbeat CPU 0 instructions: 450000002 cycles: 252076464 heartbeat IPC: 2.142 cumulative IPC: 1.67 (Simulation time: 00 hr 57 min 32 sec)
Heartbeat CPU 0 instructions: 460000000 cycles: 256872212 heartbeat IPC: 2.085 cumulative IPC: 1.678 (Simulation time: 00 hr 58 min 39 sec)
Heartbeat CPU 0 instructions: 470000000 cycles: 261852675 heartbeat IPC: 2.008 cumulative IPC: 1.685 (Simulation time: 00 hr 59 min 46 sec)
Heartbeat CPU 0 instructions: 480000003 cycles: 266668245 heartbeat IPC: 2.077 cumulative IPC: 1.692 (Simulation time: 01 hr 00 min 54 sec)
Heartbeat CPU 0 instructions: 490000000 cycles: 271276818 heartbeat IPC: 2.17 cumulative IPC: 1.701 (Simulation time: 01 hr 02 min 00 sec)
Heartbeat CPU 0 instructions: 500000000 cycles: 276300303 heartbeat IPC: 1.991 cumulative IPC: 1.706 (Simulation time: 01 hr 03 min 07 sec)
Heartbeat CPU 0 instructions: 510000003 cycles: 281980497 heartbeat IPC: 1.761 cumulative IPC: 1.707 (Simulation time: 01 hr 04 min 20 sec)
Heartbeat CPU 0 instructions: 520000001 cycles: 286673291 heartbeat IPC: 2.131 cumulative IPC: 1.714 (Simulation time: 01 hr 05 min 30 sec)
Heartbeat CPU 0 instructions: 530000002 cycles: 291840783 heartbeat IPC: 1.935 cumulative IPC: 1.719 (Simulation time: 01 hr 06 min 40 sec)
Heartbeat CPU 0 instructions: 540000000 cycles: 296959891 heartbeat IPC: 1.953 cumulative IPC: 1.723 (Simulation time: 01 hr 07 min 48 sec)
Heartbeat CPU 0 instructions: 550000001 cycles: 301765559 heartbeat IPC: 2.081 cumulative IPC: 1.729 (Simulation time: 01 hr 08 min 58 sec)
Heartbeat CPU 0 instructions: 560000000 cycles: 307045193 heartbeat IPC: 1.894 cumulative IPC: 1.732 (Simulation time: 01 hr 10 min 12 sec)
Heartbeat CPU 0 instructions: 570000004 cycles: 314202560 heartbeat IPC: 1.397 cumulative IPC: 1.724 (Simulation time: 01 hr 11 min 36 sec)
Heartbeat CPU 0 instructions: 580000003 cycles: 326637861 heartbeat IPC: 0.8042 cumulative IPC: 1.687 (Simulation time: 01 hr 13 min 33 sec)
Heartbeat CPU 0 instructions: 590000002 cycles: 340852779 heartbeat IPC: 0.7035 cumulative IPC: 1.645 (Simulation time: 01 hr 15 min 26 sec)
Heartbeat CPU 0 instructions: 600000000 cycles: 345437429 heartbeat IPC: 2.181 cumulative IPC: 1.652 (Simulation time: 01 hr 16 min 14 sec)
Heartbeat CPU 0 instructions: 610000002 cycles: 349930008 heartbeat IPC: 2.226 cumulative IPC: 1.66 (Simulation time: 01 hr 16 min 57 sec)
Heartbeat CPU 0 instructions: 620000000 cycles: 354732217 heartbeat IPC: 2.082 cumulative IPC: 1.666 (Simulation time: 01 hr 17 min 38 sec)
Heartbeat CPU 0 instructions: 630000002 cycles: 359813409 heartbeat IPC: 1.968 cumulative IPC: 1.67 (Simulation time: 01 hr 18 min 12 sec)
Heartbeat CPU 0 instructions: 640000001 cycles: 364665153 heartbeat IPC: 2.061 cumulative IPC: 1.676 (Simulation time: 01 hr 18 min 43 sec)
Heartbeat CPU 0 instructions: 650000000 cycles: 369218589 heartbeat IPC: 2.196 cumulative IPC: 1.682 (Simulation time: 01 hr 19 min 10 sec)
Simulation finished CPU 0 instructions: 600000001 cycles: 356681462 cumulative IPC: 1.682 (Simulation time: 01 hr 19 min 10 sec)
Simulation complete CPU 0 instructions: 600000001 cycles: 356681462 cumulative IPC: 1.682 (Simulation time: 01 hr 19 min 10 sec)

ChampSim completed all CPUs

=== Simulation ===
CPU 0 runs traces/400.perlbench-41B.champsimtrace.xz
Region of Interest Statistics

CPU 0 cumulative IPC: 1.682 instructions: 600000001 cycles: 356681462
CPU 0 Branch Prediction Accuracy: 93.95% MPKI: 12.5 Average ROB Occupancy at Mispredict: 29.72
Branch type MPKI
BRANCH_DIRECT_JUMP: 0.0123
BRANCH_INDIRECT: 0.323
BRANCH_CONDITIONAL: 12
BRANCH_DIRECT_CALL: 0.0043
BRANCH_INDIRECT_CALL: 0.2
BRANCH_RETURN: 0.00828

LLC TOTAL        ACCESS:     540330 HIT:     251805 MISS:     288525
LLC LOAD         ACCESS:     403215 HIT:     152361 MISS:     250854
LLC RFO          ACCESS:      32561 HIT:      16597 MISS:      15964
LLC PREFETCH     ACCESS:          0 HIT:          0 MISS:          0
LLC WRITE        ACCESS:      85555 HIT:      73994 MISS:      11561
LLC TRANSLATION  ACCESS:      18999 HIT:       8853 MISS:      10146
LLC PREFETCH REQUESTED:          0 ISSUED:          0 USEFUL:          0 USELESS:          0
LLC AVERAGE MISS LATENCY: 532.5 cycles
cpu0_DTLB TOTAL        ACCESS:  153672065 HIT:  152993270 MISS:     678795
cpu0_DTLB LOAD         ACCESS:  153672065 HIT:  152993270 MISS:     678795
cpu0_DTLB RFO          ACCESS:          0 HIT:          0 MISS:          0
cpu0_DTLB PREFETCH     ACCESS:          0 HIT:          0 MISS:          0
cpu0_DTLB WRITE        ACCESS:          0 HIT:          0 MISS:          0
cpu0_DTLB TRANSLATION  ACCESS:          0 HIT:          0 MISS:          0
cpu0_DTLB PREFETCH REQUESTED:          0 ISSUED:          0 USEFUL:          0 USELESS:          0
cpu0_DTLB AVERAGE MISS LATENCY: 15.78 cycles
cpu0_ITLB TOTAL        ACCESS:    4835540 HIT:    4777711 MISS:      57829
cpu0_ITLB LOAD         ACCESS:    4835540 HIT:    4777711 MISS:      57829
cpu0_ITLB RFO          ACCESS:          0 HIT:          0 MISS:          0
cpu0_ITLB PREFETCH     ACCESS:          0 HIT:          0 MISS:          0
cpu0_ITLB WRITE        ACCESS:          0 HIT:          0 MISS:          0
cpu0_ITLB TRANSLATION  ACCESS:          0 HIT:          0 MISS:          0
cpu0_ITLB PREFETCH REQUESTED:          0 ISSUED:          0 USEFUL:          0 USELESS:          0
cpu0_ITLB AVERAGE MISS LATENCY: 7.226 cycles
cpu0_L1D TOTAL        ACCESS:  200275301 HIT:  198530542 MISS:    1744759
cpu0_L1D LOAD         ACCESS:  117032862 HIT:  115671760 MISS:    1361102
cpu0_L1D RFO          ACCESS:          0 HIT:          0 MISS:          0
cpu0_L1D PREFETCH     ACCESS:          0 HIT:          0 MISS:          0
cpu0_L1D WRITE        ACCESS:   83217975 HIT:   82857746 MISS:     360229
cpu0_L1D TRANSLATION  ACCESS:      24464 HIT:       1036 MISS:      23428
cpu0_L1D PREFETCH REQUESTED:          0 ISSUED:          0 USEFUL:          0 USELESS:          0
cpu0_L1D AVERAGE MISS LATENCY: 92.21 cycles
cpu0_L1I TOTAL        ACCESS:    5578011 HIT:    4816617 MISS:     761394
cpu0_L1I LOAD         ACCESS:    5578011 HIT:    4816617 MISS:     761394
cpu0_L1I RFO          ACCESS:          0 HIT:          0 MISS:          0
cpu0_L1I PREFETCH     ACCESS:          0 HIT:          0 MISS:          0
cpu0_L1I WRITE        ACCESS:          0 HIT:          0 MISS:          0
cpu0_L1I TRANSLATION  ACCESS:          0 HIT:          0 MISS:          0
cpu0_L1I PREFETCH REQUESTED:          0 ISSUED:          0 USEFUL:          0 USELESS:          0
cpu0_L1I AVERAGE MISS LATENCY: 14.65 cycles
cpu0_L2C TOTAL        ACCESS:    1667867 HIT:    1211311 MISS:     456556
cpu0_L2C LOAD         ACCESS:    1317035 HIT:     913820 MISS:     403215
cpu0_L2C RFO          ACCESS:      88638 HIT:      56077 MISS:      32561
cpu0_L2C PREFETCH     ACCESS:          0 HIT:          0 MISS:          0
cpu0_L2C WRITE        ACCESS:     238850 HIT:     237069 MISS:       1781
cpu0_L2C TRANSLATION  ACCESS:      23344 HIT:       4345 MISS:      18999
cpu0_L2C PREFETCH REQUESTED:          0 ISSUED:          0 USEFUL:          0 USELESS:          0
cpu0_L2C AVERAGE MISS LATENCY: 357.1 cycles
cpu0_STLB TOTAL        ACCESS:     505312 HIT:     482522 MISS:      22790
cpu0_STLB LOAD         ACCESS:     505312 HIT:     482522 MISS:      22790
cpu0_STLB RFO          ACCESS:          0 HIT:          0 MISS:          0
cpu0_STLB PREFETCH     ACCESS:          0 HIT:          0 MISS:          0
cpu0_STLB WRITE        ACCESS:          0 HIT:          0 MISS:          0
cpu0_STLB TRANSLATION  ACCESS:          0 HIT:          0 MISS:          0
cpu0_STLB PREFETCH REQUESTED:          0 ISSUED:          0 USEFUL:          0 USELESS:          0
cpu0_STLB AVERAGE MISS LATENCY: 349.5 cycles

DRAM Statistics

Channel 0 RQ ROW_BUFFER_HIT:      45784
  ROW_BUFFER_MISS:     231130
 AVG DBUS CONGESTED CYCLE: 3.796
WQ ROW_BUFFER_HIT: Channel 0 
  ROW_BUFFER_MISS:       8672
  FULL:      31782
