WARNING: physical memory size is smaller than virtual memory size.

*** ChampSim Multicore Out-of-Order Simulator ***
Warmup Instructions: 50000000
Simulation Instructions: 600000000
Number of CPUs: 1
Page size: 4096

CPU 0 Tage branch predictor
Off-chip DRAM Size: 4 GiB Channels: 1 Width: 64-bit Data Race: 3200 MT/s
Heartbeat CPU 0 instructions: 10000000 cycles: 2881042 heartbeat IPC: 3.471 cumulative IPC: 3.471 (Simulation time: 00 hr 00 min 39 sec)
Heartbeat CPU 0 instructions: 20000000 cycles: 5381042 heartbeat IPC: 4 cumulative IPC: 3.717 (Simulation time: 00 hr 01 min 15 sec)
Heartbeat CPU 0 instructions: 30000000 cycles: 7881042 heartbeat IPC: 4 cumulative IPC: 3.807 (Simulation time: 00 hr 01 min 53 sec)
Heartbeat CPU 0 instructions: 40000000 cycles: 10381042 heartbeat IPC: 4 cumulative IPC: 3.853 (Simulation time: 00 hr 02 min 31 sec)
Heartbeat CPU 0 instructions: 50000000 cycles: 12881042 heartbeat IPC: 4 cumulative IPC: 3.882 (Simulation time: 00 hr 03 min 07 sec)
Warmup finished CPU 0 instructions: 50000000 cycles: 12881043 cumulative IPC: 3.882 (Simulation time: 00 hr 03 min 07 sec)
Warmup complete CPU 0 instructions: 50000000 cycles: 12881043 cumulative IPC: 3.882 (Simulation time: 00 hr 03 min 07 sec)
Heartbeat CPU 0 instructions: 60000004 cycles: 15381387 heartbeat IPC: 3.999 cumulative IPC: 3.999 (Simulation time: 00 hr 03 min 48 sec)
Heartbeat CPU 0 instructions: 70000002 cycles: 17881465 heartbeat IPC: 4 cumulative IPC: 4 (Simulation time: 00 hr 04 min 30 sec)
Heartbeat CPU 0 instructions: 80000001 cycles: 20381583 heartbeat IPC: 4 cumulative IPC: 4 (Simulation time: 00 hr 05 min 10 sec)
Heartbeat CPU 0 instructions: 90000004 cycles: 22881704 heartbeat IPC: 4 cumulative IPC: 4 (Simulation time: 00 hr 05 min 51 sec)
Heartbeat CPU 0 instructions: 100000000 cycles: 25381823 heartbeat IPC: 4 cumulative IPC: 4 (Simulation time: 00 hr 06 min 32 sec)
Heartbeat CPU 0 instructions: 110000002 cycles: 27881942 heartbeat IPC: 4 cumulative IPC: 4 (Simulation time: 00 hr 07 min 13 sec)
Heartbeat CPU 0 instructions: 120000000 cycles: 30382052 heartbeat IPC: 4 cumulative IPC: 4 (Simulation time: 00 hr 07 min 54 sec)
Heartbeat CPU 0 instructions: 130000002 cycles: 32882217 heartbeat IPC: 4 cumulative IPC: 4 (Simulation time: 00 hr 08 min 35 sec)
Heartbeat CPU 0 instructions: 140000004 cycles: 35382338 heartbeat IPC: 4 cumulative IPC: 4 (Simulation time: 00 hr 09 min 17 sec)
Heartbeat CPU 0 instructions: 150000000 cycles: 37882415 heartbeat IPC: 4 cumulative IPC: 4 (Simulation time: 00 hr 09 min 58 sec)
Heartbeat CPU 0 instructions: 160000003 cycles: 40382600 heartbeat IPC: 4 cumulative IPC: 4 (Simulation time: 00 hr 10 min 40 sec)
Heartbeat CPU 0 instructions: 170000002 cycles: 42882767 heartbeat IPC: 4 cumulative IPC: 4 (Simulation time: 00 hr 11 min 21 sec)
Heartbeat CPU 0 instructions: 180000000 cycles: 45382843 heartbeat IPC: 4 cumulative IPC: 4 (Simulation time: 00 hr 12 min 04 sec)
Heartbeat CPU 0 instructions: 190000003 cycles: 47882910 heartbeat IPC: 4 cumulative IPC: 4 (Simulation time: 00 hr 12 min 47 sec)
Heartbeat CPU 0 instructions: 200000000 cycles: 50383073 heartbeat IPC: 4 cumulative IPC: 4 (Simulation time: 00 hr 13 min 29 sec)
Heartbeat CPU 0 instructions: 210000000 cycles: 52883191 heartbeat IPC: 4 cumulative IPC: 4 (Simulation time: 00 hr 14 min 11 sec)
Heartbeat CPU 0 instructions: 220000003 cycles: 55383358 heartbeat IPC: 4 cumulative IPC: 4 (Simulation time: 00 hr 14 min 55 sec)
Heartbeat CPU 0 instructions: 230000001 cycles: 89527211 heartbeat IPC: 0.2929 cumulative IPC: 2.348 (Simulation time: 00 hr 18 min 40 sec)
Heartbeat CPU 0 instructions: 240000002 cycles: 93841853 heartbeat IPC: 2.318 cumulative IPC: 2.347 (Simulation time: 00 hr 19 min 46 sec)
Heartbeat CPU 0 instructions: 250000000 cycles: 98162800 heartbeat IPC: 2.314 cumulative IPC: 2.345 (Simulation time: 00 hr 20 min 55 sec)
Heartbeat CPU 0 instructions: 260000004 cycles: 102485462 heartbeat IPC: 2.313 cumulative IPC: 2.344 (Simulation time: 00 hr 22 min 07 sec)
Heartbeat CPU 0 instructions: 270000003 cycles: 106809209 heartbeat IPC: 2.313 cumulative IPC: 2.342 (Simulation time: 00 hr 23 min 17 sec)
Heartbeat CPU 0 instructions: 280000003 cycles: 111139527 heartbeat IPC: 2.309 cumulative IPC: 2.341 (Simulation time: 00 hr 24 min 24 sec)
Heartbeat CPU 0 instructions: 290000000 cycles: 115491779 heartbeat IPC: 2.298 cumulative IPC: 2.339 (Simulation time: 00 hr 25 min 29 sec)
Heartbeat CPU 0 instructions: 300000003 cycles: 119810853 heartbeat IPC: 2.315 cumulative IPC: 2.338 (Simulation time: 00 hr 26 min 33 sec)
Heartbeat CPU 0 instructions: 310000002 cycles: 124151090 heartbeat IPC: 2.304 cumulative IPC: 2.337 (Simulation time: 00 hr 27 min 34 sec)
Heartbeat CPU 0 instructions: 320000002 cycles: 128479684 heartbeat IPC: 2.31 cumulative IPC: 2.336 (Simulation time: 00 hr 28 min 34 sec)
Heartbeat CPU 0 instructions: 330000004 cycles: 132333039 heartbeat IPC: 2.595 cumulative IPC: 2.344 (Simulation time: 00 hr 29 min 29 sec)
Heartbeat CPU 0 instructions: 340000002 cycles: 135883757 heartbeat IPC: 2.816 cumulative IPC: 2.358 (Simulation time: 00 hr 30 min 22 sec)
Heartbeat CPU 0 instructions: 350000002 cycles: 139374563 heartbeat IPC: 2.865 cumulative IPC: 2.372 (Simulation time: 00 hr 31 min 13 sec)
Heartbeat CPU 0 instructions: 360000000 cycles: 142895693 heartbeat IPC: 2.84 cumulative IPC: 2.384 (Simulation time: 00 hr 32 min 04 sec)
Heartbeat CPU 0 instructions: 370000001 cycles: 146320350 heartbeat IPC: 2.92 cumulative IPC: 2.398 (Simulation time: 00 hr 32 min 53 sec)
Heartbeat CPU 0 instructions: 380000003 cycles: 149752500 heartbeat IPC: 2.914 cumulative IPC: 2.411 (Simulation time: 00 hr 33 min 41 sec)
Heartbeat CPU 0 instructions: 390000002 cycles: 153224161 heartbeat IPC: 2.88 cumulative IPC: 2.423 (Simulation time: 00 hr 34 min 31 sec)
Heartbeat CPU 0 instructions: 400000000 cycles: 156722655 heartbeat IPC: 2.858 cumulative IPC: 2.433 (Simulation time: 00 hr 35 min 22 sec)
Heartbeat CPU 0 instructions: 410000002 cycles: 160076555 heartbeat IPC: 2.982 cumulative IPC: 2.446 (Simulation time: 00 hr 36 min 10 sec)
Heartbeat CPU 0 instructions: 420000000 cycles: 163525465 heartbeat IPC: 2.899 cumulative IPC: 2.456 (Simulation time: 00 hr 36 min 59 sec)
Heartbeat CPU 0 instructions: 430000002 cycles: 166216531 heartbeat IPC: 3.716 cumulative IPC: 2.478 (Simulation time: 00 hr 37 min 41 sec)
Heartbeat CPU 0 instructions: 440000002 cycles: 168976763 heartbeat IPC: 3.623 cumulative IPC: 2.498 (Simulation time: 00 hr 38 min 25 sec)
Heartbeat CPU 0 instructions: 450000000 cycles: 171814366 heartbeat IPC: 3.524 cumulative IPC: 2.517 (Simulation time: 00 hr 39 min 09 sec)
Heartbeat CPU 0 instructions: 460000003 cycles: 175026757 heartbeat IPC: 3.113 cumulative IPC: 2.529 (Simulation time: 00 hr 39 min 56 sec)
Heartbeat CPU 0 instructions: 470000004 cycles: 178656681 heartbeat IPC: 2.755 cumulative IPC: 2.534 (Simulation time: 00 hr 40 min 45 sec)
Heartbeat CPU 0 instructions: 480000000 cycles: 182423210 heartbeat IPC: 2.655 cumulative IPC: 2.536 (Simulation time: 00 hr 41 min 37 sec)
Heartbeat CPU 0 instructions: 490000001 cycles: 186106888 heartbeat IPC: 2.715 cumulative IPC: 2.54 (Simulation time: 00 hr 42 min 29 sec)
Heartbeat CPU 0 instructions: 500000000 cycles: 189683229 heartbeat IPC: 2.796 cumulative IPC: 2.545 (Simulation time: 00 hr 43 min 19 sec)
Heartbeat CPU 0 instructions: 510000002 cycles: 193030863 heartbeat IPC: 2.987 cumulative IPC: 2.553 (Simulation time: 00 hr 44 min 07 sec)
Heartbeat CPU 0 instructions: 520000004 cycles: 259247484 heartbeat IPC: 0.151 cumulative IPC: 1.908 (Simulation time: 00 hr 52 min 41 sec)
Heartbeat CPU 0 instructions: 530000001 cycles: 375146343 heartbeat IPC: 0.08628 cumulative IPC: 1.325 (Simulation time: 01 hr 07 min 08 sec)
Heartbeat CPU 0 instructions: 540000001 cycles: 404432567 heartbeat IPC: 0.3415 cumulative IPC: 1.251 (Simulation time: 01 hr 11 min 04 sec)
Heartbeat CPU 0 instructions: 550000003 cycles: 432172829 heartbeat IPC: 0.3605 cumulative IPC: 1.192 (Simulation time: 01 hr 14 min 50 sec)
Heartbeat CPU 0 instructions: 560000001 cycles: 460079122 heartbeat IPC: 0.3583 cumulative IPC: 1.14 (Simulation time: 01 hr 18 min 40 sec)
Heartbeat CPU 0 instructions: 570000001 cycles: 488075722 heartbeat IPC: 0.3572 cumulative IPC: 1.094 (Simulation time: 01 hr 22 min 45 sec)
Heartbeat CPU 0 instructions: 580000002 cycles: 517095434 heartbeat IPC: 0.3446 cumulative IPC: 1.051 (Simulation time: 01 hr 27 min 08 sec)
Heartbeat CPU 0 instructions: 590000001 cycles: 545875849 heartbeat IPC: 0.3475 cumulative IPC: 1.013 (Simulation time: 01 hr 31 min 23 sec)
*** Reached end of trace: (0, "traces/bt.A.champsimtrace")
Heartbeat CPU 0 instructions: 600000001 cycles: 574498455 heartbeat IPC: 0.3494 cumulative IPC: 0.9793 (Simulation time: 01 hr 35 min 39 sec)
Heartbeat CPU 0 instructions: 610000004 cycles: 598635676 heartbeat IPC: 0.4143 cumulative IPC: 0.956 (Simulation time: 01 hr 38 min 29 sec)
Heartbeat CPU 0 instructions: 620000000 cycles: 601135796 heartbeat IPC: 4 cumulative IPC: 0.969 (Simulation time: 01 hr 39 min 13 sec)
Heartbeat CPU 0 instructions: 630000002 cycles: 603635918 heartbeat IPC: 4 cumulative IPC: 0.9818 (Simulation time: 01 hr 39 min 58 sec)
Heartbeat CPU 0 instructions: 640000001 cycles: 606136039 heartbeat IPC: 4 cumulative IPC: 0.9945 (Simulation time: 01 hr 40 min 43 sec)
Heartbeat CPU 0 instructions: 650000002 cycles: 608636147 heartbeat IPC: 4 cumulative IPC: 1.007 (Simulation time: 01 hr 41 min 29 sec)
Simulation finished CPU 0 instructions: 600000002 cycles: 595755105 cumulative IPC: 1.007 (Simulation time: 01 hr 41 min 29 sec)
Simulation complete CPU 0 instructions: 600000002 cycles: 595755105 cumulative IPC: 1.007 (Simulation time: 01 hr 41 min 29 sec)

ChampSim completed all CPUs

=== Simulation ===
CPU 0 runs traces/bt.A.champsimtrace
Region of Interest Statistics

CPU 0 cumulative IPC: 1.007 instructions: 600000002 cycles: 595755105
CPU 0 Branch Prediction Accuracy: 99.98% MPKI: 0.004168 Average ROB Occupancy at Mispredict: 111.6
Branch type MPKI
BRANCH_DIRECT_JUMP: 5e-06
BRANCH_INDIRECT: 7.83e-05
BRANCH_CONDITIONAL: 0.00402
BRANCH_DIRECT_CALL: 6.67e-06
BRANCH_INDIRECT_CALL: 3.67e-05
BRANCH_RETURN: 2.33e-05

LLC TOTAL        ACCESS:    7362541 HIT:    3667532 MISS:    3695009
LLC LOAD         ACCESS:    2240478 HIT:    1146895 MISS:    1093583
LLC RFO          ACCESS:     889446 HIT:      10551 MISS:     878895
LLC PREFETCH     ACCESS:    2240478 HIT:     519729 MISS:    1720749
LLC WRITE        ACCESS:    1988763 HIT:    1988642 MISS:        121
LLC TRANSLATION  ACCESS:       3376 HIT:       1715 MISS:       1661
LLC PREFETCH REQUESTED:    2240478 ISSUED:    2240478 USEFUL:    1452704 USELESS:      24622
LLC AVERAGE MISS LATENCY: 1143 cycles
cpu0_DTLB TOTAL        ACCESS:  130048848 HIT:  129287010 MISS:     761838
cpu0_DTLB LOAD         ACCESS:  130048848 HIT:  129287010 MISS:     761838
cpu0_DTLB RFO          ACCESS:          0 HIT:          0 MISS:          0
cpu0_DTLB PREFETCH     ACCESS:          0 HIT:          0 MISS:          0
cpu0_DTLB WRITE        ACCESS:          0 HIT:          0 MISS:          0
cpu0_DTLB TRANSLATION  ACCESS:          0 HIT:          0 MISS:          0
cpu0_DTLB PREFETCH REQUESTED:          0 ISSUED:          0 USEFUL:          0 USELESS:          0
cpu0_DTLB AVERAGE MISS LATENCY: 13.3 cycles
cpu0_ITLB TOTAL        ACCESS:     173289 HIT:     173034 MISS:        255
cpu0_ITLB LOAD         ACCESS:     173289 HIT:     173034 MISS:        255
cpu0_ITLB RFO          ACCESS:          0 HIT:          0 MISS:          0
cpu0_ITLB PREFETCH     ACCESS:          0 HIT:          0 MISS:          0
cpu0_ITLB WRITE        ACCESS:          0 HIT:          0 MISS:          0
cpu0_ITLB TRANSLATION  ACCESS:          0 HIT:          0 MISS:          0
cpu0_ITLB PREFETCH REQUESTED:          0 ISSUED:          0 USEFUL:          0 USELESS:          0
cpu0_ITLB AVERAGE MISS LATENCY: 303.6 cycles
cpu0_L1D TOTAL        ACCESS:  198583473 HIT:  185037238 MISS:   13546235
cpu0_L1D LOAD         ACCESS:  163901182 HIT:  154493907 MISS:    9407275
cpu0_L1D RFO          ACCESS:          0 HIT:          0 MISS:          0
cpu0_L1D PREFETCH     ACCESS:          0 HIT:          0 MISS:          0
cpu0_L1D WRITE        ACCESS:   34635517 HIT:   30513662 MISS:    4121855
cpu0_L1D TRANSLATION  ACCESS:      46774 HIT:      29669 MISS:      17105
cpu0_L1D PREFETCH REQUESTED:          0 ISSUED:          0 USEFUL:          0 USELESS:          0
cpu0_L1D AVERAGE MISS LATENCY: 154.4 cycles
cpu0_L1I TOTAL        ACCESS:     204645 HIT:     201698 MISS:       2947
cpu0_L1I LOAD         ACCESS:     204645 HIT:     201698 MISS:       2947
cpu0_L1I RFO          ACCESS:          0 HIT:          0 MISS:          0
cpu0_L1I PREFETCH     ACCESS:          0 HIT:          0 MISS:          0
cpu0_L1I WRITE        ACCESS:          0 HIT:          0 MISS:          0
cpu0_L1I TRANSLATION  ACCESS:          0 HIT:          0 MISS:          0
cpu0_L1I PREFETCH REQUESTED:          0 ISSUED:          0 USEFUL:          0 USELESS:          0
cpu0_L1I AVERAGE MISS LATENCY: 401.9 cycles
cpu0_L2C TOTAL        ACCESS:    5266056 HIT:    2132236 MISS:    3133820
cpu0_L2C LOAD         ACCESS:    2359951 HIT:     119409 MISS:    2240542
cpu0_L2C RFO          ACCESS:     889974 HIT:        528 MISS:     889446
cpu0_L2C PREFETCH     ACCESS:          0 HIT:          0 MISS:          0
cpu0_L2C WRITE        ACCESS:    1999030 HIT:    1998574 MISS:        456
cpu0_L2C TRANSLATION  ACCESS:      17101 HIT:      13725 MISS:       3376
cpu0_L2C PREFETCH REQUESTED:          0 ISSUED:          0 USEFUL:          0 USELESS:          0
cpu0_L2C AVERAGE MISS LATENCY: 875.8 cycles
cpu0_STLB TOTAL        ACCESS:     314993 HIT:     268241 MISS:      46752
cpu0_STLB LOAD         ACCESS:     314993 HIT:     268241 MISS:      46752
cpu0_STLB RFO          ACCESS:          0 HIT:          0 MISS:          0
cpu0_STLB PREFETCH     ACCESS:          0 HIT:          0 MISS:          0
cpu0_STLB WRITE        ACCESS:          0 HIT:          0 MISS:          0
cpu0_STLB TRANSLATION  ACCESS:          0 HIT:          0 MISS:          0
cpu0_STLB PREFETCH REQUESTED:          0 ISSUED:          0 USEFUL:          0 USELESS:          0
cpu0_STLB AVERAGE MISS LATENCY: 292.6 cycles

DRAM Statistics

Channel 0 RQ ROW_BUFFER_HIT:     728856
  ROW_BUFFER_MISS:    1903221
 AVG DBUS CONGESTED CYCLE: 3.979
WQ ROW_BUFFER_HIT: Channel 0 
  ROW_BUFFER_MISS:     435187
  FULL:    1269593
