WARNING: physical memory size is smaller than virtual memory size.

*** ChampSim Multicore Out-of-Order Simulator ***
Warmup Instructions: 50000000
Simulation Instructions: 600000000
Number of CPUs: 1
Page size: 4096

CPU 0 Tage branch predictor
Off-chip DRAM Size: 4 GiB Channels: 1 Width: 64-bit Data Race: 3200 MT/s
Heartbeat CPU 0 instructions: 10000002 cycles: 2881030 heartbeat IPC: 3.471 cumulative IPC: 3.471 (Simulation time: 00 hr 00 min 56 sec)
Heartbeat CPU 0 instructions: 20000002 cycles: 5381030 heartbeat IPC: 4 cumulative IPC: 3.717 (Simulation time: 00 hr 01 min 46 sec)
Heartbeat CPU 0 instructions: 30000002 cycles: 7881030 heartbeat IPC: 4 cumulative IPC: 3.807 (Simulation time: 00 hr 02 min 36 sec)
Heartbeat CPU 0 instructions: 40000002 cycles: 10381030 heartbeat IPC: 4 cumulative IPC: 3.853 (Simulation time: 00 hr 03 min 28 sec)
Heartbeat CPU 0 instructions: 50000002 cycles: 12881030 heartbeat IPC: 4 cumulative IPC: 3.882 (Simulation time: 00 hr 04 min 18 sec)
Warmup finished CPU 0 instructions: 50000002 cycles: 12881031 cumulative IPC: 3.882 (Simulation time: 00 hr 04 min 18 sec)
Warmup complete CPU 0 instructions: 50000002 cycles: 12881031 cumulative IPC: 3.882 (Simulation time: 00 hr 04 min 18 sec)
Heartbeat CPU 0 instructions: 60000004 cycles: 15383335 heartbeat IPC: 3.996 cumulative IPC: 3.996 (Simulation time: 00 hr 05 min 15 sec)
Heartbeat CPU 0 instructions: 70000000 cycles: 17885200 heartbeat IPC: 3.997 cumulative IPC: 3.997 (Simulation time: 00 hr 06 min 12 sec)
Heartbeat CPU 0 instructions: 80000002 cycles: 20385336 heartbeat IPC: 4 cumulative IPC: 3.998 (Simulation time: 00 hr 07 min 09 sec)
Heartbeat CPU 0 instructions: 90000004 cycles: 22885426 heartbeat IPC: 4 cumulative IPC: 3.998 (Simulation time: 00 hr 08 min 07 sec)
Heartbeat CPU 0 instructions: 100000004 cycles: 25387460 heartbeat IPC: 3.997 cumulative IPC: 3.998 (Simulation time: 00 hr 09 min 03 sec)
Heartbeat CPU 0 instructions: 110000000 cycles: 27887549 heartbeat IPC: 4 cumulative IPC: 3.998 (Simulation time: 00 hr 10 min 00 sec)
Heartbeat CPU 0 instructions: 120000003 cycles: 30388612 heartbeat IPC: 3.998 cumulative IPC: 3.998 (Simulation time: 00 hr 11 min 06 sec)
Heartbeat CPU 0 instructions: 130000000 cycles: 32890537 heartbeat IPC: 3.997 cumulative IPC: 3.998 (Simulation time: 00 hr 12 min 04 sec)
Heartbeat CPU 0 instructions: 140000001 cycles: 35391304 heartbeat IPC: 3.999 cumulative IPC: 3.998 (Simulation time: 00 hr 13 min 00 sec)
Heartbeat CPU 0 instructions: 150000000 cycles: 37892177 heartbeat IPC: 3.999 cumulative IPC: 3.998 (Simulation time: 00 hr 13 min 58 sec)
Heartbeat CPU 0 instructions: 160000001 cycles: 40392266 heartbeat IPC: 4 cumulative IPC: 3.998 (Simulation time: 00 hr 14 min 56 sec)
Heartbeat CPU 0 instructions: 170000002 cycles: 42892444 heartbeat IPC: 4 cumulative IPC: 3.998 (Simulation time: 00 hr 15 min 52 sec)
Heartbeat CPU 0 instructions: 180000001 cycles: 45393491 heartbeat IPC: 3.998 cumulative IPC: 3.998 (Simulation time: 00 hr 16 min 50 sec)
Heartbeat CPU 0 instructions: 190000004 cycles: 47894394 heartbeat IPC: 3.999 cumulative IPC: 3.998 (Simulation time: 00 hr 17 min 48 sec)
Heartbeat CPU 0 instructions: 200000000 cycles: 50395850 heartbeat IPC: 3.998 cumulative IPC: 3.998 (Simulation time: 00 hr 18 min 45 sec)
Heartbeat CPU 0 instructions: 210000000 cycles: 52895942 heartbeat IPC: 4 cumulative IPC: 3.999 (Simulation time: 00 hr 19 min 42 sec)
Heartbeat CPU 0 instructions: 220000000 cycles: 55396358 heartbeat IPC: 3.999 cumulative IPC: 3.999 (Simulation time: 00 hr 20 min 42 sec)
Heartbeat CPU 0 instructions: 230000003 cycles: 89471215 heartbeat IPC: 0.2935 cumulative IPC: 2.35 (Simulation time: 00 hr 26 min 11 sec)
Heartbeat CPU 0 instructions: 240000001 cycles: 93878040 heartbeat IPC: 2.269 cumulative IPC: 2.346 (Simulation time: 00 hr 27 min 32 sec)
Heartbeat CPU 0 instructions: 250000000 cycles: 98333572 heartbeat IPC: 2.244 cumulative IPC: 2.34 (Simulation time: 00 hr 28 min 54 sec)
Heartbeat CPU 0 instructions: 260000002 cycles: 102815295 heartbeat IPC: 2.231 cumulative IPC: 2.335 (Simulation time: 00 hr 30 min 17 sec)
Heartbeat CPU 0 instructions: 270000000 cycles: 107311886 heartbeat IPC: 2.224 cumulative IPC: 2.33 (Simulation time: 00 hr 31 min 38 sec)
Heartbeat CPU 0 instructions: 280000001 cycles: 111784851 heartbeat IPC: 2.236 cumulative IPC: 2.325 (Simulation time: 00 hr 32 min 59 sec)
Heartbeat CPU 0 instructions: 290000003 cycles: 116289079 heartbeat IPC: 2.22 cumulative IPC: 2.321 (Simulation time: 00 hr 34 min 20 sec)
Heartbeat CPU 0 instructions: 300000003 cycles: 120760435 heartbeat IPC: 2.236 cumulative IPC: 2.317 (Simulation time: 00 hr 35 min 42 sec)
Heartbeat CPU 0 instructions: 310000000 cycles: 125264125 heartbeat IPC: 2.22 cumulative IPC: 2.314 (Simulation time: 00 hr 37 min 02 sec)
Heartbeat CPU 0 instructions: 320000000 cycles: 129761570 heartbeat IPC: 2.223 cumulative IPC: 2.31 (Simulation time: 00 hr 38 min 24 sec)
Heartbeat CPU 0 instructions: 330000004 cycles: 133736853 heartbeat IPC: 2.516 cumulative IPC: 2.317 (Simulation time: 00 hr 39 min 39 sec)
Heartbeat CPU 0 instructions: 340000003 cycles: 137221899 heartbeat IPC: 2.869 cumulative IPC: 2.332 (Simulation time: 00 hr 40 min 48 sec)
Heartbeat CPU 0 instructions: 350000000 cycles: 140672594 heartbeat IPC: 2.898 cumulative IPC: 2.348 (Simulation time: 00 hr 41 min 58 sec)
Heartbeat CPU 0 instructions: 360000001 cycles: 144170528 heartbeat IPC: 2.859 cumulative IPC: 2.361 (Simulation time: 00 hr 43 min 07 sec)
Heartbeat CPU 0 instructions: 370000004 cycles: 147591572 heartbeat IPC: 2.923 cumulative IPC: 2.375 (Simulation time: 00 hr 44 min 17 sec)
Heartbeat CPU 0 instructions: 380000001 cycles: 151062572 heartbeat IPC: 2.881 cumulative IPC: 2.388 (Simulation time: 00 hr 45 min 26 sec)
Heartbeat CPU 0 instructions: 390000000 cycles: 154454266 heartbeat IPC: 2.948 cumulative IPC: 2.402 (Simulation time: 00 hr 46 min 33 sec)
Heartbeat CPU 0 instructions: 400000001 cycles: 157924769 heartbeat IPC: 2.881 cumulative IPC: 2.413 (Simulation time: 00 hr 47 min 44 sec)
Heartbeat CPU 0 instructions: 410000003 cycles: 161362067 heartbeat IPC: 2.909 cumulative IPC: 2.425 (Simulation time: 00 hr 48 min 53 sec)
Heartbeat CPU 0 instructions: 420000004 cycles: 164859142 heartbeat IPC: 2.86 cumulative IPC: 2.435 (Simulation time: 00 hr 50 min 02 sec)
Heartbeat CPU 0 instructions: 430000004 cycles: 168480756 heartbeat IPC: 2.761 cumulative IPC: 2.442 (Simulation time: 00 hr 51 min 14 sec)
Heartbeat CPU 0 instructions: 440000004 cycles: 172178560 heartbeat IPC: 2.704 cumulative IPC: 2.448 (Simulation time: 00 hr 52 min 26 sec)
Heartbeat CPU 0 instructions: 450000001 cycles: 175789346 heartbeat IPC: 2.769 cumulative IPC: 2.455 (Simulation time: 00 hr 53 min 36 sec)
Heartbeat CPU 0 instructions: 460000001 cycles: 179484463 heartbeat IPC: 2.706 cumulative IPC: 2.461 (Simulation time: 00 hr 54 min 49 sec)
Heartbeat CPU 0 instructions: 470000000 cycles: 183082981 heartbeat IPC: 2.779 cumulative IPC: 2.468 (Simulation time: 00 hr 55 min 59 sec)
Heartbeat CPU 0 instructions: 480000003 cycles: 186770391 heartbeat IPC: 2.712 cumulative IPC: 2.473 (Simulation time: 00 hr 57 min 12 sec)
Heartbeat CPU 0 instructions: 490000004 cycles: 190328673 heartbeat IPC: 2.81 cumulative IPC: 2.48 (Simulation time: 00 hr 58 min 24 sec)
Heartbeat CPU 0 instructions: 500000001 cycles: 193947401 heartbeat IPC: 2.763 cumulative IPC: 2.485 (Simulation time: 00 hr 59 min 34 sec)
Heartbeat CPU 0 instructions: 510000003 cycles: 197551814 heartbeat IPC: 2.774 cumulative IPC: 2.491 (Simulation time: 01 hr 00 min 47 sec)
Heartbeat CPU 0 instructions: 520000004 cycles: 255849703 heartbeat IPC: 0.1715 cumulative IPC: 1.934 (Simulation time: 01 hr 11 min 43 sec)
Heartbeat CPU 0 instructions: 530000002 cycles: 366117703 heartbeat IPC: 0.09069 cumulative IPC: 1.359 (Simulation time: 01 hr 32 min 01 sec)
Heartbeat CPU 0 instructions: 540000004 cycles: 398560498 heartbeat IPC: 0.3082 cumulative IPC: 1.27 (Simulation time: 01 hr 38 min 27 sec)
Heartbeat CPU 0 instructions: 550000002 cycles: 435272107 heartbeat IPC: 0.2724 cumulative IPC: 1.184 (Simulation time: 01 hr 45 min 35 sec)
Heartbeat CPU 0 instructions: 560000000 cycles: 471585117 heartbeat IPC: 0.2754 cumulative IPC: 1.112 (Simulation time: 01 hr 52 min 38 sec)
Heartbeat CPU 0 instructions: 570000002 cycles: 508041856 heartbeat IPC: 0.2743 cumulative IPC: 1.05 (Simulation time: 01 hr 59 min 42 sec)
Heartbeat CPU 0 instructions: 580000001 cycles: 535677368 heartbeat IPC: 0.3619 cumulative IPC: 1.014 (Simulation time: 02 hr 05 min 15 sec)
Heartbeat CPU 0 instructions: 590000001 cycles: 572553261 heartbeat IPC: 0.2712 cumulative IPC: 0.9649 (Simulation time: 02 hr 12 min 28 sec)
*** Reached end of trace: (0, "traces/bt.A.champsimtrace")
Heartbeat CPU 0 instructions: 600000001 cycles: 609532281 heartbeat IPC: 0.2704 cumulative IPC: 0.9218 (Simulation time: 02 hr 19 min 39 sec)
Heartbeat CPU 0 instructions: 610000004 cycles: 633506624 heartbeat IPC: 0.4171 cumulative IPC: 0.9023 (Simulation time: 02 hr 23 min 35 sec)
Heartbeat CPU 0 instructions: 620000000 cycles: 636006624 heartbeat IPC: 4 cumulative IPC: 0.9147 (Simulation time: 02 hr 24 min 35 sec)
Heartbeat CPU 0 instructions: 630000002 cycles: 638506623 heartbeat IPC: 4 cumulative IPC: 0.9271 (Simulation time: 02 hr 25 min 32 sec)
Heartbeat CPU 0 instructions: 640000003 cycles: 641006624 heartbeat IPC: 4 cumulative IPC: 0.9393 (Simulation time: 02 hr 26 min 30 sec)
Heartbeat CPU 0 instructions: 650000003 cycles: 643506711 heartbeat IPC: 4 cumulative IPC: 0.9514 (Simulation time: 02 hr 27 min 30 sec)
Simulation finished CPU 0 instructions: 600000001 cycles: 630625681 cumulative IPC: 0.9514 (Simulation time: 02 hr 27 min 30 sec)
Simulation complete CPU 0 instructions: 600000001 cycles: 630625681 cumulative IPC: 0.9514 (Simulation time: 02 hr 27 min 30 sec)

ChampSim completed all CPUs

=== Simulation ===
CPU 0 runs traces/bt.A.champsimtrace
Region of Interest Statistics

CPU 0 cumulative IPC: 0.9514 instructions: 600000001 cycles: 630625681
CPU 0 Branch Prediction Accuracy: 99.98% MPKI: 0.004178 Average ROB Occupancy at Mispredict: 109.4
Branch type MPKI
BRANCH_DIRECT_JUMP: 5e-06
BRANCH_INDIRECT: 7.83e-05
BRANCH_CONDITIONAL: 0.00403
BRANCH_DIRECT_CALL: 6.67e-06
BRANCH_INDIRECT_CALL: 3.33e-05
BRANCH_RETURN: 2.33e-05

LLC TOTAL        ACCESS:    7346620 HIT:    1415319 MISS:    5931301
LLC LOAD         ACCESS:    2235676 HIT:     965210 MISS:    1270466
LLC RFO          ACCESS:     889371 HIT:      62252 MISS:     827119
LLC PREFETCH     ACCESS:    2235918 HIT:     300995 MISS:    1934923
LLC WRITE        ACCESS:    1982286 HIT:      86681 MISS:    1895605
LLC TRANSLATION  ACCESS:       3369 HIT:        181 MISS:       3188
LLC PREFETCH REQUESTED:    2244823 ISSUED:    2235918 USEFUL:    1520215 USELESS:      48855
LLC AVERAGE MISS LATENCY: 784.5 cycles
cpu0_DTLB TOTAL        ACCESS:  128894758 HIT:  128152961 MISS:     741797
cpu0_DTLB LOAD         ACCESS:  128894758 HIT:  128152961 MISS:     741797
cpu0_DTLB RFO          ACCESS:          0 HIT:          0 MISS:          0
cpu0_DTLB PREFETCH     ACCESS:          0 HIT:          0 MISS:          0
cpu0_DTLB WRITE        ACCESS:          0 HIT:          0 MISS:          0
cpu0_DTLB TRANSLATION  ACCESS:          0 HIT:          0 MISS:          0
cpu0_DTLB PREFETCH REQUESTED:          0 ISSUED:          0 USEFUL:          0 USELESS:          0
cpu0_DTLB AVERAGE MISS LATENCY: 18.5 cycles
cpu0_ITLB TOTAL        ACCESS:     172044 HIT:     171777 MISS:        267
cpu0_ITLB LOAD         ACCESS:     172044 HIT:     171777 MISS:        267
cpu0_ITLB RFO          ACCESS:          0 HIT:          0 MISS:          0
cpu0_ITLB PREFETCH     ACCESS:          0 HIT:          0 MISS:          0
cpu0_ITLB WRITE        ACCESS:          0 HIT:          0 MISS:          0
cpu0_ITLB TRANSLATION  ACCESS:          0 HIT:          0 MISS:          0
cpu0_ITLB PREFETCH REQUESTED:          0 ISSUED:          0 USEFUL:          0 USELESS:          0
cpu0_ITLB AVERAGE MISS LATENCY: 175.9 cycles
cpu0_L1D TOTAL        ACCESS:  196735655 HIT:  183284189 MISS:   13451466
cpu0_L1D LOAD         ACCESS:  162053370 HIT:  152709189 MISS:    9344181
cpu0_L1D RFO          ACCESS:          0 HIT:          0 MISS:          0
cpu0_L1D PREFETCH     ACCESS:          0 HIT:          0 MISS:          0
cpu0_L1D WRITE        ACCESS:   34635531 HIT:   30545306 MISS:    4090225
cpu0_L1D TRANSLATION  ACCESS:      46754 HIT:      29694 MISS:      17060
cpu0_L1D PREFETCH REQUESTED:          0 ISSUED:          0 USEFUL:          0 USELESS:          0
cpu0_L1D AVERAGE MISS LATENCY: 159.9 cycles
cpu0_L1I TOTAL        ACCESS:     204781 HIT:     201867 MISS:       2914
cpu0_L1I LOAD         ACCESS:     204781 HIT:     201867 MISS:       2914
cpu0_L1I RFO          ACCESS:          0 HIT:          0 MISS:          0
cpu0_L1I PREFETCH     ACCESS:          0 HIT:          0 MISS:          0
cpu0_L1I WRITE        ACCESS:          0 HIT:          0 MISS:          0
cpu0_L1I TRANSLATION  ACCESS:          0 HIT:          0 MISS:          0
cpu0_L1I PREFETCH REQUESTED:          0 ISSUED:          0 USEFUL:          0 USELESS:          0
cpu0_L1I AVERAGE MISS LATENCY: 324.5 cycles
cpu0_L2C TOTAL        ACCESS:    5265891 HIT:    2137037 MISS:    3128854
cpu0_L2C LOAD         ACCESS:    2357269 HIT:     121453 MISS:    2235816
cpu0_L2C RFO          ACCESS:     891567 HIT:       2196 MISS:     889371
cpu0_L2C PREFETCH     ACCESS:          0 HIT:          0 MISS:          0
cpu0_L2C WRITE        ACCESS:    1999998 HIT:    1999700 MISS:        298
cpu0_L2C TRANSLATION  ACCESS:      17057 HIT:      13688 MISS:       3369
cpu0_L2C PREFETCH REQUESTED:          0 ISSUED:          0 USEFUL:          0 USELESS:          0
cpu0_L2C AVERAGE MISS LATENCY: 899.6 cycles
cpu0_STLB TOTAL        ACCESS:     296275 HIT:     249543 MISS:      46732
cpu0_STLB LOAD         ACCESS:     296275 HIT:     249543 MISS:      46732
cpu0_STLB RFO          ACCESS:          0 HIT:          0 MISS:          0
cpu0_STLB PREFETCH     ACCESS:          0 HIT:          0 MISS:          0
cpu0_STLB WRITE        ACCESS:          0 HIT:          0 MISS:          0
cpu0_STLB TRANSLATION  ACCESS:          0 HIT:          0 MISS:          0
cpu0_STLB PREFETCH REQUESTED:          0 ISSUED:          0 USEFUL:          0 USELESS:          0
cpu0_STLB AVERAGE MISS LATENCY: 416.6 cycles

DRAM Statistics

Channel 0 RQ ROW_BUFFER_HIT:     774581
  ROW_BUFFER_MISS:    2033186
 AVG DBUS CONGESTED CYCLE: 3.974
WQ ROW_BUFFER_HIT: Channel 0 
  ROW_BUFFER_MISS:     643283
  FULL:    1263545
