WARNING: physical memory size is smaller than virtual memory size.

*** ChampSim Multicore Out-of-Order Simulator ***
Warmup Instructions: 50000000
Simulation Instructions: 600000000
Number of CPUs: 1
Page size: 4096

Off-chip DRAM Size: 4 GiB Channels: 1 Width: 64-bit Data Race: 3200 MT/s
Heartbeat CPU 0 instructions: 10000000 cycles: 2881042 heartbeat IPC: 3.471 cumulative IPC: 3.471 (Simulation time: 00 hr 00 min 35 sec)
Heartbeat CPU 0 instructions: 20000000 cycles: 5381042 heartbeat IPC: 4 cumulative IPC: 3.717 (Simulation time: 00 hr 01 min 07 sec)
Heartbeat CPU 0 instructions: 30000000 cycles: 7881042 heartbeat IPC: 4 cumulative IPC: 3.807 (Simulation time: 00 hr 01 min 39 sec)
Heartbeat CPU 0 instructions: 40000000 cycles: 10381042 heartbeat IPC: 4 cumulative IPC: 3.853 (Simulation time: 00 hr 02 min 11 sec)
Heartbeat CPU 0 instructions: 50000000 cycles: 12881042 heartbeat IPC: 4 cumulative IPC: 3.882 (Simulation time: 00 hr 02 min 43 sec)
Warmup finished CPU 0 instructions: 50000000 cycles: 12881043 cumulative IPC: 3.882 (Simulation time: 00 hr 02 min 43 sec)
Warmup complete CPU 0 instructions: 50000000 cycles: 12881043 cumulative IPC: 3.882 (Simulation time: 00 hr 02 min 43 sec)
Heartbeat CPU 0 instructions: 60000004 cycles: 15383364 heartbeat IPC: 3.996 cumulative IPC: 3.996 (Simulation time: 00 hr 03 min 21 sec)
Heartbeat CPU 0 instructions: 70000002 cycles: 17885682 heartbeat IPC: 3.996 cumulative IPC: 3.996 (Simulation time: 00 hr 04 min 00 sec)
Heartbeat CPU 0 instructions: 80000002 cycles: 20387998 heartbeat IPC: 3.996 cumulative IPC: 3.996 (Simulation time: 00 hr 04 min 39 sec)
Heartbeat CPU 0 instructions: 90000004 cycles: 22890375 heartbeat IPC: 3.996 cumulative IPC: 3.996 (Simulation time: 00 hr 05 min 19 sec)
Heartbeat CPU 0 instructions: 100000000 cycles: 25392780 heartbeat IPC: 3.996 cumulative IPC: 3.996 (Simulation time: 00 hr 05 min 58 sec)
Heartbeat CPU 0 instructions: 110000002 cycles: 27895396 heartbeat IPC: 3.996 cumulative IPC: 3.996 (Simulation time: 00 hr 06 min 36 sec)
Heartbeat CPU 0 instructions: 120000000 cycles: 30400214 heartbeat IPC: 3.992 cumulative IPC: 3.996 (Simulation time: 00 hr 07 min 15 sec)
Heartbeat CPU 0 instructions: 130000002 cycles: 32902885 heartbeat IPC: 3.996 cumulative IPC: 3.996 (Simulation time: 00 hr 07 min 53 sec)
Heartbeat CPU 0 instructions: 140000004 cycles: 35405519 heartbeat IPC: 3.996 cumulative IPC: 3.996 (Simulation time: 00 hr 08 min 31 sec)
Heartbeat CPU 0 instructions: 150000000 cycles: 37908941 heartbeat IPC: 3.995 cumulative IPC: 3.996 (Simulation time: 00 hr 09 min 10 sec)
Heartbeat CPU 0 instructions: 160000003 cycles: 40411348 heartbeat IPC: 3.996 cumulative IPC: 3.996 (Simulation time: 00 hr 09 min 48 sec)
Heartbeat CPU 0 instructions: 170000002 cycles: 42914340 heartbeat IPC: 3.995 cumulative IPC: 3.996 (Simulation time: 00 hr 10 min 28 sec)
Heartbeat CPU 0 instructions: 180000000 cycles: 45417020 heartbeat IPC: 3.996 cumulative IPC: 3.996 (Simulation time: 00 hr 11 min 10 sec)
Heartbeat CPU 0 instructions: 190000003 cycles: 47919992 heartbeat IPC: 3.995 cumulative IPC: 3.996 (Simulation time: 00 hr 11 min 51 sec)
Heartbeat CPU 0 instructions: 200000000 cycles: 50422443 heartbeat IPC: 3.996 cumulative IPC: 3.996 (Simulation time: 00 hr 12 min 32 sec)
Heartbeat CPU 0 instructions: 210000000 cycles: 52926077 heartbeat IPC: 3.994 cumulative IPC: 3.996 (Simulation time: 00 hr 13 min 12 sec)
Heartbeat CPU 0 instructions: 220000003 cycles: 55428684 heartbeat IPC: 3.996 cumulative IPC: 3.996 (Simulation time: 00 hr 13 min 52 sec)
Heartbeat CPU 0 instructions: 230000001 cycles: 88999885 heartbeat IPC: 0.2979 cumulative IPC: 2.365 (Simulation time: 00 hr 17 min 36 sec)
Heartbeat CPU 0 instructions: 240000002 cycles: 94889790 heartbeat IPC: 1.698 cumulative IPC: 2.317 (Simulation time: 00 hr 18 min 47 sec)
Heartbeat CPU 0 instructions: 250000000 cycles: 100906443 heartbeat IPC: 1.662 cumulative IPC: 2.272 (Simulation time: 00 hr 19 min 58 sec)
Heartbeat CPU 0 instructions: 260000004 cycles: 106956913 heartbeat IPC: 1.653 cumulative IPC: 2.232 (Simulation time: 00 hr 21 min 09 sec)
Heartbeat CPU 0 instructions: 270000003 cycles: 112946210 heartbeat IPC: 1.67 cumulative IPC: 2.199 (Simulation time: 00 hr 22 min 19 sec)
Heartbeat CPU 0 instructions: 280000001 cycles: 119007473 heartbeat IPC: 1.65 cumulative IPC: 2.167 (Simulation time: 00 hr 23 min 30 sec)
Heartbeat CPU 0 instructions: 290000000 cycles: 125009278 heartbeat IPC: 1.666 cumulative IPC: 2.14 (Simulation time: 00 hr 24 min 43 sec)
Heartbeat CPU 0 instructions: 300000003 cycles: 131048034 heartbeat IPC: 1.656 cumulative IPC: 2.116 (Simulation time: 00 hr 25 min 53 sec)
Heartbeat CPU 0 instructions: 310000001 cycles: 137062450 heartbeat IPC: 1.663 cumulative IPC: 2.094 (Simulation time: 00 hr 27 min 03 sec)
Heartbeat CPU 0 instructions: 320000002 cycles: 143097970 heartbeat IPC: 1.657 cumulative IPC: 2.073 (Simulation time: 00 hr 28 min 12 sec)
Heartbeat CPU 0 instructions: 330000000 cycles: 150066681 heartbeat IPC: 1.435 cumulative IPC: 2.041 (Simulation time: 00 hr 29 min 28 sec)
Heartbeat CPU 0 instructions: 340000002 cycles: 156918471 heartbeat IPC: 1.459 cumulative IPC: 2.013 (Simulation time: 00 hr 30 min 43 sec)
Heartbeat CPU 0 instructions: 350000002 cycles: 163787845 heartbeat IPC: 1.456 cumulative IPC: 1.988 (Simulation time: 00 hr 32 min 00 sec)
Heartbeat CPU 0 instructions: 360000000 cycles: 170665888 heartbeat IPC: 1.454 cumulative IPC: 1.965 (Simulation time: 00 hr 33 min 17 sec)
Heartbeat CPU 0 instructions: 370000001 cycles: 177541115 heartbeat IPC: 1.454 cumulative IPC: 1.943 (Simulation time: 00 hr 34 min 34 sec)
Heartbeat CPU 0 instructions: 380000003 cycles: 184480875 heartbeat IPC: 1.441 cumulative IPC: 1.923 (Simulation time: 00 hr 35 min 54 sec)
Heartbeat CPU 0 instructions: 390000004 cycles: 191304439 heartbeat IPC: 1.466 cumulative IPC: 1.906 (Simulation time: 00 hr 37 min 09 sec)
Heartbeat CPU 0 instructions: 400000000 cycles: 198286637 heartbeat IPC: 1.432 cumulative IPC: 1.888 (Simulation time: 00 hr 38 min 27 sec)
Heartbeat CPU 0 instructions: 410000003 cycles: 205106876 heartbeat IPC: 1.466 cumulative IPC: 1.873 (Simulation time: 00 hr 39 min 41 sec)
Heartbeat CPU 0 instructions: 420000000 cycles: 211965159 heartbeat IPC: 1.458 cumulative IPC: 1.859 (Simulation time: 00 hr 40 min 56 sec)
Heartbeat CPU 0 instructions: 430000002 cycles: 219009494 heartbeat IPC: 1.42 cumulative IPC: 1.844 (Simulation time: 00 hr 42 min 12 sec)
Heartbeat CPU 0 instructions: 440000002 cycles: 226394225 heartbeat IPC: 1.354 cumulative IPC: 1.827 (Simulation time: 00 hr 43 min 30 sec)
Heartbeat CPU 0 instructions: 450000000 cycles: 233667865 heartbeat IPC: 1.375 cumulative IPC: 1.812 (Simulation time: 00 hr 44 min 49 sec)
Heartbeat CPU 0 instructions: 460000003 cycles: 240977876 heartbeat IPC: 1.368 cumulative IPC: 1.797 (Simulation time: 00 hr 46 min 12 sec)
Heartbeat CPU 0 instructions: 470000004 cycles: 248320025 heartbeat IPC: 1.362 cumulative IPC: 1.784 (Simulation time: 00 hr 47 min 31 sec)
Heartbeat CPU 0 instructions: 480000000 cycles: 255727364 heartbeat IPC: 1.35 cumulative IPC: 1.771 (Simulation time: 00 hr 48 min 49 sec)
Heartbeat CPU 0 instructions: 490000001 cycles: 263093577 heartbeat IPC: 1.358 cumulative IPC: 1.759 (Simulation time: 00 hr 50 min 07 sec)
Heartbeat CPU 0 instructions: 500000001 cycles: 270494419 heartbeat IPC: 1.351 cumulative IPC: 1.747 (Simulation time: 00 hr 51 min 25 sec)
Heartbeat CPU 0 instructions: 510000002 cycles: 277858035 heartbeat IPC: 1.358 cumulative IPC: 1.736 (Simulation time: 00 hr 52 min 42 sec)
Heartbeat CPU 0 instructions: 520000000 cycles: 336217310 heartbeat IPC: 0.1714 cumulative IPC: 1.454 (Simulation time: 01 hr 00 min 38 sec)
Heartbeat CPU 0 instructions: 530000001 cycles: 447759287 heartbeat IPC: 0.08965 cumulative IPC: 1.104 (Simulation time: 01 hr 15 min 27 sec)
Heartbeat CPU 0 instructions: 540000001 cycles: 473867929 heartbeat IPC: 0.383 cumulative IPC: 1.063 (Simulation time: 01 hr 19 min 18 sec)
Heartbeat CPU 0 instructions: 550000003 cycles: 507934319 heartbeat IPC: 0.2935 cumulative IPC: 1.01 (Simulation time: 01 hr 24 min 15 sec)
Heartbeat CPU 0 instructions: 560000004 cycles: 545846175 heartbeat IPC: 0.2638 cumulative IPC: 0.9569 (Simulation time: 01 hr 29 min 35 sec)
Heartbeat CPU 0 instructions: 570000001 cycles: 583869711 heartbeat IPC: 0.263 cumulative IPC: 0.9107 (Simulation time: 01 hr 34 min 57 sec)
Heartbeat CPU 0 instructions: 580000002 cycles: 610591121 heartbeat IPC: 0.3742 cumulative IPC: 0.8867 (Simulation time: 01 hr 38 min 54 sec)
Heartbeat CPU 0 instructions: 590000001 cycles: 638686545 heartbeat IPC: 0.3559 cumulative IPC: 0.8629 (Simulation time: 01 hr 43 min 05 sec)
*** Reached end of trace: (0, "traces/bt.A.champsimtrace")
Heartbeat CPU 0 instructions: 600000002 cycles: 676790393 heartbeat IPC: 0.2624 cumulative IPC: 0.8284 (Simulation time: 01 hr 48 min 38 sec)
Heartbeat CPU 0 instructions: 610000004 cycles: 696777191 heartbeat IPC: 0.5003 cumulative IPC: 0.8188 (Simulation time: 01 hr 50 min 55 sec)
Heartbeat CPU 0 instructions: 620000000 cycles: 699279521 heartbeat IPC: 3.996 cumulative IPC: 0.8304 (Simulation time: 01 hr 51 min 35 sec)
Heartbeat CPU 0 instructions: 630000002 cycles: 701781839 heartbeat IPC: 3.996 cumulative IPC: 0.8419 (Simulation time: 01 hr 52 min 15 sec)
Heartbeat CPU 0 instructions: 640000000 cycles: 704284157 heartbeat IPC: 3.996 cumulative IPC: 0.8533 (Simulation time: 01 hr 52 min 55 sec)
Heartbeat CPU 0 instructions: 650000002 cycles: 706786464 heartbeat IPC: 3.996 cumulative IPC: 0.8647 (Simulation time: 01 hr 53 min 33 sec)
Simulation finished CPU 0 instructions: 600000002 cycles: 693905422 cumulative IPC: 0.8647 (Simulation time: 01 hr 53 min 33 sec)
Simulation complete CPU 0 instructions: 600000002 cycles: 693905422 cumulative IPC: 0.8647 (Simulation time: 01 hr 53 min 33 sec)

ChampSim completed all CPUs

=== Simulation ===
CPU 0 runs traces/bt.A.champsimtrace
Region of Interest Statistics

CPU 0 cumulative IPC: 0.8647 instructions: 600000002 cycles: 693905422
CPU 0 Branch Prediction Accuracy: 99.29% MPKI: 0.1288 Average ROB Occupancy at Mispredict: 280
Branch type MPKI
BRANCH_DIRECT_JUMP: 5e-06
BRANCH_INDIRECT: 7.83e-05
BRANCH_CONDITIONAL: 0.129
BRANCH_DIRECT_CALL: 6.67e-06
BRANCH_INDIRECT_CALL: 3.67e-05
BRANCH_RETURN: 2.33e-05

LLC TOTAL        ACCESS:    5121245 HIT:    1346771 MISS:    3774474
LLC LOAD         ACCESS:    2240117 HIT:     510247 MISS:    1729870
LLC RFO          ACCESS:     889447 HIT:     129203 MISS:     760244
LLC PREFETCH     ACCESS:          0 HIT:          0 MISS:          0
LLC WRITE        ACCESS:    1988305 HIT:     707085 MISS:    1281220
LLC TRANSLATION  ACCESS:       3376 HIT:        236 MISS:       3140
LLC PREFETCH REQUESTED:          0 ISSUED:          0 USEFUL:          0 USELESS:          0
LLC AVERAGE MISS LATENCY: 807.2 cycles
cpu0_DTLB TOTAL        ACCESS:  126367212 HIT:  125602670 MISS:     764542
cpu0_DTLB LOAD         ACCESS:  126367212 HIT:  125602670 MISS:     764542
cpu0_DTLB RFO          ACCESS:          0 HIT:          0 MISS:          0
cpu0_DTLB PREFETCH     ACCESS:          0 HIT:          0 MISS:          0
cpu0_DTLB WRITE        ACCESS:          0 HIT:          0 MISS:          0
cpu0_DTLB TRANSLATION  ACCESS:          0 HIT:          0 MISS:          0
cpu0_DTLB PREFETCH REQUESTED:          0 ISSUED:          0 USEFUL:          0 USELESS:          0
cpu0_DTLB AVERAGE MISS LATENCY: 15.72 cycles
cpu0_ITLB TOTAL        ACCESS:     144526 HIT:     144278 MISS:        248
cpu0_ITLB LOAD         ACCESS:     144526 HIT:     144278 MISS:        248
cpu0_ITLB RFO          ACCESS:          0 HIT:          0 MISS:          0
cpu0_ITLB PREFETCH     ACCESS:          0 HIT:          0 MISS:          0
cpu0_ITLB WRITE        ACCESS:          0 HIT:          0 MISS:          0
cpu0_ITLB TRANSLATION  ACCESS:          0 HIT:          0 MISS:          0
cpu0_ITLB PREFETCH REQUESTED:          0 ISSUED:          0 USEFUL:          0 USELESS:          0
cpu0_ITLB AVERAGE MISS LATENCY: 327.3 cycles
cpu0_L1D TOTAL        ACCESS:  193762911 HIT:  180200786 MISS:   13562125
cpu0_L1D LOAD         ACCESS:  159080682 HIT:  149569377 MISS:    9511305
cpu0_L1D RFO          ACCESS:          0 HIT:          0 MISS:          0
cpu0_L1D PREFETCH     ACCESS:          0 HIT:          0 MISS:          0
cpu0_L1D WRITE        ACCESS:   34635454 HIT:   30601710 MISS:    4033744
cpu0_L1D TRANSLATION  ACCESS:      46775 HIT:      29699 MISS:      17076
cpu0_L1D PREFETCH REQUESTED:          0 ISSUED:          0 USEFUL:          0 USELESS:          0
cpu0_L1D AVERAGE MISS LATENCY: 171.8 cycles
cpu0_L1I TOTAL        ACCESS:     194166 HIT:     191387 MISS:       2779
cpu0_L1I LOAD         ACCESS:     194166 HIT:     191387 MISS:       2779
cpu0_L1I RFO          ACCESS:          0 HIT:          0 MISS:          0
cpu0_L1I PREFETCH     ACCESS:          0 HIT:          0 MISS:          0
cpu0_L1I WRITE        ACCESS:          0 HIT:          0 MISS:          0
cpu0_L1I TRANSLATION  ACCESS:          0 HIT:          0 MISS:          0
cpu0_L1I PREFETCH REQUESTED:          0 ISSUED:          0 USEFUL:          0 USELESS:          0
cpu0_L1I AVERAGE MISS LATENCY: 551.9 cycles
cpu0_L2C TOTAL        ACCESS:    5270480 HIT:    2137071 MISS:    3133409
cpu0_L2C LOAD         ACCESS:    2364316 HIT:     124186 MISS:    2240130
cpu0_L2C RFO          ACCESS:     889976 HIT:        529 MISS:     889447
cpu0_L2C PREFETCH     ACCESS:          0 HIT:          0 MISS:          0
cpu0_L2C WRITE        ACCESS:    1999115 HIT:    1998659 MISS:        456
cpu0_L2C TRANSLATION  ACCESS:      17073 HIT:      13697 MISS:       3376
cpu0_L2C PREFETCH REQUESTED:          0 ISSUED:          0 USEFUL:          0 USELESS:          0
cpu0_L2C AVERAGE MISS LATENCY: 993.2 cycles
cpu0_STLB TOTAL        ACCESS:     311241 HIT:     264489 MISS:      46752
cpu0_STLB LOAD         ACCESS:     311241 HIT:     264489 MISS:      46752
cpu0_STLB RFO          ACCESS:          0 HIT:          0 MISS:          0
cpu0_STLB PREFETCH     ACCESS:          0 HIT:          0 MISS:          0
cpu0_STLB WRITE        ACCESS:          0 HIT:          0 MISS:          0
cpu0_STLB TRANSLATION  ACCESS:          0 HIT:          0 MISS:          0
cpu0_STLB PREFETCH REQUESTED:          0 ISSUED:          0 USEFUL:          0 USELESS:          0
cpu0_STLB AVERAGE MISS LATENCY: 348.1 cycles

DRAM Statistics

Channel 0 RQ ROW_BUFFER_HIT:     724513
  ROW_BUFFER_MISS:    1767498
 AVG DBUS CONGESTED CYCLE: 3.969
WQ ROW_BUFFER_HIT: Channel 0 
  ROW_BUFFER_MISS:     650299
  FULL:    1103613
