WARNING: physical memory size is smaller than virtual memory size.

*** ChampSim Multicore Out-of-Order Simulator ***
Warmup Instructions: 50000000
Simulation Instructions: 600000000
Number of CPUs: 1
Page size: 4096

Off-chip DRAM Size: 4 GiB Channels: 1 Width: 64-bit Data Race: 3200 MT/s
Heartbeat CPU 0 instructions: 10000000 cycles: 2881042 heartbeat IPC: 3.471 cumulative IPC: 3.471 (Simulation time: 00 hr 00 min 35 sec)
Heartbeat CPU 0 instructions: 20000000 cycles: 5381042 heartbeat IPC: 4 cumulative IPC: 3.717 (Simulation time: 00 hr 01 min 05 sec)
Heartbeat CPU 0 instructions: 30000000 cycles: 7881042 heartbeat IPC: 4 cumulative IPC: 3.807 (Simulation time: 00 hr 01 min 35 sec)
Heartbeat CPU 0 instructions: 40000000 cycles: 10381042 heartbeat IPC: 4 cumulative IPC: 3.853 (Simulation time: 00 hr 02 min 06 sec)
Heartbeat CPU 0 instructions: 50000000 cycles: 12881042 heartbeat IPC: 4 cumulative IPC: 3.882 (Simulation time: 00 hr 02 min 37 sec)
Warmup finished CPU 0 instructions: 50000000 cycles: 12881043 cumulative IPC: 3.882 (Simulation time: 00 hr 02 min 37 sec)
Warmup complete CPU 0 instructions: 50000000 cycles: 12881043 cumulative IPC: 3.882 (Simulation time: 00 hr 02 min 37 sec)
Heartbeat CPU 0 instructions: 60000004 cycles: 15383661 heartbeat IPC: 3.996 cumulative IPC: 3.996 (Simulation time: 00 hr 03 min 14 sec)
Heartbeat CPU 0 instructions: 70000002 cycles: 17886024 heartbeat IPC: 3.996 cumulative IPC: 3.996 (Simulation time: 00 hr 03 min 51 sec)
Heartbeat CPU 0 instructions: 80000002 cycles: 20388430 heartbeat IPC: 3.996 cumulative IPC: 3.996 (Simulation time: 00 hr 04 min 27 sec)
Heartbeat CPU 0 instructions: 90000004 cycles: 22890853 heartbeat IPC: 3.996 cumulative IPC: 3.996 (Simulation time: 00 hr 05 min 04 sec)
Heartbeat CPU 0 instructions: 100000000 cycles: 25393258 heartbeat IPC: 3.996 cumulative IPC: 3.996 (Simulation time: 00 hr 05 min 40 sec)
Heartbeat CPU 0 instructions: 110000002 cycles: 27895664 heartbeat IPC: 3.996 cumulative IPC: 3.996 (Simulation time: 00 hr 06 min 16 sec)
Heartbeat CPU 0 instructions: 120000000 cycles: 30398061 heartbeat IPC: 3.996 cumulative IPC: 3.996 (Simulation time: 00 hr 06 min 56 sec)
Heartbeat CPU 0 instructions: 130000002 cycles: 32900513 heartbeat IPC: 3.996 cumulative IPC: 3.996 (Simulation time: 00 hr 07 min 33 sec)
Heartbeat CPU 0 instructions: 140000004 cycles: 35402922 heartbeat IPC: 3.996 cumulative IPC: 3.996 (Simulation time: 00 hr 08 min 10 sec)
Heartbeat CPU 0 instructions: 150000000 cycles: 37905284 heartbeat IPC: 3.996 cumulative IPC: 3.996 (Simulation time: 00 hr 08 min 46 sec)
Heartbeat CPU 0 instructions: 160000003 cycles: 40407743 heartbeat IPC: 3.996 cumulative IPC: 3.996 (Simulation time: 00 hr 09 min 23 sec)
Heartbeat CPU 0 instructions: 170000002 cycles: 42910207 heartbeat IPC: 3.996 cumulative IPC: 3.996 (Simulation time: 00 hr 10 min 00 sec)
Heartbeat CPU 0 instructions: 180000000 cycles: 45412570 heartbeat IPC: 3.996 cumulative IPC: 3.996 (Simulation time: 00 hr 10 min 35 sec)
Heartbeat CPU 0 instructions: 190000003 cycles: 47914924 heartbeat IPC: 3.996 cumulative IPC: 3.996 (Simulation time: 00 hr 11 min 11 sec)
Heartbeat CPU 0 instructions: 200000000 cycles: 50417376 heartbeat IPC: 3.996 cumulative IPC: 3.996 (Simulation time: 00 hr 11 min 46 sec)
Heartbeat CPU 0 instructions: 210000000 cycles: 52919781 heartbeat IPC: 3.996 cumulative IPC: 3.996 (Simulation time: 00 hr 12 min 21 sec)
Heartbeat CPU 0 instructions: 220000003 cycles: 55422235 heartbeat IPC: 3.996 cumulative IPC: 3.996 (Simulation time: 00 hr 12 min 57 sec)
Heartbeat CPU 0 instructions: 230000001 cycles: 89566316 heartbeat IPC: 0.2929 cumulative IPC: 2.347 (Simulation time: 00 hr 16 min 25 sec)
Heartbeat CPU 0 instructions: 240000002 cycles: 93919412 heartbeat IPC: 2.297 cumulative IPC: 2.345 (Simulation time: 00 hr 17 min 21 sec)
Heartbeat CPU 0 instructions: 250000000 cycles: 98284392 heartbeat IPC: 2.291 cumulative IPC: 2.342 (Simulation time: 00 hr 18 min 14 sec)
Heartbeat CPU 0 instructions: 260000004 cycles: 102641742 heartbeat IPC: 2.295 cumulative IPC: 2.34 (Simulation time: 00 hr 19 min 06 sec)
Heartbeat CPU 0 instructions: 270000003 cycles: 107005125 heartbeat IPC: 2.292 cumulative IPC: 2.337 (Simulation time: 00 hr 20 min 00 sec)
Heartbeat CPU 0 instructions: 280000001 cycles: 111398346 heartbeat IPC: 2.276 cumulative IPC: 2.335 (Simulation time: 00 hr 20 min 52 sec)
Heartbeat CPU 0 instructions: 290000000 cycles: 115795579 heartbeat IPC: 2.274 cumulative IPC: 2.332 (Simulation time: 00 hr 21 min 44 sec)
Heartbeat CPU 0 instructions: 300000003 cycles: 120195170 heartbeat IPC: 2.273 cumulative IPC: 2.33 (Simulation time: 00 hr 22 min 36 sec)
Heartbeat CPU 0 instructions: 310000002 cycles: 124583921 heartbeat IPC: 2.279 cumulative IPC: 2.328 (Simulation time: 00 hr 23 min 31 sec)
Heartbeat CPU 0 instructions: 320000002 cycles: 128964287 heartbeat IPC: 2.283 cumulative IPC: 2.326 (Simulation time: 00 hr 24 min 30 sec)
Heartbeat CPU 0 instructions: 330000002 cycles: 132809978 heartbeat IPC: 2.6 cumulative IPC: 2.335 (Simulation time: 00 hr 25 min 33 sec)
Heartbeat CPU 0 instructions: 340000002 cycles: 136210935 heartbeat IPC: 2.94 cumulative IPC: 2.351 (Simulation time: 00 hr 26 min 29 sec)
Heartbeat CPU 0 instructions: 350000002 cycles: 139469835 heartbeat IPC: 3.069 cumulative IPC: 2.37 (Simulation time: 00 hr 27 min 20 sec)
Heartbeat CPU 0 instructions: 360000000 cycles: 142714829 heartbeat IPC: 3.082 cumulative IPC: 2.388 (Simulation time: 00 hr 28 min 10 sec)
Heartbeat CPU 0 instructions: 370000001 cycles: 146056182 heartbeat IPC: 2.993 cumulative IPC: 2.403 (Simulation time: 00 hr 29 min 02 sec)
Heartbeat CPU 0 instructions: 380000003 cycles: 149516868 heartbeat IPC: 2.89 cumulative IPC: 2.415 (Simulation time: 00 hr 29 min 53 sec)
Heartbeat CPU 0 instructions: 390000002 cycles: 152943582 heartbeat IPC: 2.918 cumulative IPC: 2.427 (Simulation time: 00 hr 30 min 43 sec)
Heartbeat CPU 0 instructions: 400000000 cycles: 156192182 heartbeat IPC: 3.078 cumulative IPC: 2.442 (Simulation time: 00 hr 31 min 32 sec)
Heartbeat CPU 0 instructions: 410000002 cycles: 159654319 heartbeat IPC: 2.888 cumulative IPC: 2.453 (Simulation time: 00 hr 32 min 20 sec)
Heartbeat CPU 0 instructions: 420000000 cycles: 163002489 heartbeat IPC: 2.987 cumulative IPC: 2.465 (Simulation time: 00 hr 33 min 07 sec)
Heartbeat CPU 0 instructions: 430000002 cycles: 165717881 heartbeat IPC: 3.683 cumulative IPC: 2.486 (Simulation time: 00 hr 33 min 48 sec)
Heartbeat CPU 0 instructions: 440000002 cycles: 168510031 heartbeat IPC: 3.581 cumulative IPC: 2.506 (Simulation time: 00 hr 34 min 32 sec)
Heartbeat CPU 0 instructions: 450000000 cycles: 171373250 heartbeat IPC: 3.493 cumulative IPC: 2.524 (Simulation time: 00 hr 35 min 17 sec)
Heartbeat CPU 0 instructions: 460000003 cycles: 174570754 heartbeat IPC: 3.127 cumulative IPC: 2.536 (Simulation time: 00 hr 36 min 03 sec)
Heartbeat CPU 0 instructions: 470000004 cycles: 178141832 heartbeat IPC: 2.8 cumulative IPC: 2.541 (Simulation time: 00 hr 36 min 52 sec)
Heartbeat CPU 0 instructions: 480000000 cycles: 181726549 heartbeat IPC: 2.79 cumulative IPC: 2.547 (Simulation time: 00 hr 37 min 40 sec)
Heartbeat CPU 0 instructions: 490000001 cycles: 185155702 heartbeat IPC: 2.916 cumulative IPC: 2.554 (Simulation time: 00 hr 38 min 24 sec)
Heartbeat CPU 0 instructions: 500000000 cycles: 188635050 heartbeat IPC: 2.874 cumulative IPC: 2.56 (Simulation time: 00 hr 39 min 09 sec)
Heartbeat CPU 0 instructions: 510000002 cycles: 192224039 heartbeat IPC: 2.786 cumulative IPC: 2.565 (Simulation time: 00 hr 39 min 54 sec)
Heartbeat CPU 0 instructions: 520000003 cycles: 258392005 heartbeat IPC: 0.1511 cumulative IPC: 1.914 (Simulation time: 00 hr 48 min 24 sec)
Heartbeat CPU 0 instructions: 530000001 cycles: 374116253 heartbeat IPC: 0.08641 cumulative IPC: 1.329 (Simulation time: 01 hr 02 min 58 sec)
Heartbeat CPU 0 instructions: 540000001 cycles: 403475162 heartbeat IPC: 0.3406 cumulative IPC: 1.254 (Simulation time: 01 hr 06 min 51 sec)
Heartbeat CPU 0 instructions: 550000003 cycles: 431366683 heartbeat IPC: 0.3585 cumulative IPC: 1.195 (Simulation time: 01 hr 10 min 34 sec)
Heartbeat CPU 0 instructions: 560000001 cycles: 459379962 heartbeat IPC: 0.357 cumulative IPC: 1.142 (Simulation time: 01 hr 14 min 14 sec)
Heartbeat CPU 0 instructions: 570000001 cycles: 487491368 heartbeat IPC: 0.3557 cumulative IPC: 1.096 (Simulation time: 01 hr 17 min 59 sec)
Heartbeat CPU 0 instructions: 580000002 cycles: 516670228 heartbeat IPC: 0.3427 cumulative IPC: 1.052 (Simulation time: 01 hr 21 min 55 sec)
Heartbeat CPU 0 instructions: 590000001 cycles: 545680602 heartbeat IPC: 0.3447 cumulative IPC: 1.014 (Simulation time: 01 hr 26 min 00 sec)
*** Reached end of trace: (0, "traces/bt.A.champsimtrace")
Heartbeat CPU 0 instructions: 600000001 cycles: 574536435 heartbeat IPC: 0.3466 cumulative IPC: 0.9792 (Simulation time: 01 hr 30 min 17 sec)
Heartbeat CPU 0 instructions: 610000004 cycles: 598750113 heartbeat IPC: 0.413 cumulative IPC: 0.9558 (Simulation time: 01 hr 32 min 59 sec)
Heartbeat CPU 0 instructions: 620000000 cycles: 601252533 heartbeat IPC: 3.996 cumulative IPC: 0.9688 (Simulation time: 01 hr 33 min 38 sec)
Heartbeat CPU 0 instructions: 630000002 cycles: 603755003 heartbeat IPC: 3.996 cumulative IPC: 0.9816 (Simulation time: 01 hr 34 min 17 sec)
Heartbeat CPU 0 instructions: 640000000 cycles: 606257411 heartbeat IPC: 3.996 cumulative IPC: 0.9943 (Simulation time: 01 hr 34 min 56 sec)
Heartbeat CPU 0 instructions: 650000002 cycles: 608759808 heartbeat IPC: 3.996 cumulative IPC: 1.007 (Simulation time: 01 hr 35 min 35 sec)
Simulation finished CPU 0 instructions: 600000002 cycles: 595878766 cumulative IPC: 1.007 (Simulation time: 01 hr 35 min 35 sec)
Simulation complete CPU 0 instructions: 600000002 cycles: 595878766 cumulative IPC: 1.007 (Simulation time: 01 hr 35 min 35 sec)

ChampSim completed all CPUs

=== Simulation ===
CPU 0 runs traces/bt.A.champsimtrace
Region of Interest Statistics

CPU 0 cumulative IPC: 1.007 instructions: 600000002 cycles: 595878766
CPU 0 Branch Prediction Accuracy: 99.29% MPKI: 0.1296 Average ROB Occupancy at Mispredict: 279.4
Branch type MPKI
BRANCH_DIRECT_JUMP: 5e-06
BRANCH_INDIRECT: 7.83e-05
BRANCH_CONDITIONAL: 0.129
BRANCH_DIRECT_CALL: 6.67e-06
BRANCH_INDIRECT_CALL: 3.67e-05
BRANCH_RETURN: 2.33e-05

LLC TOTAL        ACCESS:    7362121 HIT:    3670402 MISS:    3691719
LLC LOAD         ACCESS:    2240355 HIT:    1150124 MISS:    1090231
LLC RFO          ACCESS:     889447 HIT:      10549 MISS:     878898
LLC PREFETCH     ACCESS:    2240355 HIT:     519550 MISS:    1720805
LLC WRITE        ACCESS:    1988593 HIT:    1988472 MISS:        121
LLC TRANSLATION  ACCESS:       3371 HIT:       1707 MISS:       1664
LLC PREFETCH REQUESTED:    2240355 ISSUED:    2240355 USEFUL:    1451466 USELESS:      24621
LLC AVERAGE MISS LATENCY: 1118 cycles
cpu0_DTLB TOTAL        ACCESS:  128708169 HIT:  127950936 MISS:     757233
cpu0_DTLB LOAD         ACCESS:  128708169 HIT:  127950936 MISS:     757233
cpu0_DTLB RFO          ACCESS:          0 HIT:          0 MISS:          0
cpu0_DTLB PREFETCH     ACCESS:          0 HIT:          0 MISS:          0
cpu0_DTLB WRITE        ACCESS:          0 HIT:          0 MISS:          0
cpu0_DTLB TRANSLATION  ACCESS:          0 HIT:          0 MISS:          0
cpu0_DTLB PREFETCH REQUESTED:          0 ISSUED:          0 USEFUL:          0 USELESS:          0
cpu0_DTLB AVERAGE MISS LATENCY: 13.36 cycles
cpu0_ITLB TOTAL        ACCESS:     141188 HIT:     140942 MISS:        246
cpu0_ITLB LOAD         ACCESS:     141188 HIT:     140942 MISS:        246
cpu0_ITLB RFO          ACCESS:          0 HIT:          0 MISS:          0
cpu0_ITLB PREFETCH     ACCESS:          0 HIT:          0 MISS:          0
cpu0_ITLB WRITE        ACCESS:          0 HIT:          0 MISS:          0
cpu0_ITLB TRANSLATION  ACCESS:          0 HIT:          0 MISS:          0
cpu0_ITLB PREFETCH REQUESTED:          0 ISSUED:          0 USEFUL:          0 USELESS:          0
cpu0_ITLB AVERAGE MISS LATENCY: 286 cycles
cpu0_L1D TOTAL        ACCESS:  196968327 HIT:  183422349 MISS:   13545978
cpu0_L1D LOAD         ACCESS:  162286030 HIT:  152876477 MISS:    9409553
cpu0_L1D RFO          ACCESS:          0 HIT:          0 MISS:          0
cpu0_L1D PREFETCH     ACCESS:          0 HIT:          0 MISS:          0
cpu0_L1D WRITE        ACCESS:   34635522 HIT:   30516202 MISS:    4119320
cpu0_L1D TRANSLATION  ACCESS:      46775 HIT:      29670 MISS:      17105
cpu0_L1D PREFETCH REQUESTED:          0 ISSUED:          0 USEFUL:          0 USELESS:          0
cpu0_L1D AVERAGE MISS LATENCY: 154.1 cycles
cpu0_L1I TOTAL        ACCESS:     190417 HIT:     187657 MISS:       2760
cpu0_L1I LOAD         ACCESS:     190417 HIT:     187657 MISS:       2760
cpu0_L1I RFO          ACCESS:          0 HIT:          0 MISS:          0
cpu0_L1I PREFETCH     ACCESS:          0 HIT:          0 MISS:          0
cpu0_L1I WRITE        ACCESS:          0 HIT:          0 MISS:          0
cpu0_L1I TRANSLATION  ACCESS:          0 HIT:          0 MISS:          0
cpu0_L1I PREFETCH REQUESTED:          0 ISSUED:          0 USEFUL:          0 USELESS:          0
cpu0_L1I AVERAGE MISS LATENCY: 415.6 cycles
cpu0_L2C TOTAL        ACCESS:    5265775 HIT:    2132110 MISS:    3133665
cpu0_L2C LOAD         ACCESS:    2359669 HIT:     119276 MISS:    2240393
cpu0_L2C RFO          ACCESS:     889977 HIT:        530 MISS:     889447
cpu0_L2C PREFETCH     ACCESS:          0 HIT:          0 MISS:          0
cpu0_L2C WRITE        ACCESS:    1999028 HIT:    1998574 MISS:        454
cpu0_L2C TRANSLATION  ACCESS:      17101 HIT:      13730 MISS:       3371
cpu0_L2C PREFETCH REQUESTED:          0 ISSUED:          0 USEFUL:          0 USELESS:          0
cpu0_L2C AVERAGE MISS LATENCY: 875.8 cycles
cpu0_STLB TOTAL        ACCESS:     311371 HIT:     264619 MISS:      46752
cpu0_STLB LOAD         ACCESS:     311371 HIT:     264619 MISS:      46752
cpu0_STLB RFO          ACCESS:          0 HIT:          0 MISS:          0
cpu0_STLB PREFETCH     ACCESS:          0 HIT:          0 MISS:          0
cpu0_STLB WRITE        ACCESS:          0 HIT:          0 MISS:          0
cpu0_STLB TRANSLATION  ACCESS:          0 HIT:          0 MISS:          0
cpu0_STLB PREFETCH REQUESTED:          0 ISSUED:          0 USEFUL:          0 USELESS:          0
cpu0_STLB AVERAGE MISS LATENCY: 288.9 cycles

DRAM Statistics

Channel 0 RQ ROW_BUFFER_HIT:     733870
  ROW_BUFFER_MISS:    1898211
 AVG DBUS CONGESTED CYCLE: 3.979
WQ ROW_BUFFER_HIT: Channel 0 
  ROW_BUFFER_MISS:     437102
  FULL:    1267677
