WARNING: physical memory size is smaller than virtual memory size.

*** ChampSim Multicore Out-of-Order Simulator ***
Warmup Instructions: 50000000
Simulation Instructions: 600000000
Number of CPUs: 1
Page size: 4096

Off-chip DRAM Size: 4 GiB Channels: 1 Width: 64-bit Data Race: 3200 MT/s
Heartbeat CPU 0 instructions: 10000002 cycles: 2881030 heartbeat IPC: 3.471 cumulative IPC: 3.471 (Simulation time: 00 hr 00 min 48 sec)
Heartbeat CPU 0 instructions: 20000002 cycles: 5381030 heartbeat IPC: 4 cumulative IPC: 3.717 (Simulation time: 00 hr 01 min 31 sec)
Heartbeat CPU 0 instructions: 30000002 cycles: 7881030 heartbeat IPC: 4 cumulative IPC: 3.807 (Simulation time: 00 hr 02 min 14 sec)
Heartbeat CPU 0 instructions: 40000002 cycles: 10381030 heartbeat IPC: 4 cumulative IPC: 3.853 (Simulation time: 00 hr 02 min 58 sec)
Heartbeat CPU 0 instructions: 50000002 cycles: 12881030 heartbeat IPC: 4 cumulative IPC: 3.882 (Simulation time: 00 hr 03 min 43 sec)
Warmup finished CPU 0 instructions: 50000002 cycles: 12881031 cumulative IPC: 3.882 (Simulation time: 00 hr 03 min 43 sec)
Warmup complete CPU 0 instructions: 50000002 cycles: 12881031 cumulative IPC: 3.882 (Simulation time: 00 hr 03 min 43 sec)
Heartbeat CPU 0 instructions: 60000004 cycles: 15384879 heartbeat IPC: 3.994 cumulative IPC: 3.994 (Simulation time: 00 hr 04 min 33 sec)
Heartbeat CPU 0 instructions: 70000000 cycles: 17888484 heartbeat IPC: 3.994 cumulative IPC: 3.994 (Simulation time: 00 hr 05 min 24 sec)
Heartbeat CPU 0 instructions: 80000002 cycles: 20391621 heartbeat IPC: 3.995 cumulative IPC: 3.994 (Simulation time: 00 hr 06 min 14 sec)
Heartbeat CPU 0 instructions: 90000004 cycles: 22894030 heartbeat IPC: 3.996 cumulative IPC: 3.995 (Simulation time: 00 hr 07 min 07 sec)
Heartbeat CPU 0 instructions: 100000004 cycles: 25398000 heartbeat IPC: 3.994 cumulative IPC: 3.995 (Simulation time: 00 hr 07 min 56 sec)
Heartbeat CPU 0 instructions: 110000000 cycles: 27900573 heartbeat IPC: 3.996 cumulative IPC: 3.995 (Simulation time: 00 hr 08 min 45 sec)
Heartbeat CPU 0 instructions: 120000003 cycles: 30402971 heartbeat IPC: 3.996 cumulative IPC: 3.995 (Simulation time: 00 hr 09 min 35 sec)
Heartbeat CPU 0 instructions: 130000000 cycles: 32905859 heartbeat IPC: 3.995 cumulative IPC: 3.995 (Simulation time: 00 hr 10 min 27 sec)
Heartbeat CPU 0 instructions: 140000001 cycles: 35408988 heartbeat IPC: 3.995 cumulative IPC: 3.995 (Simulation time: 00 hr 11 min 17 sec)
Heartbeat CPU 0 instructions: 150000000 cycles: 37911442 heartbeat IPC: 3.996 cumulative IPC: 3.995 (Simulation time: 00 hr 12 min 05 sec)
Heartbeat CPU 0 instructions: 160000001 cycles: 40413866 heartbeat IPC: 3.996 cumulative IPC: 3.995 (Simulation time: 00 hr 12 min 56 sec)
Heartbeat CPU 0 instructions: 170000002 cycles: 42917102 heartbeat IPC: 3.995 cumulative IPC: 3.995 (Simulation time: 00 hr 13 min 46 sec)
Heartbeat CPU 0 instructions: 180000001 cycles: 45420250 heartbeat IPC: 3.995 cumulative IPC: 3.995 (Simulation time: 00 hr 14 min 35 sec)
Heartbeat CPU 0 instructions: 190000004 cycles: 47923185 heartbeat IPC: 3.995 cumulative IPC: 3.995 (Simulation time: 00 hr 15 min 25 sec)
Heartbeat CPU 0 instructions: 200000000 cycles: 50425986 heartbeat IPC: 3.996 cumulative IPC: 3.995 (Simulation time: 00 hr 16 min 15 sec)
Heartbeat CPU 0 instructions: 210000000 cycles: 52929361 heartbeat IPC: 3.995 cumulative IPC: 3.995 (Simulation time: 00 hr 17 min 06 sec)
Heartbeat CPU 0 instructions: 220000000 cycles: 55432652 heartbeat IPC: 3.995 cumulative IPC: 3.995 (Simulation time: 00 hr 17 min 55 sec)
Heartbeat CPU 0 instructions: 230000004 cycles: 89308557 heartbeat IPC: 0.2952 cumulative IPC: 2.355 (Simulation time: 00 hr 23 min 14 sec)
Heartbeat CPU 0 instructions: 240000001 cycles: 92698182 heartbeat IPC: 2.95 cumulative IPC: 2.38 (Simulation time: 00 hr 24 min 17 sec)
Heartbeat CPU 0 instructions: 250000000 cycles: 96119875 heartbeat IPC: 2.923 cumulative IPC: 2.403 (Simulation time: 00 hr 25 min 19 sec)
Heartbeat CPU 0 instructions: 260000000 cycles: 99558730 heartbeat IPC: 2.908 cumulative IPC: 2.423 (Simulation time: 00 hr 26 min 21 sec)
Heartbeat CPU 0 instructions: 270000000 cycles: 102981331 heartbeat IPC: 2.922 cumulative IPC: 2.442 (Simulation time: 00 hr 27 min 23 sec)
Heartbeat CPU 0 instructions: 280000001 cycles: 106414405 heartbeat IPC: 2.913 cumulative IPC: 2.459 (Simulation time: 00 hr 28 min 27 sec)
Heartbeat CPU 0 instructions: 290000003 cycles: 109829471 heartbeat IPC: 2.928 cumulative IPC: 2.476 (Simulation time: 00 hr 29 min 28 sec)
Heartbeat CPU 0 instructions: 300000003 cycles: 113229108 heartbeat IPC: 2.941 cumulative IPC: 2.491 (Simulation time: 00 hr 30 min 31 sec)
Heartbeat CPU 0 instructions: 310000000 cycles: 116657430 heartbeat IPC: 2.917 cumulative IPC: 2.505 (Simulation time: 00 hr 31 min 32 sec)
Heartbeat CPU 0 instructions: 320000001 cycles: 120080305 heartbeat IPC: 2.922 cumulative IPC: 2.519 (Simulation time: 00 hr 32 min 35 sec)
Heartbeat CPU 0 instructions: 330000002 cycles: 125693546 heartbeat IPC: 1.782 cumulative IPC: 2.482 (Simulation time: 00 hr 34 min 02 sec)
Heartbeat CPU 0 instructions: 340000003 cycles: 132556485 heartbeat IPC: 1.457 cumulative IPC: 2.423 (Simulation time: 00 hr 35 min 42 sec)
Heartbeat CPU 0 instructions: 350000000 cycles: 139302256 heartbeat IPC: 1.482 cumulative IPC: 2.373 (Simulation time: 00 hr 37 min 23 sec)
Heartbeat CPU 0 instructions: 360000001 cycles: 146151869 heartbeat IPC: 1.46 cumulative IPC: 2.326 (Simulation time: 00 hr 39 min 04 sec)
Heartbeat CPU 0 instructions: 370000004 cycles: 152905833 heartbeat IPC: 1.481 cumulative IPC: 2.285 (Simulation time: 00 hr 40 min 44 sec)
Heartbeat CPU 0 instructions: 380000003 cycles: 159806433 heartbeat IPC: 1.449 cumulative IPC: 2.246 (Simulation time: 00 hr 42 min 24 sec)
Heartbeat CPU 0 instructions: 390000000 cycles: 166508117 heartbeat IPC: 1.492 cumulative IPC: 2.213 (Simulation time: 00 hr 44 min 03 sec)
Heartbeat CPU 0 instructions: 400000001 cycles: 173391532 heartbeat IPC: 1.453 cumulative IPC: 2.181 (Simulation time: 00 hr 45 min 45 sec)
Heartbeat CPU 0 instructions: 410000004 cycles: 180116451 heartbeat IPC: 1.487 cumulative IPC: 2.153 (Simulation time: 00 hr 47 min 25 sec)
Heartbeat CPU 0 instructions: 420000004 cycles: 186951486 heartbeat IPC: 1.463 cumulative IPC: 2.126 (Simulation time: 00 hr 49 min 04 sec)
Heartbeat CPU 0 instructions: 430000004 cycles: 194002773 heartbeat IPC: 1.418 cumulative IPC: 2.098 (Simulation time: 00 hr 50 min 46 sec)
Heartbeat CPU 0 instructions: 440000004 cycles: 201194820 heartbeat IPC: 1.39 cumulative IPC: 2.071 (Simulation time: 00 hr 52 min 27 sec)
Heartbeat CPU 0 instructions: 450000000 cycles: 208411155 heartbeat IPC: 1.386 cumulative IPC: 2.046 (Simulation time: 00 hr 54 min 11 sec)
Heartbeat CPU 0 instructions: 460000001 cycles: 215616128 heartbeat IPC: 1.388 cumulative IPC: 2.022 (Simulation time: 00 hr 55 min 54 sec)
Heartbeat CPU 0 instructions: 470000000 cycles: 222806743 heartbeat IPC: 1.391 cumulative IPC: 2.001 (Simulation time: 00 hr 57 min 39 sec)
Heartbeat CPU 0 instructions: 480000003 cycles: 230010749 heartbeat IPC: 1.388 cumulative IPC: 1.98 (Simulation time: 00 hr 59 min 22 sec)
Heartbeat CPU 0 instructions: 490000004 cycles: 237192630 heartbeat IPC: 1.392 cumulative IPC: 1.962 (Simulation time: 01 hr 01 min 06 sec)
Heartbeat CPU 0 instructions: 500000002 cycles: 244390609 heartbeat IPC: 1.389 cumulative IPC: 1.944 (Simulation time: 01 hr 03 min 01 sec)
Heartbeat CPU 0 instructions: 510000003 cycles: 251603842 heartbeat IPC: 1.386 cumulative IPC: 1.927 (Simulation time: 01 hr 04 min 43 sec)
Heartbeat CPU 0 instructions: 520000001 cycles: 320471342 heartbeat IPC: 0.1452 cumulative IPC: 1.528 (Simulation time: 01 hr 17 min 20 sec)
Heartbeat CPU 0 instructions: 530000000 cycles: 443895618 heartbeat IPC: 0.08102 cumulative IPC: 1.114 (Simulation time: 01 hr 39 min 49 sec)
Heartbeat CPU 0 instructions: 540000004 cycles: 472844572 heartbeat IPC: 0.3454 cumulative IPC: 1.065 (Simulation time: 01 hr 45 min 28 sec)
Heartbeat CPU 0 instructions: 550000002 cycles: 505477270 heartbeat IPC: 0.3064 cumulative IPC: 1.015 (Simulation time: 01 hr 51 min 43 sec)
Heartbeat CPU 0 instructions: 560000000 cycles: 537757096 heartbeat IPC: 0.3098 cumulative IPC: 0.9717 (Simulation time: 01 hr 57 min 56 sec)
Heartbeat CPU 0 instructions: 570000002 cycles: 570152473 heartbeat IPC: 0.3087 cumulative IPC: 0.9331 (Simulation time: 02 hr 04 min 08 sec)
Heartbeat CPU 0 instructions: 580000001 cycles: 594688705 heartbeat IPC: 0.4076 cumulative IPC: 0.911 (Simulation time: 02 hr 09 min 00 sec)
Heartbeat CPU 0 instructions: 590000001 cycles: 625107595 heartbeat IPC: 0.3287 cumulative IPC: 0.882 (Simulation time: 02 hr 15 min 06 sec)
*** Reached end of trace: (0, "traces/bt.A.champsimtrace")
Heartbeat CPU 0 instructions: 600000000 cycles: 655619893 heartbeat IPC: 0.3277 cumulative IPC: 0.8557 (Simulation time: 02 hr 21 min 04 sec)
Heartbeat CPU 0 instructions: 610000004 cycles: 679708916 heartbeat IPC: 0.4151 cumulative IPC: 0.8398 (Simulation time: 02 hr 24 min 53 sec)
Heartbeat CPU 0 instructions: 620000000 cycles: 682211246 heartbeat IPC: 3.996 cumulative IPC: 0.8516 (Simulation time: 02 hr 25 min 44 sec)
Heartbeat CPU 0 instructions: 630000003 cycles: 684713564 heartbeat IPC: 3.996 cumulative IPC: 0.8633 (Simulation time: 02 hr 26 min 34 sec)
Heartbeat CPU 0 instructions: 640000003 cycles: 687215883 heartbeat IPC: 3.996 cumulative IPC: 0.8749 (Simulation time: 02 hr 27 min 26 sec)
Heartbeat CPU 0 instructions: 650000003 cycles: 689718279 heartbeat IPC: 3.996 cumulative IPC: 0.8865 (Simulation time: 02 hr 28 min 18 sec)
Simulation finished CPU 0 instructions: 600000001 cycles: 676837249 cumulative IPC: 0.8865 (Simulation time: 02 hr 28 min 18 sec)
Simulation complete CPU 0 instructions: 600000001 cycles: 676837249 cumulative IPC: 0.8865 (Simulation time: 02 hr 28 min 18 sec)

ChampSim completed all CPUs

=== Simulation ===
CPU 0 runs traces/bt.A.champsimtrace
Region of Interest Statistics

CPU 0 cumulative IPC: 0.8865 instructions: 600000001 cycles: 676837249
CPU 0 Branch Prediction Accuracy: 99.29% MPKI: 0.1288 Average ROB Occupancy at Mispredict: 279.4
Branch type MPKI
BRANCH_DIRECT_JUMP: 5e-06
BRANCH_INDIRECT: 7.83e-05
BRANCH_CONDITIONAL: 0.129
BRANCH_DIRECT_CALL: 6.67e-06
BRANCH_INDIRECT_CALL: 3.33e-05
BRANCH_RETURN: 2.33e-05

LLC TOTAL        ACCESS:    7729602 HIT:    2661193 MISS:    5068409
LLC LOAD         ACCESS:    2235380 HIT:    1199223 MISS:    1036157
LLC RFO          ACCESS:     889369 HIT:      62925 MISS:     826444
LLC PREFETCH     ACCESS:    2617513 HIT:    1312184 MISS:    1305329
LLC WRITE        ACCESS:    1983971 HIT:      86689 MISS:    1897282
LLC TRANSLATION  ACCESS:       3369 HIT:        172 MISS:       3197
LLC PREFETCH REQUESTED:    2617513 ISSUED:    2617513 USEFUL:     989378 USELESS:      45356
LLC AVERAGE MISS LATENCY: 837.8 cycles
cpu0_DTLB TOTAL        ACCESS:  126510451 HIT:  125770287 MISS:     740164
cpu0_DTLB LOAD         ACCESS:  126510451 HIT:  125770287 MISS:     740164
cpu0_DTLB RFO          ACCESS:          0 HIT:          0 MISS:          0
cpu0_DTLB PREFETCH     ACCESS:          0 HIT:          0 MISS:          0
cpu0_DTLB WRITE        ACCESS:          0 HIT:          0 MISS:          0
cpu0_DTLB TRANSLATION  ACCESS:          0 HIT:          0 MISS:          0
cpu0_DTLB PREFETCH REQUESTED:          0 ISSUED:          0 USEFUL:          0 USELESS:          0
cpu0_DTLB AVERAGE MISS LATENCY: 16.05 cycles
cpu0_ITLB TOTAL        ACCESS:     142577 HIT:     142331 MISS:        246
cpu0_ITLB LOAD         ACCESS:     142577 HIT:     142331 MISS:        246
cpu0_ITLB RFO          ACCESS:          0 HIT:          0 MISS:          0
cpu0_ITLB PREFETCH     ACCESS:          0 HIT:          0 MISS:          0
cpu0_ITLB WRITE        ACCESS:          0 HIT:          0 MISS:          0
cpu0_ITLB TRANSLATION  ACCESS:          0 HIT:          0 MISS:          0
cpu0_ITLB PREFETCH REQUESTED:          0 ISSUED:          0 USEFUL:          0 USELESS:          0
cpu0_ITLB AVERAGE MISS LATENCY: 201.3 cycles
cpu0_L1D TOTAL        ACCESS:  194091512 HIT:  181408342 MISS:   12683170
cpu0_L1D LOAD         ACCESS:  159409226 HIT:  150915703 MISS:    8493523
cpu0_L1D RFO          ACCESS:          0 HIT:          0 MISS:          0
cpu0_L1D PREFETCH     ACCESS:          0 HIT:          0 MISS:          0
cpu0_L1D WRITE        ACCESS:   34635532 HIT:   30462941 MISS:    4172591
cpu0_L1D TRANSLATION  ACCESS:      46754 HIT:      29698 MISS:      17056
cpu0_L1D PREFETCH REQUESTED:          0 ISSUED:          0 USEFUL:          0 USELESS:          0
cpu0_L1D AVERAGE MISS LATENCY: 169.5 cycles
cpu0_L1I TOTAL        ACCESS:     192347 HIT:     189553 MISS:       2794
cpu0_L1I LOAD         ACCESS:     192347 HIT:     189553 MISS:       2794
cpu0_L1I RFO          ACCESS:          0 HIT:          0 MISS:          0
cpu0_L1I PREFETCH     ACCESS:          0 HIT:          0 MISS:          0
cpu0_L1I WRITE        ACCESS:          0 HIT:          0 MISS:          0
cpu0_L1I TRANSLATION  ACCESS:          0 HIT:          0 MISS:          0
cpu0_L1I PREFETCH REQUESTED:          0 ISSUED:          0 USEFUL:          0 USELESS:          0
cpu0_L1I AVERAGE MISS LATENCY: 419.9 cycles
cpu0_L2C TOTAL        ACCESS:    5257240 HIT:    2128757 MISS:    3128483
cpu0_L2C LOAD         ACCESS:    2349882 HIT:     114435 MISS:    2235447
cpu0_L2C RFO          ACCESS:     890962 HIT:       1593 MISS:     889369
cpu0_L2C PREFETCH     ACCESS:          0 HIT:          0 MISS:          0
cpu0_L2C WRITE        ACCESS:    1999343 HIT:    1999045 MISS:        298
cpu0_L2C TRANSLATION  ACCESS:      17053 HIT:      13684 MISS:       3369
cpu0_L2C PREFETCH REQUESTED:          0 ISSUED:          0 USEFUL:          0 USELESS:          0
cpu0_L2C AVERAGE MISS LATENCY: 848.7 cycles
cpu0_STLB TOTAL        ACCESS:     296198 HIT:     249466 MISS:      46732
cpu0_STLB LOAD         ACCESS:     296198 HIT:     249466 MISS:      46732
cpu0_STLB RFO          ACCESS:          0 HIT:          0 MISS:          0
cpu0_STLB PREFETCH     ACCESS:          0 HIT:          0 MISS:          0
cpu0_STLB WRITE        ACCESS:          0 HIT:          0 MISS:          0
cpu0_STLB TRANSLATION  ACCESS:          0 HIT:          0 MISS:          0
cpu0_STLB PREFETCH REQUESTED:          0 ISSUED:          0 USEFUL:          0 USELESS:          0
cpu0_STLB AVERAGE MISS LATENCY: 354.6 cycles

DRAM Statistics

Channel 0 RQ ROW_BUFFER_HIT:     969377
  ROW_BUFFER_MISS:    1853123
 AVG DBUS CONGESTED CYCLE: 3.958
WQ ROW_BUFFER_HIT: Channel 0 
  ROW_BUFFER_MISS:     686421
  FULL:    1220962
