WARNING: physical memory size is smaller than virtual memory size.

*** ChampSim Multicore Out-of-Order Simulator ***
Warmup Instructions: 50000000
Simulation Instructions: 600000000
Number of CPUs: 1
Page size: 4096

CPU 0 Tage branch predictor
Off-chip DRAM Size: 4 GiB Channels: 1 Width: 64-bit Data Race: 3200 MT/s
Heartbeat CPU 0 instructions: 10000000 cycles: 2881042 heartbeat IPC: 3.471 cumulative IPC: 3.471 (Simulation time: 00 hr 00 min 44 sec)
Heartbeat CPU 0 instructions: 20000000 cycles: 5381042 heartbeat IPC: 4 cumulative IPC: 3.717 (Simulation time: 00 hr 01 min 23 sec)
Heartbeat CPU 0 instructions: 30000000 cycles: 7881042 heartbeat IPC: 4 cumulative IPC: 3.807 (Simulation time: 00 hr 02 min 02 sec)
Heartbeat CPU 0 instructions: 40000000 cycles: 10381042 heartbeat IPC: 4 cumulative IPC: 3.853 (Simulation time: 00 hr 02 min 41 sec)
Heartbeat CPU 0 instructions: 50000000 cycles: 12881042 heartbeat IPC: 4 cumulative IPC: 3.882 (Simulation time: 00 hr 03 min 19 sec)
Warmup finished CPU 0 instructions: 50000000 cycles: 12881043 cumulative IPC: 3.882 (Simulation time: 00 hr 03 min 19 sec)
Warmup complete CPU 0 instructions: 50000000 cycles: 12881043 cumulative IPC: 3.882 (Simulation time: 00 hr 03 min 19 sec)
Heartbeat CPU 0 instructions: 60000004 cycles: 15381076 heartbeat IPC: 4 cumulative IPC: 4 (Simulation time: 00 hr 04 min 06 sec)
Heartbeat CPU 0 instructions: 70000002 cycles: 17881107 heartbeat IPC: 4 cumulative IPC: 4 (Simulation time: 00 hr 04 min 52 sec)
Heartbeat CPU 0 instructions: 80000001 cycles: 20381135 heartbeat IPC: 4 cumulative IPC: 4 (Simulation time: 00 hr 05 min 37 sec)
Heartbeat CPU 0 instructions: 90000004 cycles: 22881212 heartbeat IPC: 4 cumulative IPC: 4 (Simulation time: 00 hr 06 min 23 sec)
Heartbeat CPU 0 instructions: 100000000 cycles: 25381333 heartbeat IPC: 4 cumulative IPC: 4 (Simulation time: 00 hr 07 min 08 sec)
Heartbeat CPU 0 instructions: 110000002 cycles: 27881590 heartbeat IPC: 4 cumulative IPC: 4 (Simulation time: 00 hr 07 min 53 sec)
Heartbeat CPU 0 instructions: 120000000 cycles: 30382706 heartbeat IPC: 3.998 cumulative IPC: 4 (Simulation time: 00 hr 08 min 38 sec)
Heartbeat CPU 0 instructions: 130000002 cycles: 32886405 heartbeat IPC: 3.994 cumulative IPC: 3.999 (Simulation time: 00 hr 09 min 24 sec)
Heartbeat CPU 0 instructions: 140000004 cycles: 35386938 heartbeat IPC: 3.999 cumulative IPC: 3.999 (Simulation time: 00 hr 10 min 08 sec)
Heartbeat CPU 0 instructions: 150000000 cycles: 37887527 heartbeat IPC: 3.999 cumulative IPC: 3.999 (Simulation time: 00 hr 10 min 53 sec)
Heartbeat CPU 0 instructions: 160000003 cycles: 40387648 heartbeat IPC: 4 cumulative IPC: 3.999 (Simulation time: 00 hr 11 min 38 sec)
Heartbeat CPU 0 instructions: 170000002 cycles: 42889139 heartbeat IPC: 3.998 cumulative IPC: 3.999 (Simulation time: 00 hr 12 min 24 sec)
Heartbeat CPU 0 instructions: 180000000 cycles: 45389215 heartbeat IPC: 4 cumulative IPC: 3.999 (Simulation time: 00 hr 13 min 10 sec)
Heartbeat CPU 0 instructions: 190000003 cycles: 47889775 heartbeat IPC: 3.999 cumulative IPC: 3.999 (Simulation time: 00 hr 13 min 57 sec)
Heartbeat CPU 0 instructions: 200000000 cycles: 50390440 heartbeat IPC: 3.999 cumulative IPC: 3.999 (Simulation time: 00 hr 14 min 41 sec)
Heartbeat CPU 0 instructions: 210000000 cycles: 52892011 heartbeat IPC: 3.997 cumulative IPC: 3.999 (Simulation time: 00 hr 15 min 24 sec)
Heartbeat CPU 0 instructions: 220000003 cycles: 55392524 heartbeat IPC: 3.999 cumulative IPC: 3.999 (Simulation time: 00 hr 16 min 08 sec)
Heartbeat CPU 0 instructions: 230000002 cycles: 88642724 heartbeat IPC: 0.3008 cumulative IPC: 2.376 (Simulation time: 00 hr 19 min 58 sec)
Heartbeat CPU 0 instructions: 240000002 cycles: 92391605 heartbeat IPC: 2.667 cumulative IPC: 2.39 (Simulation time: 00 hr 20 min 55 sec)
Heartbeat CPU 0 instructions: 250000000 cycles: 96150589 heartbeat IPC: 2.66 cumulative IPC: 2.402 (Simulation time: 00 hr 21 min 52 sec)
Heartbeat CPU 0 instructions: 260000002 cycles: 99949308 heartbeat IPC: 2.632 cumulative IPC: 2.412 (Simulation time: 00 hr 22 min 48 sec)
Heartbeat CPU 0 instructions: 270000003 cycles: 103749769 heartbeat IPC: 2.631 cumulative IPC: 2.421 (Simulation time: 00 hr 23 min 46 sec)
Heartbeat CPU 0 instructions: 280000003 cycles: 107556694 heartbeat IPC: 2.627 cumulative IPC: 2.429 (Simulation time: 00 hr 24 min 44 sec)
Heartbeat CPU 0 instructions: 290000002 cycles: 111098998 heartbeat IPC: 2.823 cumulative IPC: 2.444 (Simulation time: 00 hr 25 min 41 sec)
Heartbeat CPU 0 instructions: 300000003 cycles: 114536611 heartbeat IPC: 2.909 cumulative IPC: 2.459 (Simulation time: 00 hr 26 min 34 sec)
Heartbeat CPU 0 instructions: 310000001 cycles: 117941431 heartbeat IPC: 2.937 cumulative IPC: 2.475 (Simulation time: 00 hr 27 min 29 sec)
Heartbeat CPU 0 instructions: 320000004 cycles: 121309562 heartbeat IPC: 2.969 cumulative IPC: 2.49 (Simulation time: 00 hr 28 min 22 sec)
Heartbeat CPU 0 instructions: 330000004 cycles: 126420896 heartbeat IPC: 1.956 cumulative IPC: 2.466 (Simulation time: 00 hr 29 min 29 sec)
Heartbeat CPU 0 instructions: 340000002 cycles: 131625754 heartbeat IPC: 1.921 cumulative IPC: 2.442 (Simulation time: 00 hr 30 min 40 sec)
Heartbeat CPU 0 instructions: 350000002 cycles: 136773799 heartbeat IPC: 1.942 cumulative IPC: 2.421 (Simulation time: 00 hr 31 min 50 sec)
Heartbeat CPU 0 instructions: 360000000 cycles: 141965392 heartbeat IPC: 1.926 cumulative IPC: 2.402 (Simulation time: 00 hr 33 min 02 sec)
Heartbeat CPU 0 instructions: 370000001 cycles: 147109431 heartbeat IPC: 1.944 cumulative IPC: 2.384 (Simulation time: 00 hr 34 min 12 sec)
Heartbeat CPU 0 instructions: 380000003 cycles: 152315419 heartbeat IPC: 1.921 cumulative IPC: 2.367 (Simulation time: 00 hr 35 min 19 sec)
Heartbeat CPU 0 instructions: 390000000 cycles: 157501433 heartbeat IPC: 1.928 cumulative IPC: 2.351 (Simulation time: 00 hr 36 min 26 sec)
Heartbeat CPU 0 instructions: 400000000 cycles: 162912989 heartbeat IPC: 1.848 cumulative IPC: 2.333 (Simulation time: 00 hr 37 min 38 sec)
Heartbeat CPU 0 instructions: 410000003 cycles: 168534555 heartbeat IPC: 1.779 cumulative IPC: 2.313 (Simulation time: 00 hr 38 min 50 sec)
Heartbeat CPU 0 instructions: 420000000 cycles: 174520654 heartbeat IPC: 1.671 cumulative IPC: 2.289 (Simulation time: 00 hr 40 min 06 sec)
Heartbeat CPU 0 instructions: 430000002 cycles: 179884802 heartbeat IPC: 1.864 cumulative IPC: 2.275 (Simulation time: 00 hr 41 min 20 sec)
Heartbeat CPU 0 instructions: 440000002 cycles: 185275999 heartbeat IPC: 1.855 cumulative IPC: 2.262 (Simulation time: 00 hr 42 min 33 sec)
Heartbeat CPU 0 instructions: 450000000 cycles: 190686626 heartbeat IPC: 1.848 cumulative IPC: 2.25 (Simulation time: 00 hr 43 min 44 sec)
Heartbeat CPU 0 instructions: 460000003 cycles: 196129959 heartbeat IPC: 1.837 cumulative IPC: 2.237 (Simulation time: 00 hr 44 min 56 sec)
Heartbeat CPU 0 instructions: 470000004 cycles: 201568115 heartbeat IPC: 1.839 cumulative IPC: 2.226 (Simulation time: 00 hr 46 min 07 sec)
Heartbeat CPU 0 instructions: 480000001 cycles: 207051018 heartbeat IPC: 1.824 cumulative IPC: 2.215 (Simulation time: 00 hr 47 min 20 sec)
Heartbeat CPU 0 instructions: 490000001 cycles: 212442915 heartbeat IPC: 1.855 cumulative IPC: 2.205 (Simulation time: 00 hr 48 min 31 sec)
Heartbeat CPU 0 instructions: 500000001 cycles: 217859086 heartbeat IPC: 1.846 cumulative IPC: 2.195 (Simulation time: 00 hr 49 min 44 sec)
Heartbeat CPU 0 instructions: 510000002 cycles: 223280743 heartbeat IPC: 1.844 cumulative IPC: 2.186 (Simulation time: 00 hr 50 min 53 sec)
Heartbeat CPU 0 instructions: 520000001 cycles: 284388750 heartbeat IPC: 0.1636 cumulative IPC: 1.731 (Simulation time: 00 hr 59 min 29 sec)
Heartbeat CPU 0 instructions: 530000001 cycles: 410048119 heartbeat IPC: 0.07958 cumulative IPC: 1.209 (Simulation time: 01 hr 16 min 42 sec)
Heartbeat CPU 0 instructions: 540000001 cycles: 440680428 heartbeat IPC: 0.3265 cumulative IPC: 1.145 (Simulation time: 01 hr 21 min 16 sec)
Heartbeat CPU 0 instructions: 550000003 cycles: 472269618 heartbeat IPC: 0.3166 cumulative IPC: 1.088 (Simulation time: 01 hr 25 min 55 sec)
Heartbeat CPU 0 instructions: 560000001 cycles: 504183278 heartbeat IPC: 0.3133 cumulative IPC: 1.038 (Simulation time: 01 hr 30 min 42 sec)
Heartbeat CPU 0 instructions: 570000001 cycles: 536138371 heartbeat IPC: 0.3129 cumulative IPC: 0.9938 (Simulation time: 01 hr 35 min 29 sec)
Heartbeat CPU 0 instructions: 580000001 cycles: 565427066 heartbeat IPC: 0.3414 cumulative IPC: 0.9592 (Simulation time: 01 hr 39 min 57 sec)
Heartbeat CPU 0 instructions: 590000000 cycles: 594950956 heartbeat IPC: 0.3387 cumulative IPC: 0.9277 (Simulation time: 01 hr 44 min 24 sec)
*** Reached end of trace: (0, "traces/bt.A.champsimtrace")
Heartbeat CPU 0 instructions: 600000002 cycles: 625210241 heartbeat IPC: 0.3305 cumulative IPC: 0.8982 (Simulation time: 01 hr 48 min 59 sec)
Heartbeat CPU 0 instructions: 610000004 cycles: 653504638 heartbeat IPC: 0.3534 cumulative IPC: 0.8741 (Simulation time: 01 hr 52 min 09 sec)
Heartbeat CPU 0 instructions: 620000000 cycles: 656005114 heartbeat IPC: 3.999 cumulative IPC: 0.8863 (Simulation time: 01 hr 52 min 53 sec)
Heartbeat CPU 0 instructions: 630000002 cycles: 658507662 heartbeat IPC: 3.996 cumulative IPC: 0.8984 (Simulation time: 01 hr 53 min 38 sec)
Heartbeat CPU 0 instructions: 640000001 cycles: 661008289 heartbeat IPC: 3.999 cumulative IPC: 0.9103 (Simulation time: 01 hr 54 min 25 sec)
Heartbeat CPU 0 instructions: 650000002 cycles: 663509591 heartbeat IPC: 3.998 cumulative IPC: 0.9222 (Simulation time: 01 hr 55 min 12 sec)
Simulation finished CPU 0 instructions: 600000002 cycles: 650628549 cumulative IPC: 0.9222 (Simulation time: 01 hr 55 min 12 sec)
Simulation complete CPU 0 instructions: 600000002 cycles: 650628549 cumulative IPC: 0.9222 (Simulation time: 01 hr 55 min 12 sec)

ChampSim completed all CPUs

=== Simulation ===
CPU 0 runs traces/bt.A.champsimtrace
Region of Interest Statistics

CPU 0 cumulative IPC: 0.9222 instructions: 600000002 cycles: 650628549
CPU 0 Branch Prediction Accuracy: 99.98% MPKI: 0.004168 Average ROB Occupancy at Mispredict: 112.5
Branch type MPKI
BRANCH_DIRECT_JUMP: 5e-06
BRANCH_INDIRECT: 7.83e-05
BRANCH_CONDITIONAL: 0.00402
BRANCH_DIRECT_CALL: 6.67e-06
BRANCH_INDIRECT_CALL: 3.67e-05
BRANCH_RETURN: 2.33e-05

LLC TOTAL        ACCESS:    7787117 HIT:    3600769 MISS:    4186348
LLC LOAD         ACCESS:    2239963 HIT:    1354050 MISS:     885913
LLC RFO          ACCESS:     889446 HIT:      47287 MISS:     842159
LLC PREFETCH     ACCESS:    2665852 HIT:    1482049 MISS:    1183803
LLC WRITE        ACCESS:    1988480 HIT:     717145 MISS:    1271335
LLC TRANSLATION  ACCESS:       3376 HIT:        238 MISS:       3138
LLC PREFETCH REQUESTED:    2665852 ISSUED:    2665852 USEFUL:     966832 USELESS:      30500
LLC AVERAGE MISS LATENCY: 954.7 cycles
cpu0_DTLB TOTAL        ACCESS:  127100558 HIT:  126319551 MISS:     781007
cpu0_DTLB LOAD         ACCESS:  127100558 HIT:  126319551 MISS:     781007
cpu0_DTLB RFO          ACCESS:          0 HIT:          0 MISS:          0
cpu0_DTLB PREFETCH     ACCESS:          0 HIT:          0 MISS:          0
cpu0_DTLB WRITE        ACCESS:          0 HIT:          0 MISS:          0
cpu0_DTLB TRANSLATION  ACCESS:          0 HIT:          0 MISS:          0
cpu0_DTLB PREFETCH REQUESTED:          0 ISSUED:          0 USEFUL:          0 USELESS:          0
cpu0_DTLB AVERAGE MISS LATENCY: 13.69 cycles
cpu0_ITLB TOTAL        ACCESS:     172442 HIT:     172196 MISS:        246
cpu0_ITLB LOAD         ACCESS:     172442 HIT:     172196 MISS:        246
cpu0_ITLB RFO          ACCESS:          0 HIT:          0 MISS:          0
cpu0_ITLB PREFETCH     ACCESS:          0 HIT:          0 MISS:          0
cpu0_ITLB WRITE        ACCESS:          0 HIT:          0 MISS:          0
cpu0_ITLB TRANSLATION  ACCESS:          0 HIT:          0 MISS:          0
cpu0_ITLB PREFETCH REQUESTED:          0 ISSUED:          0 USEFUL:          0 USELESS:          0
cpu0_ITLB AVERAGE MISS LATENCY: 301.5 cycles
cpu0_L1D TOTAL        ACCESS:  195266407 HIT:  182490885 MISS:   12775522
cpu0_L1D LOAD         ACCESS:  160584267 HIT:  151975379 MISS:    8608888
cpu0_L1D RFO          ACCESS:          0 HIT:          0 MISS:          0
cpu0_L1D PREFETCH     ACCESS:          0 HIT:          0 MISS:          0
cpu0_L1D WRITE        ACCESS:   34635366 HIT:   30485800 MISS:    4149566
cpu0_L1D TRANSLATION  ACCESS:      46774 HIT:      29706 MISS:      17068
cpu0_L1D PREFETCH REQUESTED:          0 ISSUED:          0 USEFUL:          0 USELESS:          0
cpu0_L1D AVERAGE MISS LATENCY: 158.6 cycles
cpu0_L1I TOTAL        ACCESS:     205258 HIT:     202277 MISS:       2981
cpu0_L1I LOAD         ACCESS:     205258 HIT:     202277 MISS:       2981
cpu0_L1I RFO          ACCESS:          0 HIT:          0 MISS:          0
cpu0_L1I PREFETCH     ACCESS:          0 HIT:          0 MISS:          0
cpu0_L1I WRITE        ACCESS:          0 HIT:          0 MISS:          0
cpu0_L1I TRANSLATION  ACCESS:          0 HIT:          0 MISS:          0
cpu0_L1I PREFETCH REQUESTED:          0 ISSUED:          0 USEFUL:          0 USELESS:          0
cpu0_L1I AVERAGE MISS LATENCY: 529.6 cycles
cpu0_L2C TOTAL        ACCESS:    5259147 HIT:    2125899 MISS:    3133248
cpu0_L2C LOAD         ACCESS:    2352995 HIT:     113025 MISS:    2239970
cpu0_L2C RFO          ACCESS:     889976 HIT:        530 MISS:     889446
cpu0_L2C PREFETCH     ACCESS:          0 HIT:          0 MISS:          0
cpu0_L2C WRITE        ACCESS:    1999110 HIT:    1998654 MISS:        456
cpu0_L2C TRANSLATION  ACCESS:      17066 HIT:      13690 MISS:       3376
cpu0_L2C PREFETCH REQUESTED:          0 ISSUED:          0 USEFUL:          0 USELESS:          0
cpu0_L2C AVERAGE MISS LATENCY: 804 cycles
cpu0_STLB TOTAL        ACCESS:     314161 HIT:     267409 MISS:      46752
cpu0_STLB LOAD         ACCESS:     314161 HIT:     267409 MISS:      46752
cpu0_STLB RFO          ACCESS:          0 HIT:          0 MISS:          0
cpu0_STLB PREFETCH     ACCESS:          0 HIT:          0 MISS:          0
cpu0_STLB WRITE        ACCESS:          0 HIT:          0 MISS:          0
cpu0_STLB TRANSLATION  ACCESS:          0 HIT:          0 MISS:          0
cpu0_STLB PREFETCH REQUESTED:          0 ISSUED:          0 USEFUL:          0 USELESS:          0
cpu0_STLB AVERAGE MISS LATENCY: 314.4 cycles

DRAM Statistics

Channel 0 RQ ROW_BUFFER_HIT:     921554
  ROW_BUFFER_MISS:    1740785
 AVG DBUS CONGESTED CYCLE: 3.958
WQ ROW_BUFFER_HIT: Channel 0 
  ROW_BUFFER_MISS:     588491
  FULL:    1173810
