WARNING: physical memory size is smaller than virtual memory size.

*** ChampSim Multicore Out-of-Order Simulator ***
Warmup Instructions: 50000000
Simulation Instructions: 600000000
Number of CPUs: 1
Page size: 4096

Off-chip DRAM Size: 4 GiB Channels: 1 Width: 64-bit Data Race: 3200 MT/s
Heartbeat CPU 0 instructions: 10000003 cycles: 2881043 heartbeat IPC: 3.471 cumulative IPC: 3.471 (Simulation time: 00 hr 00 min 48 sec)
Heartbeat CPU 0 instructions: 20000003 cycles: 5381043 heartbeat IPC: 4 cumulative IPC: 3.717 (Simulation time: 00 hr 01 min 33 sec)
Heartbeat CPU 0 instructions: 30000003 cycles: 7881043 heartbeat IPC: 4 cumulative IPC: 3.807 (Simulation time: 00 hr 02 min 25 sec)
Heartbeat CPU 0 instructions: 40000003 cycles: 10381043 heartbeat IPC: 4 cumulative IPC: 3.853 (Simulation time: 00 hr 03 min 18 sec)
Heartbeat CPU 0 instructions: 50000003 cycles: 12881043 heartbeat IPC: 4 cumulative IPC: 3.882 (Simulation time: 00 hr 04 min 11 sec)
Warmup finished CPU 0 instructions: 50000003 cycles: 12881044 cumulative IPC: 3.882 (Simulation time: 00 hr 04 min 11 sec)
Warmup complete CPU 0 instructions: 50000003 cycles: 12881044 cumulative IPC: 3.882 (Simulation time: 00 hr 04 min 11 sec)
Heartbeat CPU 0 instructions: 60000001 cycles: 15384489 heartbeat IPC: 3.994 cumulative IPC: 3.994 (Simulation time: 00 hr 05 min 25 sec)
Heartbeat CPU 0 instructions: 70000003 cycles: 17888291 heartbeat IPC: 3.994 cumulative IPC: 3.994 (Simulation time: 00 hr 06 min 35 sec)
Heartbeat CPU 0 instructions: 80000002 cycles: 20390765 heartbeat IPC: 3.996 cumulative IPC: 3.995 (Simulation time: 00 hr 07 min 42 sec)
Heartbeat CPU 0 instructions: 90000002 cycles: 22893360 heartbeat IPC: 3.996 cumulative IPC: 3.995 (Simulation time: 00 hr 08 min 49 sec)
Heartbeat CPU 0 instructions: 100000003 cycles: 25396545 heartbeat IPC: 3.995 cumulative IPC: 3.995 (Simulation time: 00 hr 09 min 53 sec)
Heartbeat CPU 0 instructions: 110000000 cycles: 27899031 heartbeat IPC: 3.996 cumulative IPC: 3.995 (Simulation time: 00 hr 10 min 51 sec)
Heartbeat CPU 0 instructions: 120000001 cycles: 30402705 heartbeat IPC: 3.994 cumulative IPC: 3.995 (Simulation time: 00 hr 11 min 50 sec)
Heartbeat CPU 0 instructions: 130000004 cycles: 32906108 heartbeat IPC: 3.995 cumulative IPC: 3.995 (Simulation time: 00 hr 12 min 56 sec)
Heartbeat CPU 0 instructions: 140000000 cycles: 35409177 heartbeat IPC: 3.995 cumulative IPC: 3.995 (Simulation time: 00 hr 14 min 02 sec)
Heartbeat CPU 0 instructions: 150000001 cycles: 37911710 heartbeat IPC: 3.996 cumulative IPC: 3.995 (Simulation time: 00 hr 14 min 56 sec)
Heartbeat CPU 0 instructions: 160000004 cycles: 40414685 heartbeat IPC: 3.995 cumulative IPC: 3.995 (Simulation time: 00 hr 15 min 57 sec)
Heartbeat CPU 0 instructions: 170000004 cycles: 42918397 heartbeat IPC: 3.994 cumulative IPC: 3.995 (Simulation time: 00 hr 16 min 55 sec)
Heartbeat CPU 0 instructions: 180000000 cycles: 45420759 heartbeat IPC: 3.996 cumulative IPC: 3.995 (Simulation time: 00 hr 17 min 44 sec)
Heartbeat CPU 0 instructions: 190000004 cycles: 47924948 heartbeat IPC: 3.993 cumulative IPC: 3.995 (Simulation time: 00 hr 18 min 35 sec)
Heartbeat CPU 0 instructions: 200000000 cycles: 50427402 heartbeat IPC: 3.996 cumulative IPC: 3.995 (Simulation time: 00 hr 19 min 54 sec)
Heartbeat CPU 0 instructions: 210000003 cycles: 52930007 heartbeat IPC: 3.996 cumulative IPC: 3.995 (Simulation time: 00 hr 20 min 57 sec)
Heartbeat CPU 0 instructions: 220000000 cycles: 55432495 heartbeat IPC: 3.996 cumulative IPC: 3.995 (Simulation time: 00 hr 21 min 53 sec)
Heartbeat CPU 0 instructions: 230000002 cycles: 90057352 heartbeat IPC: 0.2888 cumulative IPC: 2.332 (Simulation time: 00 hr 26 min 55 sec)
Heartbeat CPU 0 instructions: 240000000 cycles: 94410345 heartbeat IPC: 2.297 cumulative IPC: 2.33 (Simulation time: 00 hr 28 min 11 sec)
Heartbeat CPU 0 instructions: 250000004 cycles: 98800587 heartbeat IPC: 2.278 cumulative IPC: 2.328 (Simulation time: 00 hr 29 min 33 sec)
Heartbeat CPU 0 instructions: 260000004 cycles: 103203690 heartbeat IPC: 2.271 cumulative IPC: 2.325 (Simulation time: 00 hr 30 min 56 sec)
Heartbeat CPU 0 instructions: 270000001 cycles: 107606871 heartbeat IPC: 2.271 cumulative IPC: 2.322 (Simulation time: 00 hr 32 min 18 sec)
Heartbeat CPU 0 instructions: 280000002 cycles: 112045611 heartbeat IPC: 2.253 cumulative IPC: 2.319 (Simulation time: 00 hr 33 min 38 sec)
Heartbeat CPU 0 instructions: 290000002 cycles: 116497176 heartbeat IPC: 2.246 cumulative IPC: 2.316 (Simulation time: 00 hr 34 min 58 sec)
Heartbeat CPU 0 instructions: 300000002 cycles: 120888909 heartbeat IPC: 2.277 cumulative IPC: 2.315 (Simulation time: 00 hr 36 min 17 sec)
Heartbeat CPU 0 instructions: 310000004 cycles: 125249508 heartbeat IPC: 2.293 cumulative IPC: 2.314 (Simulation time: 00 hr 37 min 34 sec)
Heartbeat CPU 0 instructions: 320000004 cycles: 129621608 heartbeat IPC: 2.287 cumulative IPC: 2.313 (Simulation time: 00 hr 38 min 51 sec)
Heartbeat CPU 0 instructions: 330000001 cycles: 133474103 heartbeat IPC: 2.596 cumulative IPC: 2.322 (Simulation time: 00 hr 40 min 03 sec)
Heartbeat CPU 0 instructions: 340000004 cycles: 136845055 heartbeat IPC: 2.967 cumulative IPC: 2.339 (Simulation time: 00 hr 41 min 07 sec)
Heartbeat CPU 0 instructions: 350000002 cycles: 140331487 heartbeat IPC: 2.868 cumulative IPC: 2.354 (Simulation time: 00 hr 42 min 12 sec)
Heartbeat CPU 0 instructions: 360000002 cycles: 143835796 heartbeat IPC: 2.854 cumulative IPC: 2.367 (Simulation time: 00 hr 43 min 16 sec)
Heartbeat CPU 0 instructions: 370000004 cycles: 147373608 heartbeat IPC: 2.827 cumulative IPC: 2.379 (Simulation time: 00 hr 44 min 25 sec)
Heartbeat CPU 0 instructions: 380000004 cycles: 150980700 heartbeat IPC: 2.772 cumulative IPC: 2.39 (Simulation time: 00 hr 45 min 35 sec)
Heartbeat CPU 0 instructions: 390000004 cycles: 154500422 heartbeat IPC: 2.841 cumulative IPC: 2.401 (Simulation time: 00 hr 46 min 44 sec)
Heartbeat CPU 0 instructions: 400000004 cycles: 157991112 heartbeat IPC: 2.865 cumulative IPC: 2.412 (Simulation time: 00 hr 47 min 53 sec)
Heartbeat CPU 0 instructions: 410000000 cycles: 160984472 heartbeat IPC: 3.341 cumulative IPC: 2.431 (Simulation time: 00 hr 48 min 58 sec)
Heartbeat CPU 0 instructions: 420000001 cycles: 164523117 heartbeat IPC: 2.826 cumulative IPC: 2.44 (Simulation time: 00 hr 50 min 09 sec)
Heartbeat CPU 0 instructions: 430000004 cycles: 167657014 heartbeat IPC: 3.191 cumulative IPC: 2.455 (Simulation time: 00 hr 51 min 13 sec)
Heartbeat CPU 0 instructions: 440000002 cycles: 170923452 heartbeat IPC: 3.061 cumulative IPC: 2.468 (Simulation time: 00 hr 52 min 16 sec)
Heartbeat CPU 0 instructions: 450000003 cycles: 174202491 heartbeat IPC: 3.05 cumulative IPC: 2.48 (Simulation time: 00 hr 53 min 20 sec)
Heartbeat CPU 0 instructions: 460000002 cycles: 177593926 heartbeat IPC: 2.949 cumulative IPC: 2.489 (Simulation time: 00 hr 54 min 28 sec)
Heartbeat CPU 0 instructions: 470000004 cycles: 181044626 heartbeat IPC: 2.898 cumulative IPC: 2.498 (Simulation time: 00 hr 55 min 38 sec)
Heartbeat CPU 0 instructions: 480000001 cycles: 184637438 heartbeat IPC: 2.783 cumulative IPC: 2.504 (Simulation time: 00 hr 56 min 52 sec)
Heartbeat CPU 0 instructions: 490000003 cycles: 188241232 heartbeat IPC: 2.775 cumulative IPC: 2.509 (Simulation time: 00 hr 58 min 15 sec)
Heartbeat CPU 0 instructions: 500000003 cycles: 191848344 heartbeat IPC: 2.772 cumulative IPC: 2.514 (Simulation time: 00 hr 59 min 31 sec)
Heartbeat CPU 0 instructions: 510000002 cycles: 195483964 heartbeat IPC: 2.751 cumulative IPC: 2.519 (Simulation time: 01 hr 00 min 50 sec)
Heartbeat CPU 0 instructions: 520000002 cycles: 258452244 heartbeat IPC: 0.1588 cumulative IPC: 1.914 (Simulation time: 01 hr 12 min 42 sec)
Heartbeat CPU 0 instructions: 530000001 cycles: 380156600 heartbeat IPC: 0.08217 cumulative IPC: 1.307 (Simulation time: 01 hr 34 min 18 sec)
Heartbeat CPU 0 instructions: 540000002 cycles: 412899428 heartbeat IPC: 0.3054 cumulative IPC: 1.225 (Simulation time: 01 hr 40 min 52 sec)
Heartbeat CPU 0 instructions: 550000003 cycles: 446004101 heartbeat IPC: 0.3021 cumulative IPC: 1.154 (Simulation time: 01 hr 47 min 13 sec)
Heartbeat CPU 0 instructions: 560000004 cycles: 478437465 heartbeat IPC: 0.3083 cumulative IPC: 1.095 (Simulation time: 01 hr 53 min 23 sec)
Heartbeat CPU 0 instructions: 570000000 cycles: 511158231 heartbeat IPC: 0.3056 cumulative IPC: 1.044 (Simulation time: 01 hr 59 min 35 sec)
Heartbeat CPU 0 instructions: 580000002 cycles: 543918338 heartbeat IPC: 0.3052 cumulative IPC: 0.998 (Simulation time: 02 hr 05 min 50 sec)
Heartbeat CPU 0 instructions: 590000001 cycles: 578989106 heartbeat IPC: 0.2851 cumulative IPC: 0.9539 (Simulation time: 02 hr 12 min 25 sec)
*** Reached end of trace: (0, "traces/bt.A.champsimtrace")
Heartbeat CPU 0 instructions: 600000001 cycles: 614366590 heartbeat IPC: 0.2827 cumulative IPC: 0.9144 (Simulation time: 02 hr 19 min 08 sec)
Heartbeat CPU 0 instructions: 610000002 cycles: 640416748 heartbeat IPC: 0.3839 cumulative IPC: 0.8924 (Simulation time: 02 hr 23 min 12 sec)
Heartbeat CPU 0 instructions: 620000002 cycles: 642919488 heartbeat IPC: 3.996 cumulative IPC: 0.9047 (Simulation time: 02 hr 24 min 11 sec)
Heartbeat CPU 0 instructions: 630000003 cycles: 645422228 heartbeat IPC: 3.996 cumulative IPC: 0.9169 (Simulation time: 02 hr 25 min 14 sec)
Heartbeat CPU 0 instructions: 640000003 cycles: 647925158 heartbeat IPC: 3.995 cumulative IPC: 0.9291 (Simulation time: 02 hr 26 min 07 sec)
Heartbeat CPU 0 instructions: 650000000 cycles: 650429095 heartbeat IPC: 3.994 cumulative IPC: 0.9411 (Simulation time: 02 hr 27 min 00 sec)
Simulation finished CPU 0 instructions: 600000002 cycles: 637548053 cumulative IPC: 0.9411 (Simulation time: 02 hr 27 min 00 sec)
Simulation complete CPU 0 instructions: 600000002 cycles: 637548053 cumulative IPC: 0.9411 (Simulation time: 02 hr 27 min 00 sec)

ChampSim completed all CPUs

=== Simulation ===
CPU 0 runs traces/bt.A.champsimtrace
Region of Interest Statistics

CPU 0 cumulative IPC: 0.9411 instructions: 600000002 cycles: 637548053
CPU 0 Branch Prediction Accuracy: 99.28% MPKI: 0.1297 Average ROB Occupancy at Mispredict: 279.1
Branch type MPKI
BRANCH_DIRECT_JUMP: 5e-06
BRANCH_INDIRECT: 8.67e-05
BRANCH_CONDITIONAL: 0.13
BRANCH_DIRECT_CALL: 6.67e-06
BRANCH_INDIRECT_CALL: 3.83e-05
BRANCH_RETURN: 2.17e-05

LLC TOTAL        ACCESS:    7362236 HIT:    2714205 MISS:    4648031
LLC LOAD         ACCESS:    2240309 HIT:    1031547 MISS:    1208762
LLC RFO          ACCESS:     889338 HIT:      19714 MISS:     869624
LLC PREFETCH     ACCESS:    2240862 HIT:     398843 MISS:    1842019
LLC WRITE        ACCESS:    1988354 HIT:    1263759 MISS:     724595
LLC TRANSLATION  ACCESS:       3373 HIT:        342 MISS:       3031
LLC PREFETCH REQUESTED:    2249886 ISSUED:    2240862 USEFUL:    1490646 USELESS:      31658
LLC AVERAGE MISS LATENCY: 982.9 cycles
cpu0_DTLB TOTAL        ACCESS:  128369565 HIT:  127615134 MISS:     754431
cpu0_DTLB LOAD         ACCESS:  128369565 HIT:  127615134 MISS:     754431
cpu0_DTLB RFO          ACCESS:          0 HIT:          0 MISS:          0
cpu0_DTLB PREFETCH     ACCESS:          0 HIT:          0 MISS:          0
cpu0_DTLB WRITE        ACCESS:          0 HIT:          0 MISS:          0
cpu0_DTLB TRANSLATION  ACCESS:          0 HIT:          0 MISS:          0
cpu0_DTLB PREFETCH REQUESTED:          0 ISSUED:          0 USEFUL:          0 USELESS:          0
cpu0_DTLB AVERAGE MISS LATENCY: 17.14 cycles
cpu0_ITLB TOTAL        ACCESS:     142683 HIT:     142446 MISS:        237
cpu0_ITLB LOAD         ACCESS:     142683 HIT:     142446 MISS:        237
cpu0_ITLB RFO          ACCESS:          0 HIT:          0 MISS:          0
cpu0_ITLB PREFETCH     ACCESS:          0 HIT:          0 MISS:          0
cpu0_ITLB WRITE        ACCESS:          0 HIT:          0 MISS:          0
cpu0_ITLB TRANSLATION  ACCESS:          0 HIT:          0 MISS:          0
cpu0_ITLB PREFETCH REQUESTED:          0 ISSUED:          0 USEFUL:          0 USELESS:          0
cpu0_ITLB AVERAGE MISS LATENCY: 363.3 cycles
cpu0_L1D TOTAL        ACCESS:  196749090 HIT:  183173568 MISS:   13575522
cpu0_L1D LOAD         ACCESS:  162066948 HIT:  152599512 MISS:    9467436
cpu0_L1D RFO          ACCESS:          0 HIT:          0 MISS:          0
cpu0_L1D PREFETCH     ACCESS:          0 HIT:          0 MISS:          0
cpu0_L1D WRITE        ACCESS:   34635376 HIT:   30544323 MISS:    4091053
cpu0_L1D TRANSLATION  ACCESS:      46766 HIT:      29733 MISS:      17033
cpu0_L1D PREFETCH REQUESTED:          0 ISSUED:          0 USEFUL:          0 USELESS:          0
cpu0_L1D AVERAGE MISS LATENCY: 165.1 cycles
cpu0_L1I TOTAL        ACCESS:     192170 HIT:     189457 MISS:       2713
cpu0_L1I LOAD         ACCESS:     192170 HIT:     189457 MISS:       2713
cpu0_L1I RFO          ACCESS:          0 HIT:          0 MISS:          0
cpu0_L1I PREFETCH     ACCESS:          0 HIT:          0 MISS:          0
cpu0_L1I WRITE        ACCESS:          0 HIT:          0 MISS:          0
cpu0_L1I TRANSLATION  ACCESS:          0 HIT:          0 MISS:          0
cpu0_L1I PREFETCH REQUESTED:          0 ISSUED:          0 USEFUL:          0 USELESS:          0
cpu0_L1I AVERAGE MISS LATENCY: 487.2 cycles
cpu0_L2C TOTAL        ACCESS:    5268348 HIT:    2134916 MISS:    3133432
cpu0_L2C LOAD         ACCESS:    2360836 HIT:     120488 MISS:    2240348
cpu0_L2C RFO          ACCESS:     890698 HIT:       1360 MISS:     889338
cpu0_L2C PREFETCH     ACCESS:          0 HIT:          0 MISS:          0
cpu0_L2C WRITE        ACCESS:    1999782 HIT:    1999409 MISS:        373
cpu0_L2C TRANSLATION  ACCESS:      17032 HIT:      13659 MISS:       3373
cpu0_L2C PREFETCH REQUESTED:          0 ISSUED:          0 USEFUL:          0 USELESS:          0
cpu0_L2C AVERAGE MISS LATENCY: 934.7 cycles
cpu0_STLB TOTAL        ACCESS:     310421 HIT:     263674 MISS:      46747
cpu0_STLB LOAD         ACCESS:     310421 HIT:     263674 MISS:      46747
cpu0_STLB RFO          ACCESS:          0 HIT:          0 MISS:          0
cpu0_STLB PREFETCH     ACCESS:          0 HIT:          0 MISS:          0
cpu0_STLB WRITE        ACCESS:          0 HIT:          0 MISS:          0
cpu0_STLB TRANSLATION  ACCESS:          0 HIT:          0 MISS:          0
cpu0_STLB PREFETCH REQUESTED:          0 ISSUED:          0 USEFUL:          0 USELESS:          0
cpu0_STLB AVERAGE MISS LATENCY: 382 cycles

DRAM Statistics

Channel 0 RQ ROW_BUFFER_HIT:     793785
  ROW_BUFFER_MISS:    1954771
 AVG DBUS CONGESTED CYCLE: 3.976
WQ ROW_BUFFER_HIT: Channel 0 
  ROW_BUFFER_MISS:     399698
  FULL:    1387866
