WARNING: physical memory size is smaller than virtual memory size.

*** ChampSim Multicore Out-of-Order Simulator ***
Warmup Instructions: 50000000
Simulation Instructions: 600000000
Number of CPUs: 1
Page size: 4096

Off-chip DRAM Size: 4 GiB Channels: 1 Width: 64-bit Data Race: 3200 MT/s
Heartbeat CPU 0 instructions: 10000000 cycles: 2881042 heartbeat IPC: 3.471 cumulative IPC: 3.471 (Simulation time: 00 hr 00 min 37 sec)
Heartbeat CPU 0 instructions: 20000000 cycles: 5381042 heartbeat IPC: 4 cumulative IPC: 3.717 (Simulation time: 00 hr 01 min 09 sec)
Heartbeat CPU 0 instructions: 30000000 cycles: 7881042 heartbeat IPC: 4 cumulative IPC: 3.807 (Simulation time: 00 hr 01 min 42 sec)
Heartbeat CPU 0 instructions: 40000000 cycles: 10381042 heartbeat IPC: 4 cumulative IPC: 3.853 (Simulation time: 00 hr 02 min 15 sec)
Heartbeat CPU 0 instructions: 50000000 cycles: 12881042 heartbeat IPC: 4 cumulative IPC: 3.882 (Simulation time: 00 hr 02 min 48 sec)
Warmup finished CPU 0 instructions: 50000000 cycles: 12881043 cumulative IPC: 3.882 (Simulation time: 00 hr 02 min 48 sec)
Warmup complete CPU 0 instructions: 50000000 cycles: 12881043 cumulative IPC: 3.882 (Simulation time: 00 hr 02 min 48 sec)
Heartbeat CPU 0 instructions: 60000004 cycles: 15383364 heartbeat IPC: 3.996 cumulative IPC: 3.996 (Simulation time: 00 hr 03 min 28 sec)
Heartbeat CPU 0 instructions: 70000002 cycles: 17885682 heartbeat IPC: 3.996 cumulative IPC: 3.996 (Simulation time: 00 hr 04 min 08 sec)
Heartbeat CPU 0 instructions: 80000002 cycles: 20387998 heartbeat IPC: 3.996 cumulative IPC: 3.996 (Simulation time: 00 hr 04 min 47 sec)
Heartbeat CPU 0 instructions: 90000004 cycles: 22890375 heartbeat IPC: 3.996 cumulative IPC: 3.996 (Simulation time: 00 hr 05 min 25 sec)
Heartbeat CPU 0 instructions: 100000000 cycles: 25392925 heartbeat IPC: 3.996 cumulative IPC: 3.996 (Simulation time: 00 hr 06 min 04 sec)
Heartbeat CPU 0 instructions: 110000002 cycles: 27895733 heartbeat IPC: 3.996 cumulative IPC: 3.996 (Simulation time: 00 hr 06 min 43 sec)
Heartbeat CPU 0 instructions: 120000000 cycles: 30399133 heartbeat IPC: 3.995 cumulative IPC: 3.996 (Simulation time: 00 hr 07 min 22 sec)
Heartbeat CPU 0 instructions: 130000002 cycles: 32903530 heartbeat IPC: 3.993 cumulative IPC: 3.996 (Simulation time: 00 hr 08 min 00 sec)
Heartbeat CPU 0 instructions: 140000004 cycles: 35406654 heartbeat IPC: 3.995 cumulative IPC: 3.995 (Simulation time: 00 hr 08 min 38 sec)
Heartbeat CPU 0 instructions: 150000000 cycles: 37909662 heartbeat IPC: 3.995 cumulative IPC: 3.995 (Simulation time: 00 hr 09 min 17 sec)
Heartbeat CPU 0 instructions: 160000003 cycles: 40412938 heartbeat IPC: 3.995 cumulative IPC: 3.995 (Simulation time: 00 hr 09 min 56 sec)
Heartbeat CPU 0 instructions: 170000002 cycles: 42916466 heartbeat IPC: 3.994 cumulative IPC: 3.995 (Simulation time: 00 hr 10 min 36 sec)
Heartbeat CPU 0 instructions: 180000000 cycles: 45419044 heartbeat IPC: 3.996 cumulative IPC: 3.995 (Simulation time: 00 hr 11 min 16 sec)
Heartbeat CPU 0 instructions: 190000003 cycles: 47922487 heartbeat IPC: 3.994 cumulative IPC: 3.995 (Simulation time: 00 hr 11 min 55 sec)
Heartbeat CPU 0 instructions: 200000000 cycles: 50425158 heartbeat IPC: 3.996 cumulative IPC: 3.995 (Simulation time: 00 hr 12 min 34 sec)
Heartbeat CPU 0 instructions: 210000000 cycles: 52927862 heartbeat IPC: 3.996 cumulative IPC: 3.995 (Simulation time: 00 hr 13 min 12 sec)
Heartbeat CPU 0 instructions: 220000003 cycles: 55430476 heartbeat IPC: 3.996 cumulative IPC: 3.995 (Simulation time: 00 hr 13 min 51 sec)
Heartbeat CPU 0 instructions: 230000002 cycles: 88669749 heartbeat IPC: 0.3008 cumulative IPC: 2.375 (Simulation time: 00 hr 17 min 32 sec)
Heartbeat CPU 0 instructions: 240000002 cycles: 92208158 heartbeat IPC: 2.826 cumulative IPC: 2.395 (Simulation time: 00 hr 18 min 20 sec)
Heartbeat CPU 0 instructions: 250000000 cycles: 95590526 heartbeat IPC: 2.957 cumulative IPC: 2.418 (Simulation time: 00 hr 19 min 09 sec)
Heartbeat CPU 0 instructions: 260000002 cycles: 98967243 heartbeat IPC: 2.961 cumulative IPC: 2.439 (Simulation time: 00 hr 19 min 59 sec)
Heartbeat CPU 0 instructions: 270000003 cycles: 102346087 heartbeat IPC: 2.96 cumulative IPC: 2.459 (Simulation time: 00 hr 20 min 46 sec)
Heartbeat CPU 0 instructions: 280000001 cycles: 105746969 heartbeat IPC: 2.94 cumulative IPC: 2.477 (Simulation time: 00 hr 21 min 35 sec)
Heartbeat CPU 0 instructions: 290000002 cycles: 109142444 heartbeat IPC: 2.945 cumulative IPC: 2.493 (Simulation time: 00 hr 22 min 24 sec)
Heartbeat CPU 0 instructions: 300000003 cycles: 112497457 heartbeat IPC: 2.981 cumulative IPC: 2.51 (Simulation time: 00 hr 23 min 11 sec)
Heartbeat CPU 0 instructions: 310000002 cycles: 115893454 heartbeat IPC: 2.945 cumulative IPC: 2.524 (Simulation time: 00 hr 23 min 59 sec)
Heartbeat CPU 0 instructions: 320000002 cycles: 119291717 heartbeat IPC: 2.943 cumulative IPC: 2.537 (Simulation time: 00 hr 24 min 48 sec)
Heartbeat CPU 0 instructions: 330000000 cycles: 124583099 heartbeat IPC: 1.89 cumulative IPC: 2.507 (Simulation time: 00 hr 25 min 55 sec)
Heartbeat CPU 0 instructions: 340000002 cycles: 131328466 heartbeat IPC: 1.482 cumulative IPC: 2.448 (Simulation time: 00 hr 27 min 14 sec)
Heartbeat CPU 0 instructions: 350000002 cycles: 138142817 heartbeat IPC: 1.467 cumulative IPC: 2.395 (Simulation time: 00 hr 28 min 31 sec)
Heartbeat CPU 0 instructions: 360000002 cycles: 144969024 heartbeat IPC: 1.465 cumulative IPC: 2.347 (Simulation time: 00 hr 29 min 47 sec)
Heartbeat CPU 0 instructions: 370000001 cycles: 151717431 heartbeat IPC: 1.482 cumulative IPC: 2.305 (Simulation time: 00 hr 31 min 01 sec)
Heartbeat CPU 0 instructions: 380000003 cycles: 158609146 heartbeat IPC: 1.451 cumulative IPC: 2.264 (Simulation time: 00 hr 32 min 18 sec)
Heartbeat CPU 0 instructions: 390000004 cycles: 165334718 heartbeat IPC: 1.487 cumulative IPC: 2.23 (Simulation time: 00 hr 33 min 31 sec)
Heartbeat CPU 0 instructions: 400000000 cycles: 172209349 heartbeat IPC: 1.455 cumulative IPC: 2.197 (Simulation time: 00 hr 34 min 47 sec)
Heartbeat CPU 0 instructions: 410000000 cycles: 178883070 heartbeat IPC: 1.498 cumulative IPC: 2.169 (Simulation time: 00 hr 36 min 02 sec)
Heartbeat CPU 0 instructions: 420000000 cycles: 184895077 heartbeat IPC: 1.663 cumulative IPC: 2.151 (Simulation time: 00 hr 37 min 10 sec)
Heartbeat CPU 0 instructions: 430000002 cycles: 191454532 heartbeat IPC: 1.525 cumulative IPC: 2.128 (Simulation time: 00 hr 38 min 28 sec)
Heartbeat CPU 0 instructions: 440000002 cycles: 198376361 heartbeat IPC: 1.445 cumulative IPC: 2.102 (Simulation time: 00 hr 39 min 47 sec)
Heartbeat CPU 0 instructions: 450000000 cycles: 205320505 heartbeat IPC: 1.44 cumulative IPC: 2.079 (Simulation time: 00 hr 41 min 07 sec)
Heartbeat CPU 0 instructions: 460000003 cycles: 212250639 heartbeat IPC: 1.443 cumulative IPC: 2.056 (Simulation time: 00 hr 42 min 26 sec)
Heartbeat CPU 0 instructions: 470000004 cycles: 219166727 heartbeat IPC: 1.446 cumulative IPC: 2.036 (Simulation time: 00 hr 43 min 46 sec)
Heartbeat CPU 0 instructions: 480000000 cycles: 226351744 heartbeat IPC: 1.392 cumulative IPC: 2.014 (Simulation time: 00 hr 45 min 08 sec)
Heartbeat CPU 0 instructions: 490000001 cycles: 233514017 heartbeat IPC: 1.396 cumulative IPC: 1.994 (Simulation time: 00 hr 46 min 29 sec)
Heartbeat CPU 0 instructions: 500000001 cycles: 240646620 heartbeat IPC: 1.402 cumulative IPC: 1.976 (Simulation time: 00 hr 47 min 52 sec)
Heartbeat CPU 0 instructions: 510000002 cycles: 247551578 heartbeat IPC: 1.448 cumulative IPC: 1.96 (Simulation time: 00 hr 49 min 09 sec)
Heartbeat CPU 0 instructions: 520000000 cycles: 315910699 heartbeat IPC: 0.1463 cumulative IPC: 1.551 (Simulation time: 00 hr 58 min 29 sec)
Heartbeat CPU 0 instructions: 530000001 cycles: 446885589 heartbeat IPC: 0.07635 cumulative IPC: 1.106 (Simulation time: 01 hr 16 min 17 sec)
Heartbeat CPU 0 instructions: 540000001 cycles: 468244234 heartbeat IPC: 0.4682 cumulative IPC: 1.076 (Simulation time: 01 hr 19 min 27 sec)
Heartbeat CPU 0 instructions: 550000003 cycles: 496872184 heartbeat IPC: 0.3493 cumulative IPC: 1.033 (Simulation time: 01 hr 23 min 41 sec)
Heartbeat CPU 0 instructions: 560000001 cycles: 528561605 heartbeat IPC: 0.3156 cumulative IPC: 0.989 (Simulation time: 01 hr 28 min 13 sec)
Heartbeat CPU 0 instructions: 570000001 cycles: 560298488 heartbeat IPC: 0.3151 cumulative IPC: 0.9499 (Simulation time: 01 hr 32 min 46 sec)
Heartbeat CPU 0 instructions: 580000002 cycles: 583405422 heartbeat IPC: 0.4328 cumulative IPC: 0.929 (Simulation time: 01 hr 36 min 16 sec)
Heartbeat CPU 0 instructions: 590000000 cycles: 606602156 heartbeat IPC: 0.4311 cumulative IPC: 0.9095 (Simulation time: 01 hr 39 min 43 sec)
*** Reached end of trace: (0, "traces/bt.A.champsimtrace")
Heartbeat CPU 0 instructions: 600000002 cycles: 636656286 heartbeat IPC: 0.3327 cumulative IPC: 0.8817 (Simulation time: 01 hr 44 min 06 sec)
Heartbeat CPU 0 instructions: 610000004 cycles: 657451158 heartbeat IPC: 0.4809 cumulative IPC: 0.8688 (Simulation time: 01 hr 46 min 28 sec)
Heartbeat CPU 0 instructions: 620000000 cycles: 659953488 heartbeat IPC: 3.996 cumulative IPC: 0.8809 (Simulation time: 01 hr 47 min 09 sec)
Heartbeat CPU 0 instructions: 630000002 cycles: 662455806 heartbeat IPC: 3.996 cumulative IPC: 0.8929 (Simulation time: 01 hr 47 min 51 sec)
Heartbeat CPU 0 instructions: 640000000 cycles: 664958124 heartbeat IPC: 3.996 cumulative IPC: 0.9048 (Simulation time: 01 hr 48 min 32 sec)
Heartbeat CPU 0 instructions: 650000002 cycles: 667460431 heartbeat IPC: 3.996 cumulative IPC: 0.9166 (Simulation time: 01 hr 49 min 13 sec)
Simulation finished CPU 0 instructions: 600000002 cycles: 654579389 cumulative IPC: 0.9166 (Simulation time: 01 hr 49 min 13 sec)
Simulation complete CPU 0 instructions: 600000002 cycles: 654579389 cumulative IPC: 0.9166 (Simulation time: 01 hr 49 min 13 sec)

ChampSim completed all CPUs

=== Simulation ===
CPU 0 runs traces/bt.A.champsimtrace
Region of Interest Statistics

CPU 0 cumulative IPC: 0.9166 instructions: 600000002 cycles: 654579389
CPU 0 Branch Prediction Accuracy: 99.29% MPKI: 0.1288 Average ROB Occupancy at Mispredict: 279
Branch type MPKI
BRANCH_DIRECT_JUMP: 5e-06
BRANCH_INDIRECT: 7.83e-05
BRANCH_CONDITIONAL: 0.129
BRANCH_DIRECT_CALL: 6.67e-06
BRANCH_INDIRECT_CALL: 3.67e-05
BRANCH_RETURN: 2.33e-05

LLC TOTAL        ACCESS:    7756314 HIT:    3715806 MISS:    4040508
LLC LOAD         ACCESS:    2240097 HIT:    1334243 MISS:     905854
LLC RFO          ACCESS:     889447 HIT:     123570 MISS:     765877
LLC PREFETCH     ACCESS:    2634887 HIT:    1377150 MISS:    1257737
LLC WRITE        ACCESS:    1988512 HIT:     880589 MISS:    1107923
LLC TRANSLATION  ACCESS:       3371 HIT:        254 MISS:       3117
LLC PREFETCH REQUESTED:    2634887 ISSUED:    2634887 USEFUL:     915967 USELESS:      25806
LLC AVERAGE MISS LATENCY: 1014 cycles
cpu0_DTLB TOTAL        ACCESS:  126489002 HIT:  125727419 MISS:     761583
cpu0_DTLB LOAD         ACCESS:  126489002 HIT:  125727419 MISS:     761583
cpu0_DTLB RFO          ACCESS:          0 HIT:          0 MISS:          0
cpu0_DTLB PREFETCH     ACCESS:          0 HIT:          0 MISS:          0
cpu0_DTLB WRITE        ACCESS:          0 HIT:          0 MISS:          0
cpu0_DTLB TRANSLATION  ACCESS:          0 HIT:          0 MISS:          0
cpu0_DTLB PREFETCH REQUESTED:          0 ISSUED:          0 USEFUL:          0 USELESS:          0
cpu0_DTLB AVERAGE MISS LATENCY: 14.92 cycles
cpu0_ITLB TOTAL        ACCESS:     142521 HIT:     142271 MISS:        250
cpu0_ITLB LOAD         ACCESS:     142521 HIT:     142271 MISS:        250
cpu0_ITLB RFO          ACCESS:          0 HIT:          0 MISS:          0
cpu0_ITLB PREFETCH     ACCESS:          0 HIT:          0 MISS:          0
cpu0_ITLB WRITE        ACCESS:          0 HIT:          0 MISS:          0
cpu0_ITLB TRANSLATION  ACCESS:          0 HIT:          0 MISS:          0
cpu0_ITLB PREFETCH REQUESTED:          0 ISSUED:          0 USEFUL:          0 USELESS:          0
cpu0_ITLB AVERAGE MISS LATENCY: 314.7 cycles
cpu0_L1D TOTAL        ACCESS:  194548523 HIT:  182065484 MISS:   12483039
cpu0_L1D LOAD         ACCESS:  159866283 HIT:  151512611 MISS:    8353672
cpu0_L1D RFO          ACCESS:          0 HIT:          0 MISS:          0
cpu0_L1D PREFETCH     ACCESS:          0 HIT:          0 MISS:          0
cpu0_L1D WRITE        ACCESS:   34635465 HIT:   30523164 MISS:    4112301
cpu0_L1D TRANSLATION  ACCESS:      46775 HIT:      29709 MISS:      17066
cpu0_L1D PREFETCH REQUESTED:          0 ISSUED:          0 USEFUL:          0 USELESS:          0
cpu0_L1D AVERAGE MISS LATENCY: 165.9 cycles
cpu0_L1I TOTAL        ACCESS:     192120 HIT:     189354 MISS:       2766
cpu0_L1I LOAD         ACCESS:     192120 HIT:     189354 MISS:       2766
cpu0_L1I RFO          ACCESS:          0 HIT:          0 MISS:          0
cpu0_L1I PREFETCH     ACCESS:          0 HIT:          0 MISS:          0
cpu0_L1I WRITE        ACCESS:          0 HIT:          0 MISS:          0
cpu0_L1I TRANSLATION  ACCESS:          0 HIT:          0 MISS:          0
cpu0_L1I PREFETCH REQUESTED:          0 ISSUED:          0 USEFUL:          0 USELESS:          0
cpu0_L1I AVERAGE MISS LATENCY: 571.9 cycles
cpu0_L2C TOTAL        ACCESS:    5259259 HIT:    2125868 MISS:    3133391
cpu0_L2C LOAD         ACCESS:    2353128 HIT:     113011 MISS:    2240117
cpu0_L2C RFO          ACCESS:     889975 HIT:        528 MISS:     889447
cpu0_L2C PREFETCH     ACCESS:          0 HIT:          0 MISS:          0
cpu0_L2C WRITE        ACCESS:    1999093 HIT:    1998637 MISS:        456
cpu0_L2C TRANSLATION  ACCESS:      17063 HIT:      13692 MISS:       3371
cpu0_L2C PREFETCH REQUESTED:          0 ISSUED:          0 USEFUL:          0 USELESS:          0
cpu0_L2C AVERAGE MISS LATENCY: 812.4 cycles
cpu0_STLB TOTAL        ACCESS:     310594 HIT:     263842 MISS:      46752
cpu0_STLB LOAD         ACCESS:     310594 HIT:     263842 MISS:      46752
cpu0_STLB RFO          ACCESS:          0 HIT:          0 MISS:          0
cpu0_STLB PREFETCH     ACCESS:          0 HIT:          0 MISS:          0
cpu0_STLB WRITE        ACCESS:          0 HIT:          0 MISS:          0
cpu0_STLB TRANSLATION  ACCESS:          0 HIT:          0 MISS:          0
cpu0_STLB PREFETCH REQUESTED:          0 ISSUED:          0 USEFUL:          0 USELESS:          0
cpu0_STLB AVERAGE MISS LATENCY: 340.2 cycles

DRAM Statistics

Channel 0 RQ ROW_BUFFER_HIT:     932857
  ROW_BUFFER_MISS:    1619871
 AVG DBUS CONGESTED CYCLE: 3.958
WQ ROW_BUFFER_HIT: Channel 0 
  ROW_BUFFER_MISS:     623275
  FULL:    1145807
