WARNING: physical memory size is smaller than virtual memory size.

*** ChampSim Multicore Out-of-Order Simulator ***
Warmup Instructions: 50000000
Simulation Instructions: 600000000
Number of CPUs: 1
Page size: 4096

CPU 0 Tage branch predictor
Off-chip DRAM Size: 4 GiB Channels: 1 Width: 64-bit Data Race: 3200 MT/s
Heartbeat CPU 0 instructions: 10000000 cycles: 2881042 heartbeat IPC: 3.471 cumulative IPC: 3.471 (Simulation time: 00 hr 00 min 44 sec)
Heartbeat CPU 0 instructions: 20000000 cycles: 5381042 heartbeat IPC: 4 cumulative IPC: 3.717 (Simulation time: 00 hr 01 min 24 sec)
Heartbeat CPU 0 instructions: 30000000 cycles: 7881042 heartbeat IPC: 4 cumulative IPC: 3.807 (Simulation time: 00 hr 02 min 04 sec)
Heartbeat CPU 0 instructions: 40000000 cycles: 10381042 heartbeat IPC: 4 cumulative IPC: 3.853 (Simulation time: 00 hr 02 min 43 sec)
Heartbeat CPU 0 instructions: 50000000 cycles: 12881042 heartbeat IPC: 4 cumulative IPC: 3.882 (Simulation time: 00 hr 03 min 21 sec)
Warmup finished CPU 0 instructions: 50000000 cycles: 12881043 cumulative IPC: 3.882 (Simulation time: 00 hr 03 min 21 sec)
Warmup complete CPU 0 instructions: 50000000 cycles: 12881043 cumulative IPC: 3.882 (Simulation time: 00 hr 03 min 21 sec)
Heartbeat CPU 0 instructions: 60000004 cycles: 15381076 heartbeat IPC: 4 cumulative IPC: 4 (Simulation time: 00 hr 04 min 06 sec)
Heartbeat CPU 0 instructions: 70000002 cycles: 17881107 heartbeat IPC: 4 cumulative IPC: 4 (Simulation time: 00 hr 04 min 50 sec)
Heartbeat CPU 0 instructions: 80000001 cycles: 20381135 heartbeat IPC: 4 cumulative IPC: 4 (Simulation time: 00 hr 05 min 34 sec)
Heartbeat CPU 0 instructions: 90000004 cycles: 22881212 heartbeat IPC: 4 cumulative IPC: 4 (Simulation time: 00 hr 06 min 18 sec)
Heartbeat CPU 0 instructions: 100000000 cycles: 25381333 heartbeat IPC: 4 cumulative IPC: 4 (Simulation time: 00 hr 07 min 02 sec)
Heartbeat CPU 0 instructions: 110000002 cycles: 27882387 heartbeat IPC: 3.998 cumulative IPC: 4 (Simulation time: 00 hr 07 min 47 sec)
Heartbeat CPU 0 instructions: 120000000 cycles: 30384800 heartbeat IPC: 3.996 cumulative IPC: 3.999 (Simulation time: 00 hr 08 min 34 sec)
Heartbeat CPU 0 instructions: 130000002 cycles: 32887450 heartbeat IPC: 3.996 cumulative IPC: 3.999 (Simulation time: 00 hr 09 min 19 sec)
Heartbeat CPU 0 instructions: 140000004 cycles: 35387573 heartbeat IPC: 4 cumulative IPC: 3.999 (Simulation time: 00 hr 10 min 03 sec)
Heartbeat CPU 0 instructions: 150000000 cycles: 37889058 heartbeat IPC: 3.998 cumulative IPC: 3.999 (Simulation time: 00 hr 10 min 48 sec)
Heartbeat CPU 0 instructions: 160000003 cycles: 40390722 heartbeat IPC: 3.997 cumulative IPC: 3.999 (Simulation time: 00 hr 11 min 34 sec)
Heartbeat CPU 0 instructions: 170000002 cycles: 42891289 heartbeat IPC: 3.999 cumulative IPC: 3.999 (Simulation time: 00 hr 12 min 21 sec)
Heartbeat CPU 0 instructions: 180000000 cycles: 45392658 heartbeat IPC: 3.998 cumulative IPC: 3.999 (Simulation time: 00 hr 13 min 06 sec)
Heartbeat CPU 0 instructions: 190000003 cycles: 47892878 heartbeat IPC: 4 cumulative IPC: 3.999 (Simulation time: 00 hr 13 min 50 sec)
Heartbeat CPU 0 instructions: 200000000 cycles: 50393228 heartbeat IPC: 3.999 cumulative IPC: 3.999 (Simulation time: 00 hr 14 min 35 sec)
Heartbeat CPU 0 instructions: 210000000 cycles: 52893428 heartbeat IPC: 4 cumulative IPC: 3.999 (Simulation time: 00 hr 15 min 19 sec)
Heartbeat CPU 0 instructions: 220000003 cycles: 55394670 heartbeat IPC: 3.998 cumulative IPC: 3.999 (Simulation time: 00 hr 16 min 04 sec)
Heartbeat CPU 0 instructions: 230000001 cycles: 88959094 heartbeat IPC: 0.2979 cumulative IPC: 2.366 (Simulation time: 00 hr 19 min 54 sec)
Heartbeat CPU 0 instructions: 240000002 cycles: 94762077 heartbeat IPC: 1.723 cumulative IPC: 2.32 (Simulation time: 00 hr 21 min 07 sec)
Heartbeat CPU 0 instructions: 250000000 cycles: 100686185 heartbeat IPC: 1.688 cumulative IPC: 2.278 (Simulation time: 00 hr 22 min 21 sec)
Heartbeat CPU 0 instructions: 260000004 cycles: 106627907 heartbeat IPC: 1.683 cumulative IPC: 2.24 (Simulation time: 00 hr 23 min 36 sec)
Heartbeat CPU 0 instructions: 270000003 cycles: 112526400 heartbeat IPC: 1.695 cumulative IPC: 2.208 (Simulation time: 00 hr 24 min 49 sec)
Heartbeat CPU 0 instructions: 280000003 cycles: 118489493 heartbeat IPC: 1.677 cumulative IPC: 2.178 (Simulation time: 00 hr 26 min 05 sec)
Heartbeat CPU 0 instructions: 290000000 cycles: 124394125 heartbeat IPC: 1.694 cumulative IPC: 2.152 (Simulation time: 00 hr 27 min 19 sec)
Heartbeat CPU 0 instructions: 300000003 cycles: 130354031 heartbeat IPC: 1.678 cumulative IPC: 2.128 (Simulation time: 00 hr 28 min 33 sec)
Heartbeat CPU 0 instructions: 310000001 cycles: 136267990 heartbeat IPC: 1.691 cumulative IPC: 2.107 (Simulation time: 00 hr 29 min 47 sec)
Heartbeat CPU 0 instructions: 320000002 cycles: 142197647 heartbeat IPC: 1.686 cumulative IPC: 2.088 (Simulation time: 00 hr 31 min 01 sec)
Heartbeat CPU 0 instructions: 330000004 cycles: 149089902 heartbeat IPC: 1.451 cumulative IPC: 2.056 (Simulation time: 00 hr 32 min 24 sec)
Heartbeat CPU 0 instructions: 340000002 cycles: 155901684 heartbeat IPC: 1.468 cumulative IPC: 2.028 (Simulation time: 00 hr 33 min 44 sec)
Heartbeat CPU 0 instructions: 350000002 cycles: 162729916 heartbeat IPC: 1.465 cumulative IPC: 2.002 (Simulation time: 00 hr 35 min 05 sec)
Heartbeat CPU 0 instructions: 360000000 cycles: 169570083 heartbeat IPC: 1.462 cumulative IPC: 1.978 (Simulation time: 00 hr 36 min 26 sec)
Heartbeat CPU 0 instructions: 370000001 cycles: 176342007 heartbeat IPC: 1.477 cumulative IPC: 1.958 (Simulation time: 00 hr 37 min 45 sec)
Heartbeat CPU 0 instructions: 380000003 cycles: 183227904 heartbeat IPC: 1.452 cumulative IPC: 1.937 (Simulation time: 00 hr 39 min 07 sec)
Heartbeat CPU 0 instructions: 390000004 cycles: 189953159 heartbeat IPC: 1.487 cumulative IPC: 1.92 (Simulation time: 00 hr 40 min 28 sec)
Heartbeat CPU 0 instructions: 400000000 cycles: 196844814 heartbeat IPC: 1.451 cumulative IPC: 1.903 (Simulation time: 00 hr 41 min 48 sec)
Heartbeat CPU 0 instructions: 410000000 cycles: 203612516 heartbeat IPC: 1.478 cumulative IPC: 1.887 (Simulation time: 00 hr 43 min 08 sec)
Heartbeat CPU 0 instructions: 420000000 cycles: 210428369 heartbeat IPC: 1.467 cumulative IPC: 1.873 (Simulation time: 00 hr 44 min 30 sec)
Heartbeat CPU 0 instructions: 430000002 cycles: 217610709 heartbeat IPC: 1.392 cumulative IPC: 1.856 (Simulation time: 00 hr 45 min 55 sec)
Heartbeat CPU 0 instructions: 440000002 cycles: 225073566 heartbeat IPC: 1.34 cumulative IPC: 1.838 (Simulation time: 00 hr 47 min 21 sec)
Heartbeat CPU 0 instructions: 450000000 cycles: 232466867 heartbeat IPC: 1.353 cumulative IPC: 1.822 (Simulation time: 00 hr 48 min 44 sec)
Heartbeat CPU 0 instructions: 460000003 cycles: 239889676 heartbeat IPC: 1.347 cumulative IPC: 1.806 (Simulation time: 00 hr 50 min 08 sec)
Heartbeat CPU 0 instructions: 470000004 cycles: 247318314 heartbeat IPC: 1.346 cumulative IPC: 1.792 (Simulation time: 00 hr 51 min 34 sec)
Heartbeat CPU 0 instructions: 480000000 cycles: 254791774 heartbeat IPC: 1.338 cumulative IPC: 1.778 (Simulation time: 00 hr 53 min 00 sec)
Heartbeat CPU 0 instructions: 490000001 cycles: 262225132 heartbeat IPC: 1.345 cumulative IPC: 1.765 (Simulation time: 00 hr 54 min 26 sec)
Heartbeat CPU 0 instructions: 500000001 cycles: 269722901 heartbeat IPC: 1.334 cumulative IPC: 1.752 (Simulation time: 00 hr 55 min 50 sec)
Heartbeat CPU 0 instructions: 510000002 cycles: 277126592 heartbeat IPC: 1.351 cumulative IPC: 1.741 (Simulation time: 00 hr 57 min 16 sec)
Heartbeat CPU 0 instructions: 520000000 cycles: 335340175 heartbeat IPC: 0.1718 cumulative IPC: 1.458 (Simulation time: 01 hr 05 min 27 sec)
Heartbeat CPU 0 instructions: 530000001 cycles: 446672834 heartbeat IPC: 0.08982 cumulative IPC: 1.107 (Simulation time: 01 hr 20 min 33 sec)
Heartbeat CPU 0 instructions: 540000001 cycles: 472819567 heartbeat IPC: 0.3825 cumulative IPC: 1.065 (Simulation time: 01 hr 24 min 26 sec)
Heartbeat CPU 0 instructions: 550000003 cycles: 507496504 heartbeat IPC: 0.2884 cumulative IPC: 1.011 (Simulation time: 01 hr 29 min 26 sec)
Heartbeat CPU 0 instructions: 560000004 cycles: 545971026 heartbeat IPC: 0.2599 cumulative IPC: 0.9567 (Simulation time: 01 hr 34 min 54 sec)
Heartbeat CPU 0 instructions: 570000000 cycles: 584310379 heartbeat IPC: 0.2608 cumulative IPC: 0.91 (Simulation time: 01 hr 40 min 24 sec)
Heartbeat CPU 0 instructions: 580000002 cycles: 610573259 heartbeat IPC: 0.3808 cumulative IPC: 0.8867 (Simulation time: 01 hr 44 min 22 sec)
Heartbeat CPU 0 instructions: 590000001 cycles: 638643309 heartbeat IPC: 0.3563 cumulative IPC: 0.8629 (Simulation time: 01 hr 48 min 34 sec)
*** Reached end of trace: (0, "traces/bt.A.champsimtrace")
Heartbeat CPU 0 instructions: 600000002 cycles: 677293521 heartbeat IPC: 0.2587 cumulative IPC: 0.8278 (Simulation time: 01 hr 54 min 13 sec)
Heartbeat CPU 0 instructions: 610000004 cycles: 696995577 heartbeat IPC: 0.5076 cumulative IPC: 0.8186 (Simulation time: 01 hr 56 min 36 sec)
Heartbeat CPU 0 instructions: 620000000 cycles: 699495607 heartbeat IPC: 4 cumulative IPC: 0.8302 (Simulation time: 01 hr 57 min 23 sec)
Heartbeat CPU 0 instructions: 630000002 cycles: 701995638 heartbeat IPC: 4 cumulative IPC: 0.8417 (Simulation time: 01 hr 58 min 08 sec)
Heartbeat CPU 0 instructions: 640000001 cycles: 704495669 heartbeat IPC: 4 cumulative IPC: 0.8531 (Simulation time: 01 hr 58 min 53 sec)
Heartbeat CPU 0 instructions: 650000002 cycles: 706995688 heartbeat IPC: 4 cumulative IPC: 0.8644 (Simulation time: 01 hr 59 min 38 sec)
Simulation finished CPU 0 instructions: 600000002 cycles: 694114646 cumulative IPC: 0.8644 (Simulation time: 01 hr 59 min 38 sec)
Simulation complete CPU 0 instructions: 600000002 cycles: 694114646 cumulative IPC: 0.8644 (Simulation time: 01 hr 59 min 38 sec)

ChampSim completed all CPUs

=== Simulation ===
CPU 0 runs traces/bt.A.champsimtrace
Region of Interest Statistics

CPU 0 cumulative IPC: 0.8644 instructions: 600000002 cycles: 694114646
CPU 0 Branch Prediction Accuracy: 99.98% MPKI: 0.004168 Average ROB Occupancy at Mispredict: 112.2
Branch type MPKI
BRANCH_DIRECT_JUMP: 5e-06
BRANCH_INDIRECT: 7.83e-05
BRANCH_CONDITIONAL: 0.00402
BRANCH_DIRECT_CALL: 6.67e-06
BRANCH_INDIRECT_CALL: 3.67e-05
BRANCH_RETURN: 2.33e-05

LLC TOTAL        ACCESS:    5121288 HIT:    1330833 MISS:    3790455
LLC LOAD         ACCESS:    2240139 HIT:     509273 MISS:    1730866
LLC RFO          ACCESS:     889446 HIT:     129584 MISS:     759862
LLC PREFETCH     ACCESS:          0 HIT:          0 MISS:          0
LLC WRITE        ACCESS:    1988326 HIT:     691712 MISS:    1296614
LLC TRANSLATION  ACCESS:       3377 HIT:        264 MISS:       3113
LLC PREFETCH REQUESTED:          0 ISSUED:          0 USEFUL:          0 USELESS:          0
LLC AVERAGE MISS LATENCY: 806.1 cycles
cpu0_DTLB TOTAL        ACCESS:  126950135 HIT:  126169101 MISS:     781034
cpu0_DTLB LOAD         ACCESS:  126950135 HIT:  126169101 MISS:     781034
cpu0_DTLB RFO          ACCESS:          0 HIT:          0 MISS:          0
cpu0_DTLB PREFETCH     ACCESS:          0 HIT:          0 MISS:          0
cpu0_DTLB WRITE        ACCESS:          0 HIT:          0 MISS:          0
cpu0_DTLB TRANSLATION  ACCESS:          0 HIT:          0 MISS:          0
cpu0_DTLB PREFETCH REQUESTED:          0 ISSUED:          0 USEFUL:          0 USELESS:          0
cpu0_DTLB AVERAGE MISS LATENCY: 15.24 cycles
cpu0_ITLB TOTAL        ACCESS:     172538 HIT:     172289 MISS:        249
cpu0_ITLB LOAD         ACCESS:     172538 HIT:     172289 MISS:        249
cpu0_ITLB RFO          ACCESS:          0 HIT:          0 MISS:          0
cpu0_ITLB PREFETCH     ACCESS:          0 HIT:          0 MISS:          0
cpu0_ITLB WRITE        ACCESS:          0 HIT:          0 MISS:          0
cpu0_ITLB TRANSLATION  ACCESS:          0 HIT:          0 MISS:          0
cpu0_ITLB PREFETCH REQUESTED:          0 ISSUED:          0 USEFUL:          0 USELESS:          0
cpu0_ITLB AVERAGE MISS LATENCY: 281.5 cycles
cpu0_L1D TOTAL        ACCESS:  194513087 HIT:  180978754 MISS:   13534333
cpu0_L1D LOAD         ACCESS:  159830857 HIT:  150344004 MISS:    9486853
cpu0_L1D RFO          ACCESS:          0 HIT:          0 MISS:          0
cpu0_L1D PREFETCH     ACCESS:          0 HIT:          0 MISS:          0
cpu0_L1D WRITE        ACCESS:   34635456 HIT:   30605049 MISS:    4030407
cpu0_L1D TRANSLATION  ACCESS:      46774 HIT:      29701 MISS:      17073
cpu0_L1D PREFETCH REQUESTED:          0 ISSUED:          0 USEFUL:          0 USELESS:          0
cpu0_L1D AVERAGE MISS LATENCY: 173.2 cycles
cpu0_L1I TOTAL        ACCESS:     205582 HIT:     202616 MISS:       2966
cpu0_L1I LOAD         ACCESS:     205582 HIT:     202616 MISS:       2966
cpu0_L1I RFO          ACCESS:          0 HIT:          0 MISS:          0
cpu0_L1I PREFETCH     ACCESS:          0 HIT:          0 MISS:          0
cpu0_L1I WRITE        ACCESS:          0 HIT:          0 MISS:          0
cpu0_L1I TRANSLATION  ACCESS:          0 HIT:          0 MISS:          0
cpu0_L1I PREFETCH REQUESTED:          0 ISSUED:          0 USEFUL:          0 USELESS:          0
cpu0_L1I AVERAGE MISS LATENCY: 513.3 cycles
cpu0_L2C TOTAL        ACCESS:    5270631 HIT:    2137191 MISS:    3133440
cpu0_L2C LOAD         ACCESS:    2364467 HIT:     124306 MISS:    2240161
cpu0_L2C RFO          ACCESS:     889976 HIT:        530 MISS:     889446
cpu0_L2C PREFETCH     ACCESS:          0 HIT:          0 MISS:          0
cpu0_L2C WRITE        ACCESS:    1999117 HIT:    1998661 MISS:        456
cpu0_L2C TRANSLATION  ACCESS:      17071 HIT:      13694 MISS:       3377
cpu0_L2C PREFETCH REQUESTED:          0 ISSUED:          0 USEFUL:          0 USELESS:          0
cpu0_L2C AVERAGE MISS LATENCY: 995.9 cycles
cpu0_STLB TOTAL        ACCESS:     314854 HIT:     268102 MISS:      46752
cpu0_STLB LOAD         ACCESS:     314854 HIT:     268102 MISS:      46752
cpu0_STLB RFO          ACCESS:          0 HIT:          0 MISS:          0
cpu0_STLB PREFETCH     ACCESS:          0 HIT:          0 MISS:          0
cpu0_STLB WRITE        ACCESS:          0 HIT:          0 MISS:          0
cpu0_STLB TRANSLATION  ACCESS:          0 HIT:          0 MISS:          0
cpu0_STLB PREFETCH REQUESTED:          0 ISSUED:          0 USEFUL:          0 USELESS:          0
cpu0_STLB AVERAGE MISS LATENCY: 348.7 cycles

DRAM Statistics

Channel 0 RQ ROW_BUFFER_HIT:     728750
  ROW_BUFFER_MISS:    1763882
 AVG DBUS CONGESTED CYCLE: 3.969
WQ ROW_BUFFER_HIT: Channel 0 
  ROW_BUFFER_MISS:     664750
  FULL:    1102165
