WARNING: physical memory size is smaller than virtual memory size.

*** ChampSim Multicore Out-of-Order Simulator ***
Warmup Instructions: 50000000
Simulation Instructions: 600000000
Number of CPUs: 1
Page size: 4096

Off-chip DRAM Size: 4 GiB Channels: 1 Width: 64-bit Data Race: 3200 MT/s
Heartbeat CPU 0 instructions: 10000002 cycles: 2881030 heartbeat IPC: 3.471 cumulative IPC: 3.471 (Simulation time: 00 hr 00 min 50 sec)
Heartbeat CPU 0 instructions: 20000002 cycles: 5381030 heartbeat IPC: 4 cumulative IPC: 3.717 (Simulation time: 00 hr 01 min 38 sec)
Heartbeat CPU 0 instructions: 30000002 cycles: 7881030 heartbeat IPC: 4 cumulative IPC: 3.807 (Simulation time: 00 hr 02 min 24 sec)
Heartbeat CPU 0 instructions: 40000002 cycles: 10381030 heartbeat IPC: 4 cumulative IPC: 3.853 (Simulation time: 00 hr 03 min 10 sec)
Heartbeat CPU 0 instructions: 50000002 cycles: 12881030 heartbeat IPC: 4 cumulative IPC: 3.882 (Simulation time: 00 hr 03 min 56 sec)
Warmup finished CPU 0 instructions: 50000002 cycles: 12881031 cumulative IPC: 3.882 (Simulation time: 00 hr 03 min 56 sec)
Warmup complete CPU 0 instructions: 50000002 cycles: 12881031 cumulative IPC: 3.882 (Simulation time: 00 hr 03 min 56 sec)
Heartbeat CPU 0 instructions: 60000004 cycles: 15385291 heartbeat IPC: 3.993 cumulative IPC: 3.993 (Simulation time: 00 hr 04 min 48 sec)
Heartbeat CPU 0 instructions: 70000000 cycles: 17889139 heartbeat IPC: 3.994 cumulative IPC: 3.994 (Simulation time: 00 hr 05 min 41 sec)
Heartbeat CPU 0 instructions: 80000002 cycles: 20393048 heartbeat IPC: 3.994 cumulative IPC: 3.994 (Simulation time: 00 hr 06 min 32 sec)
Heartbeat CPU 0 instructions: 90000004 cycles: 22897395 heartbeat IPC: 3.993 cumulative IPC: 3.993 (Simulation time: 00 hr 07 min 25 sec)
Heartbeat CPU 0 instructions: 100000004 cycles: 25401879 heartbeat IPC: 3.993 cumulative IPC: 3.993 (Simulation time: 00 hr 08 min 17 sec)
Heartbeat CPU 0 instructions: 110000000 cycles: 27905432 heartbeat IPC: 3.994 cumulative IPC: 3.994 (Simulation time: 00 hr 09 min 10 sec)
Heartbeat CPU 0 instructions: 120000003 cycles: 30408025 heartbeat IPC: 3.996 cumulative IPC: 3.994 (Simulation time: 00 hr 10 min 02 sec)
Heartbeat CPU 0 instructions: 130000000 cycles: 32912437 heartbeat IPC: 3.993 cumulative IPC: 3.994 (Simulation time: 00 hr 10 min 55 sec)
Heartbeat CPU 0 instructions: 140000001 cycles: 35416660 heartbeat IPC: 3.993 cumulative IPC: 3.994 (Simulation time: 00 hr 11 min 46 sec)
Heartbeat CPU 0 instructions: 150000000 cycles: 37920278 heartbeat IPC: 3.994 cumulative IPC: 3.994 (Simulation time: 00 hr 12 min 38 sec)
Heartbeat CPU 0 instructions: 160000001 cycles: 40424976 heartbeat IPC: 3.992 cumulative IPC: 3.994 (Simulation time: 00 hr 13 min 31 sec)
Heartbeat CPU 0 instructions: 170000002 cycles: 42929745 heartbeat IPC: 3.992 cumulative IPC: 3.994 (Simulation time: 00 hr 14 min 23 sec)
Heartbeat CPU 0 instructions: 180000001 cycles: 45432188 heartbeat IPC: 3.996 cumulative IPC: 3.994 (Simulation time: 00 hr 15 min 15 sec)
Heartbeat CPU 0 instructions: 190000004 cycles: 47935359 heartbeat IPC: 3.995 cumulative IPC: 3.994 (Simulation time: 00 hr 16 min 08 sec)
Heartbeat CPU 0 instructions: 200000000 cycles: 50438884 heartbeat IPC: 3.994 cumulative IPC: 3.994 (Simulation time: 00 hr 17 min 00 sec)
Heartbeat CPU 0 instructions: 210000000 cycles: 52942888 heartbeat IPC: 3.994 cumulative IPC: 3.994 (Simulation time: 00 hr 17 min 51 sec)
Heartbeat CPU 0 instructions: 220000000 cycles: 55446868 heartbeat IPC: 3.994 cumulative IPC: 3.994 (Simulation time: 00 hr 18 min 43 sec)
Heartbeat CPU 0 instructions: 230000004 cycles: 89308547 heartbeat IPC: 0.2953 cumulative IPC: 2.355 (Simulation time: 00 hr 24 min 42 sec)
Heartbeat CPU 0 instructions: 240000001 cycles: 92714107 heartbeat IPC: 2.936 cumulative IPC: 2.38 (Simulation time: 00 hr 25 min 50 sec)
Heartbeat CPU 0 instructions: 250000000 cycles: 96140439 heartbeat IPC: 2.919 cumulative IPC: 2.402 (Simulation time: 00 hr 26 min 59 sec)
Heartbeat CPU 0 instructions: 260000000 cycles: 99561868 heartbeat IPC: 2.923 cumulative IPC: 2.423 (Simulation time: 00 hr 28 min 07 sec)
Heartbeat CPU 0 instructions: 270000000 cycles: 102991471 heartbeat IPC: 2.916 cumulative IPC: 2.441 (Simulation time: 00 hr 29 min 15 sec)
Heartbeat CPU 0 instructions: 280000001 cycles: 106426365 heartbeat IPC: 2.911 cumulative IPC: 2.459 (Simulation time: 00 hr 30 min 23 sec)
Heartbeat CPU 0 instructions: 290000003 cycles: 109852945 heartbeat IPC: 2.918 cumulative IPC: 2.475 (Simulation time: 00 hr 31 min 31 sec)
Heartbeat CPU 0 instructions: 300000003 cycles: 113270868 heartbeat IPC: 2.926 cumulative IPC: 2.49 (Simulation time: 00 hr 32 min 38 sec)
Heartbeat CPU 0 instructions: 310000000 cycles: 116696495 heartbeat IPC: 2.919 cumulative IPC: 2.504 (Simulation time: 00 hr 33 min 45 sec)
Heartbeat CPU 0 instructions: 320000001 cycles: 120113288 heartbeat IPC: 2.927 cumulative IPC: 2.518 (Simulation time: 00 hr 34 min 52 sec)
Heartbeat CPU 0 instructions: 330000000 cycles: 125649961 heartbeat IPC: 1.806 cumulative IPC: 2.483 (Simulation time: 00 hr 36 min 23 sec)
Heartbeat CPU 0 instructions: 340000003 cycles: 132488880 heartbeat IPC: 1.462 cumulative IPC: 2.425 (Simulation time: 00 hr 38 min 10 sec)
Heartbeat CPU 0 instructions: 350000000 cycles: 139230088 heartbeat IPC: 1.483 cumulative IPC: 2.374 (Simulation time: 00 hr 39 min 56 sec)
Heartbeat CPU 0 instructions: 360000001 cycles: 146066399 heartbeat IPC: 1.463 cumulative IPC: 2.328 (Simulation time: 00 hr 41 min 45 sec)
Heartbeat CPU 0 instructions: 370000004 cycles: 152826809 heartbeat IPC: 1.479 cumulative IPC: 2.287 (Simulation time: 00 hr 43 min 33 sec)
Heartbeat CPU 0 instructions: 380000003 cycles: 159702456 heartbeat IPC: 1.454 cumulative IPC: 2.248 (Simulation time: 00 hr 45 min 22 sec)
Heartbeat CPU 0 instructions: 390000000 cycles: 166445779 heartbeat IPC: 1.483 cumulative IPC: 2.214 (Simulation time: 00 hr 47 min 10 sec)
Heartbeat CPU 0 instructions: 400000001 cycles: 173326620 heartbeat IPC: 1.453 cumulative IPC: 2.181 (Simulation time: 00 hr 49 min 02 sec)
Heartbeat CPU 0 instructions: 410000004 cycles: 180079707 heartbeat IPC: 1.481 cumulative IPC: 2.153 (Simulation time: 00 hr 50 min 50 sec)
Heartbeat CPU 0 instructions: 420000004 cycles: 186867283 heartbeat IPC: 1.473 cumulative IPC: 2.127 (Simulation time: 00 hr 52 min 38 sec)
Heartbeat CPU 0 instructions: 430000004 cycles: 193895756 heartbeat IPC: 1.423 cumulative IPC: 2.099 (Simulation time: 00 hr 54 min 30 sec)
Heartbeat CPU 0 instructions: 440000004 cycles: 201105209 heartbeat IPC: 1.387 cumulative IPC: 2.072 (Simulation time: 00 hr 56 min 23 sec)
Heartbeat CPU 0 instructions: 450000000 cycles: 208281426 heartbeat IPC: 1.393 cumulative IPC: 2.047 (Simulation time: 00 hr 58 min 16 sec)
Heartbeat CPU 0 instructions: 460000001 cycles: 215474841 heartbeat IPC: 1.39 cumulative IPC: 2.024 (Simulation time: 01 hr 00 min 08 sec)
Heartbeat CPU 0 instructions: 470000000 cycles: 222889783 heartbeat IPC: 1.349 cumulative IPC: 2 (Simulation time: 01 hr 02 min 03 sec)
Heartbeat CPU 0 instructions: 480000003 cycles: 229236252 heartbeat IPC: 1.576 cumulative IPC: 1.987 (Simulation time: 01 hr 03 min 45 sec)
Heartbeat CPU 0 instructions: 490000004 cycles: 236236471 heartbeat IPC: 1.429 cumulative IPC: 1.97 (Simulation time: 01 hr 05 min 36 sec)
Heartbeat CPU 0 instructions: 500000004 cycles: 243505729 heartbeat IPC: 1.376 cumulative IPC: 1.951 (Simulation time: 01 hr 07 min 30 sec)
Heartbeat CPU 0 instructions: 510000003 cycles: 250741495 heartbeat IPC: 1.382 cumulative IPC: 1.934 (Simulation time: 01 hr 09 min 23 sec)
Heartbeat CPU 0 instructions: 520000001 cycles: 317976131 heartbeat IPC: 0.1487 cumulative IPC: 1.541 (Simulation time: 01 hr 22 min 58 sec)
Heartbeat CPU 0 instructions: 530000002 cycles: 442703579 heartbeat IPC: 0.08017 cumulative IPC: 1.117 (Simulation time: 01 hr 47 min 38 sec)
Heartbeat CPU 0 instructions: 540000004 cycles: 475125857 heartbeat IPC: 0.3084 cumulative IPC: 1.06 (Simulation time: 01 hr 54 min 20 sec)
Heartbeat CPU 0 instructions: 550000002 cycles: 507689295 heartbeat IPC: 0.3071 cumulative IPC: 1.01 (Simulation time: 02 hr 00 min 58 sec)
Heartbeat CPU 0 instructions: 560000000 cycles: 540009042 heartbeat IPC: 0.3094 cumulative IPC: 0.9675 (Simulation time: 02 hr 07 min 35 sec)
Heartbeat CPU 0 instructions: 570000002 cycles: 572420604 heartbeat IPC: 0.3085 cumulative IPC: 0.9293 (Simulation time: 02 hr 14 min 16 sec)
Heartbeat CPU 0 instructions: 580000002 cycles: 602803917 heartbeat IPC: 0.3291 cumulative IPC: 0.8984 (Simulation time: 02 hr 20 min 34 sec)
Heartbeat CPU 0 instructions: 590000001 cycles: 635166628 heartbeat IPC: 0.309 cumulative IPC: 0.8678 (Simulation time: 02 hr 27 min 17 sec)
*** Reached end of trace: (0, "traces/bt.A.champsimtrace")
Heartbeat CPU 0 instructions: 600000000 cycles: 666378792 heartbeat IPC: 0.3204 cumulative IPC: 0.8416 (Simulation time: 02 hr 33 min 46 sec)
Heartbeat CPU 0 instructions: 610000004 cycles: 695255583 heartbeat IPC: 0.3463 cumulative IPC: 0.8207 (Simulation time: 02 hr 38 min 34 sec)
Heartbeat CPU 0 instructions: 620000000 cycles: 697759585 heartbeat IPC: 3.994 cumulative IPC: 0.8323 (Simulation time: 02 hr 39 min 28 sec)
Heartbeat CPU 0 instructions: 630000003 cycles: 700263426 heartbeat IPC: 3.994 cumulative IPC: 0.8438 (Simulation time: 02 hr 40 min 23 sec)
Heartbeat CPU 0 instructions: 640000003 cycles: 702766102 heartbeat IPC: 3.996 cumulative IPC: 0.8552 (Simulation time: 02 hr 41 min 16 sec)
Heartbeat CPU 0 instructions: 650000003 cycles: 705269115 heartbeat IPC: 3.995 cumulative IPC: 0.8666 (Simulation time: 02 hr 42 min 10 sec)
Simulation finished CPU 0 instructions: 600000001 cycles: 692388085 cumulative IPC: 0.8666 (Simulation time: 02 hr 42 min 10 sec)
Simulation complete CPU 0 instructions: 600000001 cycles: 692388085 cumulative IPC: 0.8666 (Simulation time: 02 hr 42 min 10 sec)

ChampSim completed all CPUs

=== Simulation ===
CPU 0 runs traces/bt.A.champsimtrace
Region of Interest Statistics

CPU 0 cumulative IPC: 0.8666 instructions: 600000001 cycles: 692388085
CPU 0 Branch Prediction Accuracy: 99.28% MPKI: 0.1297 Average ROB Occupancy at Mispredict: 278.7
Branch type MPKI
BRANCH_DIRECT_JUMP: 5e-06
BRANCH_INDIRECT: 7.83e-05
BRANCH_CONDITIONAL: 0.13
BRANCH_DIRECT_CALL: 6.67e-06
BRANCH_INDIRECT_CALL: 3.33e-05
BRANCH_RETURN: 2.33e-05

LLC TOTAL        ACCESS:    7723065 HIT:    2620103 MISS:    5102962
LLC LOAD         ACCESS:    2234972 HIT:    1168707 MISS:    1066265
LLC RFO          ACCESS:     889375 HIT:      13498 MISS:     875877
LLC PREFETCH     ACCESS:    2611423 HIT:    1337294 MISS:    1274129
LLC WRITE        ACCESS:    1983926 HIT:     100570 MISS:    1883356
LLC TRANSLATION  ACCESS:       3369 HIT:         34 MISS:       3335
LLC PREFETCH REQUESTED:    2611423 ISSUED:    2611423 USEFUL:    1015836 USELESS:      45957
LLC AVERAGE MISS LATENCY: 844 cycles
cpu0_DTLB TOTAL        ACCESS:  126576466 HIT:  125836827 MISS:     739639
cpu0_DTLB LOAD         ACCESS:  126576466 HIT:  125836827 MISS:     739639
cpu0_DTLB RFO          ACCESS:          0 HIT:          0 MISS:          0
cpu0_DTLB PREFETCH     ACCESS:          0 HIT:          0 MISS:          0
cpu0_DTLB WRITE        ACCESS:          0 HIT:          0 MISS:          0
cpu0_DTLB TRANSLATION  ACCESS:          0 HIT:          0 MISS:          0
cpu0_DTLB PREFETCH REQUESTED:          0 ISSUED:          0 USEFUL:          0 USELESS:          0
cpu0_DTLB AVERAGE MISS LATENCY: 15.88 cycles
cpu0_ITLB TOTAL        ACCESS:     142694 HIT:     142450 MISS:        244
cpu0_ITLB LOAD         ACCESS:     142694 HIT:     142450 MISS:        244
cpu0_ITLB RFO          ACCESS:          0 HIT:          0 MISS:          0
cpu0_ITLB PREFETCH     ACCESS:          0 HIT:          0 MISS:          0
cpu0_ITLB WRITE        ACCESS:          0 HIT:          0 MISS:          0
cpu0_ITLB TRANSLATION  ACCESS:          0 HIT:          0 MISS:          0
cpu0_ITLB PREFETCH REQUESTED:          0 ISSUED:          0 USEFUL:          0 USELESS:          0
cpu0_ITLB AVERAGE MISS LATENCY: 315.3 cycles
cpu0_L1D TOTAL        ACCESS:  194131387 HIT:  181224494 MISS:   12906893
cpu0_L1D LOAD         ACCESS:  159449186 HIT:  150791702 MISS:    8657484
cpu0_L1D RFO          ACCESS:          0 HIT:          0 MISS:          0
cpu0_L1D PREFETCH     ACCESS:          0 HIT:          0 MISS:          0
cpu0_L1D WRITE        ACCESS:   34635448 HIT:   30403095 MISS:    4232353
cpu0_L1D TRANSLATION  ACCESS:      46753 HIT:      29697 MISS:      17056
cpu0_L1D PREFETCH REQUESTED:          0 ISSUED:          0 USEFUL:          0 USELESS:          0
cpu0_L1D AVERAGE MISS LATENCY: 170.7 cycles
cpu0_L1I TOTAL        ACCESS:     192502 HIT:     189784 MISS:       2718
cpu0_L1I LOAD         ACCESS:     192502 HIT:     189784 MISS:       2718
cpu0_L1I RFO          ACCESS:          0 HIT:          0 MISS:          0
cpu0_L1I PREFETCH     ACCESS:          0 HIT:          0 MISS:          0
cpu0_L1I WRITE        ACCESS:          0 HIT:          0 MISS:          0
cpu0_L1I TRANSLATION  ACCESS:          0 HIT:          0 MISS:          0
cpu0_L1I PREFETCH REQUESTED:          0 ISSUED:          0 USEFUL:          0 USELESS:          0
cpu0_L1I AVERAGE MISS LATENCY: 555.9 cycles
cpu0_L2C TOTAL        ACCESS:    5256808 HIT:    2128749 MISS:    3128059
cpu0_L2C LOAD         ACCESS:    2349437 HIT:     114423 MISS:    2235014
cpu0_L2C RFO          ACCESS:     890963 HIT:       1588 MISS:     889375
cpu0_L2C PREFETCH     ACCESS:          0 HIT:          0 MISS:          0
cpu0_L2C WRITE        ACCESS:    1999355 HIT:    1999054 MISS:        301
cpu0_L2C TRANSLATION  ACCESS:      17053 HIT:      13684 MISS:       3369
cpu0_L2C PREFETCH REQUESTED:          0 ISSUED:          0 USEFUL:          0 USELESS:          0
cpu0_L2C AVERAGE MISS LATENCY: 873.5 cycles
cpu0_STLB TOTAL        ACCESS:     296204 HIT:     249472 MISS:      46732
cpu0_STLB LOAD         ACCESS:     296204 HIT:     249472 MISS:      46732
cpu0_STLB RFO          ACCESS:          0 HIT:          0 MISS:          0
cpu0_STLB PREFETCH     ACCESS:          0 HIT:          0 MISS:          0
cpu0_STLB WRITE        ACCESS:          0 HIT:          0 MISS:          0
cpu0_STLB TRANSLATION  ACCESS:          0 HIT:          0 MISS:          0
cpu0_STLB PREFETCH REQUESTED:          0 ISSUED:          0 USEFUL:          0 USELESS:          0
cpu0_STLB AVERAGE MISS LATENCY: 347.2 cycles

DRAM Statistics

Channel 0 RQ ROW_BUFFER_HIT:     981478
  ROW_BUFFER_MISS:    1948984
 AVG DBUS CONGESTED CYCLE: 3.96
WQ ROW_BUFFER_HIT: Channel 0 
  ROW_BUFFER_MISS:     650556
  FULL:    1304690
