WARNING: physical memory size is smaller than virtual memory size.

*** ChampSim Multicore Out-of-Order Simulator ***
Warmup Instructions: 50000000
Simulation Instructions: 600000000
Number of CPUs: 1
Page size: 4096

Off-chip DRAM Size: 4 GiB Channels: 1 Width: 64-bit Data Race: 3200 MT/s
Heartbeat CPU 0 instructions: 10000001 cycles: 2881028 heartbeat IPC: 3.471 cumulative IPC: 3.471 (Simulation time: 00 hr 00 min 49 sec)
Heartbeat CPU 0 instructions: 20000001 cycles: 5381028 heartbeat IPC: 4 cumulative IPC: 3.717 (Simulation time: 00 hr 01 min 29 sec)
Heartbeat CPU 0 instructions: 30000001 cycles: 7881028 heartbeat IPC: 4 cumulative IPC: 3.807 (Simulation time: 00 hr 02 min 10 sec)
Heartbeat CPU 0 instructions: 40000001 cycles: 10381028 heartbeat IPC: 4 cumulative IPC: 3.853 (Simulation time: 00 hr 02 min 50 sec)
Heartbeat CPU 0 instructions: 50000001 cycles: 12881028 heartbeat IPC: 4 cumulative IPC: 3.882 (Simulation time: 00 hr 03 min 30 sec)
Warmup finished CPU 0 instructions: 50000001 cycles: 12881029 cumulative IPC: 3.882 (Simulation time: 00 hr 03 min 30 sec)
Warmup complete CPU 0 instructions: 50000001 cycles: 12881029 cumulative IPC: 3.882 (Simulation time: 00 hr 03 min 30 sec)
Heartbeat CPU 0 instructions: 60000004 cycles: 15384417 heartbeat IPC: 3.995 cumulative IPC: 3.995 (Simulation time: 00 hr 04 min 16 sec)
Heartbeat CPU 0 instructions: 70000000 cycles: 17887740 heartbeat IPC: 3.995 cumulative IPC: 3.995 (Simulation time: 00 hr 05 min 02 sec)
Heartbeat CPU 0 instructions: 80000002 cycles: 20390987 heartbeat IPC: 3.995 cumulative IPC: 3.995 (Simulation time: 00 hr 05 min 47 sec)
Heartbeat CPU 0 instructions: 90000004 cycles: 22893447 heartbeat IPC: 3.996 cumulative IPC: 3.995 (Simulation time: 00 hr 06 min 34 sec)
Heartbeat CPU 0 instructions: 100000004 cycles: 25397075 heartbeat IPC: 3.994 cumulative IPC: 3.995 (Simulation time: 00 hr 07 min 19 sec)
Heartbeat CPU 0 instructions: 110000000 cycles: 27900616 heartbeat IPC: 3.994 cumulative IPC: 3.995 (Simulation time: 00 hr 08 min 04 sec)
Heartbeat CPU 0 instructions: 120000003 cycles: 30403737 heartbeat IPC: 3.995 cumulative IPC: 3.995 (Simulation time: 00 hr 08 min 51 sec)
Heartbeat CPU 0 instructions: 130000000 cycles: 32906474 heartbeat IPC: 3.996 cumulative IPC: 3.995 (Simulation time: 00 hr 09 min 37 sec)
Heartbeat CPU 0 instructions: 140000001 cycles: 35409659 heartbeat IPC: 3.995 cumulative IPC: 3.995 (Simulation time: 00 hr 10 min 22 sec)
Heartbeat CPU 0 instructions: 150000000 cycles: 37912069 heartbeat IPC: 3.996 cumulative IPC: 3.995 (Simulation time: 00 hr 11 min 07 sec)
Heartbeat CPU 0 instructions: 160000001 cycles: 40416341 heartbeat IPC: 3.993 cumulative IPC: 3.995 (Simulation time: 00 hr 11 min 53 sec)
Heartbeat CPU 0 instructions: 170000002 cycles: 42919415 heartbeat IPC: 3.995 cumulative IPC: 3.995 (Simulation time: 00 hr 12 min 39 sec)
Heartbeat CPU 0 instructions: 180000001 cycles: 45422513 heartbeat IPC: 3.995 cumulative IPC: 3.995 (Simulation time: 00 hr 13 min 25 sec)
Heartbeat CPU 0 instructions: 190000004 cycles: 47925303 heartbeat IPC: 3.996 cumulative IPC: 3.995 (Simulation time: 00 hr 14 min 11 sec)
Heartbeat CPU 0 instructions: 200000000 cycles: 50428334 heartbeat IPC: 3.995 cumulative IPC: 3.995 (Simulation time: 00 hr 14 min 57 sec)
Heartbeat CPU 0 instructions: 210000000 cycles: 52931210 heartbeat IPC: 3.995 cumulative IPC: 3.995 (Simulation time: 00 hr 15 min 43 sec)
Heartbeat CPU 0 instructions: 220000000 cycles: 55433755 heartbeat IPC: 3.996 cumulative IPC: 3.995 (Simulation time: 00 hr 16 min 29 sec)
Heartbeat CPU 0 instructions: 230000003 cycles: 93200664 heartbeat IPC: 0.2648 cumulative IPC: 2.241 (Simulation time: 00 hr 21 min 33 sec)
Heartbeat CPU 0 instructions: 240000001 cycles: 99569366 heartbeat IPC: 1.57 cumulative IPC: 2.192 (Simulation time: 00 hr 23 min 00 sec)
Heartbeat CPU 0 instructions: 250000000 cycles: 105756269 heartbeat IPC: 1.616 cumulative IPC: 2.153 (Simulation time: 00 hr 24 min 23 sec)
Heartbeat CPU 0 instructions: 260000002 cycles: 112168893 heartbeat IPC: 1.559 cumulative IPC: 2.115 (Simulation time: 00 hr 25 min 48 sec)
Heartbeat CPU 0 instructions: 270000000 cycles: 118562691 heartbeat IPC: 1.564 cumulative IPC: 2.082 (Simulation time: 00 hr 27 min 14 sec)
Heartbeat CPU 0 instructions: 280000001 cycles: 124749526 heartbeat IPC: 1.616 cumulative IPC: 2.056 (Simulation time: 00 hr 28 min 35 sec)
Heartbeat CPU 0 instructions: 290000003 cycles: 130787936 heartbeat IPC: 1.656 cumulative IPC: 2.036 (Simulation time: 00 hr 29 min 55 sec)
Heartbeat CPU 0 instructions: 300000003 cycles: 136840771 heartbeat IPC: 1.652 cumulative IPC: 2.017 (Simulation time: 00 hr 31 min 14 sec)
Heartbeat CPU 0 instructions: 310000000 cycles: 142883711 heartbeat IPC: 1.655 cumulative IPC: 2 (Simulation time: 00 hr 32 min 35 sec)
Heartbeat CPU 0 instructions: 320000002 cycles: 148948120 heartbeat IPC: 1.649 cumulative IPC: 1.984 (Simulation time: 00 hr 33 min 55 sec)
Heartbeat CPU 0 instructions: 330000000 cycles: 155338836 heartbeat IPC: 1.565 cumulative IPC: 1.965 (Simulation time: 00 hr 35 min 17 sec)
Heartbeat CPU 0 instructions: 340000003 cycles: 161905989 heartbeat IPC: 1.523 cumulative IPC: 1.946 (Simulation time: 00 hr 36 min 39 sec)
Heartbeat CPU 0 instructions: 350000000 cycles: 168472357 heartbeat IPC: 1.523 cumulative IPC: 1.928 (Simulation time: 00 hr 38 min 04 sec)
Heartbeat CPU 0 instructions: 360000001 cycles: 174945687 heartbeat IPC: 1.545 cumulative IPC: 1.913 (Simulation time: 00 hr 39 min 27 sec)
Heartbeat CPU 0 instructions: 370000004 cycles: 181467279 heartbeat IPC: 1.533 cumulative IPC: 1.898 (Simulation time: 00 hr 40 min 50 sec)
Heartbeat CPU 0 instructions: 380000003 cycles: 188012469 heartbeat IPC: 1.528 cumulative IPC: 1.884 (Simulation time: 00 hr 42 min 15 sec)
Heartbeat CPU 0 instructions: 390000000 cycles: 194485918 heartbeat IPC: 1.545 cumulative IPC: 1.872 (Simulation time: 00 hr 43 min 37 sec)
Heartbeat CPU 0 instructions: 400000001 cycles: 201041957 heartbeat IPC: 1.525 cumulative IPC: 1.86 (Simulation time: 00 hr 45 min 01 sec)
Heartbeat CPU 0 instructions: 410000004 cycles: 207526686 heartbeat IPC: 1.542 cumulative IPC: 1.85 (Simulation time: 00 hr 46 min 22 sec)
Heartbeat CPU 0 instructions: 420000004 cycles: 214585705 heartbeat IPC: 1.417 cumulative IPC: 1.834 (Simulation time: 00 hr 47 min 50 sec)
Heartbeat CPU 0 instructions: 430000000 cycles: 220233606 heartbeat IPC: 1.771 cumulative IPC: 1.833 (Simulation time: 00 hr 49 min 05 sec)
Heartbeat CPU 0 instructions: 440000004 cycles: 226351773 heartbeat IPC: 1.634 cumulative IPC: 1.827 (Simulation time: 00 hr 50 min 25 sec)
Heartbeat CPU 0 instructions: 450000000 cycles: 232967007 heartbeat IPC: 1.512 cumulative IPC: 1.817 (Simulation time: 00 hr 51 min 51 sec)
Heartbeat CPU 0 instructions: 460000001 cycles: 239958746 heartbeat IPC: 1.43 cumulative IPC: 1.806 (Simulation time: 00 hr 53 min 19 sec)
Heartbeat CPU 0 instructions: 470000000 cycles: 247020627 heartbeat IPC: 1.416 cumulative IPC: 1.794 (Simulation time: 00 hr 54 min 47 sec)
Heartbeat CPU 0 instructions: 480000003 cycles: 254107037 heartbeat IPC: 1.411 cumulative IPC: 1.783 (Simulation time: 00 hr 56 min 16 sec)
Heartbeat CPU 0 instructions: 490000004 cycles: 261206810 heartbeat IPC: 1.408 cumulative IPC: 1.772 (Simulation time: 00 hr 57 min 45 sec)
Heartbeat CPU 0 instructions: 500000002 cycles: 268315131 heartbeat IPC: 1.407 cumulative IPC: 1.762 (Simulation time: 00 hr 59 min 12 sec)
Heartbeat CPU 0 instructions: 510000003 cycles: 275379460 heartbeat IPC: 1.416 cumulative IPC: 1.752 (Simulation time: 01 hr 00 min 40 sec)
Heartbeat CPU 0 instructions: 520000004 cycles: 344706590 heartbeat IPC: 0.1442 cumulative IPC: 1.416 (Simulation time: 01 hr 10 min 56 sec)
Heartbeat CPU 0 instructions: 530000002 cycles: 458134530 heartbeat IPC: 0.08816 cumulative IPC: 1.078 (Simulation time: 01 hr 24 min 27 sec)
Heartbeat CPU 0 instructions: 540000003 cycles: 489233734 heartbeat IPC: 0.3216 cumulative IPC: 1.029 (Simulation time: 01 hr 28 min 26 sec)
Heartbeat CPU 0 instructions: 550000000 cycles: 517325676 heartbeat IPC: 0.356 cumulative IPC: 0.9912 (Simulation time: 01 hr 32 min 03 sec)
Heartbeat CPU 0 instructions: 560000000 cycles: 547142363 heartbeat IPC: 0.3354 cumulative IPC: 0.9546 (Simulation time: 01 hr 35 min 53 sec)
Heartbeat CPU 0 instructions: 570000002 cycles: 576906484 heartbeat IPC: 0.336 cumulative IPC: 0.9219 (Simulation time: 01 hr 39 min 44 sec)
Heartbeat CPU 0 instructions: 580000001 cycles: 609323989 heartbeat IPC: 0.3085 cumulative IPC: 0.8886 (Simulation time: 01 hr 43 min 55 sec)
Heartbeat CPU 0 instructions: 590000001 cycles: 641628320 heartbeat IPC: 0.3096 cumulative IPC: 0.8589 (Simulation time: 01 hr 48 min 01 sec)
*** Reached end of trace: (0, "traces/bt.A.champsimtrace")
Heartbeat CPU 0 instructions: 600000001 cycles: 672973191 heartbeat IPC: 0.319 cumulative IPC: 0.8332 (Simulation time: 01 hr 52 min 04 sec)
Heartbeat CPU 0 instructions: 610000004 cycles: 704493649 heartbeat IPC: 0.3173 cumulative IPC: 0.8097 (Simulation time: 01 hr 55 min 07 sec)
Heartbeat CPU 0 instructions: 620000000 cycles: 706996024 heartbeat IPC: 3.996 cumulative IPC: 0.8212 (Simulation time: 01 hr 55 min 43 sec)
Heartbeat CPU 0 instructions: 630000003 cycles: 709498431 heartbeat IPC: 3.996 cumulative IPC: 0.8326 (Simulation time: 01 hr 56 min 18 sec)
Heartbeat CPU 0 instructions: 640000003 cycles: 712000839 heartbeat IPC: 3.996 cumulative IPC: 0.8439 (Simulation time: 01 hr 56 min 54 sec)
Heartbeat CPU 0 instructions: 650000003 cycles: 714503687 heartbeat IPC: 3.995 cumulative IPC: 0.8552 (Simulation time: 01 hr 57 min 28 sec)
Simulation finished CPU 0 instructions: 600000002 cycles: 701622659 cumulative IPC: 0.8552 (Simulation time: 01 hr 57 min 28 sec)
Simulation complete CPU 0 instructions: 600000002 cycles: 701622659 cumulative IPC: 0.8552 (Simulation time: 01 hr 57 min 28 sec)

ChampSim completed all CPUs

=== Simulation ===
CPU 0 runs traces/bt.A.champsimtrace
Region of Interest Statistics

CPU 0 cumulative IPC: 0.8552 instructions: 600000002 cycles: 701622659
CPU 0 Branch Prediction Accuracy: 99.28% MPKI: 0.1299 Average ROB Occupancy at Mispredict: 279.4
Branch type MPKI
BRANCH_DIRECT_JUMP: 5e-06
BRANCH_INDIRECT: 7.67e-05
BRANCH_CONDITIONAL: 0.13
BRANCH_DIRECT_CALL: 6.67e-06
BRANCH_INDIRECT_CALL: 3.33e-05
BRANCH_RETURN: 2.33e-05

LLC TOTAL        ACCESS:    5115653 HIT:    1913052 MISS:    3202601
LLC LOAD         ACCESS:    2238123 HIT:     483350 MISS:    1754773
LLC RFO          ACCESS:     889409 HIT:      13606 MISS:     875803
LLC PREFETCH     ACCESS:          0 HIT:          0 MISS:          0
LLC WRITE        ACCESS:    1984764 HIT:    1415809 MISS:     568955
LLC TRANSLATION  ACCESS:       3357 HIT:        287 MISS:       3070
LLC PREFETCH REQUESTED:          0 ISSUED:          0 USEFUL:          0 USELESS:          0
LLC AVERAGE MISS LATENCY: 1032 cycles
cpu0_DTLB TOTAL        ACCESS:  126762471 HIT:  126004514 MISS:     757957
cpu0_DTLB LOAD         ACCESS:  126762471 HIT:  126004514 MISS:     757957
cpu0_DTLB RFO          ACCESS:          0 HIT:          0 MISS:          0
cpu0_DTLB PREFETCH     ACCESS:          0 HIT:          0 MISS:          0
cpu0_DTLB WRITE        ACCESS:          0 HIT:          0 MISS:          0
cpu0_DTLB TRANSLATION  ACCESS:          0 HIT:          0 MISS:          0
cpu0_DTLB PREFETCH REQUESTED:          0 ISSUED:          0 USEFUL:          0 USELESS:          0
cpu0_DTLB AVERAGE MISS LATENCY: 17.19 cycles
cpu0_ITLB TOTAL        ACCESS:     145239 HIT:     145014 MISS:        225
cpu0_ITLB LOAD         ACCESS:     145239 HIT:     145014 MISS:        225
cpu0_ITLB RFO          ACCESS:          0 HIT:          0 MISS:          0
cpu0_ITLB PREFETCH     ACCESS:          0 HIT:          0 MISS:          0
cpu0_ITLB WRITE        ACCESS:          0 HIT:          0 MISS:          0
cpu0_ITLB TRANSLATION  ACCESS:          0 HIT:          0 MISS:          0
cpu0_ITLB PREFETCH REQUESTED:          0 ISSUED:          0 USEFUL:          0 USELESS:          0
cpu0_ITLB AVERAGE MISS LATENCY: 353.7 cycles
cpu0_L1D TOTAL        ACCESS:  194050980 HIT:  180040341 MISS:   14010639
cpu0_L1D LOAD         ACCESS:  159368713 HIT:  149448075 MISS:    9920638
cpu0_L1D RFO          ACCESS:          0 HIT:          0 MISS:          0
cpu0_L1D PREFETCH     ACCESS:          0 HIT:          0 MISS:          0
cpu0_L1D WRITE        ACCESS:   34635516 HIT:   30562593 MISS:    4072923
cpu0_L1D TRANSLATION  ACCESS:      46751 HIT:      29673 MISS:      17078
cpu0_L1D PREFETCH REQUESTED:          0 ISSUED:          0 USEFUL:          0 USELESS:          0
cpu0_L1D AVERAGE MISS LATENCY: 176 cycles
cpu0_L1I TOTAL        ACCESS:     194987 HIT:     192252 MISS:       2735
cpu0_L1I LOAD         ACCESS:     194987 HIT:     192252 MISS:       2735
cpu0_L1I RFO          ACCESS:          0 HIT:          0 MISS:          0
cpu0_L1I PREFETCH     ACCESS:          0 HIT:          0 MISS:          0
cpu0_L1I WRITE        ACCESS:          0 HIT:          0 MISS:          0
cpu0_L1I TRANSLATION  ACCESS:          0 HIT:          0 MISS:          0
cpu0_L1I PREFETCH REQUESTED:          0 ISSUED:          0 USEFUL:          0 USELESS:          0
cpu0_L1I AVERAGE MISS LATENCY: 607 cycles
cpu0_L2C TOTAL        ACCESS:    5272098 HIT:    2140608 MISS:    3131490
cpu0_L2C LOAD         ACCESS:    2366076 HIT:     127687 MISS:    2238389
cpu0_L2C RFO          ACCESS:     890038 HIT:        629 MISS:     889409
cpu0_L2C PREFETCH     ACCESS:          0 HIT:          0 MISS:          0
cpu0_L2C WRITE        ACCESS:    1998908 HIT:    1998573 MISS:        335
cpu0_L2C TRANSLATION  ACCESS:      17076 HIT:      13719 MISS:       3357
cpu0_L2C PREFETCH REQUESTED:          0 ISSUED:          0 USEFUL:          0 USELESS:          0
cpu0_L2C AVERAGE MISS LATENCY: 1077 cycles
cpu0_STLB TOTAL        ACCESS:     297209 HIT:     250473 MISS:      46736
cpu0_STLB LOAD         ACCESS:     297209 HIT:     250473 MISS:      46736
cpu0_STLB RFO          ACCESS:          0 HIT:          0 MISS:          0
cpu0_STLB PREFETCH     ACCESS:          0 HIT:          0 MISS:          0
cpu0_STLB WRITE        ACCESS:          0 HIT:          0 MISS:          0
cpu0_STLB TRANSLATION  ACCESS:          0 HIT:          0 MISS:          0
cpu0_STLB PREFETCH REQUESTED:          0 ISSUED:          0 USEFUL:          0 USELESS:          0
cpu0_STLB AVERAGE MISS LATENCY: 381.7 cycles

DRAM Statistics

Channel 0 RQ ROW_BUFFER_HIT:     719828
  ROW_BUFFER_MISS:    1913745
 AVG DBUS CONGESTED CYCLE: 3.975
WQ ROW_BUFFER_HIT: Channel 0 
  ROW_BUFFER_MISS:     278239
  FULL:    1478937
