WARNING: physical memory size is smaller than virtual memory size.

*** ChampSim Multicore Out-of-Order Simulator ***
Warmup Instructions: 50000000
Simulation Instructions: 600000000
Number of CPUs: 1
Page size: 4096

CPU 0 Tage branch predictor
Off-chip DRAM Size: 4 GiB Channels: 1 Width: 64-bit Data Race: 3200 MT/s
Heartbeat CPU 0 instructions: 10000002 cycles: 2881030 heartbeat IPC: 3.471 cumulative IPC: 3.471 (Simulation time: 00 hr 00 min 55 sec)
Heartbeat CPU 0 instructions: 20000002 cycles: 5381030 heartbeat IPC: 4 cumulative IPC: 3.717 (Simulation time: 00 hr 01 min 46 sec)
Heartbeat CPU 0 instructions: 30000002 cycles: 7881030 heartbeat IPC: 4 cumulative IPC: 3.807 (Simulation time: 00 hr 02 min 38 sec)
Heartbeat CPU 0 instructions: 40000002 cycles: 10381030 heartbeat IPC: 4 cumulative IPC: 3.853 (Simulation time: 00 hr 03 min 28 sec)
Heartbeat CPU 0 instructions: 50000002 cycles: 12881030 heartbeat IPC: 4 cumulative IPC: 3.882 (Simulation time: 00 hr 04 min 20 sec)
Warmup finished CPU 0 instructions: 50000002 cycles: 12881031 cumulative IPC: 3.882 (Simulation time: 00 hr 04 min 20 sec)
Warmup complete CPU 0 instructions: 50000002 cycles: 12881031 cumulative IPC: 3.882 (Simulation time: 00 hr 04 min 20 sec)
Heartbeat CPU 0 instructions: 60000004 cycles: 15382922 heartbeat IPC: 3.997 cumulative IPC: 3.997 (Simulation time: 00 hr 05 min 19 sec)
Heartbeat CPU 0 instructions: 70000002 cycles: 17884821 heartbeat IPC: 3.997 cumulative IPC: 3.997 (Simulation time: 00 hr 06 min 16 sec)
Heartbeat CPU 0 instructions: 80000002 cycles: 20385646 heartbeat IPC: 3.999 cumulative IPC: 3.998 (Simulation time: 00 hr 07 min 14 sec)
Heartbeat CPU 0 instructions: 90000004 cycles: 22885956 heartbeat IPC: 4 cumulative IPC: 3.998 (Simulation time: 00 hr 08 min 11 sec)
Heartbeat CPU 0 instructions: 100000004 cycles: 25386425 heartbeat IPC: 3.999 cumulative IPC: 3.998 (Simulation time: 00 hr 09 min 09 sec)
Heartbeat CPU 0 instructions: 110000000 cycles: 27886679 heartbeat IPC: 4 cumulative IPC: 3.998 (Simulation time: 00 hr 10 min 18 sec)
Heartbeat CPU 0 instructions: 120000003 cycles: 30387309 heartbeat IPC: 3.999 cumulative IPC: 3.999 (Simulation time: 00 hr 11 min 15 sec)
Heartbeat CPU 0 instructions: 130000000 cycles: 32887709 heartbeat IPC: 3.999 cumulative IPC: 3.999 (Simulation time: 00 hr 12 min 13 sec)
Heartbeat CPU 0 instructions: 140000001 cycles: 35388169 heartbeat IPC: 3.999 cumulative IPC: 3.999 (Simulation time: 00 hr 13 min 09 sec)
Heartbeat CPU 0 instructions: 150000000 cycles: 37889723 heartbeat IPC: 3.998 cumulative IPC: 3.999 (Simulation time: 00 hr 14 min 07 sec)
Heartbeat CPU 0 instructions: 160000001 cycles: 40389812 heartbeat IPC: 4 cumulative IPC: 3.999 (Simulation time: 00 hr 15 min 04 sec)
Heartbeat CPU 0 instructions: 170000002 cycles: 42889989 heartbeat IPC: 4 cumulative IPC: 3.999 (Simulation time: 00 hr 16 min 02 sec)
Heartbeat CPU 0 instructions: 180000001 cycles: 45391036 heartbeat IPC: 3.998 cumulative IPC: 3.999 (Simulation time: 00 hr 17 min 00 sec)
Heartbeat CPU 0 instructions: 190000004 cycles: 47891939 heartbeat IPC: 3.999 cumulative IPC: 3.999 (Simulation time: 00 hr 17 min 56 sec)
Heartbeat CPU 0 instructions: 200000000 cycles: 50393395 heartbeat IPC: 3.998 cumulative IPC: 3.999 (Simulation time: 00 hr 18 min 53 sec)
Heartbeat CPU 0 instructions: 210000000 cycles: 52893487 heartbeat IPC: 4 cumulative IPC: 3.999 (Simulation time: 00 hr 19 min 50 sec)
Heartbeat CPU 0 instructions: 220000000 cycles: 55393903 heartbeat IPC: 3.999 cumulative IPC: 3.999 (Simulation time: 00 hr 20 min 50 sec)
Heartbeat CPU 0 instructions: 230000004 cycles: 89230963 heartbeat IPC: 0.2955 cumulative IPC: 2.358 (Simulation time: 00 hr 26 min 20 sec)
Heartbeat CPU 0 instructions: 240000001 cycles: 92575858 heartbeat IPC: 2.99 cumulative IPC: 2.384 (Simulation time: 00 hr 27 min 29 sec)
Heartbeat CPU 0 instructions: 250000000 cycles: 95955678 heartbeat IPC: 2.959 cumulative IPC: 2.407 (Simulation time: 00 hr 28 min 39 sec)
Heartbeat CPU 0 instructions: 260000004 cycles: 99351465 heartbeat IPC: 2.945 cumulative IPC: 2.429 (Simulation time: 00 hr 29 min 52 sec)
Heartbeat CPU 0 instructions: 270000000 cycles: 102715633 heartbeat IPC: 2.973 cumulative IPC: 2.449 (Simulation time: 00 hr 31 min 03 sec)
Heartbeat CPU 0 instructions: 280000001 cycles: 106114792 heartbeat IPC: 2.942 cumulative IPC: 2.467 (Simulation time: 00 hr 32 min 13 sec)
Heartbeat CPU 0 instructions: 290000000 cycles: 109482149 heartbeat IPC: 2.97 cumulative IPC: 2.484 (Simulation time: 00 hr 33 min 25 sec)
Heartbeat CPU 0 instructions: 300000003 cycles: 112841050 heartbeat IPC: 2.977 cumulative IPC: 2.501 (Simulation time: 00 hr 34 min 35 sec)
Heartbeat CPU 0 instructions: 310000000 cycles: 116224765 heartbeat IPC: 2.955 cumulative IPC: 2.516 (Simulation time: 00 hr 35 min 44 sec)
Heartbeat CPU 0 instructions: 320000001 cycles: 119590901 heartbeat IPC: 2.971 cumulative IPC: 2.53 (Simulation time: 00 hr 36 min 56 sec)
Heartbeat CPU 0 instructions: 330000000 cycles: 125178058 heartbeat IPC: 1.79 cumulative IPC: 2.493 (Simulation time: 00 hr 38 min 30 sec)
Heartbeat CPU 0 instructions: 340000003 cycles: 131979305 heartbeat IPC: 1.47 cumulative IPC: 2.435 (Simulation time: 00 hr 40 min 20 sec)
Heartbeat CPU 0 instructions: 350000000 cycles: 138698912 heartbeat IPC: 1.488 cumulative IPC: 2.384 (Simulation time: 00 hr 42 min 06 sec)
Heartbeat CPU 0 instructions: 360000001 cycles: 145522564 heartbeat IPC: 1.465 cumulative IPC: 2.337 (Simulation time: 00 hr 43 min 54 sec)
Heartbeat CPU 0 instructions: 370000004 cycles: 152238243 heartbeat IPC: 1.489 cumulative IPC: 2.296 (Simulation time: 00 hr 45 min 40 sec)
Heartbeat CPU 0 instructions: 380000003 cycles: 159095574 heartbeat IPC: 1.458 cumulative IPC: 2.257 (Simulation time: 00 hr 47 min 27 sec)
Heartbeat CPU 0 instructions: 390000000 cycles: 165862329 heartbeat IPC: 1.478 cumulative IPC: 2.222 (Simulation time: 00 hr 49 min 14 sec)
Heartbeat CPU 0 instructions: 400000001 cycles: 172713595 heartbeat IPC: 1.46 cumulative IPC: 2.19 (Simulation time: 00 hr 51 min 02 sec)
Heartbeat CPU 0 instructions: 410000004 cycles: 179455326 heartbeat IPC: 1.483 cumulative IPC: 2.161 (Simulation time: 00 hr 52 min 48 sec)
Heartbeat CPU 0 instructions: 420000004 cycles: 186207797 heartbeat IPC: 1.481 cumulative IPC: 2.135 (Simulation time: 00 hr 54 min 35 sec)
Heartbeat CPU 0 instructions: 430000004 cycles: 193337709 heartbeat IPC: 1.403 cumulative IPC: 2.106 (Simulation time: 00 hr 56 min 26 sec)
Heartbeat CPU 0 instructions: 440000004 cycles: 200663776 heartbeat IPC: 1.365 cumulative IPC: 2.077 (Simulation time: 00 hr 58 min 19 sec)
Heartbeat CPU 0 instructions: 450000000 cycles: 207971456 heartbeat IPC: 1.368 cumulative IPC: 2.05 (Simulation time: 01 hr 00 min 12 sec)
Heartbeat CPU 0 instructions: 460000001 cycles: 215249367 heartbeat IPC: 1.374 cumulative IPC: 2.026 (Simulation time: 01 hr 02 min 05 sec)
Heartbeat CPU 0 instructions: 470000000 cycles: 222524770 heartbeat IPC: 1.374 cumulative IPC: 2.003 (Simulation time: 01 hr 03 min 56 sec)
Heartbeat CPU 0 instructions: 480000003 cycles: 229783694 heartbeat IPC: 1.378 cumulative IPC: 1.982 (Simulation time: 01 hr 05 min 49 sec)
Heartbeat CPU 0 instructions: 490000004 cycles: 237018240 heartbeat IPC: 1.382 cumulative IPC: 1.963 (Simulation time: 01 hr 07 min 41 sec)
Heartbeat CPU 0 instructions: 500000002 cycles: 244306401 heartbeat IPC: 1.372 cumulative IPC: 1.944 (Simulation time: 01 hr 09 min 32 sec)
Heartbeat CPU 0 instructions: 510000003 cycles: 251590245 heartbeat IPC: 1.373 cumulative IPC: 1.927 (Simulation time: 01 hr 11 min 22 sec)
Heartbeat CPU 0 instructions: 520000001 cycles: 320669671 heartbeat IPC: 0.1448 cumulative IPC: 1.527 (Simulation time: 01 hr 24 min 23 sec)
Heartbeat CPU 0 instructions: 530000002 cycles: 443968622 heartbeat IPC: 0.0811 cumulative IPC: 1.113 (Simulation time: 01 hr 47 min 09 sec)
Heartbeat CPU 0 instructions: 540000004 cycles: 472922497 heartbeat IPC: 0.3454 cumulative IPC: 1.065 (Simulation time: 01 hr 52 min 57 sec)
Heartbeat CPU 0 instructions: 550000002 cycles: 505404807 heartbeat IPC: 0.3079 cumulative IPC: 1.015 (Simulation time: 01 hr 59 min 18 sec)
Heartbeat CPU 0 instructions: 560000000 cycles: 537661111 heartbeat IPC: 0.31 cumulative IPC: 0.9718 (Simulation time: 02 hr 05 min 37 sec)
Heartbeat CPU 0 instructions: 570000002 cycles: 570036906 heartbeat IPC: 0.3089 cumulative IPC: 0.9333 (Simulation time: 02 hr 12 min 00 sec)
Heartbeat CPU 0 instructions: 580000001 cycles: 594473448 heartbeat IPC: 0.4092 cumulative IPC: 0.9113 (Simulation time: 02 hr 17 min 00 sec)
Heartbeat CPU 0 instructions: 590000001 cycles: 624740058 heartbeat IPC: 0.3304 cumulative IPC: 0.8826 (Simulation time: 02 hr 23 min 01 sec)
*** Reached end of trace: (0, "traces/bt.A.champsimtrace")
Heartbeat CPU 0 instructions: 600000000 cycles: 655081800 heartbeat IPC: 0.3296 cumulative IPC: 0.8564 (Simulation time: 02 hr 29 min 05 sec)
Heartbeat CPU 0 instructions: 610000004 cycles: 679112051 heartbeat IPC: 0.4161 cumulative IPC: 0.8405 (Simulation time: 02 hr 33 min 15 sec)
Heartbeat CPU 0 instructions: 620000000 cycles: 681612051 heartbeat IPC: 4 cumulative IPC: 0.8524 (Simulation time: 02 hr 34 min 13 sec)
Heartbeat CPU 0 instructions: 630000002 cycles: 684112050 heartbeat IPC: 4 cumulative IPC: 0.8641 (Simulation time: 02 hr 35 min 12 sec)
Heartbeat CPU 0 instructions: 640000003 cycles: 686612051 heartbeat IPC: 4 cumulative IPC: 0.8757 (Simulation time: 02 hr 36 min 10 sec)
Heartbeat CPU 0 instructions: 650000003 cycles: 689112137 heartbeat IPC: 4 cumulative IPC: 0.8873 (Simulation time: 02 hr 37 min 11 sec)
Simulation finished CPU 0 instructions: 600000001 cycles: 676231107 cumulative IPC: 0.8873 (Simulation time: 02 hr 37 min 11 sec)
Simulation complete CPU 0 instructions: 600000001 cycles: 676231107 cumulative IPC: 0.8873 (Simulation time: 02 hr 37 min 11 sec)

ChampSim completed all CPUs

=== Simulation ===
CPU 0 runs traces/bt.A.champsimtrace
Region of Interest Statistics

CPU 0 cumulative IPC: 0.8873 instructions: 600000001 cycles: 676231107
CPU 0 Branch Prediction Accuracy: 99.98% MPKI: 0.004178 Average ROB Occupancy at Mispredict: 111.4
Branch type MPKI
BRANCH_DIRECT_JUMP: 5e-06
BRANCH_INDIRECT: 7.83e-05
BRANCH_CONDITIONAL: 0.00403
BRANCH_DIRECT_CALL: 6.67e-06
BRANCH_INDIRECT_CALL: 3.33e-05
BRANCH_RETURN: 2.33e-05

LLC TOTAL        ACCESS:    7756099 HIT:    2675542 MISS:    5080557
LLC LOAD         ACCESS:    2235511 HIT:    1203352 MISS:    1032159
LLC RFO          ACCESS:     889370 HIT:      62923 MISS:     826447
LLC PREFETCH     ACCESS:    2643731 HIT:    1322332 MISS:    1321399
LLC WRITE        ACCESS:    1984115 HIT:      86764 MISS:    1897351
LLC TRANSLATION  ACCESS:       3372 HIT:        171 MISS:       3201
LLC PREFETCH REQUESTED:    2643731 ISSUED:    2643731 USEFUL:     995692 USELESS:      45552
LLC AVERAGE MISS LATENCY: 838.5 cycles
cpu0_DTLB TOTAL        ACCESS:  127102469 HIT:  126349728 MISS:     752741
cpu0_DTLB LOAD         ACCESS:  127102469 HIT:  126349728 MISS:     752741
cpu0_DTLB RFO          ACCESS:          0 HIT:          0 MISS:          0
cpu0_DTLB PREFETCH     ACCESS:          0 HIT:          0 MISS:          0
cpu0_DTLB WRITE        ACCESS:          0 HIT:          0 MISS:          0
cpu0_DTLB TRANSLATION  ACCESS:          0 HIT:          0 MISS:          0
cpu0_DTLB PREFETCH REQUESTED:          0 ISSUED:          0 USEFUL:          0 USELESS:          0
cpu0_DTLB AVERAGE MISS LATENCY: 15.3 cycles
cpu0_ITLB TOTAL        ACCESS:     172687 HIT:     172428 MISS:        259
cpu0_ITLB LOAD         ACCESS:     172687 HIT:     172428 MISS:        259
cpu0_ITLB RFO          ACCESS:          0 HIT:          0 MISS:          0
cpu0_ITLB PREFETCH     ACCESS:          0 HIT:          0 MISS:          0
cpu0_ITLB WRITE        ACCESS:          0 HIT:          0 MISS:          0
cpu0_ITLB TRANSLATION  ACCESS:          0 HIT:          0 MISS:          0
cpu0_ITLB PREFETCH REQUESTED:          0 ISSUED:          0 USEFUL:          0 USELESS:          0
cpu0_ITLB AVERAGE MISS LATENCY: 187.6 cycles
cpu0_L1D TOTAL        ACCESS:  194903257 HIT:  182254324 MISS:   12648933
cpu0_L1D LOAD         ACCESS:  160220986 HIT:  151762990 MISS:    8457996
cpu0_L1D RFO          ACCESS:          0 HIT:          0 MISS:          0
cpu0_L1D PREFETCH     ACCESS:          0 HIT:          0 MISS:          0
cpu0_L1D WRITE        ACCESS:   34635517 HIT:   30461642 MISS:    4173875
cpu0_L1D TRANSLATION  ACCESS:      46754 HIT:      29692 MISS:      17062
cpu0_L1D PREFETCH REQUESTED:          0 ISSUED:          0 USEFUL:          0 USELESS:          0
cpu0_L1D AVERAGE MISS LATENCY: 170.2 cycles
cpu0_L1I TOTAL        ACCESS:     205572 HIT:     202644 MISS:       2928
cpu0_L1I LOAD         ACCESS:     205572 HIT:     202644 MISS:       2928
cpu0_L1I RFO          ACCESS:          0 HIT:          0 MISS:          0
cpu0_L1I PREFETCH     ACCESS:          0 HIT:          0 MISS:          0
cpu0_L1I WRITE        ACCESS:          0 HIT:          0 MISS:          0
cpu0_L1I TRANSLATION  ACCESS:          0 HIT:          0 MISS:          0
cpu0_L1I PREFETCH REQUESTED:          0 ISSUED:          0 USEFUL:          0 USELESS:          0
cpu0_L1I AVERAGE MISS LATENCY: 383.7 cycles
cpu0_L2C TOTAL        ACCESS:    5258803 HIT:    2130171 MISS:    3128632
cpu0_L2C LOAD         ACCESS:    2350181 HIT:     114587 MISS:    2235594
cpu0_L2C RFO          ACCESS:     891567 HIT:       2197 MISS:     889370
cpu0_L2C PREFETCH     ACCESS:          0 HIT:          0 MISS:          0
cpu0_L2C WRITE        ACCESS:    1999996 HIT:    1999700 MISS:        296
cpu0_L2C TRANSLATION  ACCESS:      17059 HIT:      13687 MISS:       3372
cpu0_L2C PREFETCH REQUESTED:          0 ISSUED:          0 USEFUL:          0 USELESS:          0
cpu0_L2C AVERAGE MISS LATENCY: 848.5 cycles
cpu0_STLB TOTAL        ACCESS:     296164 HIT:     249432 MISS:      46732
cpu0_STLB LOAD         ACCESS:     296164 HIT:     249432 MISS:      46732
cpu0_STLB RFO          ACCESS:          0 HIT:          0 MISS:          0
cpu0_STLB PREFETCH     ACCESS:          0 HIT:          0 MISS:          0
cpu0_STLB WRITE        ACCESS:          0 HIT:          0 MISS:          0
cpu0_STLB TRANSLATION  ACCESS:          0 HIT:          0 MISS:          0
cpu0_STLB PREFETCH REQUESTED:          0 ISSUED:          0 USEFUL:          0 USELESS:          0
cpu0_STLB AVERAGE MISS LATENCY: 354.5 cycles

DRAM Statistics

Channel 0 RQ ROW_BUFFER_HIT:     973457
  ROW_BUFFER_MISS:    1849299
 AVG DBUS CONGESTED CYCLE: 3.958
WQ ROW_BUFFER_HIT: Channel 0 
  ROW_BUFFER_MISS:     687243
  FULL:    1220229
