WARNING: physical memory size is smaller than virtual memory size.

*** ChampSim Multicore Out-of-Order Simulator ***
Warmup Instructions: 50000000
Simulation Instructions: 600000000
Number of CPUs: 1
Page size: 4096

Off-chip DRAM Size: 4 GiB Channels: 1 Width: 64-bit Data Race: 3200 MT/s
Heartbeat CPU 0 instructions: 10000000 cycles: 2881042 heartbeat IPC: 3.471 cumulative IPC: 3.471 (Simulation time: 00 hr 00 min 37 sec)
Heartbeat CPU 0 instructions: 20000000 cycles: 5381042 heartbeat IPC: 4 cumulative IPC: 3.717 (Simulation time: 00 hr 01 min 09 sec)
Heartbeat CPU 0 instructions: 30000000 cycles: 7881042 heartbeat IPC: 4 cumulative IPC: 3.807 (Simulation time: 00 hr 01 min 43 sec)
Heartbeat CPU 0 instructions: 40000000 cycles: 10381042 heartbeat IPC: 4 cumulative IPC: 3.853 (Simulation time: 00 hr 02 min 15 sec)
Heartbeat CPU 0 instructions: 50000000 cycles: 12881042 heartbeat IPC: 4 cumulative IPC: 3.882 (Simulation time: 00 hr 02 min 48 sec)
Warmup finished CPU 0 instructions: 50000000 cycles: 12881043 cumulative IPC: 3.882 (Simulation time: 00 hr 02 min 48 sec)
Warmup complete CPU 0 instructions: 50000000 cycles: 12881043 cumulative IPC: 3.882 (Simulation time: 00 hr 02 min 48 sec)
Heartbeat CPU 0 instructions: 60000004 cycles: 15383364 heartbeat IPC: 3.996 cumulative IPC: 3.996 (Simulation time: 00 hr 03 min 26 sec)
Heartbeat CPU 0 instructions: 70000002 cycles: 17885682 heartbeat IPC: 3.996 cumulative IPC: 3.996 (Simulation time: 00 hr 04 min 05 sec)
Heartbeat CPU 0 instructions: 80000002 cycles: 20387998 heartbeat IPC: 3.996 cumulative IPC: 3.996 (Simulation time: 00 hr 04 min 43 sec)
Heartbeat CPU 0 instructions: 90000004 cycles: 22890375 heartbeat IPC: 3.996 cumulative IPC: 3.996 (Simulation time: 00 hr 05 min 21 sec)
Heartbeat CPU 0 instructions: 100000000 cycles: 25392780 heartbeat IPC: 3.996 cumulative IPC: 3.996 (Simulation time: 00 hr 06 min 00 sec)
Heartbeat CPU 0 instructions: 110000002 cycles: 27895324 heartbeat IPC: 3.996 cumulative IPC: 3.996 (Simulation time: 00 hr 06 min 38 sec)
Heartbeat CPU 0 instructions: 120000000 cycles: 30398728 heartbeat IPC: 3.995 cumulative IPC: 3.996 (Simulation time: 00 hr 07 min 18 sec)
Heartbeat CPU 0 instructions: 130000002 cycles: 32903125 heartbeat IPC: 3.993 cumulative IPC: 3.996 (Simulation time: 00 hr 07 min 58 sec)
Heartbeat CPU 0 instructions: 140000004 cycles: 35406249 heartbeat IPC: 3.995 cumulative IPC: 3.996 (Simulation time: 00 hr 08 min 37 sec)
Heartbeat CPU 0 instructions: 150000000 cycles: 37909257 heartbeat IPC: 3.995 cumulative IPC: 3.995 (Simulation time: 00 hr 09 min 15 sec)
Heartbeat CPU 0 instructions: 160000003 cycles: 40412533 heartbeat IPC: 3.995 cumulative IPC: 3.995 (Simulation time: 00 hr 09 min 54 sec)
Heartbeat CPU 0 instructions: 170000002 cycles: 42916061 heartbeat IPC: 3.994 cumulative IPC: 3.995 (Simulation time: 00 hr 10 min 32 sec)
Heartbeat CPU 0 instructions: 180000000 cycles: 45418639 heartbeat IPC: 3.996 cumulative IPC: 3.995 (Simulation time: 00 hr 11 min 11 sec)
Heartbeat CPU 0 instructions: 190000003 cycles: 47922082 heartbeat IPC: 3.994 cumulative IPC: 3.995 (Simulation time: 00 hr 11 min 50 sec)
Heartbeat CPU 0 instructions: 200000000 cycles: 50424753 heartbeat IPC: 3.996 cumulative IPC: 3.995 (Simulation time: 00 hr 12 min 30 sec)
Heartbeat CPU 0 instructions: 210000000 cycles: 52927457 heartbeat IPC: 3.996 cumulative IPC: 3.995 (Simulation time: 00 hr 13 min 12 sec)
Heartbeat CPU 0 instructions: 220000003 cycles: 55430071 heartbeat IPC: 3.996 cumulative IPC: 3.995 (Simulation time: 00 hr 13 min 54 sec)
Heartbeat CPU 0 instructions: 230000002 cycles: 88662194 heartbeat IPC: 0.3009 cumulative IPC: 2.375 (Simulation time: 00 hr 17 min 36 sec)
Heartbeat CPU 0 instructions: 240000002 cycles: 92313423 heartbeat IPC: 2.739 cumulative IPC: 2.392 (Simulation time: 00 hr 18 min 27 sec)
Heartbeat CPU 0 instructions: 250000000 cycles: 96015467 heartbeat IPC: 2.701 cumulative IPC: 2.406 (Simulation time: 00 hr 19 min 18 sec)
Heartbeat CPU 0 instructions: 260000002 cycles: 99760430 heartbeat IPC: 2.67 cumulative IPC: 2.417 (Simulation time: 00 hr 20 min 08 sec)
Heartbeat CPU 0 instructions: 270000003 cycles: 103517497 heartbeat IPC: 2.662 cumulative IPC: 2.427 (Simulation time: 00 hr 20 min 58 sec)
Heartbeat CPU 0 instructions: 280000001 cycles: 107234985 heartbeat IPC: 2.69 cumulative IPC: 2.438 (Simulation time: 00 hr 21 min 48 sec)
Heartbeat CPU 0 instructions: 290000002 cycles: 110776674 heartbeat IPC: 2.824 cumulative IPC: 2.452 (Simulation time: 00 hr 22 min 38 sec)
Heartbeat CPU 0 instructions: 300000003 cycles: 114243555 heartbeat IPC: 2.884 cumulative IPC: 2.466 (Simulation time: 00 hr 23 min 27 sec)
Heartbeat CPU 0 instructions: 310000002 cycles: 117735554 heartbeat IPC: 2.864 cumulative IPC: 2.48 (Simulation time: 00 hr 24 min 16 sec)
Heartbeat CPU 0 instructions: 320000002 cycles: 121176309 heartbeat IPC: 2.906 cumulative IPC: 2.493 (Simulation time: 00 hr 25 min 06 sec)
Heartbeat CPU 0 instructions: 330000004 cycles: 126251276 heartbeat IPC: 1.97 cumulative IPC: 2.47 (Simulation time: 00 hr 26 min 08 sec)
Heartbeat CPU 0 instructions: 340000002 cycles: 131524510 heartbeat IPC: 1.896 cumulative IPC: 2.444 (Simulation time: 00 hr 27 min 12 sec)
Heartbeat CPU 0 instructions: 350000002 cycles: 136718468 heartbeat IPC: 1.925 cumulative IPC: 2.423 (Simulation time: 00 hr 28 min 14 sec)
Heartbeat CPU 0 instructions: 360000000 cycles: 141948717 heartbeat IPC: 1.912 cumulative IPC: 2.402 (Simulation time: 00 hr 29 min 16 sec)
Heartbeat CPU 0 instructions: 370000001 cycles: 147130008 heartbeat IPC: 1.93 cumulative IPC: 2.384 (Simulation time: 00 hr 30 min 18 sec)
Heartbeat CPU 0 instructions: 380000003 cycles: 152383930 heartbeat IPC: 1.903 cumulative IPC: 2.366 (Simulation time: 00 hr 31 min 22 sec)
Heartbeat CPU 0 instructions: 390000004 cycles: 157589616 heartbeat IPC: 1.921 cumulative IPC: 2.35 (Simulation time: 00 hr 32 min 27 sec)
Heartbeat CPU 0 instructions: 400000000 cycles: 163001148 heartbeat IPC: 1.848 cumulative IPC: 2.331 (Simulation time: 00 hr 33 min 32 sec)
Heartbeat CPU 0 instructions: 410000000 cycles: 168585087 heartbeat IPC: 1.791 cumulative IPC: 2.312 (Simulation time: 00 hr 34 min 37 sec)
Heartbeat CPU 0 instructions: 420000000 cycles: 174509229 heartbeat IPC: 1.688 cumulative IPC: 2.289 (Simulation time: 00 hr 35 min 45 sec)
Heartbeat CPU 0 instructions: 430000001 cycles: 179900670 heartbeat IPC: 1.855 cumulative IPC: 2.275 (Simulation time: 00 hr 36 min 50 sec)
Heartbeat CPU 0 instructions: 440000002 cycles: 185278803 heartbeat IPC: 1.859 cumulative IPC: 2.262 (Simulation time: 00 hr 37 min 53 sec)
Heartbeat CPU 0 instructions: 450000000 cycles: 190681618 heartbeat IPC: 1.851 cumulative IPC: 2.25 (Simulation time: 00 hr 38 min 57 sec)
Heartbeat CPU 0 instructions: 460000003 cycles: 196125237 heartbeat IPC: 1.837 cumulative IPC: 2.237 (Simulation time: 00 hr 40 min 01 sec)
Heartbeat CPU 0 instructions: 470000004 cycles: 201567806 heartbeat IPC: 1.837 cumulative IPC: 2.226 (Simulation time: 00 hr 41 min 04 sec)
Heartbeat CPU 0 instructions: 480000001 cycles: 207064985 heartbeat IPC: 1.819 cumulative IPC: 2.214 (Simulation time: 00 hr 42 min 09 sec)
Heartbeat CPU 0 instructions: 490000001 cycles: 212505130 heartbeat IPC: 1.838 cumulative IPC: 2.204 (Simulation time: 00 hr 43 min 12 sec)
Heartbeat CPU 0 instructions: 500000001 cycles: 217890494 heartbeat IPC: 1.857 cumulative IPC: 2.195 (Simulation time: 00 hr 44 min 16 sec)
Heartbeat CPU 0 instructions: 510000002 cycles: 223275006 heartbeat IPC: 1.857 cumulative IPC: 2.186 (Simulation time: 00 hr 45 min 22 sec)
Heartbeat CPU 0 instructions: 520000001 cycles: 284477652 heartbeat IPC: 0.1634 cumulative IPC: 1.731 (Simulation time: 00 hr 53 min 51 sec)
Heartbeat CPU 0 instructions: 530000001 cycles: 410007969 heartbeat IPC: 0.07966 cumulative IPC: 1.209 (Simulation time: 01 hr 10 min 59 sec)
Heartbeat CPU 0 instructions: 540000001 cycles: 440559790 heartbeat IPC: 0.3273 cumulative IPC: 1.146 (Simulation time: 01 hr 15 min 28 sec)
Heartbeat CPU 0 instructions: 550000003 cycles: 472183598 heartbeat IPC: 0.3162 cumulative IPC: 1.089 (Simulation time: 01 hr 20 min 02 sec)
Heartbeat CPU 0 instructions: 560000001 cycles: 504070872 heartbeat IPC: 0.3136 cumulative IPC: 1.038 (Simulation time: 01 hr 24 min 39 sec)
Heartbeat CPU 0 instructions: 570000001 cycles: 536065731 heartbeat IPC: 0.3126 cumulative IPC: 0.9939 (Simulation time: 01 hr 29 min 20 sec)
Heartbeat CPU 0 instructions: 580000001 cycles: 565255384 heartbeat IPC: 0.3426 cumulative IPC: 0.9595 (Simulation time: 01 hr 33 min 38 sec)
Heartbeat CPU 0 instructions: 590000000 cycles: 594763111 heartbeat IPC: 0.3389 cumulative IPC: 0.928 (Simulation time: 01 hr 37 min 56 sec)
*** Reached end of trace: (0, "traces/bt.A.champsimtrace")
Heartbeat CPU 0 instructions: 600000002 cycles: 625040231 heartbeat IPC: 0.3303 cumulative IPC: 0.8985 (Simulation time: 01 hr 42 min 21 sec)
Heartbeat CPU 0 instructions: 610000004 cycles: 653497741 heartbeat IPC: 0.3514 cumulative IPC: 0.8742 (Simulation time: 01 hr 45 min 27 sec)
Heartbeat CPU 0 instructions: 620000000 cycles: 656000174 heartbeat IPC: 3.996 cumulative IPC: 0.8863 (Simulation time: 01 hr 46 min 08 sec)
Heartbeat CPU 0 instructions: 630000002 cycles: 658502586 heartbeat IPC: 3.996 cumulative IPC: 0.8984 (Simulation time: 01 hr 46 min 49 sec)
Heartbeat CPU 0 instructions: 640000000 cycles: 661004994 heartbeat IPC: 3.996 cumulative IPC: 0.9103 (Simulation time: 01 hr 47 min 28 sec)
Heartbeat CPU 0 instructions: 650000002 cycles: 663509746 heartbeat IPC: 3.992 cumulative IPC: 0.9222 (Simulation time: 01 hr 48 min 07 sec)
Simulation finished CPU 0 instructions: 600000002 cycles: 650628704 cumulative IPC: 0.9222 (Simulation time: 01 hr 48 min 07 sec)
Simulation complete CPU 0 instructions: 600000002 cycles: 650628704 cumulative IPC: 0.9222 (Simulation time: 01 hr 48 min 07 sec)

ChampSim completed all CPUs

=== Simulation ===
CPU 0 runs traces/bt.A.champsimtrace
Region of Interest Statistics

CPU 0 cumulative IPC: 0.9222 instructions: 600000002 cycles: 650628704
CPU 0 Branch Prediction Accuracy: 99.29% MPKI: 0.1288 Average ROB Occupancy at Mispredict: 279.2
Branch type MPKI
BRANCH_DIRECT_JUMP: 5e-06
BRANCH_INDIRECT: 7.83e-05
BRANCH_CONDITIONAL: 0.129
BRANCH_DIRECT_CALL: 6.67e-06
BRANCH_INDIRECT_CALL: 3.67e-05
BRANCH_RETURN: 2.33e-05

LLC TOTAL        ACCESS:    7760880 HIT:    3581571 MISS:    4179309
LLC LOAD         ACCESS:    2239972 HIT:    1350348 MISS:     889624
LLC RFO          ACCESS:     889446 HIT:      47383 MISS:     842063
LLC PREFETCH     ACCESS:    2639607 HIT:    1468833 MISS:    1170774
LLC WRITE        ACCESS:    1988488 HIT:     714773 MISS:    1273715
LLC TRANSLATION  ACCESS:       3367 HIT:        234 MISS:       3133
LLC PREFETCH REQUESTED:    2639607 ISSUED:    2639607 USEFUL:     962537 USELESS:      30460
LLC AVERAGE MISS LATENCY: 950.9 cycles
cpu0_DTLB TOTAL        ACCESS:  126496318 HIT:  125730180 MISS:     766138
cpu0_DTLB LOAD         ACCESS:  126496318 HIT:  125730180 MISS:     766138
cpu0_DTLB RFO          ACCESS:          0 HIT:          0 MISS:          0
cpu0_DTLB PREFETCH     ACCESS:          0 HIT:          0 MISS:          0
cpu0_DTLB WRITE        ACCESS:          0 HIT:          0 MISS:          0
cpu0_DTLB TRANSLATION  ACCESS:          0 HIT:          0 MISS:          0
cpu0_DTLB PREFETCH REQUESTED:          0 ISSUED:          0 USEFUL:          0 USELESS:          0
cpu0_DTLB AVERAGE MISS LATENCY: 14.19 cycles
cpu0_ITLB TOTAL        ACCESS:     143011 HIT:     142765 MISS:        246
cpu0_ITLB LOAD         ACCESS:     143011 HIT:     142765 MISS:        246
cpu0_ITLB RFO          ACCESS:          0 HIT:          0 MISS:          0
cpu0_ITLB PREFETCH     ACCESS:          0 HIT:          0 MISS:          0
cpu0_ITLB WRITE        ACCESS:          0 HIT:          0 MISS:          0
cpu0_ITLB TRANSLATION  ACCESS:          0 HIT:          0 MISS:          0
cpu0_ITLB PREFETCH REQUESTED:          0 ISSUED:          0 USEFUL:          0 USELESS:          0
cpu0_ITLB AVERAGE MISS LATENCY: 301 cycles
cpu0_L1D TOTAL        ACCESS:  194502479 HIT:  181686436 MISS:   12816043
cpu0_L1D LOAD         ACCESS:  159820333 HIT:  151170629 MISS:    8649704
cpu0_L1D RFO          ACCESS:          0 HIT:          0 MISS:          0
cpu0_L1D PREFETCH     ACCESS:          0 HIT:          0 MISS:          0
cpu0_L1D WRITE        ACCESS:   34635371 HIT:   30486096 MISS:    4149275
cpu0_L1D TRANSLATION  ACCESS:      46775 HIT:      29711 MISS:      17064
cpu0_L1D PREFETCH REQUESTED:          0 ISSUED:          0 USEFUL:          0 USELESS:          0
cpu0_L1D AVERAGE MISS LATENCY: 157.9 cycles
cpu0_L1I TOTAL        ACCESS:     192941 HIT:     190156 MISS:       2785
cpu0_L1I LOAD         ACCESS:     192941 HIT:     190156 MISS:       2785
cpu0_L1I RFO          ACCESS:          0 HIT:          0 MISS:          0
cpu0_L1I PREFETCH     ACCESS:          0 HIT:          0 MISS:          0
cpu0_L1I WRITE        ACCESS:          0 HIT:          0 MISS:          0
cpu0_L1I TRANSLATION  ACCESS:          0 HIT:          0 MISS:          0
cpu0_L1I PREFETCH REQUESTED:          0 ISSUED:          0 USEFUL:          0 USELESS:          0
cpu0_L1I AVERAGE MISS LATENCY: 562.4 cycles
cpu0_L2C TOTAL        ACCESS:    5259026 HIT:    2125775 MISS:    3133251
cpu0_L2C LOAD         ACCESS:    2352878 HIT:     112896 MISS:    2239982
cpu0_L2C RFO          ACCESS:     889974 HIT:        528 MISS:     889446
cpu0_L2C PREFETCH     ACCESS:          0 HIT:          0 MISS:          0
cpu0_L2C WRITE        ACCESS:    1999113 HIT:    1998657 MISS:        456
cpu0_L2C TRANSLATION  ACCESS:      17061 HIT:      13694 MISS:       3367
cpu0_L2C PREFETCH REQUESTED:          0 ISSUED:          0 USEFUL:          0 USELESS:          0
cpu0_L2C AVERAGE MISS LATENCY: 803.7 cycles
cpu0_STLB TOTAL        ACCESS:     310570 HIT:     263818 MISS:      46752
cpu0_STLB LOAD         ACCESS:     310570 HIT:     263818 MISS:      46752
cpu0_STLB RFO          ACCESS:          0 HIT:          0 MISS:          0
cpu0_STLB PREFETCH     ACCESS:          0 HIT:          0 MISS:          0
cpu0_STLB WRITE        ACCESS:          0 HIT:          0 MISS:          0
cpu0_STLB TRANSLATION  ACCESS:          0 HIT:          0 MISS:          0
cpu0_STLB PREFETCH REQUESTED:          0 ISSUED:          0 USEFUL:          0 USELESS:          0
cpu0_STLB AVERAGE MISS LATENCY: 314 cycles

DRAM Statistics

Channel 0 RQ ROW_BUFFER_HIT:     923882
  ROW_BUFFER_MISS:    1738220
 AVG DBUS CONGESTED CYCLE: 3.958
WQ ROW_BUFFER_HIT: Channel 0 
  ROW_BUFFER_MISS:     588328
  FULL:    1173933
