WARNING: physical memory size is smaller than virtual memory size.

*** ChampSim Multicore Out-of-Order Simulator ***
Warmup Instructions: 50000000
Simulation Instructions: 600000000
Number of CPUs: 1
Page size: 4096

Off-chip DRAM Size: 4 GiB Channels: 1 Width: 64-bit Data Race: 3200 MT/s
Heartbeat CPU 0 instructions: 10000000 cycles: 2881042 heartbeat IPC: 3.471 cumulative IPC: 3.471 (Simulation time: 00 hr 00 min 37 sec)
Heartbeat CPU 0 instructions: 20000000 cycles: 5381042 heartbeat IPC: 4 cumulative IPC: 3.717 (Simulation time: 00 hr 01 min 11 sec)
Heartbeat CPU 0 instructions: 30000000 cycles: 7881042 heartbeat IPC: 4 cumulative IPC: 3.807 (Simulation time: 00 hr 01 min 44 sec)
Heartbeat CPU 0 instructions: 40000000 cycles: 10381042 heartbeat IPC: 4 cumulative IPC: 3.853 (Simulation time: 00 hr 02 min 18 sec)
Heartbeat CPU 0 instructions: 50000000 cycles: 12881042 heartbeat IPC: 4 cumulative IPC: 3.882 (Simulation time: 00 hr 02 min 52 sec)
Warmup finished CPU 0 instructions: 50000000 cycles: 12881043 cumulative IPC: 3.882 (Simulation time: 00 hr 02 min 52 sec)
Warmup complete CPU 0 instructions: 50000000 cycles: 12881043 cumulative IPC: 3.882 (Simulation time: 00 hr 02 min 52 sec)
Heartbeat CPU 0 instructions: 60000004 cycles: 15383364 heartbeat IPC: 3.996 cumulative IPC: 3.996 (Simulation time: 00 hr 03 min 31 sec)
Heartbeat CPU 0 instructions: 70000002 cycles: 17885682 heartbeat IPC: 3.996 cumulative IPC: 3.996 (Simulation time: 00 hr 04 min 10 sec)
Heartbeat CPU 0 instructions: 80000002 cycles: 20387998 heartbeat IPC: 3.996 cumulative IPC: 3.996 (Simulation time: 00 hr 04 min 48 sec)
Heartbeat CPU 0 instructions: 90000004 cycles: 22890375 heartbeat IPC: 3.996 cumulative IPC: 3.996 (Simulation time: 00 hr 05 min 26 sec)
Heartbeat CPU 0 instructions: 100000000 cycles: 25392780 heartbeat IPC: 3.996 cumulative IPC: 3.996 (Simulation time: 00 hr 06 min 05 sec)
Heartbeat CPU 0 instructions: 110000002 cycles: 27895396 heartbeat IPC: 3.996 cumulative IPC: 3.996 (Simulation time: 00 hr 06 min 44 sec)
Heartbeat CPU 0 instructions: 120000000 cycles: 30400214 heartbeat IPC: 3.992 cumulative IPC: 3.996 (Simulation time: 00 hr 07 min 24 sec)
Heartbeat CPU 0 instructions: 130000002 cycles: 32902885 heartbeat IPC: 3.996 cumulative IPC: 3.996 (Simulation time: 00 hr 08 min 04 sec)
Heartbeat CPU 0 instructions: 140000004 cycles: 35405519 heartbeat IPC: 3.996 cumulative IPC: 3.996 (Simulation time: 00 hr 08 min 43 sec)
Heartbeat CPU 0 instructions: 150000000 cycles: 37908941 heartbeat IPC: 3.995 cumulative IPC: 3.996 (Simulation time: 00 hr 09 min 21 sec)
Heartbeat CPU 0 instructions: 160000003 cycles: 40411348 heartbeat IPC: 3.996 cumulative IPC: 3.996 (Simulation time: 00 hr 10 min 00 sec)
Heartbeat CPU 0 instructions: 170000002 cycles: 42914340 heartbeat IPC: 3.995 cumulative IPC: 3.996 (Simulation time: 00 hr 10 min 38 sec)
Heartbeat CPU 0 instructions: 180000000 cycles: 45417020 heartbeat IPC: 3.996 cumulative IPC: 3.996 (Simulation time: 00 hr 11 min 17 sec)
Heartbeat CPU 0 instructions: 190000003 cycles: 47919992 heartbeat IPC: 3.995 cumulative IPC: 3.996 (Simulation time: 00 hr 11 min 57 sec)
Heartbeat CPU 0 instructions: 200000000 cycles: 50422443 heartbeat IPC: 3.996 cumulative IPC: 3.996 (Simulation time: 00 hr 12 min 38 sec)
Heartbeat CPU 0 instructions: 210000000 cycles: 52926077 heartbeat IPC: 3.994 cumulative IPC: 3.996 (Simulation time: 00 hr 13 min 19 sec)
Heartbeat CPU 0 instructions: 220000003 cycles: 55428684 heartbeat IPC: 3.996 cumulative IPC: 3.996 (Simulation time: 00 hr 14 min 02 sec)
Heartbeat CPU 0 instructions: 230000001 cycles: 88942595 heartbeat IPC: 0.2984 cumulative IPC: 2.367 (Simulation time: 00 hr 17 min 47 sec)
Heartbeat CPU 0 instructions: 240000002 cycles: 94832500 heartbeat IPC: 1.698 cumulative IPC: 2.318 (Simulation time: 00 hr 18 min 56 sec)
Heartbeat CPU 0 instructions: 250000000 cycles: 100849153 heartbeat IPC: 1.662 cumulative IPC: 2.274 (Simulation time: 00 hr 20 min 05 sec)
Heartbeat CPU 0 instructions: 260000004 cycles: 106899623 heartbeat IPC: 1.653 cumulative IPC: 2.234 (Simulation time: 00 hr 21 min 17 sec)
Heartbeat CPU 0 instructions: 270000003 cycles: 112888920 heartbeat IPC: 1.67 cumulative IPC: 2.2 (Simulation time: 00 hr 22 min 28 sec)
Heartbeat CPU 0 instructions: 280000001 cycles: 118950183 heartbeat IPC: 1.65 cumulative IPC: 2.168 (Simulation time: 00 hr 23 min 38 sec)
Heartbeat CPU 0 instructions: 290000000 cycles: 124951988 heartbeat IPC: 1.666 cumulative IPC: 2.142 (Simulation time: 00 hr 24 min 49 sec)
Heartbeat CPU 0 instructions: 300000003 cycles: 130990744 heartbeat IPC: 1.656 cumulative IPC: 2.117 (Simulation time: 00 hr 26 min 01 sec)
Heartbeat CPU 0 instructions: 310000001 cycles: 137005160 heartbeat IPC: 1.663 cumulative IPC: 2.095 (Simulation time: 00 hr 27 min 11 sec)
Heartbeat CPU 0 instructions: 320000002 cycles: 143040680 heartbeat IPC: 1.657 cumulative IPC: 2.074 (Simulation time: 00 hr 28 min 21 sec)
Heartbeat CPU 0 instructions: 330000000 cycles: 150012741 heartbeat IPC: 1.434 cumulative IPC: 2.042 (Simulation time: 00 hr 29 min 38 sec)
Heartbeat CPU 0 instructions: 340000002 cycles: 156864531 heartbeat IPC: 1.459 cumulative IPC: 2.014 (Simulation time: 00 hr 30 min 54 sec)
Heartbeat CPU 0 instructions: 350000002 cycles: 163733905 heartbeat IPC: 1.456 cumulative IPC: 1.989 (Simulation time: 00 hr 32 min 09 sec)
Heartbeat CPU 0 instructions: 360000000 cycles: 170611948 heartbeat IPC: 1.454 cumulative IPC: 1.965 (Simulation time: 00 hr 33 min 23 sec)
Heartbeat CPU 0 instructions: 370000001 cycles: 177487175 heartbeat IPC: 1.454 cumulative IPC: 1.944 (Simulation time: 00 hr 34 min 40 sec)
Heartbeat CPU 0 instructions: 380000003 cycles: 184426935 heartbeat IPC: 1.441 cumulative IPC: 1.924 (Simulation time: 00 hr 35 min 57 sec)
Heartbeat CPU 0 instructions: 390000004 cycles: 191250499 heartbeat IPC: 1.466 cumulative IPC: 1.906 (Simulation time: 00 hr 37 min 11 sec)
Heartbeat CPU 0 instructions: 400000000 cycles: 198232697 heartbeat IPC: 1.432 cumulative IPC: 1.888 (Simulation time: 00 hr 38 min 26 sec)
Heartbeat CPU 0 instructions: 410000003 cycles: 205052936 heartbeat IPC: 1.466 cumulative IPC: 1.873 (Simulation time: 00 hr 39 min 42 sec)
Heartbeat CPU 0 instructions: 420000000 cycles: 211912139 heartbeat IPC: 1.458 cumulative IPC: 1.859 (Simulation time: 00 hr 40 min 58 sec)
Heartbeat CPU 0 instructions: 430000002 cycles: 218956504 heartbeat IPC: 1.42 cumulative IPC: 1.844 (Simulation time: 00 hr 42 min 15 sec)
Heartbeat CPU 0 instructions: 440000002 cycles: 226341235 heartbeat IPC: 1.354 cumulative IPC: 1.827 (Simulation time: 00 hr 43 min 39 sec)
Heartbeat CPU 0 instructions: 450000000 cycles: 233614875 heartbeat IPC: 1.375 cumulative IPC: 1.812 (Simulation time: 00 hr 45 min 01 sec)
Heartbeat CPU 0 instructions: 460000003 cycles: 240924886 heartbeat IPC: 1.368 cumulative IPC: 1.798 (Simulation time: 00 hr 46 min 20 sec)
Heartbeat CPU 0 instructions: 470000004 cycles: 248267035 heartbeat IPC: 1.362 cumulative IPC: 1.784 (Simulation time: 00 hr 47 min 39 sec)
Heartbeat CPU 0 instructions: 480000000 cycles: 255674374 heartbeat IPC: 1.35 cumulative IPC: 1.771 (Simulation time: 00 hr 49 min 00 sec)
Heartbeat CPU 0 instructions: 490000001 cycles: 263040587 heartbeat IPC: 1.358 cumulative IPC: 1.759 (Simulation time: 00 hr 50 min 21 sec)
Heartbeat CPU 0 instructions: 500000001 cycles: 270441429 heartbeat IPC: 1.351 cumulative IPC: 1.747 (Simulation time: 00 hr 51 min 41 sec)
Heartbeat CPU 0 instructions: 510000002 cycles: 277805045 heartbeat IPC: 1.358 cumulative IPC: 1.736 (Simulation time: 00 hr 53 min 00 sec)
Heartbeat CPU 0 instructions: 520000000 cycles: 336167860 heartbeat IPC: 0.1713 cumulative IPC: 1.454 (Simulation time: 01 hr 00 min 58 sec)
Heartbeat CPU 0 instructions: 530000001 cycles: 447705252 heartbeat IPC: 0.08966 cumulative IPC: 1.104 (Simulation time: 01 hr 16 min 03 sec)
Heartbeat CPU 0 instructions: 540000001 cycles: 473800064 heartbeat IPC: 0.3832 cumulative IPC: 1.063 (Simulation time: 01 hr 19 min 56 sec)
Heartbeat CPU 0 instructions: 550000003 cycles: 507856336 heartbeat IPC: 0.2936 cumulative IPC: 1.01 (Simulation time: 01 hr 24 min 56 sec)
Heartbeat CPU 0 instructions: 560000004 cycles: 545730166 heartbeat IPC: 0.264 cumulative IPC: 0.9571 (Simulation time: 01 hr 30 min 19 sec)
Heartbeat CPU 0 instructions: 570000001 cycles: 583749616 heartbeat IPC: 0.263 cumulative IPC: 0.9109 (Simulation time: 01 hr 35 min 46 sec)
Heartbeat CPU 0 instructions: 580000002 cycles: 610504797 heartbeat IPC: 0.3738 cumulative IPC: 0.8868 (Simulation time: 01 hr 39 min 51 sec)
Heartbeat CPU 0 instructions: 590000001 cycles: 638644570 heartbeat IPC: 0.3554 cumulative IPC: 0.8629 (Simulation time: 01 hr 44 min 04 sec)
*** Reached end of trace: (0, "traces/bt.A.champsimtrace")
Heartbeat CPU 0 instructions: 600000002 cycles: 676781298 heartbeat IPC: 0.2622 cumulative IPC: 0.8284 (Simulation time: 01 hr 49 min 36 sec)
Heartbeat CPU 0 instructions: 610000004 cycles: 696779776 heartbeat IPC: 0.5 cumulative IPC: 0.8188 (Simulation time: 01 hr 51 min 55 sec)
Heartbeat CPU 0 instructions: 620000000 cycles: 699282106 heartbeat IPC: 3.996 cumulative IPC: 0.8304 (Simulation time: 01 hr 52 min 36 sec)
Heartbeat CPU 0 instructions: 630000002 cycles: 701784424 heartbeat IPC: 3.996 cumulative IPC: 0.8419 (Simulation time: 01 hr 53 min 16 sec)
Heartbeat CPU 0 instructions: 640000000 cycles: 704286742 heartbeat IPC: 3.996 cumulative IPC: 0.8533 (Simulation time: 01 hr 53 min 56 sec)
Heartbeat CPU 0 instructions: 650000002 cycles: 706789049 heartbeat IPC: 3.996 cumulative IPC: 0.8647 (Simulation time: 01 hr 54 min 37 sec)
Simulation finished CPU 0 instructions: 600000002 cycles: 693908007 cumulative IPC: 0.8647 (Simulation time: 01 hr 54 min 37 sec)
Simulation complete CPU 0 instructions: 600000002 cycles: 693908007 cumulative IPC: 0.8647 (Simulation time: 01 hr 54 min 37 sec)

ChampSim completed all CPUs

=== Simulation ===
CPU 0 runs traces/bt.A.champsimtrace
Region of Interest Statistics

CPU 0 cumulative IPC: 0.8647 instructions: 600000002 cycles: 693908007
CPU 0 Branch Prediction Accuracy: 99.29% MPKI: 0.1296 Average ROB Occupancy at Mispredict: 279.8
Branch type MPKI
BRANCH_DIRECT_JUMP: 5e-06
BRANCH_INDIRECT: 7.83e-05
BRANCH_CONDITIONAL: 0.129
BRANCH_DIRECT_CALL: 6.67e-06
BRANCH_INDIRECT_CALL: 3.67e-05
BRANCH_RETURN: 2.33e-05

LLC TOTAL        ACCESS:    5121243 HIT:    1346764 MISS:    3774479
LLC LOAD         ACCESS:    2240116 HIT:     510249 MISS:    1729867
LLC RFO          ACCESS:     889449 HIT:     129203 MISS:     760246
LLC PREFETCH     ACCESS:          0 HIT:          0 MISS:          0
LLC WRITE        ACCESS:    1988302 HIT:     707075 MISS:    1281227
LLC TRANSLATION  ACCESS:       3376 HIT:        237 MISS:       3139
LLC PREFETCH REQUESTED:          0 ISSUED:          0 USEFUL:          0 USELESS:          0
LLC AVERAGE MISS LATENCY: 807.1 cycles
cpu0_DTLB TOTAL        ACCESS:  126366739 HIT:  125601370 MISS:     765369
cpu0_DTLB LOAD         ACCESS:  126366739 HIT:  125601370 MISS:     765369
cpu0_DTLB RFO          ACCESS:          0 HIT:          0 MISS:          0
cpu0_DTLB PREFETCH     ACCESS:          0 HIT:          0 MISS:          0
cpu0_DTLB WRITE        ACCESS:          0 HIT:          0 MISS:          0
cpu0_DTLB TRANSLATION  ACCESS:          0 HIT:          0 MISS:          0
cpu0_DTLB PREFETCH REQUESTED:          0 ISSUED:          0 USEFUL:          0 USELESS:          0
cpu0_DTLB AVERAGE MISS LATENCY: 15.57 cycles
cpu0_ITLB TOTAL        ACCESS:     144583 HIT:     144341 MISS:        242
cpu0_ITLB LOAD         ACCESS:     144583 HIT:     144341 MISS:        242
cpu0_ITLB RFO          ACCESS:          0 HIT:          0 MISS:          0
cpu0_ITLB PREFETCH     ACCESS:          0 HIT:          0 MISS:          0
cpu0_ITLB WRITE        ACCESS:          0 HIT:          0 MISS:          0
cpu0_ITLB TRANSLATION  ACCESS:          0 HIT:          0 MISS:          0
cpu0_ITLB PREFETCH REQUESTED:          0 ISSUED:          0 USEFUL:          0 USELESS:          0
cpu0_ITLB AVERAGE MISS LATENCY: 291.5 cycles
cpu0_L1D TOTAL        ACCESS:  193762522 HIT:  180198723 MISS:   13563799
cpu0_L1D LOAD         ACCESS:  159080277 HIT:  149566748 MISS:    9513529
cpu0_L1D RFO          ACCESS:          0 HIT:          0 MISS:          0
cpu0_L1D PREFETCH     ACCESS:          0 HIT:          0 MISS:          0
cpu0_L1D WRITE        ACCESS:   34635470 HIT:   30602279 MISS:    4033191
cpu0_L1D TRANSLATION  ACCESS:      46775 HIT:      29696 MISS:      17079
cpu0_L1D PREFETCH REQUESTED:          0 ISSUED:          0 USEFUL:          0 USELESS:          0
cpu0_L1D AVERAGE MISS LATENCY: 171.8 cycles
cpu0_L1I TOTAL        ACCESS:     194230 HIT:     191441 MISS:       2789
cpu0_L1I LOAD         ACCESS:     194230 HIT:     191441 MISS:       2789
cpu0_L1I RFO          ACCESS:          0 HIT:          0 MISS:          0
cpu0_L1I PREFETCH     ACCESS:          0 HIT:          0 MISS:          0
cpu0_L1I WRITE        ACCESS:          0 HIT:          0 MISS:          0
cpu0_L1I TRANSLATION  ACCESS:          0 HIT:          0 MISS:          0
cpu0_L1I PREFETCH REQUESTED:          0 ISSUED:          0 USEFUL:          0 USELESS:          0
cpu0_L1I AVERAGE MISS LATENCY: 542.8 cycles
cpu0_L2C TOTAL        ACCESS:    5270445 HIT:    2137033 MISS:    3133412
cpu0_L2C LOAD         ACCESS:    2364290 HIT:     124157 MISS:    2240133
cpu0_L2C RFO          ACCESS:     889976 HIT:        527 MISS:     889449
cpu0_L2C PREFETCH     ACCESS:          0 HIT:          0 MISS:          0
cpu0_L2C WRITE        ACCESS:    1999104 HIT:    1998650 MISS:        454
cpu0_L2C TRANSLATION  ACCESS:      17075 HIT:      13699 MISS:       3376
cpu0_L2C PREFETCH REQUESTED:          0 ISSUED:          0 USEFUL:          0 USELESS:          0
cpu0_L2C AVERAGE MISS LATENCY: 993 cycles
cpu0_STLB TOTAL        ACCESS:     311285 HIT:     264533 MISS:      46752
cpu0_STLB LOAD         ACCESS:     311285 HIT:     264533 MISS:      46752
cpu0_STLB RFO          ACCESS:          0 HIT:          0 MISS:          0
cpu0_STLB PREFETCH     ACCESS:          0 HIT:          0 MISS:          0
cpu0_STLB WRITE        ACCESS:          0 HIT:          0 MISS:          0
cpu0_STLB TRANSLATION  ACCESS:          0 HIT:          0 MISS:          0
cpu0_STLB PREFETCH REQUESTED:          0 ISSUED:          0 USEFUL:          0 USELESS:          0
cpu0_STLB AVERAGE MISS LATENCY: 346.9 cycles

DRAM Statistics

Channel 0 RQ ROW_BUFFER_HIT:     724631
  ROW_BUFFER_MISS:    1767370
 AVG DBUS CONGESTED CYCLE: 3.969
WQ ROW_BUFFER_HIT: Channel 0 
  ROW_BUFFER_MISS:     650417
  FULL:    1103523
