WARNING: physical memory size is smaller than virtual memory size.

*** ChampSim Multicore Out-of-Order Simulator ***
Warmup Instructions: 50000000
Simulation Instructions: 600000000
Number of CPUs: 1
Page size: 4096

CPU 0 Tage branch predictor
Off-chip DRAM Size: 4 GiB Channels: 1 Width: 64-bit Data Race: 3200 MT/s
Heartbeat CPU 0 instructions: 10000000 cycles: 2881040 heartbeat IPC: 3.471 cumulative IPC: 3.471 (Simulation time: 00 hr 00 min 42 sec)
Heartbeat CPU 0 instructions: 20000000 cycles: 5381040 heartbeat IPC: 4 cumulative IPC: 3.717 (Simulation time: 00 hr 01 min 20 sec)
Heartbeat CPU 0 instructions: 30000000 cycles: 7881040 heartbeat IPC: 4 cumulative IPC: 3.807 (Simulation time: 00 hr 01 min 58 sec)
Heartbeat CPU 0 instructions: 40000000 cycles: 10381040 heartbeat IPC: 4 cumulative IPC: 3.853 (Simulation time: 00 hr 02 min 36 sec)
Heartbeat CPU 0 instructions: 50000000 cycles: 12881040 heartbeat IPC: 4 cumulative IPC: 3.882 (Simulation time: 00 hr 03 min 14 sec)
Warmup finished CPU 0 instructions: 50000000 cycles: 12881041 cumulative IPC: 3.882 (Simulation time: 00 hr 03 min 14 sec)
Warmup complete CPU 0 instructions: 50000000 cycles: 12881041 cumulative IPC: 3.882 (Simulation time: 00 hr 03 min 14 sec)
Heartbeat CPU 0 instructions: 60000004 cycles: 15381074 heartbeat IPC: 4 cumulative IPC: 4 (Simulation time: 00 hr 03 min 59 sec)
Heartbeat CPU 0 instructions: 70000002 cycles: 17881105 heartbeat IPC: 4 cumulative IPC: 4 (Simulation time: 00 hr 04 min 44 sec)
Heartbeat CPU 0 instructions: 80000001 cycles: 20381133 heartbeat IPC: 4 cumulative IPC: 4 (Simulation time: 00 hr 05 min 29 sec)
Heartbeat CPU 0 instructions: 90000004 cycles: 22881209 heartbeat IPC: 4 cumulative IPC: 4 (Simulation time: 00 hr 06 min 14 sec)
Heartbeat CPU 0 instructions: 100000000 cycles: 25381475 heartbeat IPC: 4 cumulative IPC: 4 (Simulation time: 00 hr 07 min 01 sec)
Heartbeat CPU 0 instructions: 110000002 cycles: 27881596 heartbeat IPC: 4 cumulative IPC: 4 (Simulation time: 00 hr 07 min 48 sec)
Heartbeat CPU 0 instructions: 120000000 cycles: 30383351 heartbeat IPC: 3.997 cumulative IPC: 3.999 (Simulation time: 00 hr 08 min 34 sec)
Heartbeat CPU 0 instructions: 130000002 cycles: 32885762 heartbeat IPC: 3.996 cumulative IPC: 3.999 (Simulation time: 00 hr 09 min 19 sec)
Heartbeat CPU 0 instructions: 140000004 cycles: 35385883 heartbeat IPC: 4 cumulative IPC: 3.999 (Simulation time: 00 hr 10 min 03 sec)
Heartbeat CPU 0 instructions: 150000000 cycles: 37886137 heartbeat IPC: 4 cumulative IPC: 3.999 (Simulation time: 00 hr 10 min 47 sec)
Heartbeat CPU 0 instructions: 160000003 cycles: 40387136 heartbeat IPC: 3.998 cumulative IPC: 3.999 (Simulation time: 00 hr 11 min 31 sec)
Heartbeat CPU 0 instructions: 170000002 cycles: 42889007 heartbeat IPC: 3.997 cumulative IPC: 3.999 (Simulation time: 00 hr 12 min 16 sec)
Heartbeat CPU 0 instructions: 180000000 cycles: 45389477 heartbeat IPC: 3.999 cumulative IPC: 3.999 (Simulation time: 00 hr 13 min 00 sec)
Heartbeat CPU 0 instructions: 190000003 cycles: 47890455 heartbeat IPC: 3.998 cumulative IPC: 3.999 (Simulation time: 00 hr 13 min 44 sec)
Heartbeat CPU 0 instructions: 200000000 cycles: 50391959 heartbeat IPC: 3.998 cumulative IPC: 3.999 (Simulation time: 00 hr 14 min 28 sec)
Heartbeat CPU 0 instructions: 210000000 cycles: 52892655 heartbeat IPC: 3.999 cumulative IPC: 3.999 (Simulation time: 00 hr 15 min 12 sec)
Heartbeat CPU 0 instructions: 220000003 cycles: 55392843 heartbeat IPC: 4 cumulative IPC: 3.999 (Simulation time: 00 hr 15 min 55 sec)
Heartbeat CPU 0 instructions: 230000002 cycles: 88726278 heartbeat IPC: 0.3 cumulative IPC: 2.373 (Simulation time: 00 hr 19 min 47 sec)
Heartbeat CPU 0 instructions: 240000002 cycles: 92998438 heartbeat IPC: 2.341 cumulative IPC: 2.372 (Simulation time: 00 hr 20 min 49 sec)
Heartbeat CPU 0 instructions: 250000000 cycles: 97319724 heartbeat IPC: 2.314 cumulative IPC: 2.369 (Simulation time: 00 hr 21 min 52 sec)
Heartbeat CPU 0 instructions: 260000004 cycles: 101635412 heartbeat IPC: 2.317 cumulative IPC: 2.366 (Simulation time: 00 hr 22 min 55 sec)
Heartbeat CPU 0 instructions: 270000003 cycles: 105943964 heartbeat IPC: 2.321 cumulative IPC: 2.364 (Simulation time: 00 hr 23 min 58 sec)
Heartbeat CPU 0 instructions: 280000003 cycles: 110293792 heartbeat IPC: 2.299 cumulative IPC: 2.361 (Simulation time: 00 hr 25 min 00 sec)
Heartbeat CPU 0 instructions: 290000002 cycles: 114648844 heartbeat IPC: 2.296 cumulative IPC: 2.358 (Simulation time: 00 hr 26 min 03 sec)
Heartbeat CPU 0 instructions: 300000003 cycles: 118994490 heartbeat IPC: 2.301 cumulative IPC: 2.356 (Simulation time: 00 hr 27 min 08 sec)
Heartbeat CPU 0 instructions: 310000002 cycles: 123287564 heartbeat IPC: 2.329 cumulative IPC: 2.355 (Simulation time: 00 hr 28 min 12 sec)
Heartbeat CPU 0 instructions: 320000004 cycles: 127628151 heartbeat IPC: 2.304 cumulative IPC: 2.353 (Simulation time: 00 hr 29 min 15 sec)
Heartbeat CPU 0 instructions: 330000004 cycles: 131878279 heartbeat IPC: 2.353 cumulative IPC: 2.353 (Simulation time: 00 hr 30 min 16 sec)
Heartbeat CPU 0 instructions: 340000002 cycles: 135203771 heartbeat IPC: 3.007 cumulative IPC: 2.371 (Simulation time: 00 hr 31 min 10 sec)
Heartbeat CPU 0 instructions: 350000002 cycles: 138577981 heartbeat IPC: 2.964 cumulative IPC: 2.387 (Simulation time: 00 hr 32 min 03 sec)
Heartbeat CPU 0 instructions: 360000000 cycles: 142083681 heartbeat IPC: 2.852 cumulative IPC: 2.399 (Simulation time: 00 hr 33 min 00 sec)
Heartbeat CPU 0 instructions: 370000001 cycles: 145423673 heartbeat IPC: 2.994 cumulative IPC: 2.414 (Simulation time: 00 hr 33 min 53 sec)
Heartbeat CPU 0 instructions: 380000003 cycles: 148955649 heartbeat IPC: 2.831 cumulative IPC: 2.425 (Simulation time: 00 hr 34 min 50 sec)
Heartbeat CPU 0 instructions: 390000002 cycles: 152255873 heartbeat IPC: 3.03 cumulative IPC: 2.439 (Simulation time: 00 hr 35 min 44 sec)
Heartbeat CPU 0 instructions: 400000000 cycles: 155692505 heartbeat IPC: 2.91 cumulative IPC: 2.451 (Simulation time: 00 hr 36 min 39 sec)
Heartbeat CPU 0 instructions: 410000002 cycles: 159052322 heartbeat IPC: 2.976 cumulative IPC: 2.463 (Simulation time: 00 hr 37 min 33 sec)
Heartbeat CPU 0 instructions: 420000001 cycles: 162575701 heartbeat IPC: 2.838 cumulative IPC: 2.472 (Simulation time: 00 hr 38 min 30 sec)
Heartbeat CPU 0 instructions: 430000001 cycles: 166292366 heartbeat IPC: 2.691 cumulative IPC: 2.477 (Simulation time: 00 hr 39 min 29 sec)
Heartbeat CPU 0 instructions: 440000002 cycles: 170034330 heartbeat IPC: 2.672 cumulative IPC: 2.482 (Simulation time: 00 hr 40 min 27 sec)
Heartbeat CPU 0 instructions: 450000000 cycles: 173688485 heartbeat IPC: 2.737 cumulative IPC: 2.487 (Simulation time: 00 hr 41 min 22 sec)
Heartbeat CPU 0 instructions: 460000003 cycles: 177478227 heartbeat IPC: 2.639 cumulative IPC: 2.491 (Simulation time: 00 hr 42 min 19 sec)
Heartbeat CPU 0 instructions: 470000004 cycles: 181160523 heartbeat IPC: 2.716 cumulative IPC: 2.496 (Simulation time: 00 hr 43 min 18 sec)
Heartbeat CPU 0 instructions: 480000000 cycles: 184969859 heartbeat IPC: 2.625 cumulative IPC: 2.499 (Simulation time: 00 hr 44 min 16 sec)
Heartbeat CPU 0 instructions: 490000001 cycles: 188593378 heartbeat IPC: 2.76 cumulative IPC: 2.504 (Simulation time: 00 hr 45 min 12 sec)
Heartbeat CPU 0 instructions: 500000000 cycles: 192329226 heartbeat IPC: 2.677 cumulative IPC: 2.508 (Simulation time: 00 hr 46 min 10 sec)
Heartbeat CPU 0 instructions: 510000002 cycles: 195895452 heartbeat IPC: 2.804 cumulative IPC: 2.513 (Simulation time: 00 hr 47 min 04 sec)
Heartbeat CPU 0 instructions: 520000000 cycles: 251954262 heartbeat IPC: 0.1784 cumulative IPC: 1.966 (Simulation time: 00 hr 54 min 57 sec)
Heartbeat CPU 0 instructions: 530000000 cycles: 371236846 heartbeat IPC: 0.08383 cumulative IPC: 1.339 (Simulation time: 01 hr 11 min 21 sec)
Heartbeat CPU 0 instructions: 540000002 cycles: 395264124 heartbeat IPC: 0.4162 cumulative IPC: 1.281 (Simulation time: 01 hr 15 min 03 sec)
Heartbeat CPU 0 instructions: 550000003 cycles: 428074848 heartbeat IPC: 0.3048 cumulative IPC: 1.204 (Simulation time: 01 hr 19 min 57 sec)
Heartbeat CPU 0 instructions: 560000001 cycles: 464373846 heartbeat IPC: 0.2755 cumulative IPC: 1.13 (Simulation time: 01 hr 25 min 20 sec)
Heartbeat CPU 0 instructions: 570000001 cycles: 500642824 heartbeat IPC: 0.2757 cumulative IPC: 1.066 (Simulation time: 01 hr 30 min 41 sec)
Heartbeat CPU 0 instructions: 580000002 cycles: 526111529 heartbeat IPC: 0.3926 cumulative IPC: 1.033 (Simulation time: 01 hr 34 min 38 sec)
Heartbeat CPU 0 instructions: 590000001 cycles: 552639519 heartbeat IPC: 0.377 cumulative IPC: 1 (Simulation time: 01 hr 38 min 38 sec)
*** Reached end of trace: (0, "traces/bt.A.champsimtrace")
Heartbeat CPU 0 instructions: 600000001 cycles: 589506904 heartbeat IPC: 0.2712 cumulative IPC: 0.9538 (Simulation time: 01 hr 44 min 02 sec)
Heartbeat CPU 0 instructions: 610000004 cycles: 609916224 heartbeat IPC: 0.49 cumulative IPC: 0.938 (Simulation time: 01 hr 46 min 28 sec)
Heartbeat CPU 0 instructions: 620000000 cycles: 612416255 heartbeat IPC: 4 cumulative IPC: 0.9507 (Simulation time: 01 hr 47 min 12 sec)
Heartbeat CPU 0 instructions: 630000002 cycles: 614916286 heartbeat IPC: 4 cumulative IPC: 0.9634 (Simulation time: 01 hr 47 min 57 sec)
Heartbeat CPU 0 instructions: 640000001 cycles: 617416317 heartbeat IPC: 4 cumulative IPC: 0.976 (Simulation time: 01 hr 48 min 44 sec)
Heartbeat CPU 0 instructions: 650000002 cycles: 619916336 heartbeat IPC: 4 cumulative IPC: 0.9884 (Simulation time: 01 hr 49 min 31 sec)
Simulation finished CPU 0 instructions: 600000002 cycles: 607035296 cumulative IPC: 0.9884 (Simulation time: 01 hr 49 min 31 sec)
Simulation complete CPU 0 instructions: 600000002 cycles: 607035296 cumulative IPC: 0.9884 (Simulation time: 01 hr 49 min 31 sec)

ChampSim completed all CPUs

=== Simulation ===
CPU 0 runs traces/bt.A.champsimtrace
Region of Interest Statistics

CPU 0 cumulative IPC: 0.9884 instructions: 600000002 cycles: 607035296
CPU 0 Branch Prediction Accuracy: 99.98% MPKI: 0.004168 Average ROB Occupancy at Mispredict: 112.2
Branch type MPKI
BRANCH_DIRECT_JUMP: 5e-06
BRANCH_INDIRECT: 7.83e-05
BRANCH_CONDITIONAL: 0.00402
BRANCH_DIRECT_CALL: 6.67e-06
BRANCH_INDIRECT_CALL: 3.67e-05
BRANCH_RETURN: 2.33e-05

LLC TOTAL        ACCESS:    7361449 HIT:    2721772 MISS:    4639677
LLC LOAD         ACCESS:    2240109 HIT:    1145712 MISS:    1094397
LLC RFO          ACCESS:     889446 HIT:     116852 MISS:     772594
LLC PREFETCH     ACCESS:    2240182 HIT:     497060 MISS:    1743122
LLC WRITE        ACCESS:    1988335 HIT:     961807 MISS:    1026528
LLC TRANSLATION  ACCESS:       3377 HIT:        341 MISS:       3036
LLC PREFETCH REQUESTED:    2241874 ISSUED:    2240182 USEFUL:    1378089 USELESS:      35165
LLC AVERAGE MISS LATENCY: 923.4 cycles
cpu0_DTLB TOTAL        ACCESS:  129120169 HIT:  128355790 MISS:     764379
cpu0_DTLB LOAD         ACCESS:  129120169 HIT:  128355790 MISS:     764379
cpu0_DTLB RFO          ACCESS:          0 HIT:          0 MISS:          0
cpu0_DTLB PREFETCH     ACCESS:          0 HIT:          0 MISS:          0
cpu0_DTLB WRITE        ACCESS:          0 HIT:          0 MISS:          0
cpu0_DTLB TRANSLATION  ACCESS:          0 HIT:          0 MISS:          0
cpu0_DTLB PREFETCH REQUESTED:          0 ISSUED:          0 USEFUL:          0 USELESS:          0
cpu0_DTLB AVERAGE MISS LATENCY: 16.4 cycles
cpu0_ITLB TOTAL        ACCESS:     171892 HIT:     171637 MISS:        255
cpu0_ITLB LOAD         ACCESS:     171892 HIT:     171637 MISS:        255
cpu0_ITLB RFO          ACCESS:          0 HIT:          0 MISS:          0
cpu0_ITLB PREFETCH     ACCESS:          0 HIT:          0 MISS:          0
cpu0_ITLB WRITE        ACCESS:          0 HIT:          0 MISS:          0
cpu0_ITLB TRANSLATION  ACCESS:          0 HIT:          0 MISS:          0
cpu0_ITLB PREFETCH REQUESTED:          0 ISSUED:          0 USEFUL:          0 USELESS:          0
cpu0_ITLB AVERAGE MISS LATENCY: 322.8 cycles
cpu0_L1D TOTAL        ACCESS:  197504097 HIT:  184375927 MISS:   13128170
cpu0_L1D LOAD         ACCESS:  162821881 HIT:  153753474 MISS:    9068407
cpu0_L1D RFO          ACCESS:          0 HIT:          0 MISS:          0
cpu0_L1D PREFETCH     ACCESS:          0 HIT:          0 MISS:          0
cpu0_L1D WRITE        ACCESS:   34635442 HIT:   30592748 MISS:    4042694
cpu0_L1D TRANSLATION  ACCESS:      46774 HIT:      29705 MISS:      17069
cpu0_L1D PREFETCH REQUESTED:          0 ISSUED:          0 USEFUL:          0 USELESS:          0
cpu0_L1D AVERAGE MISS LATENCY: 153.4 cycles
cpu0_L1I TOTAL        ACCESS:     204045 HIT:     201096 MISS:       2949
cpu0_L1I LOAD         ACCESS:     204045 HIT:     201096 MISS:       2949
cpu0_L1I RFO          ACCESS:          0 HIT:          0 MISS:          0
cpu0_L1I PREFETCH     ACCESS:          0 HIT:          0 MISS:          0
cpu0_L1I WRITE        ACCESS:          0 HIT:          0 MISS:          0
cpu0_L1I TRANSLATION  ACCESS:          0 HIT:          0 MISS:          0
cpu0_L1I PREFETCH REQUESTED:          0 ISSUED:          0 USEFUL:          0 USELESS:          0
cpu0_L1I AVERAGE MISS LATENCY: 512.7 cycles
cpu0_L2C TOTAL        ACCESS:    5263979 HIT:    2130569 MISS:    3133410
cpu0_L2C LOAD         ACCESS:    2357849 HIT:     117718 MISS:    2240131
cpu0_L2C RFO          ACCESS:     889976 HIT:        530 MISS:     889446
cpu0_L2C PREFETCH     ACCESS:          0 HIT:          0 MISS:          0
cpu0_L2C WRITE        ACCESS:    1999087 HIT:    1998631 MISS:        456
cpu0_L2C TRANSLATION  ACCESS:      17067 HIT:      13690 MISS:       3377
cpu0_L2C PREFETCH REQUESTED:          0 ISSUED:          0 USEFUL:          0 USELESS:          0
cpu0_L2C AVERAGE MISS LATENCY: 834.8 cycles
cpu0_STLB TOTAL        ACCESS:     314625 HIT:     267873 MISS:      46752
cpu0_STLB LOAD         ACCESS:     314625 HIT:     267873 MISS:      46752
cpu0_STLB RFO          ACCESS:          0 HIT:          0 MISS:          0
cpu0_STLB PREFETCH     ACCESS:          0 HIT:          0 MISS:          0
cpu0_STLB WRITE        ACCESS:          0 HIT:          0 MISS:          0
cpu0_STLB TRANSLATION  ACCESS:          0 HIT:          0 MISS:          0
cpu0_STLB PREFETCH REQUESTED:          0 ISSUED:          0 USEFUL:          0 USELESS:          0
cpu0_STLB AVERAGE MISS LATENCY: 378.2 cycles

DRAM Statistics

Channel 0 RQ ROW_BUFFER_HIT:     779781
  ROW_BUFFER_MISS:    1776138
 AVG DBUS CONGESTED CYCLE: 3.972
WQ ROW_BUFFER_HIT: Channel 0 
  ROW_BUFFER_MISS:     623199
  FULL:    1161487
