WARNING: physical memory size is smaller than virtual memory size.

*** ChampSim Multicore Out-of-Order Simulator ***
Warmup Instructions: 50000000
Simulation Instructions: 600000000
Number of CPUs: 1
Page size: 4096

Off-chip DRAM Size: 4 GiB Channels: 1 Width: 64-bit Data Race: 3200 MT/s
Heartbeat CPU 0 instructions: 10000002 cycles: 2881030 heartbeat IPC: 3.471 cumulative IPC: 3.471 (Simulation time: 00 hr 01 min 05 sec)
Heartbeat CPU 0 instructions: 20000002 cycles: 5381030 heartbeat IPC: 4 cumulative IPC: 3.717 (Simulation time: 00 hr 01 min 51 sec)
Heartbeat CPU 0 instructions: 30000002 cycles: 7881030 heartbeat IPC: 4 cumulative IPC: 3.807 (Simulation time: 00 hr 02 min 35 sec)
Heartbeat CPU 0 instructions: 40000002 cycles: 10381030 heartbeat IPC: 4 cumulative IPC: 3.853 (Simulation time: 00 hr 03 min 18 sec)
Heartbeat CPU 0 instructions: 50000002 cycles: 12881030 heartbeat IPC: 4 cumulative IPC: 3.882 (Simulation time: 00 hr 04 min 01 sec)
Warmup finished CPU 0 instructions: 50000002 cycles: 12881031 cumulative IPC: 3.882 (Simulation time: 00 hr 04 min 01 sec)
Warmup complete CPU 0 instructions: 50000002 cycles: 12881031 cumulative IPC: 3.882 (Simulation time: 00 hr 04 min 01 sec)
Heartbeat CPU 0 instructions: 60000004 cycles: 15384188 heartbeat IPC: 3.995 cumulative IPC: 3.995 (Simulation time: 00 hr 04 min 49 sec)
Heartbeat CPU 0 instructions: 70000000 cycles: 17887226 heartbeat IPC: 3.995 cumulative IPC: 3.995 (Simulation time: 00 hr 05 min 38 sec)
Heartbeat CPU 0 instructions: 80000002 cycles: 20390081 heartbeat IPC: 3.995 cumulative IPC: 3.995 (Simulation time: 00 hr 06 min 27 sec)
Heartbeat CPU 0 instructions: 90000004 cycles: 22892490 heartbeat IPC: 3.996 cumulative IPC: 3.995 (Simulation time: 00 hr 07 min 16 sec)
Heartbeat CPU 0 instructions: 100000004 cycles: 25395768 heartbeat IPC: 3.995 cumulative IPC: 3.995 (Simulation time: 00 hr 08 min 05 sec)
Heartbeat CPU 0 instructions: 110000000 cycles: 27898453 heartbeat IPC: 3.996 cumulative IPC: 3.995 (Simulation time: 00 hr 08 min 55 sec)
Heartbeat CPU 0 instructions: 120000003 cycles: 30400851 heartbeat IPC: 3.996 cumulative IPC: 3.995 (Simulation time: 00 hr 09 min 44 sec)
Heartbeat CPU 0 instructions: 130000000 cycles: 32903855 heartbeat IPC: 3.995 cumulative IPC: 3.995 (Simulation time: 00 hr 10 min 34 sec)
Heartbeat CPU 0 instructions: 140000001 cycles: 35406669 heartbeat IPC: 3.996 cumulative IPC: 3.995 (Simulation time: 00 hr 11 min 22 sec)
Heartbeat CPU 0 instructions: 150000000 cycles: 37910027 heartbeat IPC: 3.995 cumulative IPC: 3.995 (Simulation time: 00 hr 12 min 11 sec)
Heartbeat CPU 0 instructions: 160000001 cycles: 40412432 heartbeat IPC: 3.996 cumulative IPC: 3.995 (Simulation time: 00 hr 13 min 01 sec)
Heartbeat CPU 0 instructions: 170000002 cycles: 42917215 heartbeat IPC: 3.992 cumulative IPC: 3.995 (Simulation time: 00 hr 13 min 50 sec)
Heartbeat CPU 0 instructions: 180000001 cycles: 45420568 heartbeat IPC: 3.995 cumulative IPC: 3.995 (Simulation time: 00 hr 14 min 39 sec)
Heartbeat CPU 0 instructions: 190000004 cycles: 47923600 heartbeat IPC: 3.995 cumulative IPC: 3.995 (Simulation time: 00 hr 15 min 27 sec)
Heartbeat CPU 0 instructions: 200000000 cycles: 50426811 heartbeat IPC: 3.995 cumulative IPC: 3.995 (Simulation time: 00 hr 16 min 17 sec)
Heartbeat CPU 0 instructions: 210000000 cycles: 52929219 heartbeat IPC: 3.996 cumulative IPC: 3.995 (Simulation time: 00 hr 17 min 05 sec)
Heartbeat CPU 0 instructions: 220000000 cycles: 55432921 heartbeat IPC: 3.994 cumulative IPC: 3.995 (Simulation time: 00 hr 17 min 55 sec)
Heartbeat CPU 0 instructions: 230000004 cycles: 89981416 heartbeat IPC: 0.2894 cumulative IPC: 2.335 (Simulation time: 00 hr 23 min 18 sec)
Heartbeat CPU 0 instructions: 240000001 cycles: 92510066 heartbeat IPC: 3.955 cumulative IPC: 2.386 (Simulation time: 00 hr 24 min 08 sec)
Heartbeat CPU 0 instructions: 250000000 cycles: 96222404 heartbeat IPC: 2.694 cumulative IPC: 2.4 (Simulation time: 00 hr 25 min 13 sec)
Heartbeat CPU 0 instructions: 260000002 cycles: 100585452 heartbeat IPC: 2.292 cumulative IPC: 2.394 (Simulation time: 00 hr 26 min 25 sec)
Heartbeat CPU 0 instructions: 270000000 cycles: 105122894 heartbeat IPC: 2.204 cumulative IPC: 2.385 (Simulation time: 00 hr 27 min 38 sec)
Heartbeat CPU 0 instructions: 280000001 cycles: 109640675 heartbeat IPC: 2.213 cumulative IPC: 2.377 (Simulation time: 00 hr 28 min 51 sec)
Heartbeat CPU 0 instructions: 290000003 cycles: 114192439 heartbeat IPC: 2.197 cumulative IPC: 2.369 (Simulation time: 00 hr 30 min 06 sec)
Heartbeat CPU 0 instructions: 300000003 cycles: 118704489 heartbeat IPC: 2.216 cumulative IPC: 2.362 (Simulation time: 00 hr 31 min 22 sec)
Heartbeat CPU 0 instructions: 310000000 cycles: 123256302 heartbeat IPC: 2.197 cumulative IPC: 2.356 (Simulation time: 00 hr 32 min 37 sec)
Heartbeat CPU 0 instructions: 320000002 cycles: 127802351 heartbeat IPC: 2.2 cumulative IPC: 2.349 (Simulation time: 00 hr 33 min 52 sec)
Heartbeat CPU 0 instructions: 330000004 cycles: 131272633 heartbeat IPC: 2.882 cumulative IPC: 2.365 (Simulation time: 00 hr 34 min 53 sec)
Heartbeat CPU 0 instructions: 340000003 cycles: 134056358 heartbeat IPC: 3.592 cumulative IPC: 2.393 (Simulation time: 00 hr 35 min 49 sec)
Heartbeat CPU 0 instructions: 350000000 cycles: 136818803 heartbeat IPC: 3.62 cumulative IPC: 2.421 (Simulation time: 00 hr 36 min 43 sec)
Heartbeat CPU 0 instructions: 360000001 cycles: 140320166 heartbeat IPC: 2.856 cumulative IPC: 2.433 (Simulation time: 00 hr 37 min 47 sec)
Heartbeat CPU 0 instructions: 370000004 cycles: 143818787 heartbeat IPC: 2.858 cumulative IPC: 2.444 (Simulation time: 00 hr 38 min 53 sec)
Heartbeat CPU 0 instructions: 380000001 cycles: 147367549 heartbeat IPC: 2.818 cumulative IPC: 2.454 (Simulation time: 00 hr 40 min 00 sec)
Heartbeat CPU 0 instructions: 390000004 cycles: 150823404 heartbeat IPC: 2.894 cumulative IPC: 2.465 (Simulation time: 00 hr 41 min 08 sec)
Heartbeat CPU 0 instructions: 400000001 cycles: 154301572 heartbeat IPC: 2.875 cumulative IPC: 2.475 (Simulation time: 00 hr 42 min 14 sec)
Heartbeat CPU 0 instructions: 410000004 cycles: 157747270 heartbeat IPC: 2.902 cumulative IPC: 2.485 (Simulation time: 00 hr 43 min 22 sec)
Heartbeat CPU 0 instructions: 420000004 cycles: 161290454 heartbeat IPC: 2.822 cumulative IPC: 2.493 (Simulation time: 00 hr 44 min 31 sec)
Heartbeat CPU 0 instructions: 430000004 cycles: 164642347 heartbeat IPC: 2.983 cumulative IPC: 2.504 (Simulation time: 00 hr 45 min 36 sec)
Heartbeat CPU 0 instructions: 440000004 cycles: 167729170 heartbeat IPC: 3.24 cumulative IPC: 2.519 (Simulation time: 00 hr 46 min 40 sec)
Heartbeat CPU 0 instructions: 450000003 cycles: 171192663 heartbeat IPC: 2.887 cumulative IPC: 2.527 (Simulation time: 00 hr 47 min 47 sec)
Heartbeat CPU 0 instructions: 460000001 cycles: 174924409 heartbeat IPC: 2.68 cumulative IPC: 2.53 (Simulation time: 00 hr 48 min 58 sec)
Heartbeat CPU 0 instructions: 470000000 cycles: 178565493 heartbeat IPC: 2.746 cumulative IPC: 2.535 (Simulation time: 00 hr 50 min 08 sec)
Heartbeat CPU 0 instructions: 480000002 cycles: 182216363 heartbeat IPC: 2.739 cumulative IPC: 2.539 (Simulation time: 00 hr 51 min 17 sec)
Heartbeat CPU 0 instructions: 490000004 cycles: 185826138 heartbeat IPC: 2.77 cumulative IPC: 2.544 (Simulation time: 00 hr 52 min 27 sec)
Heartbeat CPU 0 instructions: 500000004 cycles: 189486837 heartbeat IPC: 2.732 cumulative IPC: 2.548 (Simulation time: 00 hr 53 min 37 sec)
Heartbeat CPU 0 instructions: 510000003 cycles: 193118687 heartbeat IPC: 2.753 cumulative IPC: 2.552 (Simulation time: 00 hr 54 min 47 sec)
Heartbeat CPU 0 instructions: 520000004 cycles: 257218726 heartbeat IPC: 0.156 cumulative IPC: 1.924 (Simulation time: 01 hr 07 min 41 sec)
Heartbeat CPU 0 instructions: 530000002 cycles: 369627318 heartbeat IPC: 0.08896 cumulative IPC: 1.345 (Simulation time: 01 hr 29 min 34 sec)
Heartbeat CPU 0 instructions: 540000004 cycles: 398677016 heartbeat IPC: 0.3442 cumulative IPC: 1.27 (Simulation time: 01 hr 35 min 35 sec)
Heartbeat CPU 0 instructions: 550000002 cycles: 429647795 heartbeat IPC: 0.3229 cumulative IPC: 1.2 (Simulation time: 01 hr 41 min 59 sec)
Heartbeat CPU 0 instructions: 560000000 cycles: 460695634 heartbeat IPC: 0.3221 cumulative IPC: 1.139 (Simulation time: 01 hr 48 min 24 sec)
Heartbeat CPU 0 instructions: 570000002 cycles: 491477865 heartbeat IPC: 0.3249 cumulative IPC: 1.087 (Simulation time: 01 hr 54 min 46 sec)
Heartbeat CPU 0 instructions: 580000001 cycles: 522057778 heartbeat IPC: 0.327 cumulative IPC: 1.041 (Simulation time: 02 hr 01 min 07 sec)
Heartbeat CPU 0 instructions: 590000001 cycles: 553684722 heartbeat IPC: 0.3162 cumulative IPC: 0.9985 (Simulation time: 02 hr 07 min 42 sec)
*** Reached end of trace: (0, "traces/bt.A.champsimtrace")
Heartbeat CPU 0 instructions: 600000001 cycles: 585621430 heartbeat IPC: 0.3131 cumulative IPC: 0.9603 (Simulation time: 02 hr 14 min 18 sec)
Heartbeat CPU 0 instructions: 610000004 cycles: 612220511 heartbeat IPC: 0.376 cumulative IPC: 0.9344 (Simulation time: 02 hr 18 min 55 sec)
Heartbeat CPU 0 instructions: 620000000 cycles: 614724588 heartbeat IPC: 3.993 cumulative IPC: 0.9471 (Simulation time: 02 hr 19 min 49 sec)
Heartbeat CPU 0 instructions: 630000003 cycles: 617228788 heartbeat IPC: 3.993 cumulative IPC: 0.9597 (Simulation time: 02 hr 20 min 43 sec)
Heartbeat CPU 0 instructions: 640000003 cycles: 619732354 heartbeat IPC: 3.994 cumulative IPC: 0.9722 (Simulation time: 02 hr 21 min 38 sec)
Heartbeat CPU 0 instructions: 650000003 cycles: 622235633 heartbeat IPC: 3.995 cumulative IPC: 0.9846 (Simulation time: 02 hr 22 min 32 sec)
Simulation finished CPU 0 instructions: 600000001 cycles: 609354603 cumulative IPC: 0.9846 (Simulation time: 02 hr 22 min 32 sec)
Simulation complete CPU 0 instructions: 600000001 cycles: 609354603 cumulative IPC: 0.9846 (Simulation time: 02 hr 22 min 32 sec)

ChampSim completed all CPUs

=== Simulation ===
CPU 0 runs traces/bt.A.champsimtrace
Region of Interest Statistics

CPU 0 cumulative IPC: 0.9846 instructions: 600000001 cycles: 609354603
CPU 0 Branch Prediction Accuracy: 99.28% MPKI: 0.1297 Average ROB Occupancy at Mispredict: 279.2
Branch type MPKI
BRANCH_DIRECT_JUMP: 5e-06
BRANCH_INDIRECT: 7.83e-05
BRANCH_CONDITIONAL: 0.13
BRANCH_DIRECT_CALL: 6.67e-06
BRANCH_INDIRECT_CALL: 3.33e-05
BRANCH_RETURN: 2.33e-05

LLC TOTAL        ACCESS:    7353321 HIT:    2448234 MISS:    4905087
LLC LOAD         ACCESS:    2237936 HIT:    1165156 MISS:    1072780
LLC RFO          ACCESS:     889373 HIT:      19510 MISS:     869863
LLC PREFETCH     ACCESS:    2237975 HIT:     539340 MISS:    1698635
LLC WRITE        ACCESS:    1984667 HIT:     724210 MISS:    1260457
LLC TRANSLATION  ACCESS:       3370 HIT:         18 MISS:       3352
LLC PREFETCH REQUESTED:    2237995 ISSUED:    2237975 USEFUL:    1427489 USELESS:      21917
LLC AVERAGE MISS LATENCY: 896.4 cycles
cpu0_DTLB TOTAL        ACCESS:  128680571 HIT:  127943886 MISS:     736685
cpu0_DTLB LOAD         ACCESS:  128680571 HIT:  127943886 MISS:     736685
cpu0_DTLB RFO          ACCESS:          0 HIT:          0 MISS:          0
cpu0_DTLB PREFETCH     ACCESS:          0 HIT:          0 MISS:          0
cpu0_DTLB WRITE        ACCESS:          0 HIT:          0 MISS:          0
cpu0_DTLB TRANSLATION  ACCESS:          0 HIT:          0 MISS:          0
cpu0_DTLB PREFETCH REQUESTED:          0 ISSUED:          0 USEFUL:          0 USELESS:          0
cpu0_DTLB AVERAGE MISS LATENCY: 17.83 cycles
cpu0_ITLB TOTAL        ACCESS:     141849 HIT:     141606 MISS:        243
cpu0_ITLB LOAD         ACCESS:     141849 HIT:     141606 MISS:        243
cpu0_ITLB RFO          ACCESS:          0 HIT:          0 MISS:          0
cpu0_ITLB PREFETCH     ACCESS:          0 HIT:          0 MISS:          0
cpu0_ITLB WRITE        ACCESS:          0 HIT:          0 MISS:          0
cpu0_ITLB TRANSLATION  ACCESS:          0 HIT:          0 MISS:          0
cpu0_ITLB PREFETCH REQUESTED:          0 ISSUED:          0 USEFUL:          0 USELESS:          0
cpu0_ITLB AVERAGE MISS LATENCY: 353.7 cycles
cpu0_L1D TOTAL        ACCESS:  196454533 HIT:  183026770 MISS:   13427763
cpu0_L1D LOAD         ACCESS:  161772303 HIT:  152484798 MISS:    9287505
cpu0_L1D RFO          ACCESS:          0 HIT:          0 MISS:          0
cpu0_L1D PREFETCH     ACCESS:          0 HIT:          0 MISS:          0
cpu0_L1D WRITE        ACCESS:   34635476 HIT:   30512277 MISS:    4123199
cpu0_L1D TRANSLATION  ACCESS:      46754 HIT:      29695 MISS:      17059
cpu0_L1D PREFETCH REQUESTED:          0 ISSUED:          0 USEFUL:          0 USELESS:          0
cpu0_L1D AVERAGE MISS LATENCY: 158.1 cycles
cpu0_L1I TOTAL        ACCESS:     191304 HIT:     188595 MISS:       2709
cpu0_L1I LOAD         ACCESS:     191304 HIT:     188595 MISS:       2709
cpu0_L1I RFO          ACCESS:          0 HIT:          0 MISS:          0
cpu0_L1I PREFETCH     ACCESS:          0 HIT:          0 MISS:          0
cpu0_L1I WRITE        ACCESS:          0 HIT:          0 MISS:          0
cpu0_L1I TRANSLATION  ACCESS:          0 HIT:          0 MISS:          0
cpu0_L1I PREFETCH REQUESTED:          0 ISSUED:          0 USEFUL:          0 USELESS:          0
cpu0_L1I AVERAGE MISS LATENCY: 546.7 cycles
cpu0_L2C TOTAL        ACCESS:    5265006 HIT:    2133771 MISS:    3131235
cpu0_L2C LOAD         ACCESS:    2357717 HIT:     119524 MISS:    2238193
cpu0_L2C RFO          ACCESS:     890962 HIT:       1589 MISS:     889373
cpu0_L2C PREFETCH     ACCESS:          0 HIT:          0 MISS:          0
cpu0_L2C WRITE        ACCESS:    1999271 HIT:    1998972 MISS:        299
cpu0_L2C TRANSLATION  ACCESS:      17056 HIT:      13686 MISS:       3370
cpu0_L2C PREFETCH REQUESTED:          0 ISSUED:          0 USEFUL:          0 USELESS:          0
cpu0_L2C AVERAGE MISS LATENCY: 886.3 cycles
cpu0_STLB TOTAL        ACCESS:     296279 HIT:     249546 MISS:      46733
cpu0_STLB LOAD         ACCESS:     296279 HIT:     249546 MISS:      46733
cpu0_STLB RFO          ACCESS:          0 HIT:          0 MISS:          0
cpu0_STLB PREFETCH     ACCESS:          0 HIT:          0 MISS:          0
cpu0_STLB WRITE        ACCESS:          0 HIT:          0 MISS:          0
cpu0_STLB TRANSLATION  ACCESS:          0 HIT:          0 MISS:          0
cpu0_STLB PREFETCH REQUESTED:          0 ISSUED:          0 USEFUL:          0 USELESS:          0
cpu0_STLB AVERAGE MISS LATENCY: 396.3 cycles

DRAM Statistics

Channel 0 RQ ROW_BUFFER_HIT:     708585
  ROW_BUFFER_MISS:    1893660
 AVG DBUS CONGESTED CYCLE: 3.977
WQ ROW_BUFFER_HIT: Channel 0 
  ROW_BUFFER_MISS:     447572
  FULL:    1246504
Final OPTGen Hits: 27024
Final OPTGen Access: 52049
Final OPTGEN Hit Rate: 51.9204
