WARNING: physical memory size is smaller than virtual memory size.

*** ChampSim Multicore Out-of-Order Simulator ***
Warmup Instructions: 50000000
Simulation Instructions: 600000000
Number of CPUs: 1
Page size: 4096

Off-chip DRAM Size: 4 GiB Channels: 1 Width: 64-bit Data Race: 3200 MT/s
Heartbeat CPU 0 instructions: 10000000 cycles: 2881042 heartbeat IPC: 3.471 cumulative IPC: 3.471 (Simulation time: 00 hr 00 min 33 sec)
Heartbeat CPU 0 instructions: 20000000 cycles: 5381042 heartbeat IPC: 4 cumulative IPC: 3.717 (Simulation time: 00 hr 01 min 02 sec)
Heartbeat CPU 0 instructions: 30000000 cycles: 7881042 heartbeat IPC: 4 cumulative IPC: 3.807 (Simulation time: 00 hr 01 min 32 sec)
Heartbeat CPU 0 instructions: 40000000 cycles: 10381042 heartbeat IPC: 4 cumulative IPC: 3.853 (Simulation time: 00 hr 02 min 02 sec)
Heartbeat CPU 0 instructions: 50000000 cycles: 12881042 heartbeat IPC: 4 cumulative IPC: 3.882 (Simulation time: 00 hr 02 min 33 sec)
Warmup finished CPU 0 instructions: 50000000 cycles: 12881043 cumulative IPC: 3.882 (Simulation time: 00 hr 02 min 33 sec)
Warmup complete CPU 0 instructions: 50000000 cycles: 12881043 cumulative IPC: 3.882 (Simulation time: 00 hr 02 min 33 sec)
Heartbeat CPU 0 instructions: 60000004 cycles: 15383661 heartbeat IPC: 3.996 cumulative IPC: 3.996 (Simulation time: 00 hr 03 min 10 sec)
Heartbeat CPU 0 instructions: 70000002 cycles: 17886024 heartbeat IPC: 3.996 cumulative IPC: 3.996 (Simulation time: 00 hr 03 min 47 sec)
Heartbeat CPU 0 instructions: 80000002 cycles: 20388430 heartbeat IPC: 3.996 cumulative IPC: 3.996 (Simulation time: 00 hr 04 min 28 sec)
Heartbeat CPU 0 instructions: 90000004 cycles: 22890853 heartbeat IPC: 3.996 cumulative IPC: 3.996 (Simulation time: 00 hr 05 min 07 sec)
Heartbeat CPU 0 instructions: 100000000 cycles: 25393258 heartbeat IPC: 3.996 cumulative IPC: 3.996 (Simulation time: 00 hr 05 min 49 sec)
Heartbeat CPU 0 instructions: 110000002 cycles: 27895664 heartbeat IPC: 3.996 cumulative IPC: 3.996 (Simulation time: 00 hr 06 min 29 sec)
Heartbeat CPU 0 instructions: 120000000 cycles: 30398061 heartbeat IPC: 3.996 cumulative IPC: 3.996 (Simulation time: 00 hr 07 min 09 sec)
Heartbeat CPU 0 instructions: 130000002 cycles: 32900750 heartbeat IPC: 3.996 cumulative IPC: 3.996 (Simulation time: 00 hr 07 min 49 sec)
Heartbeat CPU 0 instructions: 140000004 cycles: 35403159 heartbeat IPC: 3.996 cumulative IPC: 3.996 (Simulation time: 00 hr 08 min 29 sec)
Heartbeat CPU 0 instructions: 150000000 cycles: 37905521 heartbeat IPC: 3.996 cumulative IPC: 3.996 (Simulation time: 00 hr 09 min 10 sec)
Heartbeat CPU 0 instructions: 160000003 cycles: 40407928 heartbeat IPC: 3.996 cumulative IPC: 3.996 (Simulation time: 00 hr 09 min 52 sec)
Heartbeat CPU 0 instructions: 170000002 cycles: 42910392 heartbeat IPC: 3.996 cumulative IPC: 3.996 (Simulation time: 00 hr 10 min 32 sec)
Heartbeat CPU 0 instructions: 180000000 cycles: 45412755 heartbeat IPC: 3.996 cumulative IPC: 3.996 (Simulation time: 00 hr 11 min 11 sec)
Heartbeat CPU 0 instructions: 190000003 cycles: 47915413 heartbeat IPC: 3.996 cumulative IPC: 3.996 (Simulation time: 00 hr 11 min 51 sec)
Heartbeat CPU 0 instructions: 200000000 cycles: 50417865 heartbeat IPC: 3.996 cumulative IPC: 3.996 (Simulation time: 00 hr 12 min 31 sec)
Heartbeat CPU 0 instructions: 210000000 cycles: 52920270 heartbeat IPC: 3.996 cumulative IPC: 3.996 (Simulation time: 00 hr 13 min 12 sec)
Heartbeat CPU 0 instructions: 220000003 cycles: 55423305 heartbeat IPC: 3.995 cumulative IPC: 3.996 (Simulation time: 00 hr 13 min 53 sec)
Heartbeat CPU 0 instructions: 230000001 cycles: 89852415 heartbeat IPC: 0.2905 cumulative IPC: 2.339 (Simulation time: 00 hr 17 min 42 sec)
Heartbeat CPU 0 instructions: 240000002 cycles: 95862561 heartbeat IPC: 1.664 cumulative IPC: 2.29 (Simulation time: 00 hr 18 min 53 sec)
Heartbeat CPU 0 instructions: 250000000 cycles: 101890988 heartbeat IPC: 1.659 cumulative IPC: 2.247 (Simulation time: 00 hr 20 min 04 sec)
Heartbeat CPU 0 instructions: 260000004 cycles: 107910823 heartbeat IPC: 1.661 cumulative IPC: 2.21 (Simulation time: 00 hr 21 min 14 sec)
Heartbeat CPU 0 instructions: 270000003 cycles: 113924216 heartbeat IPC: 1.663 cumulative IPC: 2.177 (Simulation time: 00 hr 22 min 23 sec)
Heartbeat CPU 0 instructions: 280000001 cycles: 119976723 heartbeat IPC: 1.652 cumulative IPC: 2.148 (Simulation time: 00 hr 23 min 33 sec)
Heartbeat CPU 0 instructions: 290000000 cycles: 126022048 heartbeat IPC: 1.654 cumulative IPC: 2.121 (Simulation time: 00 hr 24 min 44 sec)
Heartbeat CPU 0 instructions: 300000003 cycles: 132072269 heartbeat IPC: 1.653 cumulative IPC: 2.097 (Simulation time: 00 hr 25 min 57 sec)
Heartbeat CPU 0 instructions: 310000002 cycles: 138113768 heartbeat IPC: 1.655 cumulative IPC: 2.076 (Simulation time: 00 hr 27 min 09 sec)
Heartbeat CPU 0 instructions: 320000002 cycles: 144137510 heartbeat IPC: 1.66 cumulative IPC: 2.057 (Simulation time: 00 hr 28 min 18 sec)
Heartbeat CPU 0 instructions: 330000004 cycles: 150561407 heartbeat IPC: 1.557 cumulative IPC: 2.034 (Simulation time: 00 hr 29 min 31 sec)
Heartbeat CPU 0 instructions: 340000002 cycles: 157163208 heartbeat IPC: 1.515 cumulative IPC: 2.01 (Simulation time: 00 hr 30 min 46 sec)
Heartbeat CPU 0 instructions: 350000002 cycles: 163772742 heartbeat IPC: 1.513 cumulative IPC: 1.988 (Simulation time: 00 hr 32 min 02 sec)
Heartbeat CPU 0 instructions: 360000000 cycles: 170394160 heartbeat IPC: 1.51 cumulative IPC: 1.968 (Simulation time: 00 hr 33 min 18 sec)
Heartbeat CPU 0 instructions: 370000001 cycles: 176903042 heartbeat IPC: 1.536 cumulative IPC: 1.951 (Simulation time: 00 hr 34 min 30 sec)
Heartbeat CPU 0 instructions: 380000003 cycles: 183506999 heartbeat IPC: 1.514 cumulative IPC: 1.934 (Simulation time: 00 hr 35 min 42 sec)
Heartbeat CPU 0 instructions: 390000004 cycles: 190019209 heartbeat IPC: 1.536 cumulative IPC: 1.919 (Simulation time: 00 hr 36 min 53 sec)
Heartbeat CPU 0 instructions: 400000000 cycles: 196620690 heartbeat IPC: 1.515 cumulative IPC: 1.905 (Simulation time: 00 hr 38 min 07 sec)
Heartbeat CPU 0 instructions: 410000003 cycles: 203145907 heartbeat IPC: 1.533 cumulative IPC: 1.892 (Simulation time: 00 hr 39 min 19 sec)
Heartbeat CPU 0 instructions: 420000000 cycles: 209677808 heartbeat IPC: 1.531 cumulative IPC: 1.88 (Simulation time: 00 hr 40 min 30 sec)
Heartbeat CPU 0 instructions: 430000002 cycles: 214496491 heartbeat IPC: 2.075 cumulative IPC: 1.885 (Simulation time: 00 hr 41 min 29 sec)
Heartbeat CPU 0 instructions: 440000002 cycles: 219590329 heartbeat IPC: 1.963 cumulative IPC: 1.887 (Simulation time: 00 hr 42 min 29 sec)
Heartbeat CPU 0 instructions: 450000000 cycles: 225013025 heartbeat IPC: 1.844 cumulative IPC: 1.886 (Simulation time: 00 hr 43 min 35 sec)
Heartbeat CPU 0 instructions: 460000003 cycles: 230964074 heartbeat IPC: 1.68 cumulative IPC: 1.88 (Simulation time: 00 hr 44 min 47 sec)
Heartbeat CPU 0 instructions: 470000004 cycles: 237592447 heartbeat IPC: 1.509 cumulative IPC: 1.869 (Simulation time: 00 hr 46 min 02 sec)
Heartbeat CPU 0 instructions: 480000000 cycles: 244237616 heartbeat IPC: 1.505 cumulative IPC: 1.859 (Simulation time: 00 hr 47 min 16 sec)
Heartbeat CPU 0 instructions: 490000001 cycles: 250861823 heartbeat IPC: 1.51 cumulative IPC: 1.849 (Simulation time: 00 hr 48 min 29 sec)
Heartbeat CPU 0 instructions: 500000001 cycles: 257503381 heartbeat IPC: 1.506 cumulative IPC: 1.84 (Simulation time: 00 hr 49 min 43 sec)
Heartbeat CPU 0 instructions: 510000002 cycles: 264120950 heartbeat IPC: 1.511 cumulative IPC: 1.831 (Simulation time: 00 hr 50 min 58 sec)
Heartbeat CPU 0 instructions: 520000000 cycles: 331831635 heartbeat IPC: 0.1477 cumulative IPC: 1.474 (Simulation time: 01 hr 00 min 17 sec)
Heartbeat CPU 0 instructions: 530000001 cycles: 445288628 heartbeat IPC: 0.08814 cumulative IPC: 1.11 (Simulation time: 01 hr 15 min 37 sec)
Heartbeat CPU 0 instructions: 540000002 cycles: 476238266 heartbeat IPC: 0.3231 cumulative IPC: 1.057 (Simulation time: 01 hr 20 min 08 sec)
Heartbeat CPU 0 instructions: 550000003 cycles: 505480079 heartbeat IPC: 0.342 cumulative IPC: 1.015 (Simulation time: 01 hr 24 min 21 sec)
Heartbeat CPU 0 instructions: 560000001 cycles: 534862148 heartbeat IPC: 0.3403 cumulative IPC: 0.977 (Simulation time: 01 hr 28 min 41 sec)
Heartbeat CPU 0 instructions: 570000000 cycles: 564258470 heartbeat IPC: 0.3402 cumulative IPC: 0.9431 (Simulation time: 01 hr 32 min 55 sec)
Heartbeat CPU 0 instructions: 580000002 cycles: 594105322 heartbeat IPC: 0.335 cumulative IPC: 0.9119 (Simulation time: 01 hr 37 min 17 sec)
Heartbeat CPU 0 instructions: 590000001 cycles: 623825714 heartbeat IPC: 0.3365 cumulative IPC: 0.8839 (Simulation time: 01 hr 41 min 38 sec)
*** Reached end of trace: (0, "traces/bt.A.champsimtrace")
Heartbeat CPU 0 instructions: 600000002 cycles: 653334729 heartbeat IPC: 0.3389 cumulative IPC: 0.8588 (Simulation time: 01 hr 45 min 57 sec)
Heartbeat CPU 0 instructions: 610000004 cycles: 678112455 heartbeat IPC: 0.4036 cumulative IPC: 0.8418 (Simulation time: 01 hr 48 min 43 sec)
Heartbeat CPU 0 instructions: 620000000 cycles: 680614875 heartbeat IPC: 3.996 cumulative IPC: 0.8536 (Simulation time: 01 hr 49 min 23 sec)
Heartbeat CPU 0 instructions: 630000002 cycles: 683117283 heartbeat IPC: 3.996 cumulative IPC: 0.8654 (Simulation time: 01 hr 50 min 04 sec)
Heartbeat CPU 0 instructions: 640000000 cycles: 685619691 heartbeat IPC: 3.996 cumulative IPC: 0.877 (Simulation time: 01 hr 50 min 44 sec)
Heartbeat CPU 0 instructions: 650000002 cycles: 688122088 heartbeat IPC: 3.996 cumulative IPC: 0.8886 (Simulation time: 01 hr 51 min 23 sec)
Simulation finished CPU 0 instructions: 600000002 cycles: 675241046 cumulative IPC: 0.8886 (Simulation time: 01 hr 51 min 23 sec)
Simulation complete CPU 0 instructions: 600000002 cycles: 675241046 cumulative IPC: 0.8886 (Simulation time: 01 hr 51 min 23 sec)

ChampSim completed all CPUs

=== Simulation ===
CPU 0 runs traces/bt.A.champsimtrace
Region of Interest Statistics

CPU 0 cumulative IPC: 0.8886 instructions: 600000002 cycles: 675241046
CPU 0 Branch Prediction Accuracy: 99.29% MPKI: 0.1296 Average ROB Occupancy at Mispredict: 279.8
Branch type MPKI
BRANCH_DIRECT_JUMP: 5e-06
BRANCH_INDIRECT: 7.83e-05
BRANCH_CONDITIONAL: 0.129
BRANCH_DIRECT_CALL: 6.67e-06
BRANCH_INDIRECT_CALL: 3.67e-05
BRANCH_RETURN: 2.33e-05

LLC TOTAL        ACCESS:    5121783 HIT:    2515920 MISS:    2605863
LLC LOAD         ACCESS:    2240361 HIT:     515214 MISS:    1725147
LLC RFO          ACCESS:     889449 HIT:      10534 MISS:     878915
LLC PREFETCH     ACCESS:          0 HIT:          0 MISS:          0
LLC WRITE        ACCESS:    1988596 HIT:    1988471 MISS:        125
LLC TRANSLATION  ACCESS:       3377 HIT:       1701 MISS:       1676
LLC PREFETCH REQUESTED:          0 ISSUED:          0 USEFUL:          0 USELESS:          0
LLC AVERAGE MISS LATENCY: 1215 cycles
cpu0_DTLB TOTAL        ACCESS:  126839629 HIT:  126074166 MISS:     765463
cpu0_DTLB LOAD         ACCESS:  126839629 HIT:  126074166 MISS:     765463
cpu0_DTLB RFO          ACCESS:          0 HIT:          0 MISS:          0
cpu0_DTLB PREFETCH     ACCESS:          0 HIT:          0 MISS:          0
cpu0_DTLB WRITE        ACCESS:          0 HIT:          0 MISS:          0
cpu0_DTLB TRANSLATION  ACCESS:          0 HIT:          0 MISS:          0
cpu0_DTLB PREFETCH REQUESTED:          0 ISSUED:          0 USEFUL:          0 USELESS:          0
cpu0_DTLB AVERAGE MISS LATENCY: 13.54 cycles
cpu0_ITLB TOTAL        ACCESS:     144906 HIT:     144661 MISS:        245
cpu0_ITLB LOAD         ACCESS:     144906 HIT:     144661 MISS:        245
cpu0_ITLB RFO          ACCESS:          0 HIT:          0 MISS:          0
cpu0_ITLB PREFETCH     ACCESS:          0 HIT:          0 MISS:          0
cpu0_ITLB WRITE        ACCESS:          0 HIT:          0 MISS:          0
cpu0_ITLB TRANSLATION  ACCESS:          0 HIT:          0 MISS:          0
cpu0_ITLB PREFETCH REQUESTED:          0 ISSUED:          0 USEFUL:          0 USELESS:          0
cpu0_ITLB AVERAGE MISS LATENCY: 256.1 cycles
cpu0_L1D TOTAL        ACCESS:  194140720 HIT:  180071477 MISS:   14069243
cpu0_L1D LOAD         ACCESS:  159458413 HIT:  149503372 MISS:    9955041
cpu0_L1D RFO          ACCESS:          0 HIT:          0 MISS:          0
cpu0_L1D PREFETCH     ACCESS:          0 HIT:          0 MISS:          0
cpu0_L1D WRITE        ACCESS:   34635531 HIT:   30538447 MISS:    4097084
cpu0_L1D TRANSLATION  ACCESS:      46776 HIT:      29658 MISS:      17118
cpu0_L1D PREFETCH REQUESTED:          0 ISSUED:          0 USEFUL:          0 USELESS:          0
cpu0_L1D AVERAGE MISS LATENCY: 166.9 cycles
cpu0_L1I TOTAL        ACCESS:     194434 HIT:     191645 MISS:       2789
cpu0_L1I LOAD         ACCESS:     194434 HIT:     191645 MISS:       2789
cpu0_L1I RFO          ACCESS:          0 HIT:          0 MISS:          0
cpu0_L1I PREFETCH     ACCESS:          0 HIT:          0 MISS:          0
cpu0_L1I WRITE        ACCESS:          0 HIT:          0 MISS:          0
cpu0_L1I TRANSLATION  ACCESS:          0 HIT:          0 MISS:          0
cpu0_L1I PREFETCH REQUESTED:          0 ISSUED:          0 USEFUL:          0 USELESS:          0
cpu0_L1I AVERAGE MISS LATENCY: 491.4 cycles
cpu0_L2C TOTAL        ACCESS:    5272172 HIT:    2138488 MISS:    3133684
cpu0_L2C LOAD         ACCESS:    2366056 HIT:     125652 MISS:    2240404
cpu0_L2C RFO          ACCESS:     889976 HIT:        527 MISS:     889449
cpu0_L2C PREFETCH     ACCESS:          0 HIT:          0 MISS:          0
cpu0_L2C WRITE        ACCESS:    1999026 HIT:    1998572 MISS:        454
cpu0_L2C TRANSLATION  ACCESS:      17114 HIT:      13737 MISS:       3377
cpu0_L2C PREFETCH REQUESTED:          0 ISSUED:          0 USEFUL:          0 USELESS:          0
cpu0_L2C AVERAGE MISS LATENCY: 1031 cycles
cpu0_STLB TOTAL        ACCESS:     311424 HIT:     264671 MISS:      46753
cpu0_STLB LOAD         ACCESS:     311424 HIT:     264671 MISS:      46753
cpu0_STLB RFO          ACCESS:          0 HIT:          0 MISS:          0
cpu0_STLB PREFETCH     ACCESS:          0 HIT:          0 MISS:          0
cpu0_STLB WRITE        ACCESS:          0 HIT:          0 MISS:          0
cpu0_STLB TRANSLATION  ACCESS:          0 HIT:          0 MISS:          0
cpu0_STLB PREFETCH REQUESTED:          0 ISSUED:          0 USEFUL:          0 USELESS:          0
cpu0_STLB AVERAGE MISS LATENCY: 291.5 cycles

DRAM Statistics

Channel 0 RQ ROW_BUFFER_HIT:     685911
  ROW_BUFFER_MISS:    1919824
 AVG DBUS CONGESTED CYCLE: 3.974
WQ ROW_BUFFER_HIT: Channel 0 
  ROW_BUFFER_MISS:     381265
  FULL:    1321797
