WARNING: physical memory size is smaller than virtual memory size.

*** ChampSim Multicore Out-of-Order Simulator ***
Warmup Instructions: 50000000
Simulation Instructions: 600000000
Number of CPUs: 1
Page size: 4096

Off-chip DRAM Size: 4 GiB Channels: 1 Width: 64-bit Data Race: 3200 MT/s
Heartbeat CPU 0 instructions: 10000000 cycles: 2881042 heartbeat IPC: 3.471 cumulative IPC: 3.471 (Simulation time: 00 hr 00 min 41 sec)
Heartbeat CPU 0 instructions: 20000000 cycles: 5381042 heartbeat IPC: 4 cumulative IPC: 3.717 (Simulation time: 00 hr 01 min 15 sec)
Heartbeat CPU 0 instructions: 30000000 cycles: 7881042 heartbeat IPC: 4 cumulative IPC: 3.807 (Simulation time: 00 hr 01 min 49 sec)
Heartbeat CPU 0 instructions: 40000000 cycles: 10381042 heartbeat IPC: 4 cumulative IPC: 3.853 (Simulation time: 00 hr 02 min 23 sec)
Heartbeat CPU 0 instructions: 50000000 cycles: 12881042 heartbeat IPC: 4 cumulative IPC: 3.882 (Simulation time: 00 hr 02 min 57 sec)
Warmup finished CPU 0 instructions: 50000000 cycles: 12881043 cumulative IPC: 3.882 (Simulation time: 00 hr 02 min 57 sec)
Warmup complete CPU 0 instructions: 50000000 cycles: 12881043 cumulative IPC: 3.882 (Simulation time: 00 hr 02 min 57 sec)
Heartbeat CPU 0 instructions: 60000004 cycles: 15383661 heartbeat IPC: 3.996 cumulative IPC: 3.996 (Simulation time: 00 hr 03 min 37 sec)
Heartbeat CPU 0 instructions: 70000002 cycles: 17886024 heartbeat IPC: 3.996 cumulative IPC: 3.996 (Simulation time: 00 hr 04 min 20 sec)
Heartbeat CPU 0 instructions: 80000002 cycles: 20388430 heartbeat IPC: 3.996 cumulative IPC: 3.996 (Simulation time: 00 hr 05 min 01 sec)
Heartbeat CPU 0 instructions: 90000004 cycles: 22890853 heartbeat IPC: 3.996 cumulative IPC: 3.996 (Simulation time: 00 hr 05 min 42 sec)
Heartbeat CPU 0 instructions: 100000000 cycles: 25393258 heartbeat IPC: 3.996 cumulative IPC: 3.996 (Simulation time: 00 hr 06 min 23 sec)
Heartbeat CPU 0 instructions: 110000002 cycles: 27895664 heartbeat IPC: 3.996 cumulative IPC: 3.996 (Simulation time: 00 hr 07 min 05 sec)
Heartbeat CPU 0 instructions: 120000000 cycles: 30398061 heartbeat IPC: 3.996 cumulative IPC: 3.996 (Simulation time: 00 hr 07 min 45 sec)
Heartbeat CPU 0 instructions: 130000002 cycles: 32900750 heartbeat IPC: 3.996 cumulative IPC: 3.996 (Simulation time: 00 hr 08 min 26 sec)
Heartbeat CPU 0 instructions: 140000004 cycles: 35403159 heartbeat IPC: 3.996 cumulative IPC: 3.996 (Simulation time: 00 hr 09 min 07 sec)
Heartbeat CPU 0 instructions: 150000000 cycles: 37905521 heartbeat IPC: 3.996 cumulative IPC: 3.996 (Simulation time: 00 hr 09 min 47 sec)
Heartbeat CPU 0 instructions: 160000003 cycles: 40407928 heartbeat IPC: 3.996 cumulative IPC: 3.996 (Simulation time: 00 hr 10 min 26 sec)
Heartbeat CPU 0 instructions: 170000002 cycles: 42910392 heartbeat IPC: 3.996 cumulative IPC: 3.996 (Simulation time: 00 hr 11 min 05 sec)
Heartbeat CPU 0 instructions: 180000000 cycles: 45412755 heartbeat IPC: 3.996 cumulative IPC: 3.996 (Simulation time: 00 hr 11 min 44 sec)
Heartbeat CPU 0 instructions: 190000003 cycles: 47915413 heartbeat IPC: 3.996 cumulative IPC: 3.996 (Simulation time: 00 hr 12 min 22 sec)
Heartbeat CPU 0 instructions: 200000000 cycles: 50417865 heartbeat IPC: 3.996 cumulative IPC: 3.996 (Simulation time: 00 hr 13 min 03 sec)
Heartbeat CPU 0 instructions: 210000000 cycles: 52920270 heartbeat IPC: 3.996 cumulative IPC: 3.996 (Simulation time: 00 hr 13 min 43 sec)
Heartbeat CPU 0 instructions: 220000003 cycles: 55423305 heartbeat IPC: 3.995 cumulative IPC: 3.996 (Simulation time: 00 hr 14 min 23 sec)
Heartbeat CPU 0 instructions: 230000001 cycles: 90359540 heartbeat IPC: 0.2862 cumulative IPC: 2.323 (Simulation time: 00 hr 18 min 14 sec)
Heartbeat CPU 0 instructions: 240000002 cycles: 96369686 heartbeat IPC: 1.664 cumulative IPC: 2.276 (Simulation time: 00 hr 19 min 26 sec)
Heartbeat CPU 0 instructions: 250000000 cycles: 102397603 heartbeat IPC: 1.659 cumulative IPC: 2.234 (Simulation time: 00 hr 20 min 37 sec)
Heartbeat CPU 0 instructions: 260000004 cycles: 108418128 heartbeat IPC: 1.661 cumulative IPC: 2.198 (Simulation time: 00 hr 21 min 48 sec)
Heartbeat CPU 0 instructions: 270000003 cycles: 114431521 heartbeat IPC: 1.663 cumulative IPC: 2.166 (Simulation time: 00 hr 22 min 59 sec)
Heartbeat CPU 0 instructions: 280000001 cycles: 120484028 heartbeat IPC: 1.652 cumulative IPC: 2.137 (Simulation time: 00 hr 24 min 11 sec)
Heartbeat CPU 0 instructions: 290000000 cycles: 126529653 heartbeat IPC: 1.654 cumulative IPC: 2.112 (Simulation time: 00 hr 25 min 23 sec)
Heartbeat CPU 0 instructions: 300000003 cycles: 132579874 heartbeat IPC: 1.653 cumulative IPC: 2.089 (Simulation time: 00 hr 26 min 34 sec)
Heartbeat CPU 0 instructions: 310000002 cycles: 138621373 heartbeat IPC: 1.655 cumulative IPC: 2.068 (Simulation time: 00 hr 27 min 43 sec)
Heartbeat CPU 0 instructions: 320000002 cycles: 144645115 heartbeat IPC: 1.66 cumulative IPC: 2.049 (Simulation time: 00 hr 28 min 53 sec)
Heartbeat CPU 0 instructions: 330000004 cycles: 151110953 heartbeat IPC: 1.547 cumulative IPC: 2.026 (Simulation time: 00 hr 30 min 07 sec)
Heartbeat CPU 0 instructions: 340000002 cycles: 157757513 heartbeat IPC: 1.505 cumulative IPC: 2.002 (Simulation time: 00 hr 31 min 24 sec)
Heartbeat CPU 0 instructions: 350000002 cycles: 164303172 heartbeat IPC: 1.528 cumulative IPC: 1.981 (Simulation time: 00 hr 32 min 37 sec)
Heartbeat CPU 0 instructions: 360000000 cycles: 170906730 heartbeat IPC: 1.514 cumulative IPC: 1.962 (Simulation time: 00 hr 33 min 51 sec)
Heartbeat CPU 0 instructions: 370000001 cycles: 177429582 heartbeat IPC: 1.533 cumulative IPC: 1.945 (Simulation time: 00 hr 35 min 04 sec)
Heartbeat CPU 0 instructions: 380000003 cycles: 184071340 heartbeat IPC: 1.506 cumulative IPC: 1.928 (Simulation time: 00 hr 36 min 18 sec)
Heartbeat CPU 0 instructions: 390000004 cycles: 190583323 heartbeat IPC: 1.536 cumulative IPC: 1.913 (Simulation time: 00 hr 37 min 33 sec)
Heartbeat CPU 0 instructions: 400000000 cycles: 197109908 heartbeat IPC: 1.532 cumulative IPC: 1.9 (Simulation time: 00 hr 38 min 46 sec)
Heartbeat CPU 0 instructions: 410000000 cycles: 203681296 heartbeat IPC: 1.522 cumulative IPC: 1.887 (Simulation time: 00 hr 39 min 59 sec)
Heartbeat CPU 0 instructions: 420000000 cycles: 210161398 heartbeat IPC: 1.543 cumulative IPC: 1.876 (Simulation time: 00 hr 41 min 13 sec)
Heartbeat CPU 0 instructions: 430000002 cycles: 214981546 heartbeat IPC: 2.075 cumulative IPC: 1.88 (Simulation time: 00 hr 42 min 12 sec)
Heartbeat CPU 0 instructions: 440000002 cycles: 220079359 heartbeat IPC: 1.962 cumulative IPC: 1.882 (Simulation time: 00 hr 43 min 13 sec)
Heartbeat CPU 0 instructions: 450000000 cycles: 225481745 heartbeat IPC: 1.851 cumulative IPC: 1.881 (Simulation time: 00 hr 44 min 16 sec)
Heartbeat CPU 0 instructions: 460000003 cycles: 231289737 heartbeat IPC: 1.722 cumulative IPC: 1.877 (Simulation time: 00 hr 45 min 22 sec)
Heartbeat CPU 0 instructions: 470000004 cycles: 237661282 heartbeat IPC: 1.569 cumulative IPC: 1.868 (Simulation time: 00 hr 46 min 33 sec)
Heartbeat CPU 0 instructions: 480000000 cycles: 244308264 heartbeat IPC: 1.504 cumulative IPC: 1.858 (Simulation time: 00 hr 47 min 46 sec)
Heartbeat CPU 0 instructions: 490000001 cycles: 250909573 heartbeat IPC: 1.515 cumulative IPC: 1.849 (Simulation time: 00 hr 49 min 04 sec)
Heartbeat CPU 0 instructions: 500000001 cycles: 257566925 heartbeat IPC: 1.502 cumulative IPC: 1.839 (Simulation time: 00 hr 50 min 21 sec)
Heartbeat CPU 0 instructions: 510000002 cycles: 264157665 heartbeat IPC: 1.517 cumulative IPC: 1.831 (Simulation time: 00 hr 51 min 37 sec)
Heartbeat CPU 0 instructions: 520000001 cycles: 331949673 heartbeat IPC: 0.1475 cumulative IPC: 1.473 (Simulation time: 01 hr 01 min 01 sec)
Heartbeat CPU 0 instructions: 530000001 cycles: 445421208 heartbeat IPC: 0.08813 cumulative IPC: 1.11 (Simulation time: 01 hr 16 min 26 sec)
Heartbeat CPU 0 instructions: 540000002 cycles: 476502985 heartbeat IPC: 0.3217 cumulative IPC: 1.057 (Simulation time: 01 hr 20 min 59 sec)
Heartbeat CPU 0 instructions: 550000003 cycles: 507020374 heartbeat IPC: 0.3277 cumulative IPC: 1.012 (Simulation time: 01 hr 25 min 34 sec)
Heartbeat CPU 0 instructions: 560000001 cycles: 537314177 heartbeat IPC: 0.3301 cumulative IPC: 0.9725 (Simulation time: 01 hr 29 min 59 sec)
Heartbeat CPU 0 instructions: 570000000 cycles: 567440894 heartbeat IPC: 0.3319 cumulative IPC: 0.9377 (Simulation time: 01 hr 34 min 21 sec)
Heartbeat CPU 0 instructions: 580000002 cycles: 598257127 heartbeat IPC: 0.3245 cumulative IPC: 0.9054 (Simulation time: 01 hr 38 min 59 sec)
Heartbeat CPU 0 instructions: 590000001 cycles: 629221012 heartbeat IPC: 0.323 cumulative IPC: 0.8761 (Simulation time: 01 hr 43 min 36 sec)
*** Reached end of trace: (0, "traces/bt.A.champsimtrace")
Heartbeat CPU 0 instructions: 600000002 cycles: 659808324 heartbeat IPC: 0.3269 cumulative IPC: 0.8502 (Simulation time: 01 hr 48 min 14 sec)
Heartbeat CPU 0 instructions: 610000004 cycles: 685487613 heartbeat IPC: 0.3894 cumulative IPC: 0.8326 (Simulation time: 01 hr 51 min 07 sec)
Heartbeat CPU 0 instructions: 620000000 cycles: 687990443 heartbeat IPC: 3.995 cumulative IPC: 0.8443 (Simulation time: 01 hr 51 min 46 sec)
Heartbeat CPU 0 instructions: 630000002 cycles: 690492913 heartbeat IPC: 3.996 cumulative IPC: 0.8559 (Simulation time: 01 hr 52 min 26 sec)
Heartbeat CPU 0 instructions: 640000000 cycles: 692995321 heartbeat IPC: 3.996 cumulative IPC: 0.8675 (Simulation time: 01 hr 53 min 06 sec)
Heartbeat CPU 0 instructions: 650000002 cycles: 695497718 heartbeat IPC: 3.996 cumulative IPC: 0.879 (Simulation time: 01 hr 53 min 46 sec)
Simulation finished CPU 0 instructions: 600000002 cycles: 682616676 cumulative IPC: 0.879 (Simulation time: 01 hr 53 min 46 sec)
Simulation complete CPU 0 instructions: 600000002 cycles: 682616676 cumulative IPC: 0.879 (Simulation time: 01 hr 53 min 46 sec)

ChampSim completed all CPUs

=== Simulation ===
CPU 0 runs traces/bt.A.champsimtrace
Region of Interest Statistics

CPU 0 cumulative IPC: 0.879 instructions: 600000002 cycles: 682616676
CPU 0 Branch Prediction Accuracy: 99.29% MPKI: 0.1296 Average ROB Occupancy at Mispredict: 279.7
Branch type MPKI
BRANCH_DIRECT_JUMP: 5e-06
BRANCH_INDIRECT: 7.83e-05
BRANCH_CONDITIONAL: 0.129
BRANCH_DIRECT_CALL: 6.67e-06
BRANCH_INDIRECT_CALL: 3.67e-05
BRANCH_RETURN: 2.33e-05

LLC TOTAL        ACCESS:    5121798 HIT:    2518376 MISS:    2603422
LLC LOAD         ACCESS:    2240376 HIT:     517153 MISS:    1723223
LLC RFO          ACCESS:     889449 HIT:      11068 MISS:     878381
LLC PREFETCH     ACCESS:          0 HIT:          0 MISS:          0
LLC WRITE        ACCESS:    1988597 HIT:    1988456 MISS:        141
LLC TRANSLATION  ACCESS:       3376 HIT:       1699 MISS:       1677
LLC PREFETCH REQUESTED:          0 ISSUED:          0 USEFUL:          0 USELESS:          0
LLC AVERAGE MISS LATENCY: 1233 cycles
cpu0_DTLB TOTAL        ACCESS:  126818209 HIT:  126053108 MISS:     765101
cpu0_DTLB LOAD         ACCESS:  126818209 HIT:  126053108 MISS:     765101
cpu0_DTLB RFO          ACCESS:          0 HIT:          0 MISS:          0
cpu0_DTLB PREFETCH     ACCESS:          0 HIT:          0 MISS:          0
cpu0_DTLB WRITE        ACCESS:          0 HIT:          0 MISS:          0
cpu0_DTLB TRANSLATION  ACCESS:          0 HIT:          0 MISS:          0
cpu0_DTLB PREFETCH REQUESTED:          0 ISSUED:          0 USEFUL:          0 USELESS:          0
cpu0_DTLB AVERAGE MISS LATENCY: 13.91 cycles
cpu0_ITLB TOTAL        ACCESS:     144907 HIT:     144662 MISS:        245
cpu0_ITLB LOAD         ACCESS:     144907 HIT:     144662 MISS:        245
cpu0_ITLB RFO          ACCESS:          0 HIT:          0 MISS:          0
cpu0_ITLB PREFETCH     ACCESS:          0 HIT:          0 MISS:          0
cpu0_ITLB WRITE        ACCESS:          0 HIT:          0 MISS:          0
cpu0_ITLB TRANSLATION  ACCESS:          0 HIT:          0 MISS:          0
cpu0_ITLB PREFETCH REQUESTED:          0 ISSUED:          0 USEFUL:          0 USELESS:          0
cpu0_ITLB AVERAGE MISS LATENCY: 294.4 cycles
cpu0_L1D TOTAL        ACCESS:  194123561 HIT:  180071152 MISS:   14052409
cpu0_L1D LOAD         ACCESS:  159441254 HIT:  149503540 MISS:    9937714
cpu0_L1D RFO          ACCESS:          0 HIT:          0 MISS:          0
cpu0_L1D PREFETCH     ACCESS:          0 HIT:          0 MISS:          0
cpu0_L1D WRITE        ACCESS:   34635532 HIT:   30537951 MISS:    4097581
cpu0_L1D TRANSLATION  ACCESS:      46775 HIT:      29661 MISS:      17114
cpu0_L1D PREFETCH REQUESTED:          0 ISSUED:          0 USEFUL:          0 USELESS:          0
cpu0_L1D AVERAGE MISS LATENCY: 170 cycles
cpu0_L1I TOTAL        ACCESS:     194407 HIT:     191610 MISS:       2797
cpu0_L1I LOAD         ACCESS:     194407 HIT:     191610 MISS:       2797
cpu0_L1I RFO          ACCESS:          0 HIT:          0 MISS:          0
cpu0_L1I PREFETCH     ACCESS:          0 HIT:          0 MISS:          0
cpu0_L1I WRITE        ACCESS:          0 HIT:          0 MISS:          0
cpu0_L1I TRANSLATION  ACCESS:          0 HIT:          0 MISS:          0
cpu0_L1I PREFETCH REQUESTED:          0 ISSUED:          0 USEFUL:          0 USELESS:          0
cpu0_L1I AVERAGE MISS LATENCY: 513 cycles
cpu0_L2C TOTAL        ACCESS:    5272195 HIT:    2138500 MISS:    3133695
cpu0_L2C LOAD         ACCESS:    2366078 HIT:     125662 MISS:    2240416
cpu0_L2C RFO          ACCESS:     889976 HIT:        527 MISS:     889449
cpu0_L2C PREFETCH     ACCESS:          0 HIT:          0 MISS:          0
cpu0_L2C WRITE        ACCESS:    1999031 HIT:    1998577 MISS:        454
cpu0_L2C TRANSLATION  ACCESS:      17110 HIT:      13734 MISS:       3376
cpu0_L2C PREFETCH REQUESTED:          0 ISSUED:          0 USEFUL:          0 USELESS:          0
cpu0_L2C AVERAGE MISS LATENCY: 1045 cycles
cpu0_STLB TOTAL        ACCESS:     311405 HIT:     264653 MISS:      46752
cpu0_STLB LOAD         ACCESS:     311405 HIT:     264653 MISS:      46752
cpu0_STLB RFO          ACCESS:          0 HIT:          0 MISS:          0
cpu0_STLB PREFETCH     ACCESS:          0 HIT:          0 MISS:          0
cpu0_STLB WRITE        ACCESS:          0 HIT:          0 MISS:          0
cpu0_STLB TRANSLATION  ACCESS:          0 HIT:          0 MISS:          0
cpu0_STLB PREFETCH REQUESTED:          0 ISSUED:          0 USEFUL:          0 USELESS:          0
cpu0_STLB AVERAGE MISS LATENCY: 296.2 cycles

DRAM Statistics

Channel 0 RQ ROW_BUFFER_HIT:     684152
  ROW_BUFFER_MISS:    1919127
 AVG DBUS CONGESTED CYCLE: 3.975
WQ ROW_BUFFER_HIT: Channel 0 
  ROW_BUFFER_MISS:     350130
  FULL:    1351025
