WARNING: physical memory size is smaller than virtual memory size.

*** ChampSim Multicore Out-of-Order Simulator ***
Warmup Instructions: 50000000
Simulation Instructions: 600000000
Number of CPUs: 1
Page size: 4096

CPU 0 Tage branch predictor
Off-chip DRAM Size: 4 GiB Channels: 1 Width: 64-bit Data Race: 3200 MT/s
Heartbeat CPU 0 instructions: 10000000 cycles: 2881042 heartbeat IPC: 3.471 cumulative IPC: 3.471 (Simulation time: 00 hr 00 min 42 sec)
Heartbeat CPU 0 instructions: 20000000 cycles: 5381042 heartbeat IPC: 4 cumulative IPC: 3.717 (Simulation time: 00 hr 01 min 21 sec)
Heartbeat CPU 0 instructions: 30000000 cycles: 7881042 heartbeat IPC: 4 cumulative IPC: 3.807 (Simulation time: 00 hr 02 min 00 sec)
Heartbeat CPU 0 instructions: 40000000 cycles: 10381042 heartbeat IPC: 4 cumulative IPC: 3.853 (Simulation time: 00 hr 02 min 38 sec)
Heartbeat CPU 0 instructions: 50000000 cycles: 12881042 heartbeat IPC: 4 cumulative IPC: 3.882 (Simulation time: 00 hr 03 min 16 sec)
Warmup finished CPU 0 instructions: 50000000 cycles: 12881043 cumulative IPC: 3.882 (Simulation time: 00 hr 03 min 16 sec)
Warmup complete CPU 0 instructions: 50000000 cycles: 12881043 cumulative IPC: 3.882 (Simulation time: 00 hr 03 min 16 sec)
Heartbeat CPU 0 instructions: 60000004 cycles: 15381387 heartbeat IPC: 3.999 cumulative IPC: 3.999 (Simulation time: 00 hr 04 min 02 sec)
Heartbeat CPU 0 instructions: 70000002 cycles: 17881465 heartbeat IPC: 4 cumulative IPC: 4 (Simulation time: 00 hr 04 min 47 sec)
Heartbeat CPU 0 instructions: 80000001 cycles: 20381583 heartbeat IPC: 4 cumulative IPC: 4 (Simulation time: 00 hr 05 min 32 sec)
Heartbeat CPU 0 instructions: 90000004 cycles: 22881704 heartbeat IPC: 4 cumulative IPC: 4 (Simulation time: 00 hr 06 min 16 sec)
Heartbeat CPU 0 instructions: 100000000 cycles: 25381823 heartbeat IPC: 4 cumulative IPC: 4 (Simulation time: 00 hr 07 min 03 sec)
Heartbeat CPU 0 instructions: 110000002 cycles: 27881942 heartbeat IPC: 4 cumulative IPC: 4 (Simulation time: 00 hr 07 min 49 sec)
Heartbeat CPU 0 instructions: 120000000 cycles: 30382055 heartbeat IPC: 4 cumulative IPC: 4 (Simulation time: 00 hr 08 min 35 sec)
Heartbeat CPU 0 instructions: 130000002 cycles: 32882459 heartbeat IPC: 3.999 cumulative IPC: 4 (Simulation time: 00 hr 09 min 20 sec)
Heartbeat CPU 0 instructions: 140000004 cycles: 35382582 heartbeat IPC: 4 cumulative IPC: 4 (Simulation time: 00 hr 10 min 05 sec)
Heartbeat CPU 0 instructions: 150000000 cycles: 37882660 heartbeat IPC: 4 cumulative IPC: 4 (Simulation time: 00 hr 10 min 49 sec)
Heartbeat CPU 0 instructions: 160000003 cycles: 40382781 heartbeat IPC: 4 cumulative IPC: 4 (Simulation time: 00 hr 11 min 33 sec)
Heartbeat CPU 0 instructions: 170000002 cycles: 42882948 heartbeat IPC: 4 cumulative IPC: 4 (Simulation time: 00 hr 12 min 16 sec)
Heartbeat CPU 0 instructions: 180000000 cycles: 45383023 heartbeat IPC: 4 cumulative IPC: 4 (Simulation time: 00 hr 13 min 01 sec)
Heartbeat CPU 0 instructions: 190000003 cycles: 47883408 heartbeat IPC: 3.999 cumulative IPC: 4 (Simulation time: 00 hr 13 min 45 sec)
Heartbeat CPU 0 instructions: 200000000 cycles: 50383573 heartbeat IPC: 4 cumulative IPC: 4 (Simulation time: 00 hr 14 min 29 sec)
Heartbeat CPU 0 instructions: 210000000 cycles: 52883691 heartbeat IPC: 4 cumulative IPC: 4 (Simulation time: 00 hr 15 min 13 sec)
Heartbeat CPU 0 instructions: 220000003 cycles: 55384465 heartbeat IPC: 3.999 cumulative IPC: 4 (Simulation time: 00 hr 16 min 02 sec)
Heartbeat CPU 0 instructions: 230000001 cycles: 89829241 heartbeat IPC: 0.2903 cumulative IPC: 2.339 (Simulation time: 00 hr 19 min 55 sec)
Heartbeat CPU 0 instructions: 240000002 cycles: 95729246 heartbeat IPC: 1.695 cumulative IPC: 2.293 (Simulation time: 00 hr 21 min 09 sec)
Heartbeat CPU 0 instructions: 250000000 cycles: 101631775 heartbeat IPC: 1.694 cumulative IPC: 2.254 (Simulation time: 00 hr 22 min 24 sec)
Heartbeat CPU 0 instructions: 260000004 cycles: 107563818 heartbeat IPC: 1.686 cumulative IPC: 2.218 (Simulation time: 00 hr 23 min 39 sec)
Heartbeat CPU 0 instructions: 270000003 cycles: 113524594 heartbeat IPC: 1.678 cumulative IPC: 2.186 (Simulation time: 00 hr 24 min 54 sec)
Heartbeat CPU 0 instructions: 280000003 cycles: 119509261 heartbeat IPC: 1.671 cumulative IPC: 2.157 (Simulation time: 00 hr 26 min 08 sec)
Heartbeat CPU 0 instructions: 290000000 cycles: 125471885 heartbeat IPC: 1.677 cumulative IPC: 2.132 (Simulation time: 00 hr 27 min 22 sec)
Heartbeat CPU 0 instructions: 300000003 cycles: 131447909 heartbeat IPC: 1.673 cumulative IPC: 2.109 (Simulation time: 00 hr 28 min 37 sec)
Heartbeat CPU 0 instructions: 310000001 cycles: 137417496 heartbeat IPC: 1.675 cumulative IPC: 2.088 (Simulation time: 00 hr 29 min 51 sec)
Heartbeat CPU 0 instructions: 320000004 cycles: 143414227 heartbeat IPC: 1.668 cumulative IPC: 2.068 (Simulation time: 00 hr 31 min 04 sec)
Heartbeat CPU 0 instructions: 330000004 cycles: 149742472 heartbeat IPC: 1.58 cumulative IPC: 2.046 (Simulation time: 00 hr 32 min 21 sec)
Heartbeat CPU 0 instructions: 340000002 cycles: 156130398 heartbeat IPC: 1.565 cumulative IPC: 2.024 (Simulation time: 00 hr 33 min 40 sec)
Heartbeat CPU 0 instructions: 350000002 cycles: 162613384 heartbeat IPC: 1.542 cumulative IPC: 2.004 (Simulation time: 00 hr 34 min 59 sec)
Heartbeat CPU 0 instructions: 360000000 cycles: 169143535 heartbeat IPC: 1.531 cumulative IPC: 1.984 (Simulation time: 00 hr 36 min 17 sec)
Heartbeat CPU 0 instructions: 370000001 cycles: 175554631 heartbeat IPC: 1.56 cumulative IPC: 1.967 (Simulation time: 00 hr 37 min 34 sec)
Heartbeat CPU 0 instructions: 380000003 cycles: 181988259 heartbeat IPC: 1.554 cumulative IPC: 1.951 (Simulation time: 00 hr 38 min 51 sec)
Heartbeat CPU 0 instructions: 390000004 cycles: 188365829 heartbeat IPC: 1.568 cumulative IPC: 1.937 (Simulation time: 00 hr 40 min 09 sec)
Heartbeat CPU 0 instructions: 400000000 cycles: 194797907 heartbeat IPC: 1.555 cumulative IPC: 1.924 (Simulation time: 00 hr 41 min 28 sec)
Heartbeat CPU 0 instructions: 410000003 cycles: 201297957 heartbeat IPC: 1.538 cumulative IPC: 1.911 (Simulation time: 00 hr 42 min 47 sec)
Heartbeat CPU 0 instructions: 420000001 cycles: 207735061 heartbeat IPC: 1.553 cumulative IPC: 1.899 (Simulation time: 00 hr 44 min 04 sec)
Heartbeat CPU 0 instructions: 430000002 cycles: 212508794 heartbeat IPC: 2.095 cumulative IPC: 1.904 (Simulation time: 00 hr 45 min 07 sec)
Heartbeat CPU 0 instructions: 440000002 cycles: 217557533 heartbeat IPC: 1.981 cumulative IPC: 1.905 (Simulation time: 00 hr 46 min 13 sec)
Heartbeat CPU 0 instructions: 450000000 cycles: 222935141 heartbeat IPC: 1.86 cumulative IPC: 1.904 (Simulation time: 00 hr 47 min 23 sec)
Heartbeat CPU 0 instructions: 460000003 cycles: 228906841 heartbeat IPC: 1.675 cumulative IPC: 1.898 (Simulation time: 00 hr 48 min 37 sec)
Heartbeat CPU 0 instructions: 470000004 cycles: 235477238 heartbeat IPC: 1.522 cumulative IPC: 1.887 (Simulation time: 00 hr 49 min 57 sec)
Heartbeat CPU 0 instructions: 480000000 cycles: 242041071 heartbeat IPC: 1.523 cumulative IPC: 1.876 (Simulation time: 00 hr 51 min 19 sec)
Heartbeat CPU 0 instructions: 490000001 cycles: 248620742 heartbeat IPC: 1.52 cumulative IPC: 1.866 (Simulation time: 00 hr 52 min 41 sec)
Heartbeat CPU 0 instructions: 500000001 cycles: 255240551 heartbeat IPC: 1.511 cumulative IPC: 1.857 (Simulation time: 00 hr 54 min 02 sec)
Heartbeat CPU 0 instructions: 510000002 cycles: 261798050 heartbeat IPC: 1.525 cumulative IPC: 1.848 (Simulation time: 00 hr 55 min 23 sec)
Heartbeat CPU 0 instructions: 520000001 cycles: 329563090 heartbeat IPC: 0.1476 cumulative IPC: 1.484 (Simulation time: 01 hr 05 min 01 sec)
Heartbeat CPU 0 instructions: 530000001 cycles: 442919763 heartbeat IPC: 0.08822 cumulative IPC: 1.116 (Simulation time: 01 hr 20 min 41 sec)
Heartbeat CPU 0 instructions: 540000002 cycles: 473878492 heartbeat IPC: 0.323 cumulative IPC: 1.063 (Simulation time: 01 hr 25 min 16 sec)
Heartbeat CPU 0 instructions: 550000003 cycles: 503125885 heartbeat IPC: 0.3419 cumulative IPC: 1.02 (Simulation time: 01 hr 29 min 38 sec)
Heartbeat CPU 0 instructions: 560000001 cycles: 532489171 heartbeat IPC: 0.3406 cumulative IPC: 0.9815 (Simulation time: 01 hr 34 min 00 sec)
Heartbeat CPU 0 instructions: 570000000 cycles: 561874560 heartbeat IPC: 0.3403 cumulative IPC: 0.9472 (Simulation time: 01 hr 38 min 27 sec)
Heartbeat CPU 0 instructions: 580000002 cycles: 591695481 heartbeat IPC: 0.3353 cumulative IPC: 0.9157 (Simulation time: 01 hr 42 min 59 sec)
Heartbeat CPU 0 instructions: 590000001 cycles: 621404231 heartbeat IPC: 0.3366 cumulative IPC: 0.8874 (Simulation time: 01 hr 47 min 32 sec)
*** Reached end of trace: (0, "traces/bt.A.champsimtrace")
Heartbeat CPU 0 instructions: 600000002 cycles: 650897154 heartbeat IPC: 0.3391 cumulative IPC: 0.862 (Simulation time: 01 hr 51 min 56 sec)
Heartbeat CPU 0 instructions: 610000004 cycles: 675424166 heartbeat IPC: 0.4077 cumulative IPC: 0.8452 (Simulation time: 01 hr 54 min 47 sec)
Heartbeat CPU 0 instructions: 620000000 cycles: 677924286 heartbeat IPC: 4 cumulative IPC: 0.8571 (Simulation time: 01 hr 55 min 31 sec)
Heartbeat CPU 0 instructions: 630000002 cycles: 680424408 heartbeat IPC: 4 cumulative IPC: 0.8689 (Simulation time: 01 hr 56 min 15 sec)
Heartbeat CPU 0 instructions: 640000001 cycles: 682924529 heartbeat IPC: 4 cumulative IPC: 0.8805 (Simulation time: 01 hr 56 min 59 sec)
Heartbeat CPU 0 instructions: 650000002 cycles: 685424637 heartbeat IPC: 4 cumulative IPC: 0.8921 (Simulation time: 01 hr 57 min 45 sec)
Simulation finished CPU 0 instructions: 600000002 cycles: 672543595 cumulative IPC: 0.8921 (Simulation time: 01 hr 57 min 45 sec)
Simulation complete CPU 0 instructions: 600000002 cycles: 672543595 cumulative IPC: 0.8921 (Simulation time: 01 hr 57 min 45 sec)

ChampSim completed all CPUs

=== Simulation ===
CPU 0 runs traces/bt.A.champsimtrace
Region of Interest Statistics

CPU 0 cumulative IPC: 0.8921 instructions: 600000002 cycles: 672543595
CPU 0 Branch Prediction Accuracy: 99.98% MPKI: 0.004168 Average ROB Occupancy at Mispredict: 112
Branch type MPKI
BRANCH_DIRECT_JUMP: 5e-06
BRANCH_INDIRECT: 7.83e-05
BRANCH_CONDITIONAL: 0.00402
BRANCH_DIRECT_CALL: 6.67e-06
BRANCH_INDIRECT_CALL: 3.67e-05
BRANCH_RETURN: 2.33e-05

LLC TOTAL        ACCESS:    5122092 HIT:    2516232 MISS:    2605860
LLC LOAD         ACCESS:    2240509 HIT:     515362 MISS:    1725147
LLC RFO          ACCESS:     889446 HIT:      10532 MISS:     878914
LLC PREFETCH     ACCESS:          0 HIT:          0 MISS:          0
LLC WRITE        ACCESS:    1988759 HIT:    1988634 MISS:        125
LLC TRANSLATION  ACCESS:       3378 HIT:       1704 MISS:       1674
LLC PREFETCH REQUESTED:          0 ISSUED:          0 USEFUL:          0 USELESS:          0
LLC AVERAGE MISS LATENCY: 1214 cycles
cpu0_DTLB TOTAL        ACCESS:  127711138 HIT:  126933951 MISS:     777187
cpu0_DTLB LOAD         ACCESS:  127711138 HIT:  126933951 MISS:     777187
cpu0_DTLB RFO          ACCESS:          0 HIT:          0 MISS:          0
cpu0_DTLB PREFETCH     ACCESS:          0 HIT:          0 MISS:          0
cpu0_DTLB WRITE        ACCESS:          0 HIT:          0 MISS:          0
cpu0_DTLB TRANSLATION  ACCESS:          0 HIT:          0 MISS:          0
cpu0_DTLB PREFETCH REQUESTED:          0 ISSUED:          0 USEFUL:          0 USELESS:          0
cpu0_DTLB AVERAGE MISS LATENCY: 13.49 cycles
cpu0_ITLB TOTAL        ACCESS:     173013 HIT:     172757 MISS:        256
cpu0_ITLB LOAD         ACCESS:     173013 HIT:     172757 MISS:        256
cpu0_ITLB RFO          ACCESS:          0 HIT:          0 MISS:          0
cpu0_ITLB PREFETCH     ACCESS:          0 HIT:          0 MISS:          0
cpu0_ITLB WRITE        ACCESS:          0 HIT:          0 MISS:          0
cpu0_ITLB TRANSLATION  ACCESS:          0 HIT:          0 MISS:          0
cpu0_ITLB PREFETCH REQUESTED:          0 ISSUED:          0 USEFUL:          0 USELESS:          0
cpu0_ITLB AVERAGE MISS LATENCY: 267.7 cycles
cpu0_L1D TOTAL        ACCESS:  195226503 HIT:  181176266 MISS:   14050237
cpu0_L1D LOAD         ACCESS:  160544205 HIT:  150609883 MISS:    9934322
cpu0_L1D RFO          ACCESS:          0 HIT:          0 MISS:          0
cpu0_L1D PREFETCH     ACCESS:          0 HIT:          0 MISS:          0
cpu0_L1D WRITE        ACCESS:   34635523 HIT:   30536718 MISS:    4098805
cpu0_L1D TRANSLATION  ACCESS:      46775 HIT:      29665 MISS:      17110
cpu0_L1D PREFETCH REQUESTED:          0 ISSUED:          0 USEFUL:          0 USELESS:          0
cpu0_L1D AVERAGE MISS LATENCY: 167.1 cycles
cpu0_L1I TOTAL        ACCESS:     205860 HIT:     202912 MISS:       2948
cpu0_L1I LOAD         ACCESS:     205860 HIT:     202912 MISS:       2948
cpu0_L1I RFO          ACCESS:          0 HIT:          0 MISS:          0
cpu0_L1I PREFETCH     ACCESS:          0 HIT:          0 MISS:          0
cpu0_L1I WRITE        ACCESS:          0 HIT:          0 MISS:          0
cpu0_L1I TRANSLATION  ACCESS:          0 HIT:          0 MISS:          0
cpu0_L1I PREFETCH REQUESTED:          0 ISSUED:          0 USEFUL:          0 USELESS:          0
cpu0_L1I AVERAGE MISS LATENCY: 469.4 cycles
cpu0_L2C TOTAL        ACCESS:    5272439 HIT:    2138591 MISS:    3133848
cpu0_L2C LOAD         ACCESS:    2366326 HIT:     125758 MISS:    2240568
cpu0_L2C RFO          ACCESS:     889973 HIT:        527 MISS:     889446
cpu0_L2C PREFETCH     ACCESS:          0 HIT:          0 MISS:          0
cpu0_L2C WRITE        ACCESS:    1999033 HIT:    1998577 MISS:        456
cpu0_L2C TRANSLATION  ACCESS:      17107 HIT:      13729 MISS:       3378
cpu0_L2C PREFETCH REQUESTED:          0 ISSUED:          0 USEFUL:          0 USELESS:          0
cpu0_L2C AVERAGE MISS LATENCY: 1031 cycles
cpu0_STLB TOTAL        ACCESS:     315014 HIT:     268261 MISS:      46753
cpu0_STLB LOAD         ACCESS:     315014 HIT:     268261 MISS:      46753
cpu0_STLB RFO          ACCESS:          0 HIT:          0 MISS:          0
cpu0_STLB PREFETCH     ACCESS:          0 HIT:          0 MISS:          0
cpu0_STLB WRITE        ACCESS:          0 HIT:          0 MISS:          0
cpu0_STLB TRANSLATION  ACCESS:          0 HIT:          0 MISS:          0
cpu0_STLB PREFETCH REQUESTED:          0 ISSUED:          0 USEFUL:          0 USELESS:          0
cpu0_STLB AVERAGE MISS LATENCY: 297 cycles

DRAM Statistics

Channel 0 RQ ROW_BUFFER_HIT:     696362
  ROW_BUFFER_MISS:    1909372
 AVG DBUS CONGESTED CYCLE: 3.974
WQ ROW_BUFFER_HIT: Channel 0 
  ROW_BUFFER_MISS:     381221
  FULL:    1321843
