WARNING: physical memory size is smaller than virtual memory size.

*** ChampSim Multicore Out-of-Order Simulator ***
Warmup Instructions: 50000000
Simulation Instructions: 600000000
Number of CPUs: 1
Page size: 4096

Off-chip DRAM Size: 4 GiB Channels: 1 Width: 64-bit Data Race: 3200 MT/s
Heartbeat CPU 0 instructions: 10000000 cycles: 2881042 heartbeat IPC: 3.471 cumulative IPC: 3.471 (Simulation time: 00 hr 00 min 41 sec)
Heartbeat CPU 0 instructions: 20000000 cycles: 5381042 heartbeat IPC: 4 cumulative IPC: 3.717 (Simulation time: 00 hr 01 min 15 sec)
Heartbeat CPU 0 instructions: 30000000 cycles: 7881042 heartbeat IPC: 4 cumulative IPC: 3.807 (Simulation time: 00 hr 01 min 48 sec)
Heartbeat CPU 0 instructions: 40000000 cycles: 10381042 heartbeat IPC: 4 cumulative IPC: 3.853 (Simulation time: 00 hr 02 min 22 sec)
Heartbeat CPU 0 instructions: 50000000 cycles: 12881042 heartbeat IPC: 4 cumulative IPC: 3.882 (Simulation time: 00 hr 02 min 56 sec)
Warmup finished CPU 0 instructions: 50000000 cycles: 12881043 cumulative IPC: 3.882 (Simulation time: 00 hr 02 min 56 sec)
Warmup complete CPU 0 instructions: 50000000 cycles: 12881043 cumulative IPC: 3.882 (Simulation time: 00 hr 02 min 56 sec)
Heartbeat CPU 0 instructions: 60000004 cycles: 15383661 heartbeat IPC: 3.996 cumulative IPC: 3.996 (Simulation time: 00 hr 03 min 35 sec)
Heartbeat CPU 0 instructions: 70000002 cycles: 17886024 heartbeat IPC: 3.996 cumulative IPC: 3.996 (Simulation time: 00 hr 04 min 14 sec)
Heartbeat CPU 0 instructions: 80000002 cycles: 20388430 heartbeat IPC: 3.996 cumulative IPC: 3.996 (Simulation time: 00 hr 04 min 53 sec)
Heartbeat CPU 0 instructions: 90000004 cycles: 22890853 heartbeat IPC: 3.996 cumulative IPC: 3.996 (Simulation time: 00 hr 05 min 32 sec)
Heartbeat CPU 0 instructions: 100000000 cycles: 25393258 heartbeat IPC: 3.996 cumulative IPC: 3.996 (Simulation time: 00 hr 06 min 12 sec)
Heartbeat CPU 0 instructions: 110000002 cycles: 27895664 heartbeat IPC: 3.996 cumulative IPC: 3.996 (Simulation time: 00 hr 06 min 53 sec)
Heartbeat CPU 0 instructions: 120000000 cycles: 30398061 heartbeat IPC: 3.996 cumulative IPC: 3.996 (Simulation time: 00 hr 07 min 33 sec)
Heartbeat CPU 0 instructions: 130000002 cycles: 32900750 heartbeat IPC: 3.996 cumulative IPC: 3.996 (Simulation time: 00 hr 08 min 14 sec)
Heartbeat CPU 0 instructions: 140000004 cycles: 35403159 heartbeat IPC: 3.996 cumulative IPC: 3.996 (Simulation time: 00 hr 08 min 56 sec)
Heartbeat CPU 0 instructions: 150000000 cycles: 37905521 heartbeat IPC: 3.996 cumulative IPC: 3.996 (Simulation time: 00 hr 09 min 37 sec)
Heartbeat CPU 0 instructions: 160000003 cycles: 40407928 heartbeat IPC: 3.996 cumulative IPC: 3.996 (Simulation time: 00 hr 10 min 16 sec)
Heartbeat CPU 0 instructions: 170000002 cycles: 42910392 heartbeat IPC: 3.996 cumulative IPC: 3.996 (Simulation time: 00 hr 10 min 55 sec)
Heartbeat CPU 0 instructions: 180000000 cycles: 45412755 heartbeat IPC: 3.996 cumulative IPC: 3.996 (Simulation time: 00 hr 11 min 38 sec)
Heartbeat CPU 0 instructions: 190000003 cycles: 47915413 heartbeat IPC: 3.996 cumulative IPC: 3.996 (Simulation time: 00 hr 12 min 17 sec)
Heartbeat CPU 0 instructions: 200000000 cycles: 50417865 heartbeat IPC: 3.996 cumulative IPC: 3.996 (Simulation time: 00 hr 12 min 56 sec)
Heartbeat CPU 0 instructions: 210000000 cycles: 52920270 heartbeat IPC: 3.996 cumulative IPC: 3.996 (Simulation time: 00 hr 13 min 35 sec)
Heartbeat CPU 0 instructions: 220000003 cycles: 55423305 heartbeat IPC: 3.995 cumulative IPC: 3.996 (Simulation time: 00 hr 14 min 13 sec)
Heartbeat CPU 0 instructions: 230000001 cycles: 89927915 heartbeat IPC: 0.2898 cumulative IPC: 2.336 (Simulation time: 00 hr 18 min 02 sec)
Heartbeat CPU 0 instructions: 240000002 cycles: 93296858 heartbeat IPC: 2.968 cumulative IPC: 2.363 (Simulation time: 00 hr 18 min 53 sec)
Heartbeat CPU 0 instructions: 250000000 cycles: 96695901 heartbeat IPC: 2.942 cumulative IPC: 2.386 (Simulation time: 00 hr 19 min 42 sec)
Heartbeat CPU 0 instructions: 260000002 cycles: 100076078 heartbeat IPC: 2.958 cumulative IPC: 2.408 (Simulation time: 00 hr 20 min 33 sec)
Heartbeat CPU 0 instructions: 270000003 cycles: 103470625 heartbeat IPC: 2.946 cumulative IPC: 2.429 (Simulation time: 00 hr 21 min 22 sec)
Heartbeat CPU 0 instructions: 280000001 cycles: 106898554 heartbeat IPC: 2.917 cumulative IPC: 2.446 (Simulation time: 00 hr 22 min 10 sec)
Heartbeat CPU 0 instructions: 290000002 cycles: 110312552 heartbeat IPC: 2.929 cumulative IPC: 2.463 (Simulation time: 00 hr 22 min 59 sec)
Heartbeat CPU 0 instructions: 300000003 cycles: 113702514 heartbeat IPC: 2.95 cumulative IPC: 2.48 (Simulation time: 00 hr 23 min 49 sec)
Heartbeat CPU 0 instructions: 310000002 cycles: 117186054 heartbeat IPC: 2.871 cumulative IPC: 2.493 (Simulation time: 00 hr 24 min 40 sec)
Heartbeat CPU 0 instructions: 320000002 cycles: 120600682 heartbeat IPC: 2.929 cumulative IPC: 2.507 (Simulation time: 00 hr 25 min 30 sec)
Heartbeat CPU 0 instructions: 330000004 cycles: 125956472 heartbeat IPC: 1.867 cumulative IPC: 2.476 (Simulation time: 00 hr 26 min 36 sec)
Heartbeat CPU 0 instructions: 340000002 cycles: 132489169 heartbeat IPC: 1.531 cumulative IPC: 2.425 (Simulation time: 00 hr 27 min 49 sec)
Heartbeat CPU 0 instructions: 350000002 cycles: 138974856 heartbeat IPC: 1.542 cumulative IPC: 2.379 (Simulation time: 00 hr 29 min 04 sec)
Heartbeat CPU 0 instructions: 360000000 cycles: 145487290 heartbeat IPC: 1.536 cumulative IPC: 2.338 (Simulation time: 00 hr 30 min 18 sec)
Heartbeat CPU 0 instructions: 370000001 cycles: 151974686 heartbeat IPC: 1.541 cumulative IPC: 2.301 (Simulation time: 00 hr 31 min 30 sec)
Heartbeat CPU 0 instructions: 380000003 cycles: 158560754 heartbeat IPC: 1.518 cumulative IPC: 2.265 (Simulation time: 00 hr 32 min 44 sec)
Heartbeat CPU 0 instructions: 390000004 cycles: 165160623 heartbeat IPC: 1.515 cumulative IPC: 2.233 (Simulation time: 00 hr 34 min 01 sec)
Heartbeat CPU 0 instructions: 400000000 cycles: 171752457 heartbeat IPC: 1.517 cumulative IPC: 2.203 (Simulation time: 00 hr 35 min 17 sec)
Heartbeat CPU 0 instructions: 410000003 cycles: 178288817 heartbeat IPC: 1.53 cumulative IPC: 2.176 (Simulation time: 00 hr 36 min 32 sec)
Heartbeat CPU 0 instructions: 420000000 cycles: 184782163 heartbeat IPC: 1.54 cumulative IPC: 2.152 (Simulation time: 00 hr 37 min 47 sec)
Heartbeat CPU 0 instructions: 430000002 cycles: 189601986 heartbeat IPC: 2.075 cumulative IPC: 2.15 (Simulation time: 00 hr 38 min 50 sec)
Heartbeat CPU 0 instructions: 440000002 cycles: 194699814 heartbeat IPC: 1.962 cumulative IPC: 2.145 (Simulation time: 00 hr 39 min 55 sec)
Heartbeat CPU 0 instructions: 450000000 cycles: 200109875 heartbeat IPC: 1.848 cumulative IPC: 2.136 (Simulation time: 00 hr 41 min 02 sec)
Heartbeat CPU 0 instructions: 460000003 cycles: 205946096 heartbeat IPC: 1.713 cumulative IPC: 2.124 (Simulation time: 00 hr 42 min 11 sec)
Heartbeat CPU 0 instructions: 470000004 cycles: 212364551 heartbeat IPC: 1.558 cumulative IPC: 2.105 (Simulation time: 00 hr 43 min 27 sec)
Heartbeat CPU 0 instructions: 480000000 cycles: 218936011 heartbeat IPC: 1.522 cumulative IPC: 2.087 (Simulation time: 00 hr 44 min 40 sec)
Heartbeat CPU 0 instructions: 490000001 cycles: 225569365 heartbeat IPC: 1.508 cumulative IPC: 2.069 (Simulation time: 00 hr 45 min 54 sec)
Heartbeat CPU 0 instructions: 500000001 cycles: 232214120 heartbeat IPC: 1.505 cumulative IPC: 2.052 (Simulation time: 00 hr 47 min 07 sec)
Heartbeat CPU 0 instructions: 510000002 cycles: 238848875 heartbeat IPC: 1.507 cumulative IPC: 2.036 (Simulation time: 00 hr 48 min 22 sec)
Heartbeat CPU 0 instructions: 520000003 cycles: 319476972 heartbeat IPC: 0.124 cumulative IPC: 1.533 (Simulation time: 00 hr 59 min 36 sec)
Heartbeat CPU 0 instructions: 530000001 cycles: 449605622 heartbeat IPC: 0.07685 cumulative IPC: 1.099 (Simulation time: 01 hr 17 min 20 sec)
Heartbeat CPU 0 instructions: 540000002 cycles: 473875149 heartbeat IPC: 0.412 cumulative IPC: 1.063 (Simulation time: 01 hr 20 min 57 sec)
Heartbeat CPU 0 instructions: 550000003 cycles: 497795694 heartbeat IPC: 0.4181 cumulative IPC: 1.031 (Simulation time: 01 hr 24 min 34 sec)
Heartbeat CPU 0 instructions: 560000001 cycles: 521369480 heartbeat IPC: 0.4242 cumulative IPC: 1.003 (Simulation time: 01 hr 28 min 05 sec)
Heartbeat CPU 0 instructions: 570000001 cycles: 544840942 heartbeat IPC: 0.426 cumulative IPC: 0.9775 (Simulation time: 01 hr 31 min 34 sec)
Heartbeat CPU 0 instructions: 580000002 cycles: 568160485 heartbeat IPC: 0.4288 cumulative IPC: 0.9545 (Simulation time: 01 hr 35 min 04 sec)
Heartbeat CPU 0 instructions: 590000000 cycles: 591713933 heartbeat IPC: 0.4246 cumulative IPC: 0.9329 (Simulation time: 01 hr 38 min 34 sec)
*** Reached end of trace: (0, "traces/bt.A.champsimtrace")
Heartbeat CPU 0 instructions: 600000002 cycles: 614770646 heartbeat IPC: 0.4337 cumulative IPC: 0.9138 (Simulation time: 01 hr 42 min 02 sec)
Heartbeat CPU 0 instructions: 610000004 cycles: 639982115 heartbeat IPC: 0.3966 cumulative IPC: 0.893 (Simulation time: 01 hr 44 min 46 sec)
Heartbeat CPU 0 instructions: 620000000 cycles: 642485480 heartbeat IPC: 3.995 cumulative IPC: 0.9053 (Simulation time: 01 hr 45 min 26 sec)
Heartbeat CPU 0 instructions: 630000002 cycles: 644987888 heartbeat IPC: 3.996 cumulative IPC: 0.9176 (Simulation time: 01 hr 46 min 06 sec)
Heartbeat CPU 0 instructions: 640000000 cycles: 647490296 heartbeat IPC: 3.996 cumulative IPC: 0.9297 (Simulation time: 01 hr 46 min 48 sec)
Heartbeat CPU 0 instructions: 650000002 cycles: 649992693 heartbeat IPC: 3.996 cumulative IPC: 0.9418 (Simulation time: 01 hr 47 min 28 sec)
Simulation finished CPU 0 instructions: 600000002 cycles: 637111651 cumulative IPC: 0.9418 (Simulation time: 01 hr 47 min 28 sec)
Simulation complete CPU 0 instructions: 600000002 cycles: 637111651 cumulative IPC: 0.9418 (Simulation time: 01 hr 47 min 28 sec)

ChampSim completed all CPUs

=== Simulation ===
CPU 0 runs traces/bt.A.champsimtrace
Region of Interest Statistics

CPU 0 cumulative IPC: 0.9418 instructions: 600000002 cycles: 637111651
CPU 0 Branch Prediction Accuracy: 99.29% MPKI: 0.1296 Average ROB Occupancy at Mispredict: 278.8
Branch type MPKI
BRANCH_DIRECT_JUMP: 5e-06
BRANCH_INDIRECT: 7.83e-05
BRANCH_CONDITIONAL: 0.129
BRANCH_DIRECT_CALL: 6.67e-06
BRANCH_INDIRECT_CALL: 3.67e-05
BRANCH_RETURN: 2.33e-05

LLC TOTAL        ACCESS:    7750911 HIT:    4892176 MISS:    2858735
LLC LOAD         ACCESS:    2240212 HIT:    1390212 MISS:     850000
LLC RFO          ACCESS:     889446 HIT:      10965 MISS:     878481
LLC PREFETCH     ACCESS:    2629166 HIT:    1500718 MISS:    1128448
LLC WRITE        ACCESS:    1988721 HIT:    1988593 MISS:        128
LLC TRANSLATION  ACCESS:       3366 HIT:       1688 MISS:       1678
LLC PREFETCH REQUESTED:    2629166 ISSUED:    2629166 USEFUL:     939419 USELESS:      17168
LLC AVERAGE MISS LATENCY: 1404 cycles
cpu0_DTLB TOTAL        ACCESS:  126886335 HIT:  126124248 MISS:     762087
cpu0_DTLB LOAD         ACCESS:  126886335 HIT:  126124248 MISS:     762087
cpu0_DTLB RFO          ACCESS:          0 HIT:          0 MISS:          0
cpu0_DTLB PREFETCH     ACCESS:          0 HIT:          0 MISS:          0
cpu0_DTLB WRITE        ACCESS:          0 HIT:          0 MISS:          0
cpu0_DTLB TRANSLATION  ACCESS:          0 HIT:          0 MISS:          0
cpu0_DTLB PREFETCH REQUESTED:          0 ISSUED:          0 USEFUL:          0 USELESS:          0
cpu0_DTLB AVERAGE MISS LATENCY: 12.78 cycles
cpu0_ITLB TOTAL        ACCESS:     142100 HIT:     141859 MISS:        241
cpu0_ITLB LOAD         ACCESS:     142100 HIT:     141859 MISS:        241
cpu0_ITLB RFO          ACCESS:          0 HIT:          0 MISS:          0
cpu0_ITLB PREFETCH     ACCESS:          0 HIT:          0 MISS:          0
cpu0_ITLB WRITE        ACCESS:          0 HIT:          0 MISS:          0
cpu0_ITLB TRANSLATION  ACCESS:          0 HIT:          0 MISS:          0
cpu0_ITLB PREFETCH REQUESTED:          0 ISSUED:          0 USEFUL:          0 USELESS:          0
cpu0_ITLB AVERAGE MISS LATENCY: 327.3 cycles
cpu0_L1D TOTAL        ACCESS:  194951921 HIT:  182079922 MISS:   12871999
cpu0_L1D LOAD         ACCESS:  160269625 HIT:  151642297 MISS:    8627328
cpu0_L1D RFO          ACCESS:          0 HIT:          0 MISS:          0
cpu0_L1D PREFETCH     ACCESS:          0 HIT:          0 MISS:          0
cpu0_L1D WRITE        ACCESS:   34635521 HIT:   30407939 MISS:    4227582
cpu0_L1D TRANSLATION  ACCESS:      46775 HIT:      29686 MISS:      17089
cpu0_L1D PREFETCH REQUESTED:          0 ISSUED:          0 USEFUL:          0 USELESS:          0
cpu0_L1D AVERAGE MISS LATENCY: 161.9 cycles
cpu0_L1I TOTAL        ACCESS:     191649 HIT:     188860 MISS:       2789
cpu0_L1I LOAD         ACCESS:     191649 HIT:     188860 MISS:       2789
cpu0_L1I RFO          ACCESS:          0 HIT:          0 MISS:          0
cpu0_L1I PREFETCH     ACCESS:          0 HIT:          0 MISS:          0
cpu0_L1I WRITE        ACCESS:          0 HIT:          0 MISS:          0
cpu0_L1I TRANSLATION  ACCESS:          0 HIT:          0 MISS:          0
cpu0_L1I PREFETCH REQUESTED:          0 ISSUED:          0 USEFUL:          0 USELESS:          0
cpu0_L1I AVERAGE MISS LATENCY: 521.3 cycles
cpu0_L2C TOTAL        ACCESS:    5259114 HIT:    2125609 MISS:    3133505
cpu0_L2C LOAD         ACCESS:    2352984 HIT:     112745 MISS:    2240239
cpu0_L2C RFO          ACCESS:     889976 HIT:        530 MISS:     889446
cpu0_L2C PREFETCH     ACCESS:          0 HIT:          0 MISS:          0
cpu0_L2C WRITE        ACCESS:    1999069 HIT:    1998615 MISS:        454
cpu0_L2C TRANSLATION  ACCESS:      17085 HIT:      13719 MISS:       3366
cpu0_L2C PREFETCH REQUESTED:          0 ISSUED:          0 USEFUL:          0 USELESS:          0
cpu0_L2C AVERAGE MISS LATENCY: 825.4 cycles
cpu0_STLB TOTAL        ACCESS:     310585 HIT:     263833 MISS:      46752
cpu0_STLB LOAD         ACCESS:     310585 HIT:     263833 MISS:      46752
cpu0_STLB RFO          ACCESS:          0 HIT:          0 MISS:          0
cpu0_STLB PREFETCH     ACCESS:          0 HIT:          0 MISS:          0
cpu0_STLB WRITE        ACCESS:          0 HIT:          0 MISS:          0
cpu0_STLB TRANSLATION  ACCESS:          0 HIT:          0 MISS:          0
cpu0_STLB PREFETCH REQUESTED:          0 ISSUED:          0 USEFUL:          0 USELESS:          0
cpu0_STLB AVERAGE MISS LATENCY: 275.8 cycles

DRAM Statistics

Channel 0 RQ ROW_BUFFER_HIT:     883855
  ROW_BUFFER_MISS:    1749440
 AVG DBUS CONGESTED CYCLE: 3.967
WQ ROW_BUFFER_HIT: Channel 0 
  ROW_BUFFER_MISS:     353023
  FULL:    1348708
