WARNING: physical memory size is smaller than virtual memory size.

*** ChampSim Multicore Out-of-Order Simulator ***
Warmup Instructions: 50000000
Simulation Instructions: 600000000
Number of CPUs: 1
Page size: 4096

Off-chip DRAM Size: 4 GiB Channels: 1 Width: 64-bit Data Race: 3200 MT/s
Heartbeat CPU 0 instructions: 10000003 cycles: 2881044 heartbeat IPC: 3.471 cumulative IPC: 3.471 (Simulation time: 00 hr 00 min 50 sec)
Heartbeat CPU 0 instructions: 20000003 cycles: 5381044 heartbeat IPC: 4 cumulative IPC: 3.717 (Simulation time: 00 hr 01 min 38 sec)
Heartbeat CPU 0 instructions: 30000003 cycles: 7881044 heartbeat IPC: 4 cumulative IPC: 3.807 (Simulation time: 00 hr 02 min 25 sec)
Heartbeat CPU 0 instructions: 40000003 cycles: 10381044 heartbeat IPC: 4 cumulative IPC: 3.853 (Simulation time: 00 hr 03 min 13 sec)
Heartbeat CPU 0 instructions: 50000003 cycles: 12881044 heartbeat IPC: 4 cumulative IPC: 3.882 (Simulation time: 00 hr 04 min 09 sec)
Warmup finished CPU 0 instructions: 50000003 cycles: 12881045 cumulative IPC: 3.882 (Simulation time: 00 hr 04 min 09 sec)
Warmup complete CPU 0 instructions: 50000003 cycles: 12881045 cumulative IPC: 3.882 (Simulation time: 00 hr 04 min 09 sec)
Heartbeat CPU 0 instructions: 60000001 cycles: 15384494 heartbeat IPC: 3.994 cumulative IPC: 3.994 (Simulation time: 00 hr 05 min 13 sec)
Heartbeat CPU 0 instructions: 70000003 cycles: 17887732 heartbeat IPC: 3.995 cumulative IPC: 3.995 (Simulation time: 00 hr 06 min 16 sec)
Heartbeat CPU 0 instructions: 80000002 cycles: 20390141 heartbeat IPC: 3.996 cumulative IPC: 3.995 (Simulation time: 00 hr 07 min 16 sec)
Heartbeat CPU 0 instructions: 90000002 cycles: 22893394 heartbeat IPC: 3.995 cumulative IPC: 3.995 (Simulation time: 00 hr 08 min 15 sec)
Heartbeat CPU 0 instructions: 100000003 cycles: 25395814 heartbeat IPC: 3.996 cumulative IPC: 3.995 (Simulation time: 00 hr 09 min 09 sec)
Heartbeat CPU 0 instructions: 110000000 cycles: 27899927 heartbeat IPC: 3.993 cumulative IPC: 3.995 (Simulation time: 00 hr 10 min 02 sec)
Heartbeat CPU 0 instructions: 120000001 cycles: 30403270 heartbeat IPC: 3.995 cumulative IPC: 3.995 (Simulation time: 00 hr 10 min 57 sec)
Heartbeat CPU 0 instructions: 130000004 cycles: 32905678 heartbeat IPC: 3.996 cumulative IPC: 3.995 (Simulation time: 00 hr 12 min 00 sec)
Heartbeat CPU 0 instructions: 140000000 cycles: 35408082 heartbeat IPC: 3.996 cumulative IPC: 3.995 (Simulation time: 00 hr 13 min 02 sec)
Heartbeat CPU 0 instructions: 150000001 cycles: 37911027 heartbeat IPC: 3.995 cumulative IPC: 3.995 (Simulation time: 00 hr 13 min 54 sec)
Heartbeat CPU 0 instructions: 160000004 cycles: 40414240 heartbeat IPC: 3.995 cumulative IPC: 3.995 (Simulation time: 00 hr 14 min 55 sec)
Heartbeat CPU 0 instructions: 170000004 cycles: 42917355 heartbeat IPC: 3.995 cumulative IPC: 3.995 (Simulation time: 00 hr 15 min 54 sec)
Heartbeat CPU 0 instructions: 180000000 cycles: 45420162 heartbeat IPC: 3.996 cumulative IPC: 3.995 (Simulation time: 00 hr 16 min 42 sec)
Heartbeat CPU 0 instructions: 190000004 cycles: 47923648 heartbeat IPC: 3.994 cumulative IPC: 3.995 (Simulation time: 00 hr 17 min 33 sec)
Heartbeat CPU 0 instructions: 200000000 cycles: 50426117 heartbeat IPC: 3.996 cumulative IPC: 3.995 (Simulation time: 00 hr 18 min 52 sec)
Heartbeat CPU 0 instructions: 210000003 cycles: 52928608 heartbeat IPC: 3.996 cumulative IPC: 3.995 (Simulation time: 00 hr 19 min 55 sec)
Heartbeat CPU 0 instructions: 220000000 cycles: 55431586 heartbeat IPC: 3.995 cumulative IPC: 3.995 (Simulation time: 00 hr 20 min 52 sec)
Heartbeat CPU 0 instructions: 230000003 cycles: 89454290 heartbeat IPC: 0.2939 cumulative IPC: 2.351 (Simulation time: 00 hr 25 min 48 sec)
Heartbeat CPU 0 instructions: 240000000 cycles: 93027499 heartbeat IPC: 2.799 cumulative IPC: 2.371 (Simulation time: 00 hr 27 min 19 sec)
Heartbeat CPU 0 instructions: 250000004 cycles: 96547214 heartbeat IPC: 2.841 cumulative IPC: 2.39 (Simulation time: 00 hr 28 min 59 sec)
Heartbeat CPU 0 instructions: 260000004 cycles: 100064355 heartbeat IPC: 2.843 cumulative IPC: 2.409 (Simulation time: 00 hr 30 min 08 sec)
Heartbeat CPU 0 instructions: 270000001 cycles: 103602841 heartbeat IPC: 2.826 cumulative IPC: 2.425 (Simulation time: 00 hr 31 min 18 sec)
Heartbeat CPU 0 instructions: 280000002 cycles: 107154756 heartbeat IPC: 2.815 cumulative IPC: 2.44 (Simulation time: 00 hr 32 min 31 sec)
Heartbeat CPU 0 instructions: 290000002 cycles: 110625953 heartbeat IPC: 2.881 cumulative IPC: 2.455 (Simulation time: 00 hr 33 min 44 sec)
Heartbeat CPU 0 instructions: 300000002 cycles: 114138902 heartbeat IPC: 2.847 cumulative IPC: 2.469 (Simulation time: 00 hr 34 min 56 sec)
Heartbeat CPU 0 instructions: 310000004 cycles: 117656620 heartbeat IPC: 2.843 cumulative IPC: 2.481 (Simulation time: 00 hr 36 min 05 sec)
Heartbeat CPU 0 instructions: 320000000 cycles: 121128110 heartbeat IPC: 2.881 cumulative IPC: 2.494 (Simulation time: 00 hr 37 min 15 sec)
Heartbeat CPU 0 instructions: 330000000 cycles: 125260303 heartbeat IPC: 2.42 cumulative IPC: 2.492 (Simulation time: 00 hr 38 min 31 sec)
Heartbeat CPU 0 instructions: 340000004 cycles: 131684100 heartbeat IPC: 1.557 cumulative IPC: 2.441 (Simulation time: 00 hr 40 min 17 sec)
Heartbeat CPU 0 instructions: 350000002 cycles: 138188209 heartbeat IPC: 1.537 cumulative IPC: 2.394 (Simulation time: 00 hr 41 min 54 sec)
Heartbeat CPU 0 instructions: 360000002 cycles: 145071197 heartbeat IPC: 1.453 cumulative IPC: 2.345 (Simulation time: 00 hr 43 min 35 sec)
Heartbeat CPU 0 instructions: 370000004 cycles: 151904695 heartbeat IPC: 1.463 cumulative IPC: 2.302 (Simulation time: 00 hr 45 min 20 sec)
Heartbeat CPU 0 instructions: 380000004 cycles: 158699612 heartbeat IPC: 1.472 cumulative IPC: 2.263 (Simulation time: 00 hr 47 min 03 sec)
Heartbeat CPU 0 instructions: 390000004 cycles: 165568940 heartbeat IPC: 1.456 cumulative IPC: 2.227 (Simulation time: 00 hr 48 min 51 sec)
Heartbeat CPU 0 instructions: 400000004 cycles: 172356582 heartbeat IPC: 1.473 cumulative IPC: 2.195 (Simulation time: 00 hr 50 min 48 sec)
Heartbeat CPU 0 instructions: 410000002 cycles: 178848270 heartbeat IPC: 1.54 cumulative IPC: 2.169 (Simulation time: 00 hr 52 min 28 sec)
Heartbeat CPU 0 instructions: 420000001 cycles: 183448349 heartbeat IPC: 2.174 cumulative IPC: 2.169 (Simulation time: 00 hr 53 min 58 sec)
Heartbeat CPU 0 instructions: 430000001 cycles: 189142016 heartbeat IPC: 1.756 cumulative IPC: 2.156 (Simulation time: 00 hr 55 min 34 sec)
Heartbeat CPU 0 instructions: 440000002 cycles: 194930155 heartbeat IPC: 1.728 cumulative IPC: 2.142 (Simulation time: 00 hr 57 min 19 sec)
Heartbeat CPU 0 instructions: 450000004 cycles: 200638185 heartbeat IPC: 1.752 cumulative IPC: 2.13 (Simulation time: 01 hr 00 min 31 sec)
Heartbeat CPU 0 instructions: 460000002 cycles: 206432908 heartbeat IPC: 1.726 cumulative IPC: 2.118 (Simulation time: 01 hr 02 min 22 sec)
Heartbeat CPU 0 instructions: 470000004 cycles: 212179648 heartbeat IPC: 1.74 cumulative IPC: 2.107 (Simulation time: 01 hr 04 min 04 sec)
Heartbeat CPU 0 instructions: 480000000 cycles: 217930392 heartbeat IPC: 1.739 cumulative IPC: 2.097 (Simulation time: 01 hr 05 min 38 sec)
Heartbeat CPU 0 instructions: 490000003 cycles: 223581120 heartbeat IPC: 1.77 cumulative IPC: 2.088 (Simulation time: 01 hr 07 min 06 sec)
Heartbeat CPU 0 instructions: 500000002 cycles: 229246593 heartbeat IPC: 1.765 cumulative IPC: 2.08 (Simulation time: 01 hr 08 min 33 sec)
Heartbeat CPU 0 instructions: 510000002 cycles: 234878330 heartbeat IPC: 1.776 cumulative IPC: 2.072 (Simulation time: 01 hr 10 min 04 sec)
Heartbeat CPU 0 instructions: 520000002 cycles: 310166111 heartbeat IPC: 0.1328 cumulative IPC: 1.581 (Simulation time: 01 hr 23 min 35 sec)
Heartbeat CPU 0 instructions: 530000001 cycles: 441712181 heartbeat IPC: 0.07602 cumulative IPC: 1.119 (Simulation time: 01 hr 46 min 55 sec)
Heartbeat CPU 0 instructions: 540000004 cycles: 469318500 heartbeat IPC: 0.3622 cumulative IPC: 1.074 (Simulation time: 01 hr 51 min 46 sec)
Heartbeat CPU 0 instructions: 550000003 cycles: 497398911 heartbeat IPC: 0.3561 cumulative IPC: 1.032 (Simulation time: 01 hr 57 min 17 sec)
Heartbeat CPU 0 instructions: 560000000 cycles: 524925032 heartbeat IPC: 0.3633 cumulative IPC: 0.996 (Simulation time: 02 hr 02 min 48 sec)
Heartbeat CPU 0 instructions: 570000003 cycles: 552904261 heartbeat IPC: 0.3574 cumulative IPC: 0.9629 (Simulation time: 02 hr 08 min 04 sec)
Heartbeat CPU 0 instructions: 580000002 cycles: 578489304 heartbeat IPC: 0.3909 cumulative IPC: 0.937 (Simulation time: 02 hr 12 min 54 sec)
Heartbeat CPU 0 instructions: 590000000 cycles: 605736966 heartbeat IPC: 0.367 cumulative IPC: 0.9108 (Simulation time: 02 hr 18 min 15 sec)
*** Reached end of trace: (0, "traces/bt.A.champsimtrace")
Heartbeat CPU 0 instructions: 600000001 cycles: 632927208 heartbeat IPC: 0.3678 cumulative IPC: 0.887 (Simulation time: 02 hr 23 min 38 sec)
Heartbeat CPU 0 instructions: 610000002 cycles: 660109418 heartbeat IPC: 0.3679 cumulative IPC: 0.8652 (Simulation time: 02 hr 27 min 40 sec)
Heartbeat CPU 0 instructions: 620000002 cycles: 662611747 heartbeat IPC: 3.996 cumulative IPC: 0.8773 (Simulation time: 02 hr 28 min 36 sec)
Heartbeat CPU 0 instructions: 630000003 cycles: 665114153 heartbeat IPC: 3.996 cumulative IPC: 0.8893 (Simulation time: 02 hr 29 min 35 sec)
Heartbeat CPU 0 instructions: 640000003 cycles: 667617620 heartbeat IPC: 3.994 cumulative IPC: 0.9011 (Simulation time: 02 hr 30 min 32 sec)
Heartbeat CPU 0 instructions: 650000000 cycles: 670120018 heartbeat IPC: 3.996 cumulative IPC: 0.9129 (Simulation time: 02 hr 31 min 29 sec)
Simulation finished CPU 0 instructions: 600000002 cycles: 657238975 cumulative IPC: 0.9129 (Simulation time: 02 hr 31 min 29 sec)
Simulation complete CPU 0 instructions: 600000002 cycles: 657238975 cumulative IPC: 0.9129 (Simulation time: 02 hr 31 min 29 sec)

ChampSim completed all CPUs

=== Simulation ===
CPU 0 runs traces/bt.A.champsimtrace
Region of Interest Statistics

CPU 0 cumulative IPC: 0.9129 instructions: 600000002 cycles: 657238975
CPU 0 Branch Prediction Accuracy: 99.29% MPKI: 0.1288 Average ROB Occupancy at Mispredict: 279
Branch type MPKI
BRANCH_DIRECT_JUMP: 5e-06
BRANCH_INDIRECT: 8.67e-05
BRANCH_CONDITIONAL: 0.129
BRANCH_DIRECT_CALL: 6.67e-06
BRANCH_INDIRECT_CALL: 3.83e-05
BRANCH_RETURN: 2.17e-05

LLC TOTAL        ACCESS:    7750366 HIT:    3750837 MISS:    3999529
LLC LOAD         ACCESS:    2240176 HIT:    1319465 MISS:     920711
LLC RFO          ACCESS:     889337 HIT:      28930 MISS:     860407
LLC PREFETCH     ACCESS:    2628968 HIT:    1420529 MISS:    1208439
LLC WRITE        ACCESS:    1988522 HIT:     981637 MISS:    1006885
LLC TRANSLATION  ACCESS:       3363 HIT:        276 MISS:       3087
LLC PREFETCH REQUESTED:    2628968 ISSUED:    2628968 USEFUL:     987200 USELESS:      20318
LLC AVERAGE MISS LATENCY: 1039 cycles
cpu0_DTLB TOTAL        ACCESS:  126540683 HIT:  125781673 MISS:     759010
cpu0_DTLB LOAD         ACCESS:  126540683 HIT:  125781673 MISS:     759010
cpu0_DTLB RFO          ACCESS:          0 HIT:          0 MISS:          0
cpu0_DTLB PREFETCH     ACCESS:          0 HIT:          0 MISS:          0
cpu0_DTLB WRITE        ACCESS:          0 HIT:          0 MISS:          0
cpu0_DTLB TRANSLATION  ACCESS:          0 HIT:          0 MISS:          0
cpu0_DTLB PREFETCH REQUESTED:          0 ISSUED:          0 USEFUL:          0 USELESS:          0
cpu0_DTLB AVERAGE MISS LATENCY: 14.93 cycles
cpu0_ITLB TOTAL        ACCESS:     141795 HIT:     141535 MISS:        260
cpu0_ITLB LOAD         ACCESS:     141795 HIT:     141535 MISS:        260
cpu0_ITLB RFO          ACCESS:          0 HIT:          0 MISS:          0
cpu0_ITLB PREFETCH     ACCESS:          0 HIT:          0 MISS:          0
cpu0_ITLB WRITE        ACCESS:          0 HIT:          0 MISS:          0
cpu0_ITLB TRANSLATION  ACCESS:          0 HIT:          0 MISS:          0
cpu0_ITLB PREFETCH REQUESTED:          0 ISSUED:          0 USEFUL:          0 USELESS:          0
cpu0_ITLB AVERAGE MISS LATENCY: 263 cycles
cpu0_L1D TOTAL        ACCESS:  194851417 HIT:  182052214 MISS:   12799203
cpu0_L1D LOAD         ACCESS:  160169254 HIT:  151564012 MISS:    8605242
cpu0_L1D RFO          ACCESS:          0 HIT:          0 MISS:          0
cpu0_L1D PREFETCH     ACCESS:          0 HIT:          0 MISS:          0
cpu0_L1D WRITE        ACCESS:   34635398 HIT:   30458469 MISS:    4176929
cpu0_L1D TRANSLATION  ACCESS:      46765 HIT:      29733 MISS:      17032
cpu0_L1D PREFETCH REQUESTED:          0 ISSUED:          0 USEFUL:          0 USELESS:          0
cpu0_L1D AVERAGE MISS LATENCY: 167.2 cycles
cpu0_L1I TOTAL        ACCESS:     191035 HIT:     188238 MISS:       2797
cpu0_L1I LOAD         ACCESS:     191035 HIT:     188238 MISS:       2797
cpu0_L1I RFO          ACCESS:          0 HIT:          0 MISS:          0
cpu0_L1I PREFETCH     ACCESS:          0 HIT:          0 MISS:          0
cpu0_L1I WRITE        ACCESS:          0 HIT:          0 MISS:          0
cpu0_L1I TRANSLATION  ACCESS:          0 HIT:          0 MISS:          0
cpu0_L1I PREFETCH REQUESTED:          0 ISSUED:          0 USEFUL:          0 USELESS:          0
cpu0_L1I AVERAGE MISS LATENCY: 542.8 cycles
cpu0_L2C TOTAL        ACCESS:    5260738 HIT:    2127465 MISS:    3133273
cpu0_L2C LOAD         ACCESS:    2353197 HIT:     112997 MISS:    2240200
cpu0_L2C RFO          ACCESS:     890699 HIT:       1362 MISS:     889337
cpu0_L2C PREFETCH     ACCESS:          0 HIT:          0 MISS:          0
cpu0_L2C WRITE        ACCESS:    1999811 HIT:    1999438 MISS:        373
cpu0_L2C TRANSLATION  ACCESS:      17031 HIT:      13668 MISS:       3363
cpu0_L2C PREFETCH REQUESTED:          0 ISSUED:          0 USEFUL:          0 USELESS:          0
cpu0_L2C AVERAGE MISS LATENCY: 843.6 cycles
cpu0_STLB TOTAL        ACCESS:     309887 HIT:     263141 MISS:      46746
cpu0_STLB LOAD         ACCESS:     309887 HIT:     263141 MISS:      46746
cpu0_STLB RFO          ACCESS:          0 HIT:          0 MISS:          0
cpu0_STLB PREFETCH     ACCESS:          0 HIT:          0 MISS:          0
cpu0_STLB WRITE        ACCESS:          0 HIT:          0 MISS:          0
cpu0_STLB TRANSLATION  ACCESS:          0 HIT:          0 MISS:          0
cpu0_STLB PREFETCH REQUESTED:          0 ISSUED:          0 USEFUL:          0 USELESS:          0
cpu0_STLB AVERAGE MISS LATENCY: 328.7 cycles

DRAM Statistics

Channel 0 RQ ROW_BUFFER_HIT:     933596
  ROW_BUFFER_MISS:    1791161
 AVG DBUS CONGESTED CYCLE: 3.963
WQ ROW_BUFFER_HIT: Channel 0 
  ROW_BUFFER_MISS:     398001
  FULL:    1320092
