WARNING: physical memory size is smaller than virtual memory size.

*** ChampSim Multicore Out-of-Order Simulator ***
Warmup Instructions: 50000000
Simulation Instructions: 600000000
Number of CPUs: 1
Page size: 4096

Off-chip DRAM Size: 4 GiB Channels: 1 Width: 64-bit Data Race: 3200 MT/s
Heartbeat CPU 0 instructions: 10000000 cycles: 2881042 heartbeat IPC: 3.471 cumulative IPC: 3.471 (Simulation time: 00 hr 00 min 37 sec)
Heartbeat CPU 0 instructions: 20000000 cycles: 5381042 heartbeat IPC: 4 cumulative IPC: 3.717 (Simulation time: 00 hr 01 min 09 sec)
Heartbeat CPU 0 instructions: 30000000 cycles: 7881042 heartbeat IPC: 4 cumulative IPC: 3.807 (Simulation time: 00 hr 01 min 41 sec)
Heartbeat CPU 0 instructions: 40000000 cycles: 10381042 heartbeat IPC: 4 cumulative IPC: 3.853 (Simulation time: 00 hr 02 min 12 sec)
Heartbeat CPU 0 instructions: 50000000 cycles: 12881042 heartbeat IPC: 4 cumulative IPC: 3.882 (Simulation time: 00 hr 02 min 43 sec)
Warmup finished CPU 0 instructions: 50000000 cycles: 12881043 cumulative IPC: 3.882 (Simulation time: 00 hr 02 min 43 sec)
Warmup complete CPU 0 instructions: 50000000 cycles: 12881043 cumulative IPC: 3.882 (Simulation time: 00 hr 02 min 43 sec)
Heartbeat CPU 0 instructions: 60000004 cycles: 15383661 heartbeat IPC: 3.996 cumulative IPC: 3.996 (Simulation time: 00 hr 03 min 20 sec)
Heartbeat CPU 0 instructions: 70000002 cycles: 17886024 heartbeat IPC: 3.996 cumulative IPC: 3.996 (Simulation time: 00 hr 03 min 56 sec)
Heartbeat CPU 0 instructions: 80000002 cycles: 20388430 heartbeat IPC: 3.996 cumulative IPC: 3.996 (Simulation time: 00 hr 04 min 33 sec)
Heartbeat CPU 0 instructions: 90000004 cycles: 22890853 heartbeat IPC: 3.996 cumulative IPC: 3.996 (Simulation time: 00 hr 05 min 13 sec)
Heartbeat CPU 0 instructions: 100000000 cycles: 25393258 heartbeat IPC: 3.996 cumulative IPC: 3.996 (Simulation time: 00 hr 05 min 50 sec)
Heartbeat CPU 0 instructions: 110000002 cycles: 27895664 heartbeat IPC: 3.996 cumulative IPC: 3.996 (Simulation time: 00 hr 06 min 28 sec)
Heartbeat CPU 0 instructions: 120000000 cycles: 30398061 heartbeat IPC: 3.996 cumulative IPC: 3.996 (Simulation time: 00 hr 07 min 06 sec)
Heartbeat CPU 0 instructions: 130000002 cycles: 32900750 heartbeat IPC: 3.996 cumulative IPC: 3.996 (Simulation time: 00 hr 07 min 44 sec)
Heartbeat CPU 0 instructions: 140000004 cycles: 35403159 heartbeat IPC: 3.996 cumulative IPC: 3.996 (Simulation time: 00 hr 08 min 22 sec)
Heartbeat CPU 0 instructions: 150000000 cycles: 37905521 heartbeat IPC: 3.996 cumulative IPC: 3.996 (Simulation time: 00 hr 08 min 59 sec)
Heartbeat CPU 0 instructions: 160000003 cycles: 40407928 heartbeat IPC: 3.996 cumulative IPC: 3.996 (Simulation time: 00 hr 09 min 34 sec)
Heartbeat CPU 0 instructions: 170000002 cycles: 42910392 heartbeat IPC: 3.996 cumulative IPC: 3.996 (Simulation time: 00 hr 10 min 10 sec)
Heartbeat CPU 0 instructions: 180000000 cycles: 45412755 heartbeat IPC: 3.996 cumulative IPC: 3.996 (Simulation time: 00 hr 10 min 45 sec)
Heartbeat CPU 0 instructions: 190000003 cycles: 47915413 heartbeat IPC: 3.996 cumulative IPC: 3.996 (Simulation time: 00 hr 11 min 20 sec)
Heartbeat CPU 0 instructions: 200000000 cycles: 50417865 heartbeat IPC: 3.996 cumulative IPC: 3.996 (Simulation time: 00 hr 11 min 56 sec)
Heartbeat CPU 0 instructions: 210000000 cycles: 52920270 heartbeat IPC: 3.996 cumulative IPC: 3.996 (Simulation time: 00 hr 12 min 33 sec)
Heartbeat CPU 0 instructions: 220000003 cycles: 55423305 heartbeat IPC: 3.995 cumulative IPC: 3.996 (Simulation time: 00 hr 13 min 11 sec)
Heartbeat CPU 0 instructions: 230000001 cycles: 89388490 heartbeat IPC: 0.2944 cumulative IPC: 2.353 (Simulation time: 00 hr 16 min 37 sec)
Heartbeat CPU 0 instructions: 240000002 cycles: 92757758 heartbeat IPC: 2.968 cumulative IPC: 2.379 (Simulation time: 00 hr 17 min 22 sec)
Heartbeat CPU 0 instructions: 250000000 cycles: 96156801 heartbeat IPC: 2.942 cumulative IPC: 2.402 (Simulation time: 00 hr 18 min 08 sec)
Heartbeat CPU 0 instructions: 260000002 cycles: 99536978 heartbeat IPC: 2.958 cumulative IPC: 2.423 (Simulation time: 00 hr 18 min 53 sec)
Heartbeat CPU 0 instructions: 270000003 cycles: 102935170 heartbeat IPC: 2.943 cumulative IPC: 2.443 (Simulation time: 00 hr 19 min 39 sec)
Heartbeat CPU 0 instructions: 280000001 cycles: 106337524 heartbeat IPC: 2.939 cumulative IPC: 2.461 (Simulation time: 00 hr 20 min 24 sec)
Heartbeat CPU 0 instructions: 290000002 cycles: 109724912 heartbeat IPC: 2.952 cumulative IPC: 2.478 (Simulation time: 00 hr 21 min 09 sec)
Heartbeat CPU 0 instructions: 300000003 cycles: 113083485 heartbeat IPC: 2.977 cumulative IPC: 2.495 (Simulation time: 00 hr 21 min 54 sec)
Heartbeat CPU 0 instructions: 310000002 cycles: 116480189 heartbeat IPC: 2.944 cumulative IPC: 2.51 (Simulation time: 00 hr 22 min 39 sec)
Heartbeat CPU 0 instructions: 320000002 cycles: 119865356 heartbeat IPC: 2.954 cumulative IPC: 2.524 (Simulation time: 00 hr 23 min 25 sec)
Heartbeat CPU 0 instructions: 330000004 cycles: 125188123 heartbeat IPC: 1.879 cumulative IPC: 2.493 (Simulation time: 00 hr 24 min 24 sec)
Heartbeat CPU 0 instructions: 340000002 cycles: 131675774 heartbeat IPC: 1.541 cumulative IPC: 2.441 (Simulation time: 00 hr 25 min 30 sec)
Heartbeat CPU 0 instructions: 350000002 cycles: 138157780 heartbeat IPC: 1.543 cumulative IPC: 2.395 (Simulation time: 00 hr 26 min 36 sec)
Heartbeat CPU 0 instructions: 360000000 cycles: 144666325 heartbeat IPC: 1.536 cumulative IPC: 2.352 (Simulation time: 00 hr 27 min 42 sec)
Heartbeat CPU 0 instructions: 370000001 cycles: 151155041 heartbeat IPC: 1.541 cumulative IPC: 2.314 (Simulation time: 00 hr 28 min 50 sec)
Heartbeat CPU 0 instructions: 380000003 cycles: 157710535 heartbeat IPC: 1.525 cumulative IPC: 2.279 (Simulation time: 00 hr 29 min 59 sec)
Heartbeat CPU 0 instructions: 390000004 cycles: 164202723 heartbeat IPC: 1.54 cumulative IPC: 2.247 (Simulation time: 00 hr 31 min 08 sec)
Heartbeat CPU 0 instructions: 400000000 cycles: 170717474 heartbeat IPC: 1.535 cumulative IPC: 2.217 (Simulation time: 00 hr 32 min 16 sec)
Heartbeat CPU 0 instructions: 410000003 cycles: 177278071 heartbeat IPC: 1.524 cumulative IPC: 2.19 (Simulation time: 00 hr 33 min 25 sec)
Heartbeat CPU 0 instructions: 420000000 cycles: 183751463 heartbeat IPC: 1.545 cumulative IPC: 2.165 (Simulation time: 00 hr 34 min 36 sec)
Heartbeat CPU 0 instructions: 430000002 cycles: 188570146 heartbeat IPC: 2.075 cumulative IPC: 2.163 (Simulation time: 00 hr 35 min 31 sec)
Heartbeat CPU 0 instructions: 440000002 cycles: 193663984 heartbeat IPC: 1.963 cumulative IPC: 2.157 (Simulation time: 00 hr 36 min 29 sec)
Heartbeat CPU 0 instructions: 450000000 cycles: 199086680 heartbeat IPC: 1.844 cumulative IPC: 2.148 (Simulation time: 00 hr 37 min 31 sec)
Heartbeat CPU 0 instructions: 460000003 cycles: 205037729 heartbeat IPC: 1.68 cumulative IPC: 2.134 (Simulation time: 00 hr 38 min 39 sec)
Heartbeat CPU 0 instructions: 470000004 cycles: 211666102 heartbeat IPC: 1.509 cumulative IPC: 2.113 (Simulation time: 00 hr 39 min 55 sec)
Heartbeat CPU 0 instructions: 480000000 cycles: 218311271 heartbeat IPC: 1.505 cumulative IPC: 2.093 (Simulation time: 00 hr 41 min 11 sec)
Heartbeat CPU 0 instructions: 490000001 cycles: 224935478 heartbeat IPC: 1.51 cumulative IPC: 2.075 (Simulation time: 00 hr 42 min 27 sec)
Heartbeat CPU 0 instructions: 500000001 cycles: 231577036 heartbeat IPC: 1.506 cumulative IPC: 2.058 (Simulation time: 00 hr 43 min 43 sec)
Heartbeat CPU 0 instructions: 510000002 cycles: 238194605 heartbeat IPC: 1.511 cumulative IPC: 2.042 (Simulation time: 00 hr 45 min 02 sec)
Heartbeat CPU 0 instructions: 520000000 cycles: 316979400 heartbeat IPC: 0.1269 cumulative IPC: 1.546 (Simulation time: 00 hr 55 min 50 sec)
Heartbeat CPU 0 instructions: 530000001 cycles: 441869506 heartbeat IPC: 0.08007 cumulative IPC: 1.119 (Simulation time: 01 hr 12 min 44 sec)
Heartbeat CPU 0 instructions: 540000002 cycles: 465773864 heartbeat IPC: 0.4183 cumulative IPC: 1.082 (Simulation time: 01 hr 16 min 14 sec)
Heartbeat CPU 0 instructions: 550000003 cycles: 488239318 heartbeat IPC: 0.4451 cumulative IPC: 1.052 (Simulation time: 01 hr 19 min 37 sec)
Heartbeat CPU 0 instructions: 560000001 cycles: 510903912 heartbeat IPC: 0.4412 cumulative IPC: 1.024 (Simulation time: 01 hr 22 min 56 sec)
Heartbeat CPU 0 instructions: 570000001 cycles: 533572786 heartbeat IPC: 0.4411 cumulative IPC: 0.9987 (Simulation time: 01 hr 26 min 17 sec)
Heartbeat CPU 0 instructions: 580000002 cycles: 555764142 heartbeat IPC: 0.4506 cumulative IPC: 0.9763 (Simulation time: 01 hr 29 min 35 sec)
Heartbeat CPU 0 instructions: 590000001 cycles: 577715390 heartbeat IPC: 0.4556 cumulative IPC: 0.956 (Simulation time: 01 hr 32 min 52 sec)
*** Reached end of trace: (0, "traces/bt.A.champsimtrace")
Heartbeat CPU 0 instructions: 600000002 cycles: 599508991 heartbeat IPC: 0.4589 cumulative IPC: 0.9376 (Simulation time: 01 hr 36 min 10 sec)
Heartbeat CPU 0 instructions: 610000004 cycles: 624038513 heartbeat IPC: 0.4077 cumulative IPC: 0.9163 (Simulation time: 01 hr 38 min 55 sec)
Heartbeat CPU 0 instructions: 620000000 cycles: 626540933 heartbeat IPC: 3.996 cumulative IPC: 0.9289 (Simulation time: 01 hr 39 min 36 sec)
Heartbeat CPU 0 instructions: 630000002 cycles: 629043403 heartbeat IPC: 3.996 cumulative IPC: 0.9413 (Simulation time: 01 hr 40 min 18 sec)
Heartbeat CPU 0 instructions: 640000000 cycles: 631545811 heartbeat IPC: 3.996 cumulative IPC: 0.9537 (Simulation time: 01 hr 40 min 59 sec)
Heartbeat CPU 0 instructions: 650000002 cycles: 634048208 heartbeat IPC: 3.996 cumulative IPC: 0.9659 (Simulation time: 01 hr 41 min 38 sec)
Simulation finished CPU 0 instructions: 600000002 cycles: 621167166 cumulative IPC: 0.9659 (Simulation time: 01 hr 41 min 38 sec)
Simulation complete CPU 0 instructions: 600000002 cycles: 621167166 cumulative IPC: 0.9659 (Simulation time: 01 hr 41 min 38 sec)

ChampSim completed all CPUs

=== Simulation ===
CPU 0 runs traces/bt.A.champsimtrace
Region of Interest Statistics

CPU 0 cumulative IPC: 0.9659 instructions: 600000002 cycles: 621167166
CPU 0 Branch Prediction Accuracy: 99.29% MPKI: 0.1296 Average ROB Occupancy at Mispredict: 278.7
Branch type MPKI
BRANCH_DIRECT_JUMP: 5e-06
BRANCH_INDIRECT: 7.83e-05
BRANCH_CONDITIONAL: 0.129
BRANCH_DIRECT_CALL: 6.67e-06
BRANCH_INDIRECT_CALL: 3.67e-05
BRANCH_RETURN: 2.33e-05

LLC TOTAL        ACCESS:    7753146 HIT:    4894610 MISS:    2858536
LLC LOAD         ACCESS:    2240207 HIT:    1390452 MISS:     849755
LLC RFO          ACCESS:     889446 HIT:      10538 MISS:     878908
LLC PREFETCH     ACCESS:    2631410 HIT:    1503340 MISS:    1128070
LLC WRITE        ACCESS:    1988718 HIT:    1988592 MISS:        126
LLC TRANSLATION  ACCESS:       3365 HIT:       1688 MISS:       1677
LLC PREFETCH REQUESTED:    2631410 ISSUED:    2631410 USEFUL:     940313 USELESS:      17200
LLC AVERAGE MISS LATENCY: 1353 cycles
cpu0_DTLB TOTAL        ACCESS:  126889874 HIT:  126127966 MISS:     761908
cpu0_DTLB LOAD         ACCESS:  126889874 HIT:  126127966 MISS:     761908
cpu0_DTLB RFO          ACCESS:          0 HIT:          0 MISS:          0
cpu0_DTLB PREFETCH     ACCESS:          0 HIT:          0 MISS:          0
cpu0_DTLB WRITE        ACCESS:          0 HIT:          0 MISS:          0
cpu0_DTLB TRANSLATION  ACCESS:          0 HIT:          0 MISS:          0
cpu0_DTLB PREFETCH REQUESTED:          0 ISSUED:          0 USEFUL:          0 USELESS:          0
cpu0_DTLB AVERAGE MISS LATENCY: 12.55 cycles
cpu0_ITLB TOTAL        ACCESS:     142067 HIT:     141822 MISS:        245
cpu0_ITLB LOAD         ACCESS:     142067 HIT:     141822 MISS:        245
cpu0_ITLB RFO          ACCESS:          0 HIT:          0 MISS:          0
cpu0_ITLB PREFETCH     ACCESS:          0 HIT:          0 MISS:          0
cpu0_ITLB WRITE        ACCESS:          0 HIT:          0 MISS:          0
cpu0_ITLB TRANSLATION  ACCESS:          0 HIT:          0 MISS:          0
cpu0_ITLB PREFETCH REQUESTED:          0 ISSUED:          0 USEFUL:          0 USELESS:          0
cpu0_ITLB AVERAGE MISS LATENCY: 296.3 cycles
cpu0_L1D TOTAL        ACCESS:  194957487 HIT:  182078496 MISS:   12878991
cpu0_L1D LOAD         ACCESS:  160275186 HIT:  151643711 MISS:    8631475
cpu0_L1D RFO          ACCESS:          0 HIT:          0 MISS:          0
cpu0_L1D PREFETCH     ACCESS:          0 HIT:          0 MISS:          0
cpu0_L1D WRITE        ACCESS:   34635526 HIT:   30405106 MISS:    4230420
cpu0_L1D TRANSLATION  ACCESS:      46775 HIT:      29679 MISS:      17096
cpu0_L1D PREFETCH REQUESTED:          0 ISSUED:          0 USEFUL:          0 USELESS:          0
cpu0_L1D AVERAGE MISS LATENCY: 156.9 cycles
cpu0_L1I TOTAL        ACCESS:     191601 HIT:     188820 MISS:       2781
cpu0_L1I LOAD         ACCESS:     191601 HIT:     188820 MISS:       2781
cpu0_L1I RFO          ACCESS:          0 HIT:          0 MISS:          0
cpu0_L1I PREFETCH     ACCESS:          0 HIT:          0 MISS:          0
cpu0_L1I WRITE        ACCESS:          0 HIT:          0 MISS:          0
cpu0_L1I TRANSLATION  ACCESS:          0 HIT:          0 MISS:          0
cpu0_L1I PREFETCH REQUESTED:          0 ISSUED:          0 USEFUL:          0 USELESS:          0
cpu0_L1I AVERAGE MISS LATENCY: 484.1 cycles
cpu0_L2C TOTAL        ACCESS:    5259052 HIT:    2125554 MISS:    3133498
cpu0_L2C LOAD         ACCESS:    2352918 HIT:     112685 MISS:    2240233
cpu0_L2C RFO          ACCESS:     889976 HIT:        530 MISS:     889446
cpu0_L2C PREFETCH     ACCESS:          0 HIT:          0 MISS:          0
cpu0_L2C WRITE        ACCESS:    1999066 HIT:    1998612 MISS:        454
cpu0_L2C TRANSLATION  ACCESS:      17092 HIT:      13727 MISS:       3365
cpu0_L2C PREFETCH REQUESTED:          0 ISSUED:          0 USEFUL:          0 USELESS:          0
cpu0_L2C AVERAGE MISS LATENCY: 800 cycles
cpu0_STLB TOTAL        ACCESS:     310578 HIT:     263826 MISS:      46752
cpu0_STLB LOAD         ACCESS:     310578 HIT:     263826 MISS:      46752
cpu0_STLB RFO          ACCESS:          0 HIT:          0 MISS:          0
cpu0_STLB PREFETCH     ACCESS:          0 HIT:          0 MISS:          0
cpu0_STLB WRITE        ACCESS:          0 HIT:          0 MISS:          0
cpu0_STLB TRANSLATION  ACCESS:          0 HIT:          0 MISS:          0
cpu0_STLB PREFETCH REQUESTED:          0 ISSUED:          0 USEFUL:          0 USELESS:          0
cpu0_STLB AVERAGE MISS LATENCY: 271.5 cycles

DRAM Statistics

Channel 0 RQ ROW_BUFFER_HIT:     882611
  ROW_BUFFER_MISS:    1752620
 AVG DBUS CONGESTED CYCLE: 3.966
WQ ROW_BUFFER_HIT: Channel 0 
  ROW_BUFFER_MISS:     437591
  FULL:    1265770
