WARNING: physical memory size is smaller than virtual memory size.

*** ChampSim Multicore Out-of-Order Simulator ***
Warmup Instructions: 50000000
Simulation Instructions: 600000000
Number of CPUs: 1
Page size: 4096

Off-chip DRAM Size: 4 GiB Channels: 1 Width: 64-bit Data Race: 3200 MT/s
Heartbeat CPU 0 instructions: 10000000 cycles: 2881042 heartbeat IPC: 3.471 cumulative IPC: 3.471 (Simulation time: 00 hr 00 min 38 sec)
Heartbeat CPU 0 instructions: 20000000 cycles: 5381042 heartbeat IPC: 4 cumulative IPC: 3.717 (Simulation time: 00 hr 01 min 12 sec)
Heartbeat CPU 0 instructions: 30000000 cycles: 7881042 heartbeat IPC: 4 cumulative IPC: 3.807 (Simulation time: 00 hr 01 min 46 sec)
Heartbeat CPU 0 instructions: 40000000 cycles: 10381042 heartbeat IPC: 4 cumulative IPC: 3.853 (Simulation time: 00 hr 02 min 20 sec)
Heartbeat CPU 0 instructions: 50000000 cycles: 12881042 heartbeat IPC: 4 cumulative IPC: 3.882 (Simulation time: 00 hr 02 min 54 sec)
Warmup finished CPU 0 instructions: 50000000 cycles: 12881043 cumulative IPC: 3.882 (Simulation time: 00 hr 02 min 54 sec)
Warmup complete CPU 0 instructions: 50000000 cycles: 12881043 cumulative IPC: 3.882 (Simulation time: 00 hr 02 min 54 sec)
Heartbeat CPU 0 instructions: 60000004 cycles: 15383364 heartbeat IPC: 3.996 cumulative IPC: 3.996 (Simulation time: 00 hr 03 min 35 sec)
Heartbeat CPU 0 instructions: 70000002 cycles: 17885682 heartbeat IPC: 3.996 cumulative IPC: 3.996 (Simulation time: 00 hr 04 min 16 sec)
Heartbeat CPU 0 instructions: 80000002 cycles: 20387998 heartbeat IPC: 3.996 cumulative IPC: 3.996 (Simulation time: 00 hr 04 min 56 sec)
Heartbeat CPU 0 instructions: 90000004 cycles: 22890375 heartbeat IPC: 3.996 cumulative IPC: 3.996 (Simulation time: 00 hr 05 min 36 sec)
Heartbeat CPU 0 instructions: 100000000 cycles: 25393094 heartbeat IPC: 3.996 cumulative IPC: 3.996 (Simulation time: 00 hr 06 min 17 sec)
Heartbeat CPU 0 instructions: 110000002 cycles: 27896579 heartbeat IPC: 3.994 cumulative IPC: 3.996 (Simulation time: 00 hr 06 min 56 sec)
Heartbeat CPU 0 instructions: 120000000 cycles: 30399146 heartbeat IPC: 3.996 cumulative IPC: 3.996 (Simulation time: 00 hr 07 min 35 sec)
Heartbeat CPU 0 instructions: 130000002 cycles: 32903579 heartbeat IPC: 3.993 cumulative IPC: 3.995 (Simulation time: 00 hr 08 min 14 sec)
Heartbeat CPU 0 instructions: 140000004 cycles: 35406505 heartbeat IPC: 3.995 cumulative IPC: 3.995 (Simulation time: 00 hr 08 min 53 sec)
Heartbeat CPU 0 instructions: 150000000 cycles: 37909286 heartbeat IPC: 3.996 cumulative IPC: 3.995 (Simulation time: 00 hr 09 min 32 sec)
Heartbeat CPU 0 instructions: 160000003 cycles: 40412399 heartbeat IPC: 3.995 cumulative IPC: 3.995 (Simulation time: 00 hr 10 min 13 sec)
Heartbeat CPU 0 instructions: 170000002 cycles: 42915742 heartbeat IPC: 3.995 cumulative IPC: 3.995 (Simulation time: 00 hr 10 min 54 sec)
Heartbeat CPU 0 instructions: 180000000 cycles: 45418105 heartbeat IPC: 3.996 cumulative IPC: 3.995 (Simulation time: 00 hr 11 min 35 sec)
Heartbeat CPU 0 instructions: 190000003 cycles: 47920803 heartbeat IPC: 3.996 cumulative IPC: 3.995 (Simulation time: 00 hr 12 min 14 sec)
Heartbeat CPU 0 instructions: 200000000 cycles: 50423307 heartbeat IPC: 3.996 cumulative IPC: 3.995 (Simulation time: 00 hr 12 min 53 sec)
Heartbeat CPU 0 instructions: 210000000 cycles: 52925806 heartbeat IPC: 3.996 cumulative IPC: 3.996 (Simulation time: 00 hr 13 min 33 sec)
Heartbeat CPU 0 instructions: 220000003 cycles: 55429673 heartbeat IPC: 3.994 cumulative IPC: 3.995 (Simulation time: 00 hr 14 min 18 sec)
Heartbeat CPU 0 instructions: 230000001 cycles: 89007700 heartbeat IPC: 0.2978 cumulative IPC: 2.364 (Simulation time: 00 hr 18 min 04 sec)
Heartbeat CPU 0 instructions: 240000002 cycles: 94906220 heartbeat IPC: 1.695 cumulative IPC: 2.316 (Simulation time: 00 hr 19 min 14 sec)
Heartbeat CPU 0 instructions: 250000000 cycles: 100922873 heartbeat IPC: 1.662 cumulative IPC: 2.272 (Simulation time: 00 hr 20 min 24 sec)
Heartbeat CPU 0 instructions: 260000004 cycles: 106973343 heartbeat IPC: 1.653 cumulative IPC: 2.232 (Simulation time: 00 hr 21 min 34 sec)
Heartbeat CPU 0 instructions: 270000003 cycles: 112962640 heartbeat IPC: 1.67 cumulative IPC: 2.198 (Simulation time: 00 hr 22 min 45 sec)
Heartbeat CPU 0 instructions: 280000001 cycles: 119023903 heartbeat IPC: 1.65 cumulative IPC: 2.167 (Simulation time: 00 hr 23 min 55 sec)
Heartbeat CPU 0 instructions: 290000000 cycles: 125025708 heartbeat IPC: 1.666 cumulative IPC: 2.14 (Simulation time: 00 hr 25 min 04 sec)
Heartbeat CPU 0 instructions: 300000003 cycles: 131064464 heartbeat IPC: 1.656 cumulative IPC: 2.115 (Simulation time: 00 hr 26 min 17 sec)
Heartbeat CPU 0 instructions: 310000001 cycles: 137078880 heartbeat IPC: 1.663 cumulative IPC: 2.093 (Simulation time: 00 hr 27 min 28 sec)
Heartbeat CPU 0 instructions: 320000002 cycles: 143114400 heartbeat IPC: 1.657 cumulative IPC: 2.073 (Simulation time: 00 hr 28 min 38 sec)
Heartbeat CPU 0 instructions: 330000004 cycles: 150105596 heartbeat IPC: 1.43 cumulative IPC: 2.04 (Simulation time: 00 hr 29 min 54 sec)
Heartbeat CPU 0 instructions: 340000002 cycles: 156972721 heartbeat IPC: 1.456 cumulative IPC: 2.013 (Simulation time: 00 hr 31 min 09 sec)
Heartbeat CPU 0 instructions: 350000002 cycles: 163842095 heartbeat IPC: 1.456 cumulative IPC: 1.987 (Simulation time: 00 hr 32 min 24 sec)
Heartbeat CPU 0 instructions: 360000000 cycles: 170720138 heartbeat IPC: 1.454 cumulative IPC: 1.964 (Simulation time: 00 hr 33 min 41 sec)
Heartbeat CPU 0 instructions: 370000001 cycles: 177595365 heartbeat IPC: 1.454 cumulative IPC: 1.943 (Simulation time: 00 hr 34 min 57 sec)
Heartbeat CPU 0 instructions: 380000003 cycles: 184535125 heartbeat IPC: 1.441 cumulative IPC: 1.922 (Simulation time: 00 hr 36 min 13 sec)
Heartbeat CPU 0 instructions: 390000004 cycles: 191358689 heartbeat IPC: 1.466 cumulative IPC: 1.905 (Simulation time: 00 hr 37 min 29 sec)
Heartbeat CPU 0 instructions: 400000000 cycles: 198340887 heartbeat IPC: 1.432 cumulative IPC: 1.887 (Simulation time: 00 hr 38 min 46 sec)
Heartbeat CPU 0 instructions: 410000003 cycles: 205161126 heartbeat IPC: 1.466 cumulative IPC: 1.872 (Simulation time: 00 hr 40 min 03 sec)
Heartbeat CPU 0 instructions: 420000000 cycles: 212020329 heartbeat IPC: 1.458 cumulative IPC: 1.858 (Simulation time: 00 hr 41 min 18 sec)
Heartbeat CPU 0 instructions: 430000002 cycles: 219090919 heartbeat IPC: 1.414 cumulative IPC: 1.843 (Simulation time: 00 hr 42 min 36 sec)
Heartbeat CPU 0 instructions: 440000002 cycles: 226480676 heartbeat IPC: 1.353 cumulative IPC: 1.826 (Simulation time: 00 hr 43 min 57 sec)
Heartbeat CPU 0 instructions: 450000000 cycles: 233808007 heartbeat IPC: 1.365 cumulative IPC: 1.811 (Simulation time: 00 hr 45 min 16 sec)
Heartbeat CPU 0 instructions: 460000003 cycles: 241131330 heartbeat IPC: 1.366 cumulative IPC: 1.796 (Simulation time: 00 hr 46 min 36 sec)
Heartbeat CPU 0 instructions: 470000004 cycles: 248498765 heartbeat IPC: 1.357 cumulative IPC: 1.783 (Simulation time: 00 hr 47 min 55 sec)
Heartbeat CPU 0 instructions: 480000000 cycles: 255880129 heartbeat IPC: 1.355 cumulative IPC: 1.77 (Simulation time: 00 hr 49 min 15 sec)
Heartbeat CPU 0 instructions: 490000001 cycles: 263251775 heartbeat IPC: 1.357 cumulative IPC: 1.757 (Simulation time: 00 hr 50 min 35 sec)
Heartbeat CPU 0 instructions: 500000001 cycles: 270663011 heartbeat IPC: 1.349 cumulative IPC: 1.746 (Simulation time: 00 hr 51 min 57 sec)
Heartbeat CPU 0 instructions: 510000002 cycles: 278031860 heartbeat IPC: 1.357 cumulative IPC: 1.735 (Simulation time: 00 hr 53 min 18 sec)
Heartbeat CPU 0 instructions: 520000000 cycles: 336141865 heartbeat IPC: 0.1721 cumulative IPC: 1.454 (Simulation time: 01 hr 01 min 14 sec)
Heartbeat CPU 0 instructions: 530000001 cycles: 447468606 heartbeat IPC: 0.08983 cumulative IPC: 1.104 (Simulation time: 01 hr 16 min 10 sec)
Heartbeat CPU 0 instructions: 540000001 cycles: 473703423 heartbeat IPC: 0.3812 cumulative IPC: 1.063 (Simulation time: 01 hr 20 min 04 sec)
Heartbeat CPU 0 instructions: 550000003 cycles: 508389481 heartbeat IPC: 0.2883 cumulative IPC: 1.009 (Simulation time: 01 hr 25 min 05 sec)
Heartbeat CPU 0 instructions: 560000001 cycles: 546921220 heartbeat IPC: 0.2595 cumulative IPC: 0.955 (Simulation time: 01 hr 30 min 34 sec)
Heartbeat CPU 0 instructions: 570000000 cycles: 585280504 heartbeat IPC: 0.2607 cumulative IPC: 0.9085 (Simulation time: 01 hr 36 min 02 sec)
Heartbeat CPU 0 instructions: 580000002 cycles: 611577225 heartbeat IPC: 0.3803 cumulative IPC: 0.8853 (Simulation time: 01 hr 40 min 03 sec)
Heartbeat CPU 0 instructions: 590000001 cycles: 639671242 heartbeat IPC: 0.3559 cumulative IPC: 0.8615 (Simulation time: 01 hr 44 min 15 sec)
*** Reached end of trace: (0, "traces/bt.A.champsimtrace")
Heartbeat CPU 0 instructions: 600000002 cycles: 678337950 heartbeat IPC: 0.2586 cumulative IPC: 0.8265 (Simulation time: 01 hr 49 min 50 sec)
Heartbeat CPU 0 instructions: 610000004 cycles: 698261409 heartbeat IPC: 0.5019 cumulative IPC: 0.8171 (Simulation time: 01 hr 52 min 06 sec)
Heartbeat CPU 0 instructions: 620000000 cycles: 700763739 heartbeat IPC: 3.996 cumulative IPC: 0.8286 (Simulation time: 01 hr 52 min 45 sec)
Heartbeat CPU 0 instructions: 630000002 cycles: 703266057 heartbeat IPC: 3.996 cumulative IPC: 0.8401 (Simulation time: 01 hr 53 min 24 sec)
Heartbeat CPU 0 instructions: 640000000 cycles: 705768375 heartbeat IPC: 3.996 cumulative IPC: 0.8515 (Simulation time: 01 hr 54 min 02 sec)
Heartbeat CPU 0 instructions: 650000002 cycles: 708270682 heartbeat IPC: 3.996 cumulative IPC: 0.8628 (Simulation time: 01 hr 54 min 41 sec)
Simulation finished CPU 0 instructions: 600000002 cycles: 695389640 cumulative IPC: 0.8628 (Simulation time: 01 hr 54 min 41 sec)
Simulation complete CPU 0 instructions: 600000002 cycles: 695389640 cumulative IPC: 0.8628 (Simulation time: 01 hr 54 min 41 sec)

ChampSim completed all CPUs

=== Simulation ===
CPU 0 runs traces/bt.A.champsimtrace
Region of Interest Statistics

CPU 0 cumulative IPC: 0.8628 instructions: 600000002 cycles: 695389640
CPU 0 Branch Prediction Accuracy: 99.29% MPKI: 0.1296 Average ROB Occupancy at Mispredict: 279.9
Branch type MPKI
BRANCH_DIRECT_JUMP: 5e-06
BRANCH_INDIRECT: 7.83e-05
BRANCH_CONDITIONAL: 0.129
BRANCH_DIRECT_CALL: 6.67e-06
BRANCH_INDIRECT_CALL: 3.67e-05
BRANCH_RETURN: 2.33e-05

LLC TOTAL        ACCESS:    5121242 HIT:    1330804 MISS:    3790438
LLC LOAD         ACCESS:    2240118 HIT:     509265 MISS:    1730853
LLC RFO          ACCESS:     889449 HIT:     129586 MISS:     759863
LLC PREFETCH     ACCESS:          0 HIT:          0 MISS:          0
LLC WRITE        ACCESS:    1988298 HIT:     691689 MISS:    1296609
LLC TRANSLATION  ACCESS:       3377 HIT:        264 MISS:       3113
LLC PREFETCH REQUESTED:          0 ISSUED:          0 USEFUL:          0 USELESS:          0
LLC AVERAGE MISS LATENCY: 805.4 cycles
cpu0_DTLB TOTAL        ACCESS:  126355998 HIT:  125591177 MISS:     764821
cpu0_DTLB LOAD         ACCESS:  126355998 HIT:  125591177 MISS:     764821
cpu0_DTLB RFO          ACCESS:          0 HIT:          0 MISS:          0
cpu0_DTLB PREFETCH     ACCESS:          0 HIT:          0 MISS:          0
cpu0_DTLB WRITE        ACCESS:          0 HIT:          0 MISS:          0
cpu0_DTLB TRANSLATION  ACCESS:          0 HIT:          0 MISS:          0
cpu0_DTLB PREFETCH REQUESTED:          0 ISSUED:          0 USEFUL:          0 USELESS:          0
cpu0_DTLB AVERAGE MISS LATENCY: 15.6 cycles
cpu0_ITLB TOTAL        ACCESS:     144562 HIT:     144329 MISS:        233
cpu0_ITLB LOAD         ACCESS:     144562 HIT:     144329 MISS:        233
cpu0_ITLB RFO          ACCESS:          0 HIT:          0 MISS:          0
cpu0_ITLB PREFETCH     ACCESS:          0 HIT:          0 MISS:          0
cpu0_ITLB WRITE        ACCESS:          0 HIT:          0 MISS:          0
cpu0_ITLB TRANSLATION  ACCESS:          0 HIT:          0 MISS:          0
cpu0_ITLB PREFETCH REQUESTED:          0 ISSUED:          0 USEFUL:          0 USELESS:          0
cpu0_ITLB AVERAGE MISS LATENCY: 320 cycles
cpu0_L1D TOTAL        ACCESS:  193751714 HIT:  180204036 MISS:   13547678
cpu0_L1D LOAD         ACCESS:  159069451 HIT:  149570311 MISS:    9499140
cpu0_L1D RFO          ACCESS:          0 HIT:          0 MISS:          0
cpu0_L1D PREFETCH     ACCESS:          0 HIT:          0 MISS:          0
cpu0_L1D WRITE        ACCESS:   34635488 HIT:   30604029 MISS:    4031459
cpu0_L1D TRANSLATION  ACCESS:      46775 HIT:      29696 MISS:      17079
cpu0_L1D PREFETCH REQUESTED:          0 ISSUED:          0 USEFUL:          0 USELESS:          0
cpu0_L1D AVERAGE MISS LATENCY: 172.7 cycles
cpu0_L1I TOTAL        ACCESS:     194220 HIT:     191408 MISS:       2812
cpu0_L1I LOAD         ACCESS:     194220 HIT:     191408 MISS:       2812
cpu0_L1I RFO          ACCESS:          0 HIT:          0 MISS:          0
cpu0_L1I PREFETCH     ACCESS:          0 HIT:          0 MISS:          0
cpu0_L1I WRITE        ACCESS:          0 HIT:          0 MISS:          0
cpu0_L1I TRANSLATION  ACCESS:          0 HIT:          0 MISS:          0
cpu0_L1I PREFETCH REQUESTED:          0 ISSUED:          0 USEFUL:          0 USELESS:          0
cpu0_L1I AVERAGE MISS LATENCY: 543.2 cycles
cpu0_L2C TOTAL        ACCESS:    5270471 HIT:    2137058 MISS:    3133413
cpu0_L2C LOAD         ACCESS:    2364318 HIT:     124185 MISS:    2240133
cpu0_L2C RFO          ACCESS:     889977 HIT:        528 MISS:     889449
cpu0_L2C PREFETCH     ACCESS:          0 HIT:          0 MISS:          0
cpu0_L2C WRITE        ACCESS:    1999101 HIT:    1998647 MISS:        454
cpu0_L2C TRANSLATION  ACCESS:      17075 HIT:      13698 MISS:       3377
cpu0_L2C PREFETCH REQUESTED:          0 ISSUED:          0 USEFUL:          0 USELESS:          0
cpu0_L2C AVERAGE MISS LATENCY: 995.1 cycles
cpu0_STLB TOTAL        ACCESS:     311237 HIT:     264485 MISS:      46752
cpu0_STLB LOAD         ACCESS:     311237 HIT:     264485 MISS:      46752
cpu0_STLB RFO          ACCESS:          0 HIT:          0 MISS:          0
cpu0_STLB PREFETCH     ACCESS:          0 HIT:          0 MISS:          0
cpu0_STLB WRITE        ACCESS:          0 HIT:          0 MISS:          0
cpu0_STLB TRANSLATION  ACCESS:          0 HIT:          0 MISS:          0
cpu0_STLB PREFETCH REQUESTED:          0 ISSUED:          0 USEFUL:          0 USELESS:          0
cpu0_STLB AVERAGE MISS LATENCY: 345.3 cycles

DRAM Statistics

Channel 0 RQ ROW_BUFFER_HIT:     721047
  ROW_BUFFER_MISS:    1771575
 AVG DBUS CONGESTED CYCLE: 3.969
WQ ROW_BUFFER_HIT: Channel 0 
  ROW_BUFFER_MISS:     666416
  FULL:    1100508
