WARNING: physical memory size is smaller than virtual memory size.

*** ChampSim Multicore Out-of-Order Simulator ***
Warmup Instructions: 50000000
Simulation Instructions: 600000000
Number of CPUs: 1
Page size: 4096

CPU 0 Tage branch predictor
Off-chip DRAM Size: 4 GiB Channels: 1 Width: 64-bit Data Race: 3200 MT/s
Heartbeat CPU 0 instructions: 10000000 cycles: 2881042 heartbeat IPC: 3.471 cumulative IPC: 3.471 (Simulation time: 00 hr 00 min 42 sec)
Heartbeat CPU 0 instructions: 20000000 cycles: 5381042 heartbeat IPC: 4 cumulative IPC: 3.717 (Simulation time: 00 hr 01 min 20 sec)
Heartbeat CPU 0 instructions: 30000000 cycles: 7881042 heartbeat IPC: 4 cumulative IPC: 3.807 (Simulation time: 00 hr 01 min 57 sec)
Heartbeat CPU 0 instructions: 40000000 cycles: 10381042 heartbeat IPC: 4 cumulative IPC: 3.853 (Simulation time: 00 hr 02 min 35 sec)
Heartbeat CPU 0 instructions: 50000000 cycles: 12881042 heartbeat IPC: 4 cumulative IPC: 3.882 (Simulation time: 00 hr 03 min 12 sec)
Warmup finished CPU 0 instructions: 50000000 cycles: 12881043 cumulative IPC: 3.882 (Simulation time: 00 hr 03 min 12 sec)
Warmup complete CPU 0 instructions: 50000000 cycles: 12881043 cumulative IPC: 3.882 (Simulation time: 00 hr 03 min 12 sec)
Heartbeat CPU 0 instructions: 60000004 cycles: 15381167 heartbeat IPC: 4 cumulative IPC: 4 (Simulation time: 00 hr 03 min 57 sec)
Heartbeat CPU 0 instructions: 70000002 cycles: 17881245 heartbeat IPC: 4 cumulative IPC: 4 (Simulation time: 00 hr 04 min 42 sec)
Heartbeat CPU 0 instructions: 80000001 cycles: 20381363 heartbeat IPC: 4 cumulative IPC: 4 (Simulation time: 00 hr 05 min 26 sec)
Heartbeat CPU 0 instructions: 90000004 cycles: 22881484 heartbeat IPC: 4 cumulative IPC: 4 (Simulation time: 00 hr 06 min 12 sec)
Heartbeat CPU 0 instructions: 100000000 cycles: 25381603 heartbeat IPC: 4 cumulative IPC: 4 (Simulation time: 00 hr 06 min 57 sec)
Heartbeat CPU 0 instructions: 110000002 cycles: 27881722 heartbeat IPC: 4 cumulative IPC: 4 (Simulation time: 00 hr 07 min 43 sec)
Heartbeat CPU 0 instructions: 120000000 cycles: 30381832 heartbeat IPC: 4 cumulative IPC: 4 (Simulation time: 00 hr 08 min 27 sec)
Heartbeat CPU 0 instructions: 130000002 cycles: 32882482 heartbeat IPC: 3.999 cumulative IPC: 4 (Simulation time: 00 hr 09 min 11 sec)
Heartbeat CPU 0 instructions: 140000004 cycles: 35382603 heartbeat IPC: 4 cumulative IPC: 4 (Simulation time: 00 hr 09 min 55 sec)
Heartbeat CPU 0 instructions: 150000000 cycles: 37882680 heartbeat IPC: 4 cumulative IPC: 4 (Simulation time: 00 hr 10 min 39 sec)
Heartbeat CPU 0 instructions: 160000003 cycles: 40383205 heartbeat IPC: 3.999 cumulative IPC: 4 (Simulation time: 00 hr 11 min 24 sec)
Heartbeat CPU 0 instructions: 170000002 cycles: 42883372 heartbeat IPC: 4 cumulative IPC: 4 (Simulation time: 00 hr 12 min 12 sec)
Heartbeat CPU 0 instructions: 180000000 cycles: 45383448 heartbeat IPC: 4 cumulative IPC: 4 (Simulation time: 00 hr 12 min 56 sec)
Heartbeat CPU 0 instructions: 190000003 cycles: 47884010 heartbeat IPC: 3.999 cumulative IPC: 4 (Simulation time: 00 hr 13 min 41 sec)
Heartbeat CPU 0 instructions: 200000000 cycles: 50384173 heartbeat IPC: 4 cumulative IPC: 4 (Simulation time: 00 hr 14 min 27 sec)
Heartbeat CPU 0 instructions: 210000000 cycles: 52884291 heartbeat IPC: 4 cumulative IPC: 4 (Simulation time: 00 hr 15 min 10 sec)
Heartbeat CPU 0 instructions: 220000003 cycles: 55385696 heartbeat IPC: 3.998 cumulative IPC: 4 (Simulation time: 00 hr 15 min 54 sec)
Heartbeat CPU 0 instructions: 230000001 cycles: 91313564 heartbeat IPC: 0.2783 cumulative IPC: 2.295 (Simulation time: 00 hr 19 min 54 sec)
Heartbeat CPU 0 instructions: 240000002 cycles: 95770217 heartbeat IPC: 2.244 cumulative IPC: 2.292 (Simulation time: 00 hr 20 min 58 sec)
Heartbeat CPU 0 instructions: 250000000 cycles: 100207496 heartbeat IPC: 2.254 cumulative IPC: 2.29 (Simulation time: 00 hr 21 min 59 sec)
Heartbeat CPU 0 instructions: 260000004 cycles: 104664244 heartbeat IPC: 2.244 cumulative IPC: 2.288 (Simulation time: 00 hr 23 min 01 sec)
Heartbeat CPU 0 instructions: 270000003 cycles: 109063004 heartbeat IPC: 2.273 cumulative IPC: 2.287 (Simulation time: 00 hr 24 min 03 sec)
Heartbeat CPU 0 instructions: 280000003 cycles: 113516257 heartbeat IPC: 2.246 cumulative IPC: 2.285 (Simulation time: 00 hr 25 min 06 sec)
Heartbeat CPU 0 instructions: 290000002 cycles: 117916461 heartbeat IPC: 2.273 cumulative IPC: 2.285 (Simulation time: 00 hr 26 min 08 sec)
Heartbeat CPU 0 instructions: 300000003 cycles: 122358907 heartbeat IPC: 2.251 cumulative IPC: 2.284 (Simulation time: 00 hr 27 min 12 sec)
Heartbeat CPU 0 instructions: 310000002 cycles: 126779586 heartbeat IPC: 2.262 cumulative IPC: 2.283 (Simulation time: 00 hr 28 min 16 sec)
Heartbeat CPU 0 instructions: 320000002 cycles: 131150157 heartbeat IPC: 2.288 cumulative IPC: 2.283 (Simulation time: 00 hr 29 min 17 sec)
Heartbeat CPU 0 instructions: 330000004 cycles: 135017632 heartbeat IPC: 2.586 cumulative IPC: 2.293 (Simulation time: 00 hr 30 min 15 sec)
Heartbeat CPU 0 instructions: 340000002 cycles: 138485774 heartbeat IPC: 2.883 cumulative IPC: 2.309 (Simulation time: 00 hr 31 min 10 sec)
Heartbeat CPU 0 instructions: 350000002 cycles: 141827985 heartbeat IPC: 2.992 cumulative IPC: 2.327 (Simulation time: 00 hr 32 min 05 sec)
Heartbeat CPU 0 instructions: 360000002 cycles: 145307634 heartbeat IPC: 2.874 cumulative IPC: 2.341 (Simulation time: 00 hr 32 min 59 sec)
Heartbeat CPU 0 instructions: 370000001 cycles: 148659980 heartbeat IPC: 2.983 cumulative IPC: 2.357 (Simulation time: 00 hr 33 min 53 sec)
Heartbeat CPU 0 instructions: 380000003 cycles: 152115555 heartbeat IPC: 2.894 cumulative IPC: 2.37 (Simulation time: 00 hr 34 min 46 sec)
Heartbeat CPU 0 instructions: 390000002 cycles: 155506248 heartbeat IPC: 2.949 cumulative IPC: 2.384 (Simulation time: 00 hr 35 min 37 sec)
Heartbeat CPU 0 instructions: 400000000 cycles: 158971999 heartbeat IPC: 2.885 cumulative IPC: 2.396 (Simulation time: 00 hr 36 min 29 sec)
Heartbeat CPU 0 instructions: 410000002 cycles: 162312846 heartbeat IPC: 2.993 cumulative IPC: 2.409 (Simulation time: 00 hr 37 min 22 sec)
Heartbeat CPU 0 instructions: 420000000 cycles: 165766055 heartbeat IPC: 2.896 cumulative IPC: 2.42 (Simulation time: 00 hr 38 min 15 sec)
Heartbeat CPU 0 instructions: 430000002 cycles: 168471814 heartbeat IPC: 3.696 cumulative IPC: 2.442 (Simulation time: 00 hr 39 min 04 sec)
Heartbeat CPU 0 instructions: 440000002 cycles: 171309093 heartbeat IPC: 3.525 cumulative IPC: 2.462 (Simulation time: 00 hr 39 min 52 sec)
Heartbeat CPU 0 instructions: 450000000 cycles: 174177159 heartbeat IPC: 3.487 cumulative IPC: 2.48 (Simulation time: 00 hr 40 min 40 sec)
Heartbeat CPU 0 instructions: 460000003 cycles: 177300880 heartbeat IPC: 3.201 cumulative IPC: 2.494 (Simulation time: 00 hr 41 min 31 sec)
Heartbeat CPU 0 instructions: 470000004 cycles: 180448237 heartbeat IPC: 3.177 cumulative IPC: 2.506 (Simulation time: 00 hr 42 min 23 sec)
Heartbeat CPU 0 instructions: 480000000 cycles: 183628456 heartbeat IPC: 3.144 cumulative IPC: 2.518 (Simulation time: 00 hr 43 min 14 sec)
Heartbeat CPU 0 instructions: 490000001 cycles: 187105106 heartbeat IPC: 2.876 cumulative IPC: 2.525 (Simulation time: 00 hr 44 min 08 sec)
Heartbeat CPU 0 instructions: 500000000 cycles: 190610974 heartbeat IPC: 2.852 cumulative IPC: 2.532 (Simulation time: 00 hr 45 min 04 sec)
Heartbeat CPU 0 instructions: 510000002 cycles: 194147422 heartbeat IPC: 2.828 cumulative IPC: 2.538 (Simulation time: 00 hr 45 min 59 sec)
Heartbeat CPU 0 instructions: 520000000 cycles: 265869573 heartbeat IPC: 0.1394 cumulative IPC: 1.858 (Simulation time: 00 hr 55 min 48 sec)
Heartbeat CPU 0 instructions: 530000001 cycles: 399959255 heartbeat IPC: 0.07458 cumulative IPC: 1.24 (Simulation time: 01 hr 13 min 48 sec)
Heartbeat CPU 0 instructions: 540000001 cycles: 431402429 heartbeat IPC: 0.318 cumulative IPC: 1.171 (Simulation time: 01 hr 18 min 16 sec)
Heartbeat CPU 0 instructions: 550000003 cycles: 461675996 heartbeat IPC: 0.3303 cumulative IPC: 1.114 (Simulation time: 01 hr 22 min 35 sec)
Heartbeat CPU 0 instructions: 560000001 cycles: 491850211 heartbeat IPC: 0.3314 cumulative IPC: 1.065 (Simulation time: 01 hr 26 min 54 sec)
Heartbeat CPU 0 instructions: 570000001 cycles: 521942786 heartbeat IPC: 0.3323 cumulative IPC: 1.021 (Simulation time: 01 hr 31 min 00 sec)
Heartbeat CPU 0 instructions: 580000002 cycles: 553218653 heartbeat IPC: 0.3197 cumulative IPC: 0.9809 (Simulation time: 01 hr 35 min 12 sec)
Heartbeat CPU 0 instructions: 590000001 cycles: 584517662 heartbeat IPC: 0.3195 cumulative IPC: 0.9447 (Simulation time: 01 hr 39 min 13 sec)
*** Reached end of trace: (0, "traces/bt.A.champsimtrace")
Heartbeat CPU 0 instructions: 600000002 cycles: 615527373 heartbeat IPC: 0.3225 cumulative IPC: 0.9126 (Simulation time: 01 hr 43 min 00 sec)
Heartbeat CPU 0 instructions: 610000004 cycles: 642847930 heartbeat IPC: 0.366 cumulative IPC: 0.8889 (Simulation time: 01 hr 45 min 34 sec)
Heartbeat CPU 0 instructions: 620000000 cycles: 645348051 heartbeat IPC: 4 cumulative IPC: 0.9012 (Simulation time: 01 hr 46 min 11 sec)
Heartbeat CPU 0 instructions: 630000002 cycles: 647848175 heartbeat IPC: 4 cumulative IPC: 0.9134 (Simulation time: 01 hr 46 min 48 sec)
Heartbeat CPU 0 instructions: 640000001 cycles: 650348252 heartbeat IPC: 4 cumulative IPC: 0.9255 (Simulation time: 01 hr 47 min 24 sec)
Heartbeat CPU 0 instructions: 650000002 cycles: 652848362 heartbeat IPC: 4 cumulative IPC: 0.9375 (Simulation time: 01 hr 48 min 01 sec)
Simulation finished CPU 0 instructions: 600000002 cycles: 639967320 cumulative IPC: 0.9375 (Simulation time: 01 hr 48 min 01 sec)
Simulation complete CPU 0 instructions: 600000002 cycles: 639967320 cumulative IPC: 0.9375 (Simulation time: 01 hr 48 min 01 sec)

ChampSim completed all CPUs

=== Simulation ===
CPU 0 runs traces/bt.A.champsimtrace
Region of Interest Statistics

CPU 0 cumulative IPC: 0.9375 instructions: 600000002 cycles: 639967320
CPU 0 Branch Prediction Accuracy: 99.98% MPKI: 0.004168 Average ROB Occupancy at Mispredict: 105
Branch type MPKI
BRANCH_DIRECT_JUMP: 5e-06
BRANCH_INDIRECT: 7.83e-05
BRANCH_CONDITIONAL: 0.00402
BRANCH_DIRECT_CALL: 6.67e-06
BRANCH_INDIRECT_CALL: 3.67e-05
BRANCH_RETURN: 2.33e-05

LLC TOTAL        ACCESS:    7362366 HIT:    3644763 MISS:    3717603
LLC LOAD         ACCESS:    2240410 HIT:    1161452 MISS:    1078958
LLC RFO          ACCESS:     889445 HIT:      28540 MISS:     860905
LLC PREFETCH     ACCESS:    2240448 HIT:     557462 MISS:    1682986
LLC WRITE        ACCESS:    1988688 HIT:    1895684 MISS:      93004
LLC TRANSLATION  ACCESS:       3375 HIT:       1625 MISS:       1750
LLC PREFETCH REQUESTED:    2240460 ISSUED:    2240448 USEFUL:    1419723 USELESS:      23855
LLC AVERAGE MISS LATENCY: 1212 cycles
cpu0_DTLB TOTAL        ACCESS:  129909649 HIT:  129148747 MISS:     760902
cpu0_DTLB LOAD         ACCESS:  129909649 HIT:  129148747 MISS:     760902
cpu0_DTLB RFO          ACCESS:          0 HIT:          0 MISS:          0
cpu0_DTLB PREFETCH     ACCESS:          0 HIT:          0 MISS:          0
cpu0_DTLB WRITE        ACCESS:          0 HIT:          0 MISS:          0
cpu0_DTLB TRANSLATION  ACCESS:          0 HIT:          0 MISS:          0
cpu0_DTLB PREFETCH REQUESTED:          0 ISSUED:          0 USEFUL:          0 USELESS:          0
cpu0_DTLB AVERAGE MISS LATENCY: 15.38 cycles
cpu0_ITLB TOTAL        ACCESS:     172519 HIT:     172264 MISS:        255
cpu0_ITLB LOAD         ACCESS:     172519 HIT:     172264 MISS:        255
cpu0_ITLB RFO          ACCESS:          0 HIT:          0 MISS:          0
cpu0_ITLB PREFETCH     ACCESS:          0 HIT:          0 MISS:          0
cpu0_ITLB WRITE        ACCESS:          0 HIT:          0 MISS:          0
cpu0_ITLB TRANSLATION  ACCESS:          0 HIT:          0 MISS:          0
cpu0_ITLB PREFETCH REQUESTED:          0 ISSUED:          0 USEFUL:          0 USELESS:          0
cpu0_ITLB AVERAGE MISS LATENCY: 85.43 cycles
cpu0_L1D TOTAL        ACCESS:  198358022 HIT:  184876292 MISS:   13481730
cpu0_L1D LOAD         ACCESS:  163675726 HIT:  154306014 MISS:    9369712
cpu0_L1D RFO          ACCESS:          0 HIT:          0 MISS:          0
cpu0_L1D PREFETCH     ACCESS:          0 HIT:          0 MISS:          0
cpu0_L1D WRITE        ACCESS:   34635522 HIT:   30540608 MISS:    4094914
cpu0_L1D TRANSLATION  ACCESS:      46774 HIT:      29670 MISS:      17104
cpu0_L1D PREFETCH REQUESTED:          0 ISSUED:          0 USEFUL:          0 USELESS:          0
cpu0_L1D AVERAGE MISS LATENCY: 171.5 cycles
cpu0_L1I TOTAL        ACCESS:     205107 HIT:     202214 MISS:       2893
cpu0_L1I LOAD         ACCESS:     205107 HIT:     202214 MISS:       2893
cpu0_L1I RFO          ACCESS:          0 HIT:          0 MISS:          0
cpu0_L1I PREFETCH     ACCESS:          0 HIT:          0 MISS:          0
cpu0_L1I WRITE        ACCESS:          0 HIT:          0 MISS:          0
cpu0_L1I TRANSLATION  ACCESS:          0 HIT:          0 MISS:          0
cpu0_L1I PREFETCH REQUESTED:          0 ISSUED:          0 USEFUL:          0 USELESS:          0
cpu0_L1I AVERAGE MISS LATENCY: 316.3 cycles
cpu0_L2C TOTAL        ACCESS:    5266159 HIT:    2132420 MISS:    3133739
cpu0_L2C LOAD         ACCESS:    2360035 HIT:     119572 MISS:    2240463
cpu0_L2C RFO          ACCESS:     889975 HIT:        530 MISS:     889445
cpu0_L2C PREFETCH     ACCESS:          0 HIT:          0 MISS:          0
cpu0_L2C WRITE        ACCESS:    1999047 HIT:    1998591 MISS:        456
cpu0_L2C TRANSLATION  ACCESS:      17102 HIT:      13727 MISS:       3375
cpu0_L2C PREFETCH REQUESTED:          0 ISSUED:          0 USEFUL:          0 USELESS:          0
cpu0_L2C AVERAGE MISS LATENCY: 963.7 cycles
cpu0_STLB TOTAL        ACCESS:     314998 HIT:     268246 MISS:      46752
cpu0_STLB LOAD         ACCESS:     314998 HIT:     268246 MISS:      46752
cpu0_STLB RFO          ACCESS:          0 HIT:          0 MISS:          0
cpu0_STLB PREFETCH     ACCESS:          0 HIT:          0 MISS:          0
cpu0_STLB WRITE        ACCESS:          0 HIT:          0 MISS:          0
cpu0_STLB TRANSLATION  ACCESS:          0 HIT:          0 MISS:          0
cpu0_STLB PREFETCH REQUESTED:          0 ISSUED:          0 USEFUL:          0 USELESS:          0
cpu0_STLB AVERAGE MISS LATENCY: 334.6 cycles

DRAM Statistics

Channel 0 RQ ROW_BUFFER_HIT:     724028
  ROW_BUFFER_MISS:    1850775
 AVG DBUS CONGESTED CYCLE: 3.987
WQ ROW_BUFFER_HIT: Channel 0 
  ROW_BUFFER_MISS:      33447
  FULL:    1626644
