WARNING: physical memory size is smaller than virtual memory size.

*** ChampSim Multicore Out-of-Order Simulator ***
Warmup Instructions: 50000000
Simulation Instructions: 600000000
Number of CPUs: 1
Page size: 4096

Off-chip DRAM Size: 4 GiB Channels: 1 Width: 64-bit Data Race: 3200 MT/s
Heartbeat CPU 0 instructions: 10000000 cycles: 2881042 heartbeat IPC: 3.471 cumulative IPC: 3.471 (Simulation time: 00 hr 00 min 36 sec)
Heartbeat CPU 0 instructions: 20000000 cycles: 5381042 heartbeat IPC: 4 cumulative IPC: 3.717 (Simulation time: 00 hr 01 min 08 sec)
Heartbeat CPU 0 instructions: 30000000 cycles: 7881042 heartbeat IPC: 4 cumulative IPC: 3.807 (Simulation time: 00 hr 01 min 40 sec)
Heartbeat CPU 0 instructions: 40000000 cycles: 10381042 heartbeat IPC: 4 cumulative IPC: 3.853 (Simulation time: 00 hr 02 min 12 sec)
Heartbeat CPU 0 instructions: 50000000 cycles: 12881042 heartbeat IPC: 4 cumulative IPC: 3.882 (Simulation time: 00 hr 02 min 45 sec)
Warmup finished CPU 0 instructions: 50000000 cycles: 12881043 cumulative IPC: 3.882 (Simulation time: 00 hr 02 min 45 sec)
Warmup complete CPU 0 instructions: 50000000 cycles: 12881043 cumulative IPC: 3.882 (Simulation time: 00 hr 02 min 45 sec)
Heartbeat CPU 0 instructions: 60000004 cycles: 15383963 heartbeat IPC: 3.995 cumulative IPC: 3.995 (Simulation time: 00 hr 03 min 25 sec)
Heartbeat CPU 0 instructions: 70000002 cycles: 17886386 heartbeat IPC: 3.996 cumulative IPC: 3.996 (Simulation time: 00 hr 04 min 04 sec)
Heartbeat CPU 0 instructions: 80000002 cycles: 20388792 heartbeat IPC: 3.996 cumulative IPC: 3.996 (Simulation time: 00 hr 04 min 43 sec)
Heartbeat CPU 0 instructions: 90000004 cycles: 22892014 heartbeat IPC: 3.995 cumulative IPC: 3.996 (Simulation time: 00 hr 05 min 23 sec)
Heartbeat CPU 0 instructions: 100000000 cycles: 25394419 heartbeat IPC: 3.996 cumulative IPC: 3.996 (Simulation time: 00 hr 06 min 03 sec)
Heartbeat CPU 0 instructions: 110000002 cycles: 27896825 heartbeat IPC: 3.996 cumulative IPC: 3.996 (Simulation time: 00 hr 06 min 43 sec)
Heartbeat CPU 0 instructions: 120000000 cycles: 30399222 heartbeat IPC: 3.996 cumulative IPC: 3.996 (Simulation time: 00 hr 07 min 23 sec)
Heartbeat CPU 0 instructions: 130000002 cycles: 32901901 heartbeat IPC: 3.996 cumulative IPC: 3.996 (Simulation time: 00 hr 08 min 03 sec)
Heartbeat CPU 0 instructions: 140000004 cycles: 35404310 heartbeat IPC: 3.996 cumulative IPC: 3.996 (Simulation time: 00 hr 08 min 42 sec)
Heartbeat CPU 0 instructions: 150000000 cycles: 37906672 heartbeat IPC: 3.996 cumulative IPC: 3.996 (Simulation time: 00 hr 09 min 22 sec)
Heartbeat CPU 0 instructions: 160000003 cycles: 40409079 heartbeat IPC: 3.996 cumulative IPC: 3.996 (Simulation time: 00 hr 10 min 02 sec)
Heartbeat CPU 0 instructions: 170000002 cycles: 42911543 heartbeat IPC: 3.996 cumulative IPC: 3.996 (Simulation time: 00 hr 10 min 42 sec)
Heartbeat CPU 0 instructions: 180000000 cycles: 45413906 heartbeat IPC: 3.996 cumulative IPC: 3.996 (Simulation time: 00 hr 11 min 22 sec)
Heartbeat CPU 0 instructions: 190000003 cycles: 47916260 heartbeat IPC: 3.996 cumulative IPC: 3.996 (Simulation time: 00 hr 12 min 01 sec)
Heartbeat CPU 0 instructions: 200000000 cycles: 50419008 heartbeat IPC: 3.996 cumulative IPC: 3.996 (Simulation time: 00 hr 12 min 41 sec)
Heartbeat CPU 0 instructions: 210000000 cycles: 52921413 heartbeat IPC: 3.996 cumulative IPC: 3.996 (Simulation time: 00 hr 13 min 20 sec)
Heartbeat CPU 0 instructions: 220000003 cycles: 55424437 heartbeat IPC: 3.995 cumulative IPC: 3.996 (Simulation time: 00 hr 13 min 59 sec)
Heartbeat CPU 0 instructions: 230000001 cycles: 91057996 heartbeat IPC: 0.2806 cumulative IPC: 2.302 (Simulation time: 00 hr 17 min 50 sec)
Heartbeat CPU 0 instructions: 240000002 cycles: 94641893 heartbeat IPC: 2.79 cumulative IPC: 2.324 (Simulation time: 00 hr 18 min 40 sec)
Heartbeat CPU 0 instructions: 250000000 cycles: 98135016 heartbeat IPC: 2.863 cumulative IPC: 2.346 (Simulation time: 00 hr 19 min 31 sec)
Heartbeat CPU 0 instructions: 260000002 cycles: 101576298 heartbeat IPC: 2.906 cumulative IPC: 2.368 (Simulation time: 00 hr 20 min 21 sec)
Heartbeat CPU 0 instructions: 270000003 cycles: 105023354 heartbeat IPC: 2.901 cumulative IPC: 2.388 (Simulation time: 00 hr 21 min 11 sec)
Heartbeat CPU 0 instructions: 280000001 cycles: 108873679 heartbeat IPC: 2.597 cumulative IPC: 2.396 (Simulation time: 00 hr 22 min 04 sec)
Heartbeat CPU 0 instructions: 290000002 cycles: 112639861 heartbeat IPC: 2.655 cumulative IPC: 2.406 (Simulation time: 00 hr 22 min 55 sec)
Heartbeat CPU 0 instructions: 300000003 cycles: 116317272 heartbeat IPC: 2.719 cumulative IPC: 2.417 (Simulation time: 00 hr 23 min 49 sec)
Heartbeat CPU 0 instructions: 310000002 cycles: 119974224 heartbeat IPC: 2.735 cumulative IPC: 2.428 (Simulation time: 00 hr 24 min 40 sec)
Heartbeat CPU 0 instructions: 320000002 cycles: 123804770 heartbeat IPC: 2.611 cumulative IPC: 2.434 (Simulation time: 00 hr 25 min 31 sec)
Heartbeat CPU 0 instructions: 330000004 cycles: 129406247 heartbeat IPC: 1.785 cumulative IPC: 2.403 (Simulation time: 00 hr 26 min 39 sec)
Heartbeat CPU 0 instructions: 340000002 cycles: 135977529 heartbeat IPC: 1.522 cumulative IPC: 2.356 (Simulation time: 00 hr 27 min 54 sec)
Heartbeat CPU 0 instructions: 350000002 cycles: 142592617 heartbeat IPC: 1.512 cumulative IPC: 2.313 (Simulation time: 00 hr 29 min 10 sec)
Heartbeat CPU 0 instructions: 360000000 cycles: 149318920 heartbeat IPC: 1.487 cumulative IPC: 2.272 (Simulation time: 00 hr 30 min 26 sec)
Heartbeat CPU 0 instructions: 370000001 cycles: 155932787 heartbeat IPC: 1.512 cumulative IPC: 2.237 (Simulation time: 00 hr 31 min 43 sec)
Heartbeat CPU 0 instructions: 380000003 cycles: 162629189 heartbeat IPC: 1.493 cumulative IPC: 2.204 (Simulation time: 00 hr 33 min 00 sec)
Heartbeat CPU 0 instructions: 390000004 cycles: 169303373 heartbeat IPC: 1.498 cumulative IPC: 2.174 (Simulation time: 00 hr 34 min 15 sec)
Heartbeat CPU 0 instructions: 400000000 cycles: 175993188 heartbeat IPC: 1.495 cumulative IPC: 2.146 (Simulation time: 00 hr 35 min 28 sec)
Heartbeat CPU 0 instructions: 410000003 cycles: 182551627 heartbeat IPC: 1.525 cumulative IPC: 2.122 (Simulation time: 00 hr 36 min 41 sec)
Heartbeat CPU 0 instructions: 420000000 cycles: 188051563 heartbeat IPC: 1.818 cumulative IPC: 2.112 (Simulation time: 00 hr 37 min 47 sec)
Heartbeat CPU 0 instructions: 430000002 cycles: 192870373 heartbeat IPC: 2.075 cumulative IPC: 2.111 (Simulation time: 00 hr 38 min 48 sec)
Heartbeat CPU 0 instructions: 440000002 cycles: 197968634 heartbeat IPC: 1.961 cumulative IPC: 2.107 (Simulation time: 00 hr 39 min 52 sec)
Heartbeat CPU 0 instructions: 450000000 cycles: 203394645 heartbeat IPC: 1.843 cumulative IPC: 2.1 (Simulation time: 00 hr 40 min 58 sec)
Heartbeat CPU 0 instructions: 460000003 cycles: 209303589 heartbeat IPC: 1.692 cumulative IPC: 2.087 (Simulation time: 00 hr 42 min 10 sec)
Heartbeat CPU 0 instructions: 470000004 cycles: 215559533 heartbeat IPC: 1.598 cumulative IPC: 2.072 (Simulation time: 00 hr 43 min 24 sec)
Heartbeat CPU 0 instructions: 480000000 cycles: 221841239 heartbeat IPC: 1.592 cumulative IPC: 2.058 (Simulation time: 00 hr 44 min 37 sec)
Heartbeat CPU 0 instructions: 490000001 cycles: 228152647 heartbeat IPC: 1.584 cumulative IPC: 2.044 (Simulation time: 00 hr 45 min 51 sec)
Heartbeat CPU 0 instructions: 500000001 cycles: 234464240 heartbeat IPC: 1.584 cumulative IPC: 2.031 (Simulation time: 00 hr 47 min 03 sec)
Heartbeat CPU 0 instructions: 510000002 cycles: 240721608 heartbeat IPC: 1.598 cumulative IPC: 2.019 (Simulation time: 00 hr 48 min 16 sec)
Heartbeat CPU 0 instructions: 520000000 cycles: 328732550 heartbeat IPC: 0.1136 cumulative IPC: 1.488 (Simulation time: 01 hr 00 min 19 sec)
Heartbeat CPU 0 instructions: 530000001 cycles: 466969821 heartbeat IPC: 0.07234 cumulative IPC: 1.057 (Simulation time: 01 hr 18 min 46 sec)
Heartbeat CPU 0 instructions: 540000002 cycles: 489847410 heartbeat IPC: 0.4371 cumulative IPC: 1.027 (Simulation time: 01 hr 22 min 07 sec)
Heartbeat CPU 0 instructions: 550000003 cycles: 513280548 heartbeat IPC: 0.4267 cumulative IPC: 0.9992 (Simulation time: 01 hr 25 min 38 sec)
Heartbeat CPU 0 instructions: 560000001 cycles: 536543871 heartbeat IPC: 0.4299 cumulative IPC: 0.9739 (Simulation time: 01 hr 29 min 06 sec)
Heartbeat CPU 0 instructions: 570000001 cycles: 559862471 heartbeat IPC: 0.4288 cumulative IPC: 0.9507 (Simulation time: 01 hr 32 min 30 sec)
Heartbeat CPU 0 instructions: 580000002 cycles: 582762364 heartbeat IPC: 0.4367 cumulative IPC: 0.93 (Simulation time: 01 hr 35 min 52 sec)
Heartbeat CPU 0 instructions: 590000000 cycles: 605646233 heartbeat IPC: 0.437 cumulative IPC: 0.911 (Simulation time: 01 hr 39 min 16 sec)
*** Reached end of trace: (0, "traces/bt.A.champsimtrace")
Heartbeat CPU 0 instructions: 600000002 cycles: 628182335 heartbeat IPC: 0.4437 cumulative IPC: 0.8939 (Simulation time: 01 hr 42 min 40 sec)
Heartbeat CPU 0 instructions: 610000004 cycles: 654589106 heartbeat IPC: 0.3787 cumulative IPC: 0.8727 (Simulation time: 01 hr 45 min 33 sec)
Heartbeat CPU 0 instructions: 620000000 cycles: 657091950 heartbeat IPC: 3.995 cumulative IPC: 0.8848 (Simulation time: 01 hr 46 min 13 sec)
Heartbeat CPU 0 instructions: 630000002 cycles: 659594358 heartbeat IPC: 3.996 cumulative IPC: 0.8968 (Simulation time: 01 hr 46 min 52 sec)
Heartbeat CPU 0 instructions: 640000000 cycles: 662097377 heartbeat IPC: 3.995 cumulative IPC: 0.9088 (Simulation time: 01 hr 47 min 30 sec)
Heartbeat CPU 0 instructions: 650000002 cycles: 664599774 heartbeat IPC: 3.996 cumulative IPC: 0.9206 (Simulation time: 01 hr 48 min 11 sec)
Simulation finished CPU 0 instructions: 600000002 cycles: 651718732 cumulative IPC: 0.9206 (Simulation time: 01 hr 48 min 11 sec)
Simulation complete CPU 0 instructions: 600000002 cycles: 651718732 cumulative IPC: 0.9206 (Simulation time: 01 hr 48 min 11 sec)

ChampSim completed all CPUs

=== Simulation ===
CPU 0 runs traces/bt.A.champsimtrace
Region of Interest Statistics

CPU 0 cumulative IPC: 0.9206 instructions: 600000002 cycles: 651718732
CPU 0 Branch Prediction Accuracy: 99.29% MPKI: 0.1288 Average ROB Occupancy at Mispredict: 279.1
Branch type MPKI
BRANCH_DIRECT_JUMP: 5e-06
BRANCH_INDIRECT: 7.83e-05
BRANCH_CONDITIONAL: 0.129
BRANCH_DIRECT_CALL: 6.67e-06
BRANCH_INDIRECT_CALL: 3.67e-05
BRANCH_RETURN: 2.33e-05

LLC TOTAL        ACCESS:    7754612 HIT:    4876143 MISS:    2878469
LLC LOAD         ACCESS:    2240184 HIT:    1390453 MISS:     849731
LLC RFO          ACCESS:     889446 HIT:      12054 MISS:     877392
LLC PREFETCH     ACCESS:    2632902 HIT:    1489750 MISS:    1143152
LLC WRITE        ACCESS:    1988714 HIT:    1982307 MISS:       6407
LLC TRANSLATION  ACCESS:       3366 HIT:       1579 MISS:       1787
LLC PREFETCH REQUESTED:    2632902 ISSUED:    2632902 USEFUL:     942977 USELESS:      17253
LLC AVERAGE MISS LATENCY: 1455 cycles
cpu0_DTLB TOTAL        ACCESS:  126847969 HIT:  126086400 MISS:     761569
cpu0_DTLB LOAD         ACCESS:  126847969 HIT:  126086400 MISS:     761569
cpu0_DTLB RFO          ACCESS:          0 HIT:          0 MISS:          0
cpu0_DTLB PREFETCH     ACCESS:          0 HIT:          0 MISS:          0
cpu0_DTLB WRITE        ACCESS:          0 HIT:          0 MISS:          0
cpu0_DTLB TRANSLATION  ACCESS:          0 HIT:          0 MISS:          0
cpu0_DTLB PREFETCH REQUESTED:          0 ISSUED:          0 USEFUL:          0 USELESS:          0
cpu0_DTLB AVERAGE MISS LATENCY: 13.12 cycles
cpu0_ITLB TOTAL        ACCESS:     141937 HIT:     141684 MISS:        253
cpu0_ITLB LOAD         ACCESS:     141937 HIT:     141684 MISS:        253
cpu0_ITLB RFO          ACCESS:          0 HIT:          0 MISS:          0
cpu0_ITLB PREFETCH     ACCESS:          0 HIT:          0 MISS:          0
cpu0_ITLB WRITE        ACCESS:          0 HIT:          0 MISS:          0
cpu0_ITLB TRANSLATION  ACCESS:          0 HIT:          0 MISS:          0
cpu0_ITLB PREFETCH REQUESTED:          0 ISSUED:          0 USEFUL:          0 USELESS:          0
cpu0_ITLB AVERAGE MISS LATENCY: 322.6 cycles
cpu0_L1D TOTAL        ACCESS:  194909012 HIT:  182037184 MISS:   12871828
cpu0_L1D LOAD         ACCESS:  160226730 HIT:  151595468 MISS:    8631262
cpu0_L1D RFO          ACCESS:          0 HIT:          0 MISS:          0
cpu0_L1D PREFETCH     ACCESS:          0 HIT:          0 MISS:          0
cpu0_L1D WRITE        ACCESS:   34635507 HIT:   30412038 MISS:    4223469
cpu0_L1D TRANSLATION  ACCESS:      46775 HIT:      29678 MISS:      17097
cpu0_L1D PREFETCH REQUESTED:          0 ISSUED:          0 USEFUL:          0 USELESS:          0
cpu0_L1D AVERAGE MISS LATENCY: 169.7 cycles
cpu0_L1I TOTAL        ACCESS:     191334 HIT:     188576 MISS:       2758
cpu0_L1I LOAD         ACCESS:     191334 HIT:     188576 MISS:       2758
cpu0_L1I RFO          ACCESS:          0 HIT:          0 MISS:          0
cpu0_L1I PREFETCH     ACCESS:          0 HIT:          0 MISS:          0
cpu0_L1I WRITE        ACCESS:          0 HIT:          0 MISS:          0
cpu0_L1I TRANSLATION  ACCESS:          0 HIT:          0 MISS:          0
cpu0_L1I PREFETCH REQUESTED:          0 ISSUED:          0 USEFUL:          0 USELESS:          0
cpu0_L1I AVERAGE MISS LATENCY: 518.7 cycles
cpu0_L2C TOTAL        ACCESS:    5259156 HIT:    2125678 MISS:    3133478
cpu0_L2C LOAD         ACCESS:    2353019 HIT:     112809 MISS:    2240210
cpu0_L2C RFO          ACCESS:     889973 HIT:        527 MISS:     889446
cpu0_L2C PREFETCH     ACCESS:          0 HIT:          0 MISS:          0
cpu0_L2C WRITE        ACCESS:    1999070 HIT:    1998614 MISS:        456
cpu0_L2C TRANSLATION  ACCESS:      17094 HIT:      13728 MISS:       3366
cpu0_L2C PREFETCH REQUESTED:          0 ISSUED:          0 USEFUL:          0 USELESS:          0
cpu0_L2C AVERAGE MISS LATENCY: 865.1 cycles
cpu0_STLB TOTAL        ACCESS:     310603 HIT:     263851 MISS:      46752
cpu0_STLB LOAD         ACCESS:     310603 HIT:     263851 MISS:      46752
cpu0_STLB RFO          ACCESS:          0 HIT:          0 MISS:          0
cpu0_STLB PREFETCH     ACCESS:          0 HIT:          0 MISS:          0
cpu0_STLB WRITE        ACCESS:          0 HIT:          0 MISS:          0
cpu0_STLB TRANSLATION  ACCESS:          0 HIT:          0 MISS:          0
cpu0_STLB PREFETCH REQUESTED:          0 ISSUED:          0 USEFUL:          0 USELESS:          0
cpu0_STLB AVERAGE MISS LATENCY: 284 cycles

DRAM Statistics

Channel 0 RQ ROW_BUFFER_HIT:     871495
  ROW_BUFFER_MISS:    1761322
 AVG DBUS CONGESTED CYCLE: 3.971
WQ ROW_BUFFER_HIT: Channel 0 
  ROW_BUFFER_MISS:     205696
  FULL:    1494306
