WARNING: physical memory size is smaller than virtual memory size.

*** ChampSim Multicore Out-of-Order Simulator ***
Warmup Instructions: 50000000
Simulation Instructions: 600000000
Number of CPUs: 1
Page size: 4096

CPU 0 Tage branch predictor
Off-chip DRAM Size: 4 GiB Channels: 1 Width: 64-bit Data Race: 3200 MT/s
Heartbeat CPU 0 instructions: 10000002 cycles: 2881030 heartbeat IPC: 3.471 cumulative IPC: 3.471 (Simulation time: 00 hr 00 min 58 sec)
Heartbeat CPU 0 instructions: 20000002 cycles: 5381030 heartbeat IPC: 4 cumulative IPC: 3.717 (Simulation time: 00 hr 01 min 49 sec)
Heartbeat CPU 0 instructions: 30000002 cycles: 7881030 heartbeat IPC: 4 cumulative IPC: 3.807 (Simulation time: 00 hr 02 min 41 sec)
Heartbeat CPU 0 instructions: 40000002 cycles: 10381030 heartbeat IPC: 4 cumulative IPC: 3.853 (Simulation time: 00 hr 03 min 33 sec)
Heartbeat CPU 0 instructions: 50000002 cycles: 12881030 heartbeat IPC: 4 cumulative IPC: 3.882 (Simulation time: 00 hr 04 min 23 sec)
Warmup finished CPU 0 instructions: 50000002 cycles: 12881031 cumulative IPC: 3.882 (Simulation time: 00 hr 04 min 23 sec)
Warmup complete CPU 0 instructions: 50000002 cycles: 12881031 cumulative IPC: 3.882 (Simulation time: 00 hr 04 min 23 sec)
Heartbeat CPU 0 instructions: 60000004 cycles: 15383088 heartbeat IPC: 3.997 cumulative IPC: 3.997 (Simulation time: 00 hr 05 min 23 sec)
Heartbeat CPU 0 instructions: 70000000 cycles: 17883527 heartbeat IPC: 3.999 cumulative IPC: 3.998 (Simulation time: 00 hr 06 min 20 sec)
Heartbeat CPU 0 instructions: 80000002 cycles: 20383721 heartbeat IPC: 4 cumulative IPC: 3.999 (Simulation time: 00 hr 07 min 17 sec)
Heartbeat CPU 0 instructions: 90000004 cycles: 22883811 heartbeat IPC: 4 cumulative IPC: 3.999 (Simulation time: 00 hr 08 min 18 sec)
Heartbeat CPU 0 instructions: 100000004 cycles: 25385455 heartbeat IPC: 3.997 cumulative IPC: 3.999 (Simulation time: 00 hr 09 min 14 sec)
Heartbeat CPU 0 instructions: 110000000 cycles: 27885714 heartbeat IPC: 4 cumulative IPC: 3.999 (Simulation time: 00 hr 10 min 14 sec)
Heartbeat CPU 0 instructions: 120000003 cycles: 30385804 heartbeat IPC: 4 cumulative IPC: 3.999 (Simulation time: 00 hr 11 min 13 sec)
Heartbeat CPU 0 instructions: 130000000 cycles: 32886742 heartbeat IPC: 3.998 cumulative IPC: 3.999 (Simulation time: 00 hr 12 min 09 sec)
Heartbeat CPU 0 instructions: 140000001 cycles: 35386833 heartbeat IPC: 4 cumulative IPC: 3.999 (Simulation time: 00 hr 13 min 08 sec)
Heartbeat CPU 0 instructions: 150000000 cycles: 37886889 heartbeat IPC: 4 cumulative IPC: 3.999 (Simulation time: 00 hr 14 min 05 sec)
Heartbeat CPU 0 instructions: 160000001 cycles: 40387115 heartbeat IPC: 4 cumulative IPC: 3.999 (Simulation time: 00 hr 15 min 03 sec)
Heartbeat CPU 0 instructions: 170000002 cycles: 42888051 heartbeat IPC: 3.999 cumulative IPC: 3.999 (Simulation time: 00 hr 16 min 00 sec)
Heartbeat CPU 0 instructions: 180000001 cycles: 45388146 heartbeat IPC: 4 cumulative IPC: 3.999 (Simulation time: 00 hr 16 min 57 sec)
Heartbeat CPU 0 instructions: 190000004 cycles: 47888489 heartbeat IPC: 3.999 cumulative IPC: 3.999 (Simulation time: 00 hr 17 min 55 sec)
Heartbeat CPU 0 instructions: 200000000 cycles: 50388897 heartbeat IPC: 3.999 cumulative IPC: 3.999 (Simulation time: 00 hr 18 min 54 sec)
Heartbeat CPU 0 instructions: 210000000 cycles: 52889493 heartbeat IPC: 3.999 cumulative IPC: 3.999 (Simulation time: 00 hr 19 min 50 sec)
Heartbeat CPU 0 instructions: 220000000 cycles: 55390489 heartbeat IPC: 3.998 cumulative IPC: 3.999 (Simulation time: 00 hr 20 min 48 sec)
Heartbeat CPU 0 instructions: 230000003 cycles: 89777932 heartbeat IPC: 0.2908 cumulative IPC: 2.341 (Simulation time: 00 hr 26 min 43 sec)
Heartbeat CPU 0 instructions: 240000001 cycles: 95616363 heartbeat IPC: 1.713 cumulative IPC: 2.296 (Simulation time: 00 hr 28 min 23 sec)
Heartbeat CPU 0 instructions: 250000000 cycles: 101518723 heartbeat IPC: 1.694 cumulative IPC: 2.256 (Simulation time: 00 hr 30 min 02 sec)
Heartbeat CPU 0 instructions: 260000002 cycles: 107465927 heartbeat IPC: 1.681 cumulative IPC: 2.22 (Simulation time: 00 hr 31 min 40 sec)
Heartbeat CPU 0 instructions: 270000000 cycles: 113378296 heartbeat IPC: 1.691 cumulative IPC: 2.189 (Simulation time: 00 hr 33 min 21 sec)
Heartbeat CPU 0 instructions: 280000001 cycles: 119301887 heartbeat IPC: 1.688 cumulative IPC: 2.161 (Simulation time: 00 hr 35 min 01 sec)
Heartbeat CPU 0 instructions: 290000003 cycles: 125254045 heartbeat IPC: 1.68 cumulative IPC: 2.136 (Simulation time: 00 hr 36 min 39 sec)
Heartbeat CPU 0 instructions: 300000003 cycles: 131183339 heartbeat IPC: 1.687 cumulative IPC: 2.113 (Simulation time: 00 hr 38 min 16 sec)
Heartbeat CPU 0 instructions: 310000000 cycles: 137115321 heartbeat IPC: 1.686 cumulative IPC: 2.093 (Simulation time: 00 hr 39 min 55 sec)
Heartbeat CPU 0 instructions: 320000002 cycles: 143066086 heartbeat IPC: 1.68 cumulative IPC: 2.074 (Simulation time: 00 hr 41 min 34 sec)
Heartbeat CPU 0 instructions: 330000000 cycles: 149625978 heartbeat IPC: 1.524 cumulative IPC: 2.048 (Simulation time: 00 hr 43 min 20 sec)
Heartbeat CPU 0 instructions: 340000003 cycles: 156434995 heartbeat IPC: 1.469 cumulative IPC: 2.02 (Simulation time: 00 hr 45 min 08 sec)
Heartbeat CPU 0 instructions: 350000000 cycles: 163155242 heartbeat IPC: 1.488 cumulative IPC: 1.996 (Simulation time: 00 hr 46 min 55 sec)
Heartbeat CPU 0 instructions: 360000001 cycles: 169985104 heartbeat IPC: 1.464 cumulative IPC: 1.973 (Simulation time: 00 hr 48 min 43 sec)
Heartbeat CPU 0 instructions: 370000004 cycles: 176707598 heartbeat IPC: 1.488 cumulative IPC: 1.953 (Simulation time: 00 hr 50 min 30 sec)
Heartbeat CPU 0 instructions: 380000003 cycles: 183571059 heartbeat IPC: 1.457 cumulative IPC: 1.933 (Simulation time: 00 hr 52 min 17 sec)
Heartbeat CPU 0 instructions: 390000000 cycles: 190346984 heartbeat IPC: 1.476 cumulative IPC: 1.916 (Simulation time: 00 hr 54 min 06 sec)
Heartbeat CPU 0 instructions: 400000001 cycles: 197194285 heartbeat IPC: 1.46 cumulative IPC: 1.899 (Simulation time: 00 hr 55 min 56 sec)
Heartbeat CPU 0 instructions: 410000004 cycles: 203940411 heartbeat IPC: 1.482 cumulative IPC: 1.884 (Simulation time: 00 hr 57 min 43 sec)
Heartbeat CPU 0 instructions: 420000004 cycles: 210697357 heartbeat IPC: 1.48 cumulative IPC: 1.87 (Simulation time: 00 hr 59 min 30 sec)
Heartbeat CPU 0 instructions: 430000004 cycles: 217827269 heartbeat IPC: 1.403 cumulative IPC: 1.854 (Simulation time: 01 hr 01 min 21 sec)
Heartbeat CPU 0 instructions: 440000004 cycles: 225153336 heartbeat IPC: 1.365 cumulative IPC: 1.837 (Simulation time: 01 hr 03 min 15 sec)
Heartbeat CPU 0 instructions: 450000000 cycles: 232461016 heartbeat IPC: 1.368 cumulative IPC: 1.822 (Simulation time: 01 hr 05 min 07 sec)
Heartbeat CPU 0 instructions: 460000001 cycles: 239738927 heartbeat IPC: 1.374 cumulative IPC: 1.807 (Simulation time: 01 hr 06 min 59 sec)
Heartbeat CPU 0 instructions: 470000000 cycles: 247014330 heartbeat IPC: 1.374 cumulative IPC: 1.794 (Simulation time: 01 hr 08 min 52 sec)
Heartbeat CPU 0 instructions: 480000003 cycles: 254273254 heartbeat IPC: 1.378 cumulative IPC: 1.781 (Simulation time: 01 hr 10 min 43 sec)
Heartbeat CPU 0 instructions: 490000004 cycles: 261507800 heartbeat IPC: 1.382 cumulative IPC: 1.77 (Simulation time: 01 hr 12 min 35 sec)
Heartbeat CPU 0 instructions: 500000002 cycles: 268795961 heartbeat IPC: 1.372 cumulative IPC: 1.758 (Simulation time: 01 hr 14 min 27 sec)
Heartbeat CPU 0 instructions: 510000003 cycles: 276079805 heartbeat IPC: 1.373 cumulative IPC: 1.748 (Simulation time: 01 hr 16 min 19 sec)
Heartbeat CPU 0 instructions: 520000003 cycles: 335321443 heartbeat IPC: 0.1688 cumulative IPC: 1.458 (Simulation time: 01 hr 27 min 27 sec)
Heartbeat CPU 0 instructions: 530000003 cycles: 441555944 heartbeat IPC: 0.09413 cumulative IPC: 1.12 (Simulation time: 01 hr 47 min 05 sec)
Heartbeat CPU 0 instructions: 540000003 cycles: 475950202 heartbeat IPC: 0.2907 cumulative IPC: 1.058 (Simulation time: 01 hr 53 min 57 sec)
Heartbeat CPU 0 instructions: 550000000 cycles: 514172398 heartbeat IPC: 0.2616 cumulative IPC: 0.9974 (Simulation time: 02 hr 01 min 32 sec)
Heartbeat CPU 0 instructions: 560000000 cycles: 552125557 heartbeat IPC: 0.2635 cumulative IPC: 0.9458 (Simulation time: 02 hr 09 min 01 sec)
Heartbeat CPU 0 instructions: 570000002 cycles: 590194534 heartbeat IPC: 0.2627 cumulative IPC: 0.9007 (Simulation time: 02 hr 16 min 28 sec)
Heartbeat CPU 0 instructions: 580000004 cycles: 620011546 heartbeat IPC: 0.3354 cumulative IPC: 0.873 (Simulation time: 02 hr 22 min 28 sec)
Heartbeat CPU 0 instructions: 590000001 cycles: 657919815 heartbeat IPC: 0.2638 cumulative IPC: 0.8372 (Simulation time: 02 hr 29 min 49 sec)
*** Reached end of trace: (0, "traces/bt.A.champsimtrace")
Heartbeat CPU 0 instructions: 600000000 cycles: 695901820 heartbeat IPC: 0.2633 cumulative IPC: 0.8052 (Simulation time: 02 hr 37 min 13 sec)
Heartbeat CPU 0 instructions: 610000004 cycles: 719932231 heartbeat IPC: 0.4161 cumulative IPC: 0.792 (Simulation time: 02 hr 41 min 18 sec)
Heartbeat CPU 0 instructions: 620000000 cycles: 722432231 heartbeat IPC: 4 cumulative IPC: 0.8033 (Simulation time: 02 hr 42 min 16 sec)
Heartbeat CPU 0 instructions: 630000002 cycles: 724932230 heartbeat IPC: 4 cumulative IPC: 0.8145 (Simulation time: 02 hr 43 min 12 sec)
Heartbeat CPU 0 instructions: 640000003 cycles: 727432231 heartbeat IPC: 4 cumulative IPC: 0.8257 (Simulation time: 02 hr 44 min 10 sec)
Heartbeat CPU 0 instructions: 650000003 cycles: 729932317 heartbeat IPC: 4 cumulative IPC: 0.8368 (Simulation time: 02 hr 45 min 06 sec)
Simulation finished CPU 0 instructions: 600000001 cycles: 717051287 cumulative IPC: 0.8368 (Simulation time: 02 hr 45 min 06 sec)
Simulation complete CPU 0 instructions: 600000001 cycles: 717051287 cumulative IPC: 0.8368 (Simulation time: 02 hr 45 min 06 sec)

ChampSim completed all CPUs

=== Simulation ===
CPU 0 runs traces/bt.A.champsimtrace
Region of Interest Statistics

CPU 0 cumulative IPC: 0.8368 instructions: 600000001 cycles: 717051287
CPU 0 Branch Prediction Accuracy: 99.98% MPKI: 0.004178 Average ROB Occupancy at Mispredict: 112.6
Branch type MPKI
BRANCH_DIRECT_JUMP: 5e-06
BRANCH_INDIRECT: 7.83e-05
BRANCH_CONDITIONAL: 0.00403
BRANCH_DIRECT_CALL: 6.67e-06
BRANCH_INDIRECT_CALL: 3.33e-05
BRANCH_RETURN: 2.33e-05

LLC TOTAL        ACCESS:    5110752 HIT:     460061 MISS:    4650691
LLC LOAD         ACCESS:    2235798 HIT:     306877 MISS:    1928921
LLC RFO          ACCESS:     889368 HIT:      62982 MISS:     826386
LLC PREFETCH     ACCESS:          0 HIT:          0 MISS:          0
LLC WRITE        ACCESS:    1982216 HIT:      90031 MISS:    1892185
LLC TRANSLATION  ACCESS:       3370 HIT:        171 MISS:       3199
LLC PREFETCH REQUESTED:          0 ISSUED:          0 USEFUL:          0 USELESS:          0
LLC AVERAGE MISS LATENCY: 702.8 cycles
cpu0_DTLB TOTAL        ACCESS:  126790565 HIT:  126036009 MISS:     754556
cpu0_DTLB LOAD         ACCESS:  126790565 HIT:  126036009 MISS:     754556
cpu0_DTLB RFO          ACCESS:          0 HIT:          0 MISS:          0
cpu0_DTLB PREFETCH     ACCESS:          0 HIT:          0 MISS:          0
cpu0_DTLB WRITE        ACCESS:          0 HIT:          0 MISS:          0
cpu0_DTLB TRANSLATION  ACCESS:          0 HIT:          0 MISS:          0
cpu0_DTLB PREFETCH REQUESTED:          0 ISSUED:          0 USEFUL:          0 USELESS:          0
cpu0_DTLB AVERAGE MISS LATENCY: 16.41 cycles
cpu0_ITLB TOTAL        ACCESS:     172027 HIT:     171768 MISS:        259
cpu0_ITLB LOAD         ACCESS:     172027 HIT:     171768 MISS:        259
cpu0_ITLB RFO          ACCESS:          0 HIT:          0 MISS:          0
cpu0_ITLB PREFETCH     ACCESS:          0 HIT:          0 MISS:          0
cpu0_ITLB WRITE        ACCESS:          0 HIT:          0 MISS:          0
cpu0_ITLB TRANSLATION  ACCESS:          0 HIT:          0 MISS:          0
cpu0_ITLB PREFETCH REQUESTED:          0 ISSUED:          0 USEFUL:          0 USELESS:          0
cpu0_ITLB AVERAGE MISS LATENCY: 178.8 cycles
cpu0_L1D TOTAL        ACCESS:  193756804 HIT:  179782891 MISS:   13973913
cpu0_L1D LOAD         ACCESS:  159074528 HIT:  149178085 MISS:    9896443
cpu0_L1D RFO          ACCESS:          0 HIT:          0 MISS:          0
cpu0_L1D PREFETCH     ACCESS:          0 HIT:          0 MISS:          0
cpu0_L1D WRITE        ACCESS:   34635522 HIT:   30575115 MISS:    4060407
cpu0_L1D TRANSLATION  ACCESS:      46754 HIT:      29691 MISS:      17063
cpu0_L1D PREFETCH REQUESTED:          0 ISSUED:          0 USEFUL:          0 USELESS:          0
cpu0_L1D AVERAGE MISS LATENCY: 174.1 cycles
cpu0_L1I TOTAL        ACCESS:     205254 HIT:     202330 MISS:       2924
cpu0_L1I LOAD         ACCESS:     205254 HIT:     202330 MISS:       2924
cpu0_L1I RFO          ACCESS:          0 HIT:          0 MISS:          0
cpu0_L1I PREFETCH     ACCESS:          0 HIT:          0 MISS:          0
cpu0_L1I WRITE        ACCESS:          0 HIT:          0 MISS:          0
cpu0_L1I TRANSLATION  ACCESS:          0 HIT:          0 MISS:          0
cpu0_L1I PREFETCH REQUESTED:          0 ISSUED:          0 USEFUL:          0 USELESS:          0
cpu0_L1I AVERAGE MISS LATENCY: 363.7 cycles
cpu0_L2C TOTAL        ACCESS:    5273026 HIT:    2144118 MISS:    3128908
cpu0_L2C LOAD         ACCESS:    2364394 HIT:     128520 MISS:    2235874
cpu0_L2C RFO          ACCESS:     891566 HIT:       2198 MISS:     889368
cpu0_L2C PREFETCH     ACCESS:          0 HIT:          0 MISS:          0
cpu0_L2C WRITE        ACCESS:    2000006 HIT:    1999710 MISS:        296
cpu0_L2C TRANSLATION  ACCESS:      17060 HIT:      13690 MISS:       3370
cpu0_L2C PREFETCH REQUESTED:          0 ISSUED:          0 USEFUL:          0 USELESS:          0
cpu0_L2C AVERAGE MISS LATENCY: 1065 cycles
cpu0_STLB TOTAL        ACCESS:     296438 HIT:     249706 MISS:      46732
cpu0_STLB LOAD         ACCESS:     296438 HIT:     249706 MISS:      46732
cpu0_STLB RFO          ACCESS:          0 HIT:          0 MISS:          0
cpu0_STLB PREFETCH     ACCESS:          0 HIT:          0 MISS:          0
cpu0_STLB WRITE        ACCESS:          0 HIT:          0 MISS:          0
cpu0_STLB TRANSLATION  ACCESS:          0 HIT:          0 MISS:          0
cpu0_STLB PREFETCH REQUESTED:          0 ISSUED:          0 USEFUL:          0 USELESS:          0
cpu0_STLB AVERAGE MISS LATENCY: 374.9 cycles

DRAM Statistics

Channel 0 RQ ROW_BUFFER_HIT:     738340
  ROW_BUFFER_MISS:    2015773
 AVG DBUS CONGESTED CYCLE: 3.969
WQ ROW_BUFFER_HIT: Channel 0 
  ROW_BUFFER_MISS:     655931
  FULL:    1248453
