WARNING: physical memory size is smaller than virtual memory size.

*** ChampSim Multicore Out-of-Order Simulator ***
Warmup Instructions: 50000000
Simulation Instructions: 600000000
Number of CPUs: 1
Page size: 4096

Off-chip DRAM Size: 4 GiB Channels: 1 Width: 64-bit Data Race: 3200 MT/s
Heartbeat CPU 0 instructions: 10000000 cycles: 2881042 heartbeat IPC: 3.471 cumulative IPC: 3.471 (Simulation time: 00 hr 00 min 34 sec)
Heartbeat CPU 0 instructions: 20000000 cycles: 5381042 heartbeat IPC: 4 cumulative IPC: 3.717 (Simulation time: 00 hr 01 min 06 sec)
Heartbeat CPU 0 instructions: 30000000 cycles: 7881042 heartbeat IPC: 4 cumulative IPC: 3.807 (Simulation time: 00 hr 01 min 38 sec)
Heartbeat CPU 0 instructions: 40000000 cycles: 10381042 heartbeat IPC: 4 cumulative IPC: 3.853 (Simulation time: 00 hr 02 min 10 sec)
Heartbeat CPU 0 instructions: 50000000 cycles: 12881042 heartbeat IPC: 4 cumulative IPC: 3.882 (Simulation time: 00 hr 02 min 43 sec)
Warmup finished CPU 0 instructions: 50000000 cycles: 12881043 cumulative IPC: 3.882 (Simulation time: 00 hr 02 min 43 sec)
Warmup complete CPU 0 instructions: 50000000 cycles: 12881043 cumulative IPC: 3.882 (Simulation time: 00 hr 02 min 43 sec)
Heartbeat CPU 0 instructions: 60000004 cycles: 15383661 heartbeat IPC: 3.996 cumulative IPC: 3.996 (Simulation time: 00 hr 03 min 21 sec)
Heartbeat CPU 0 instructions: 70000002 cycles: 17886024 heartbeat IPC: 3.996 cumulative IPC: 3.996 (Simulation time: 00 hr 03 min 58 sec)
Heartbeat CPU 0 instructions: 80000002 cycles: 20388430 heartbeat IPC: 3.996 cumulative IPC: 3.996 (Simulation time: 00 hr 04 min 35 sec)
Heartbeat CPU 0 instructions: 90000004 cycles: 22890853 heartbeat IPC: 3.996 cumulative IPC: 3.996 (Simulation time: 00 hr 05 min 12 sec)
Heartbeat CPU 0 instructions: 100000000 cycles: 25393258 heartbeat IPC: 3.996 cumulative IPC: 3.996 (Simulation time: 00 hr 05 min 51 sec)
Heartbeat CPU 0 instructions: 110000002 cycles: 27895664 heartbeat IPC: 3.996 cumulative IPC: 3.996 (Simulation time: 00 hr 06 min 28 sec)
Heartbeat CPU 0 instructions: 120000000 cycles: 30398061 heartbeat IPC: 3.996 cumulative IPC: 3.996 (Simulation time: 00 hr 07 min 05 sec)
Heartbeat CPU 0 instructions: 130000002 cycles: 32900750 heartbeat IPC: 3.996 cumulative IPC: 3.996 (Simulation time: 00 hr 07 min 43 sec)
Heartbeat CPU 0 instructions: 140000004 cycles: 35403159 heartbeat IPC: 3.996 cumulative IPC: 3.996 (Simulation time: 00 hr 08 min 20 sec)
Heartbeat CPU 0 instructions: 150000000 cycles: 37905521 heartbeat IPC: 3.996 cumulative IPC: 3.996 (Simulation time: 00 hr 08 min 57 sec)
Heartbeat CPU 0 instructions: 160000003 cycles: 40407928 heartbeat IPC: 3.996 cumulative IPC: 3.996 (Simulation time: 00 hr 09 min 35 sec)
Heartbeat CPU 0 instructions: 170000002 cycles: 42910392 heartbeat IPC: 3.996 cumulative IPC: 3.996 (Simulation time: 00 hr 10 min 12 sec)
Heartbeat CPU 0 instructions: 180000000 cycles: 45412755 heartbeat IPC: 3.996 cumulative IPC: 3.996 (Simulation time: 00 hr 10 min 50 sec)
Heartbeat CPU 0 instructions: 190000003 cycles: 47915413 heartbeat IPC: 3.996 cumulative IPC: 3.996 (Simulation time: 00 hr 11 min 28 sec)
Heartbeat CPU 0 instructions: 200000000 cycles: 50417865 heartbeat IPC: 3.996 cumulative IPC: 3.996 (Simulation time: 00 hr 12 min 05 sec)
Heartbeat CPU 0 instructions: 210000000 cycles: 52920270 heartbeat IPC: 3.996 cumulative IPC: 3.996 (Simulation time: 00 hr 12 min 42 sec)
Heartbeat CPU 0 instructions: 220000003 cycles: 55423305 heartbeat IPC: 3.995 cumulative IPC: 3.996 (Simulation time: 00 hr 13 min 18 sec)
Heartbeat CPU 0 instructions: 230000001 cycles: 89864500 heartbeat IPC: 0.2903 cumulative IPC: 2.338 (Simulation time: 00 hr 16 min 47 sec)
Heartbeat CPU 0 instructions: 240000002 cycles: 95874646 heartbeat IPC: 1.664 cumulative IPC: 2.289 (Simulation time: 00 hr 17 min 50 sec)
Heartbeat CPU 0 instructions: 250000000 cycles: 101903073 heartbeat IPC: 1.659 cumulative IPC: 2.247 (Simulation time: 00 hr 18 min 54 sec)
Heartbeat CPU 0 instructions: 260000004 cycles: 107922908 heartbeat IPC: 1.661 cumulative IPC: 2.21 (Simulation time: 00 hr 19 min 58 sec)
Heartbeat CPU 0 instructions: 270000003 cycles: 113936301 heartbeat IPC: 1.663 cumulative IPC: 2.177 (Simulation time: 00 hr 21 min 04 sec)
Heartbeat CPU 0 instructions: 280000001 cycles: 119988808 heartbeat IPC: 1.652 cumulative IPC: 2.147 (Simulation time: 00 hr 22 min 10 sec)
Heartbeat CPU 0 instructions: 290000000 cycles: 126034133 heartbeat IPC: 1.654 cumulative IPC: 2.121 (Simulation time: 00 hr 23 min 18 sec)
Heartbeat CPU 0 instructions: 300000003 cycles: 132084354 heartbeat IPC: 1.653 cumulative IPC: 2.097 (Simulation time: 00 hr 24 min 27 sec)
Heartbeat CPU 0 instructions: 310000002 cycles: 138125853 heartbeat IPC: 1.655 cumulative IPC: 2.076 (Simulation time: 00 hr 25 min 39 sec)
Heartbeat CPU 0 instructions: 320000002 cycles: 144149595 heartbeat IPC: 1.66 cumulative IPC: 2.057 (Simulation time: 00 hr 26 min 51 sec)
Heartbeat CPU 0 instructions: 330000004 cycles: 150601073 heartbeat IPC: 1.55 cumulative IPC: 2.033 (Simulation time: 00 hr 28 min 05 sec)
Heartbeat CPU 0 instructions: 340000002 cycles: 157146628 heartbeat IPC: 1.528 cumulative IPC: 2.01 (Simulation time: 00 hr 29 min 20 sec)
Heartbeat CPU 0 instructions: 350000002 cycles: 163756162 heartbeat IPC: 1.513 cumulative IPC: 1.988 (Simulation time: 00 hr 30 min 37 sec)
Heartbeat CPU 0 instructions: 360000000 cycles: 170377580 heartbeat IPC: 1.51 cumulative IPC: 1.968 (Simulation time: 00 hr 31 min 52 sec)
Heartbeat CPU 0 instructions: 370000001 cycles: 176886462 heartbeat IPC: 1.536 cumulative IPC: 1.951 (Simulation time: 00 hr 33 min 07 sec)
Heartbeat CPU 0 instructions: 380000003 cycles: 183490419 heartbeat IPC: 1.514 cumulative IPC: 1.934 (Simulation time: 00 hr 34 min 22 sec)
Heartbeat CPU 0 instructions: 390000004 cycles: 190002629 heartbeat IPC: 1.536 cumulative IPC: 1.92 (Simulation time: 00 hr 35 min 35 sec)
Heartbeat CPU 0 instructions: 400000000 cycles: 196604110 heartbeat IPC: 1.515 cumulative IPC: 1.905 (Simulation time: 00 hr 36 min 51 sec)
Heartbeat CPU 0 instructions: 410000003 cycles: 203129327 heartbeat IPC: 1.533 cumulative IPC: 1.892 (Simulation time: 00 hr 38 min 05 sec)
Heartbeat CPU 0 instructions: 420000000 cycles: 209664353 heartbeat IPC: 1.53 cumulative IPC: 1.88 (Simulation time: 00 hr 39 min 20 sec)
Heartbeat CPU 0 instructions: 430000002 cycles: 214483011 heartbeat IPC: 2.075 cumulative IPC: 1.885 (Simulation time: 00 hr 40 min 20 sec)
Heartbeat CPU 0 instructions: 440000002 cycles: 219576849 heartbeat IPC: 1.963 cumulative IPC: 1.887 (Simulation time: 00 hr 41 min 21 sec)
Heartbeat CPU 0 instructions: 450000000 cycles: 224999545 heartbeat IPC: 1.844 cumulative IPC: 1.886 (Simulation time: 00 hr 42 min 25 sec)
Heartbeat CPU 0 instructions: 460000003 cycles: 230950594 heartbeat IPC: 1.68 cumulative IPC: 1.88 (Simulation time: 00 hr 43 min 33 sec)
Heartbeat CPU 0 instructions: 470000004 cycles: 237578967 heartbeat IPC: 1.509 cumulative IPC: 1.869 (Simulation time: 00 hr 44 min 47 sec)
Heartbeat CPU 0 instructions: 480000000 cycles: 244224136 heartbeat IPC: 1.505 cumulative IPC: 1.859 (Simulation time: 00 hr 46 min 07 sec)
Heartbeat CPU 0 instructions: 490000001 cycles: 250848343 heartbeat IPC: 1.51 cumulative IPC: 1.849 (Simulation time: 00 hr 47 min 21 sec)
Heartbeat CPU 0 instructions: 500000001 cycles: 257489901 heartbeat IPC: 1.506 cumulative IPC: 1.84 (Simulation time: 00 hr 48 min 35 sec)
Heartbeat CPU 0 instructions: 510000002 cycles: 264107470 heartbeat IPC: 1.511 cumulative IPC: 1.831 (Simulation time: 00 hr 49 min 48 sec)
Heartbeat CPU 0 instructions: 520000001 cycles: 331906630 heartbeat IPC: 0.1475 cumulative IPC: 1.473 (Simulation time: 00 hr 59 min 11 sec)
Heartbeat CPU 0 instructions: 530000001 cycles: 445393493 heartbeat IPC: 0.08812 cumulative IPC: 1.11 (Simulation time: 01 hr 14 min 32 sec)
Heartbeat CPU 0 instructions: 540000002 cycles: 476345871 heartbeat IPC: 0.3231 cumulative IPC: 1.057 (Simulation time: 01 hr 19 min 00 sec)
Heartbeat CPU 0 instructions: 550000003 cycles: 505577379 heartbeat IPC: 0.3421 cumulative IPC: 1.015 (Simulation time: 01 hr 23 min 17 sec)
Heartbeat CPU 0 instructions: 560000001 cycles: 534959448 heartbeat IPC: 0.3403 cumulative IPC: 0.9769 (Simulation time: 01 hr 27 min 36 sec)
Heartbeat CPU 0 instructions: 570000000 cycles: 564356835 heartbeat IPC: 0.3402 cumulative IPC: 0.9429 (Simulation time: 01 hr 31 min 51 sec)
Heartbeat CPU 0 instructions: 580000002 cycles: 594204040 heartbeat IPC: 0.335 cumulative IPC: 0.9117 (Simulation time: 01 hr 36 min 15 sec)
Heartbeat CPU 0 instructions: 590000000 cycles: 623926597 heartbeat IPC: 0.3364 cumulative IPC: 0.8837 (Simulation time: 01 hr 40 min 37 sec)
*** Reached end of trace: (0, "traces/bt.A.champsimtrace")
Heartbeat CPU 0 instructions: 600000002 cycles: 653421134 heartbeat IPC: 0.339 cumulative IPC: 0.8587 (Simulation time: 01 hr 44 min 54 sec)
Heartbeat CPU 0 instructions: 610000004 cycles: 678177026 heartbeat IPC: 0.4039 cumulative IPC: 0.8417 (Simulation time: 01 hr 47 min 41 sec)
Heartbeat CPU 0 instructions: 620000000 cycles: 680679446 heartbeat IPC: 3.996 cumulative IPC: 0.8536 (Simulation time: 01 hr 48 min 24 sec)
Heartbeat CPU 0 instructions: 630000002 cycles: 683181854 heartbeat IPC: 3.996 cumulative IPC: 0.8653 (Simulation time: 01 hr 49 min 05 sec)
Heartbeat CPU 0 instructions: 640000000 cycles: 685684262 heartbeat IPC: 3.996 cumulative IPC: 0.8769 (Simulation time: 01 hr 49 min 47 sec)
Heartbeat CPU 0 instructions: 650000002 cycles: 688186659 heartbeat IPC: 3.996 cumulative IPC: 0.8885 (Simulation time: 01 hr 50 min 28 sec)
Simulation finished CPU 0 instructions: 600000002 cycles: 675305617 cumulative IPC: 0.8885 (Simulation time: 01 hr 50 min 28 sec)
Simulation complete CPU 0 instructions: 600000002 cycles: 675305617 cumulative IPC: 0.8885 (Simulation time: 01 hr 50 min 28 sec)

ChampSim completed all CPUs

=== Simulation ===
CPU 0 runs traces/bt.A.champsimtrace
Region of Interest Statistics

CPU 0 cumulative IPC: 0.8885 instructions: 600000002 cycles: 675305617
CPU 0 Branch Prediction Accuracy: 99.29% MPKI: 0.1288 Average ROB Occupancy at Mispredict: 280.1
Branch type MPKI
BRANCH_DIRECT_JUMP: 5e-06
BRANCH_INDIRECT: 7.83e-05
BRANCH_CONDITIONAL: 0.129
BRANCH_DIRECT_CALL: 6.67e-06
BRANCH_INDIRECT_CALL: 3.67e-05
BRANCH_RETURN: 2.33e-05

LLC TOTAL        ACCESS:    5121791 HIT:    2515929 MISS:    2605862
LLC LOAD         ACCESS:    2240364 HIT:     515217 MISS:    1725147
LLC RFO          ACCESS:     889447 HIT:      10532 MISS:     878915
LLC PREFETCH     ACCESS:          0 HIT:          0 MISS:          0
LLC WRITE        ACCESS:    1988602 HIT:    1988477 MISS:        125
LLC TRANSLATION  ACCESS:       3378 HIT:       1703 MISS:       1675
LLC PREFETCH REQUESTED:          0 ISSUED:          0 USEFUL:          0 USELESS:          0
LLC AVERAGE MISS LATENCY: 1215 cycles
cpu0_DTLB TOTAL        ACCESS:  126842014 HIT:  126076608 MISS:     765406
cpu0_DTLB LOAD         ACCESS:  126842014 HIT:  126076608 MISS:     765406
cpu0_DTLB RFO          ACCESS:          0 HIT:          0 MISS:          0
cpu0_DTLB PREFETCH     ACCESS:          0 HIT:          0 MISS:          0
cpu0_DTLB WRITE        ACCESS:          0 HIT:          0 MISS:          0
cpu0_DTLB TRANSLATION  ACCESS:          0 HIT:          0 MISS:          0
cpu0_DTLB PREFETCH REQUESTED:          0 ISSUED:          0 USEFUL:          0 USELESS:          0
cpu0_DTLB AVERAGE MISS LATENCY: 13.86 cycles
cpu0_ITLB TOTAL        ACCESS:     144847 HIT:     144597 MISS:        250
cpu0_ITLB LOAD         ACCESS:     144847 HIT:     144597 MISS:        250
cpu0_ITLB RFO          ACCESS:          0 HIT:          0 MISS:          0
cpu0_ITLB PREFETCH     ACCESS:          0 HIT:          0 MISS:          0
cpu0_ITLB WRITE        ACCESS:          0 HIT:          0 MISS:          0
cpu0_ITLB TRANSLATION  ACCESS:          0 HIT:          0 MISS:          0
cpu0_ITLB PREFETCH REQUESTED:          0 ISSUED:          0 USEFUL:          0 USELESS:          0
cpu0_ITLB AVERAGE MISS LATENCY: 300.8 cycles
cpu0_L1D TOTAL        ACCESS:  194142252 HIT:  180073601 MISS:   14068651
cpu0_L1D LOAD         ACCESS:  159459957 HIT:  149505254 MISS:    9954703
cpu0_L1D RFO          ACCESS:          0 HIT:          0 MISS:          0
cpu0_L1D PREFETCH     ACCESS:          0 HIT:          0 MISS:          0
cpu0_L1D WRITE        ACCESS:   34635519 HIT:   30538686 MISS:    4096833
cpu0_L1D TRANSLATION  ACCESS:      46776 HIT:      29661 MISS:      17115
cpu0_L1D PREFETCH REQUESTED:          0 ISSUED:          0 USEFUL:          0 USELESS:          0
cpu0_L1D AVERAGE MISS LATENCY: 166.9 cycles
cpu0_L1I TOTAL        ACCESS:     194366 HIT:     191602 MISS:       2764
cpu0_L1I LOAD         ACCESS:     194366 HIT:     191602 MISS:       2764
cpu0_L1I RFO          ACCESS:          0 HIT:          0 MISS:          0
cpu0_L1I PREFETCH     ACCESS:          0 HIT:          0 MISS:          0
cpu0_L1I WRITE        ACCESS:          0 HIT:          0 MISS:          0
cpu0_L1I TRANSLATION  ACCESS:          0 HIT:          0 MISS:          0
cpu0_L1I PREFETCH REQUESTED:          0 ISSUED:          0 USEFUL:          0 USELESS:          0
cpu0_L1I AVERAGE MISS LATENCY: 489.9 cycles
cpu0_L2C TOTAL        ACCESS:    5272176 HIT:    2138488 MISS:    3133688
cpu0_L2C LOAD         ACCESS:    2366058 HIT:     125651 MISS:    2240407
cpu0_L2C RFO          ACCESS:     889974 HIT:        527 MISS:     889447
cpu0_L2C PREFETCH     ACCESS:          0 HIT:          0 MISS:          0
cpu0_L2C WRITE        ACCESS:    1999032 HIT:    1998576 MISS:        456
cpu0_L2C TRANSLATION  ACCESS:      17112 HIT:      13734 MISS:       3378
cpu0_L2C PREFETCH REQUESTED:          0 ISSUED:          0 USEFUL:          0 USELESS:          0
cpu0_L2C AVERAGE MISS LATENCY: 1031 cycles
cpu0_STLB TOTAL        ACCESS:     311420 HIT:     264667 MISS:      46753
cpu0_STLB LOAD         ACCESS:     311420 HIT:     264667 MISS:      46753
cpu0_STLB RFO          ACCESS:          0 HIT:          0 MISS:          0
cpu0_STLB PREFETCH     ACCESS:          0 HIT:          0 MISS:          0
cpu0_STLB WRITE        ACCESS:          0 HIT:          0 MISS:          0
cpu0_STLB TRANSLATION  ACCESS:          0 HIT:          0 MISS:          0
cpu0_STLB PREFETCH REQUESTED:          0 ISSUED:          0 USEFUL:          0 USELESS:          0
cpu0_STLB AVERAGE MISS LATENCY: 294.5 cycles

DRAM Statistics

Channel 0 RQ ROW_BUFFER_HIT:     686546
  ROW_BUFFER_MISS:    1919190
 AVG DBUS CONGESTED CYCLE: 3.974
WQ ROW_BUFFER_HIT: Channel 0 
  ROW_BUFFER_MISS:     380762
  FULL:    1322303
