WARNING: physical memory size is smaller than virtual memory size.

*** ChampSim Multicore Out-of-Order Simulator ***
Warmup Instructions: 50000000
Simulation Instructions: 600000000
Number of CPUs: 1
Page size: 4096

Off-chip DRAM Size: 4 GiB Channels: 1 Width: 64-bit Data Race: 3200 MT/s
Heartbeat CPU 0 instructions: 10000002 cycles: 2881030 heartbeat IPC: 3.471 cumulative IPC: 3.471 (Simulation time: 00 hr 00 min 49 sec)
Heartbeat CPU 0 instructions: 20000002 cycles: 5381030 heartbeat IPC: 4 cumulative IPC: 3.717 (Simulation time: 00 hr 01 min 35 sec)
Heartbeat CPU 0 instructions: 30000002 cycles: 7881030 heartbeat IPC: 4 cumulative IPC: 3.807 (Simulation time: 00 hr 02 min 18 sec)
Heartbeat CPU 0 instructions: 40000002 cycles: 10381030 heartbeat IPC: 4 cumulative IPC: 3.853 (Simulation time: 00 hr 03 min 02 sec)
Heartbeat CPU 0 instructions: 50000002 cycles: 12881030 heartbeat IPC: 4 cumulative IPC: 3.882 (Simulation time: 00 hr 03 min 49 sec)
Warmup finished CPU 0 instructions: 50000002 cycles: 12881031 cumulative IPC: 3.882 (Simulation time: 00 hr 03 min 49 sec)
Warmup complete CPU 0 instructions: 50000002 cycles: 12881031 cumulative IPC: 3.882 (Simulation time: 00 hr 03 min 49 sec)
Heartbeat CPU 0 instructions: 60000004 cycles: 15385695 heartbeat IPC: 3.993 cumulative IPC: 3.993 (Simulation time: 00 hr 04 min 40 sec)
Heartbeat CPU 0 instructions: 70000000 cycles: 17888182 heartbeat IPC: 3.996 cumulative IPC: 3.994 (Simulation time: 00 hr 05 min 31 sec)
Heartbeat CPU 0 instructions: 80000002 cycles: 20391036 heartbeat IPC: 3.995 cumulative IPC: 3.995 (Simulation time: 00 hr 06 min 23 sec)
Heartbeat CPU 0 instructions: 90000004 cycles: 22893445 heartbeat IPC: 3.996 cumulative IPC: 3.995 (Simulation time: 00 hr 07 min 12 sec)
Heartbeat CPU 0 instructions: 100000004 cycles: 25397420 heartbeat IPC: 3.994 cumulative IPC: 3.995 (Simulation time: 00 hr 08 min 03 sec)
Heartbeat CPU 0 instructions: 110000000 cycles: 27899957 heartbeat IPC: 3.996 cumulative IPC: 3.995 (Simulation time: 00 hr 08 min 53 sec)
Heartbeat CPU 0 instructions: 120000003 cycles: 30402356 heartbeat IPC: 3.996 cumulative IPC: 3.995 (Simulation time: 00 hr 09 min 45 sec)
Heartbeat CPU 0 instructions: 130000000 cycles: 32905056 heartbeat IPC: 3.996 cumulative IPC: 3.995 (Simulation time: 00 hr 10 min 37 sec)
Heartbeat CPU 0 instructions: 140000001 cycles: 35407956 heartbeat IPC: 3.995 cumulative IPC: 3.995 (Simulation time: 00 hr 11 min 28 sec)
Heartbeat CPU 0 instructions: 150000000 cycles: 37910642 heartbeat IPC: 3.996 cumulative IPC: 3.995 (Simulation time: 00 hr 12 min 18 sec)
Heartbeat CPU 0 instructions: 160000001 cycles: 40413047 heartbeat IPC: 3.996 cumulative IPC: 3.995 (Simulation time: 00 hr 13 min 09 sec)
Heartbeat CPU 0 instructions: 170000002 cycles: 42916800 heartbeat IPC: 3.994 cumulative IPC: 3.995 (Simulation time: 00 hr 14 min 00 sec)
Heartbeat CPU 0 instructions: 180000001 cycles: 45419962 heartbeat IPC: 3.995 cumulative IPC: 3.995 (Simulation time: 00 hr 14 min 51 sec)
Heartbeat CPU 0 instructions: 190000004 cycles: 47923043 heartbeat IPC: 3.995 cumulative IPC: 3.995 (Simulation time: 00 hr 15 min 43 sec)
Heartbeat CPU 0 instructions: 200000000 cycles: 50426347 heartbeat IPC: 3.995 cumulative IPC: 3.995 (Simulation time: 00 hr 16 min 33 sec)
Heartbeat CPU 0 instructions: 210000000 cycles: 52929520 heartbeat IPC: 3.995 cumulative IPC: 3.995 (Simulation time: 00 hr 17 min 23 sec)
Heartbeat CPU 0 instructions: 220000000 cycles: 55433080 heartbeat IPC: 3.994 cumulative IPC: 3.995 (Simulation time: 00 hr 18 min 13 sec)
Heartbeat CPU 0 instructions: 230000004 cycles: 89766350 heartbeat IPC: 0.2913 cumulative IPC: 2.341 (Simulation time: 00 hr 23 min 40 sec)
Heartbeat CPU 0 instructions: 240000001 cycles: 95708358 heartbeat IPC: 1.683 cumulative IPC: 2.294 (Simulation time: 00 hr 25 min 12 sec)
Heartbeat CPU 0 instructions: 250000000 cycles: 101744046 heartbeat IPC: 1.657 cumulative IPC: 2.251 (Simulation time: 00 hr 26 min 43 sec)
Heartbeat CPU 0 instructions: 260000002 cycles: 107810621 heartbeat IPC: 1.648 cumulative IPC: 2.212 (Simulation time: 00 hr 28 min 14 sec)
Heartbeat CPU 0 instructions: 270000000 cycles: 113864791 heartbeat IPC: 1.652 cumulative IPC: 2.179 (Simulation time: 00 hr 29 min 46 sec)
Heartbeat CPU 0 instructions: 280000001 cycles: 119914437 heartbeat IPC: 1.653 cumulative IPC: 2.149 (Simulation time: 00 hr 31 min 17 sec)
Heartbeat CPU 0 instructions: 290000003 cycles: 125949796 heartbeat IPC: 1.657 cumulative IPC: 2.123 (Simulation time: 00 hr 32 min 50 sec)
Heartbeat CPU 0 instructions: 300000003 cycles: 132008826 heartbeat IPC: 1.65 cumulative IPC: 2.099 (Simulation time: 00 hr 34 min 21 sec)
Heartbeat CPU 0 instructions: 310000000 cycles: 138073026 heartbeat IPC: 1.649 cumulative IPC: 2.077 (Simulation time: 00 hr 35 min 52 sec)
Heartbeat CPU 0 instructions: 320000002 cycles: 144137684 heartbeat IPC: 1.649 cumulative IPC: 2.057 (Simulation time: 00 hr 37 min 26 sec)
Heartbeat CPU 0 instructions: 330000002 cycles: 150761616 heartbeat IPC: 1.51 cumulative IPC: 2.031 (Simulation time: 00 hr 39 min 03 sec)
Heartbeat CPU 0 instructions: 340000003 cycles: 157629150 heartbeat IPC: 1.456 cumulative IPC: 2.003 (Simulation time: 00 hr 40 min 43 sec)
Heartbeat CPU 0 instructions: 350000000 cycles: 164369661 heartbeat IPC: 1.484 cumulative IPC: 1.98 (Simulation time: 00 hr 42 min 20 sec)
Heartbeat CPU 0 instructions: 360000001 cycles: 171230449 heartbeat IPC: 1.458 cumulative IPC: 1.958 (Simulation time: 00 hr 44 min 01 sec)
Heartbeat CPU 0 instructions: 370000004 cycles: 177982543 heartbeat IPC: 1.481 cumulative IPC: 1.938 (Simulation time: 00 hr 45 min 40 sec)
Heartbeat CPU 0 instructions: 380000003 cycles: 184890058 heartbeat IPC: 1.448 cumulative IPC: 1.919 (Simulation time: 00 hr 47 min 19 sec)
Heartbeat CPU 0 instructions: 390000000 cycles: 191598087 heartbeat IPC: 1.491 cumulative IPC: 1.902 (Simulation time: 00 hr 48 min 57 sec)
Heartbeat CPU 0 instructions: 400000001 cycles: 198500877 heartbeat IPC: 1.449 cumulative IPC: 1.886 (Simulation time: 00 hr 50 min 39 sec)
Heartbeat CPU 0 instructions: 410000004 cycles: 205234766 heartbeat IPC: 1.485 cumulative IPC: 1.872 (Simulation time: 00 hr 52 min 17 sec)
Heartbeat CPU 0 instructions: 420000004 cycles: 212075776 heartbeat IPC: 1.462 cumulative IPC: 1.857 (Simulation time: 00 hr 53 min 58 sec)
Heartbeat CPU 0 instructions: 430000004 cycles: 219127063 heartbeat IPC: 1.418 cumulative IPC: 1.842 (Simulation time: 00 hr 55 min 39 sec)
Heartbeat CPU 0 instructions: 440000004 cycles: 226319110 heartbeat IPC: 1.39 cumulative IPC: 1.827 (Simulation time: 00 hr 57 min 23 sec)
Heartbeat CPU 0 instructions: 450000000 cycles: 233535445 heartbeat IPC: 1.386 cumulative IPC: 1.813 (Simulation time: 00 hr 59 min 07 sec)
Heartbeat CPU 0 instructions: 460000001 cycles: 240740418 heartbeat IPC: 1.388 cumulative IPC: 1.799 (Simulation time: 01 hr 00 min 50 sec)
Heartbeat CPU 0 instructions: 470000000 cycles: 247931033 heartbeat IPC: 1.391 cumulative IPC: 1.787 (Simulation time: 01 hr 02 min 34 sec)
Heartbeat CPU 0 instructions: 480000003 cycles: 255135039 heartbeat IPC: 1.388 cumulative IPC: 1.775 (Simulation time: 01 hr 04 min 17 sec)
Heartbeat CPU 0 instructions: 490000004 cycles: 262316920 heartbeat IPC: 1.392 cumulative IPC: 1.764 (Simulation time: 01 hr 06 min 00 sec)
Heartbeat CPU 0 instructions: 500000002 cycles: 269514899 heartbeat IPC: 1.389 cumulative IPC: 1.753 (Simulation time: 01 hr 07 min 44 sec)
Heartbeat CPU 0 instructions: 510000003 cycles: 276728132 heartbeat IPC: 1.386 cumulative IPC: 1.743 (Simulation time: 01 hr 09 min 28 sec)
Heartbeat CPU 0 instructions: 520000004 cycles: 335819136 heartbeat IPC: 0.1692 cumulative IPC: 1.455 (Simulation time: 01 hr 20 min 40 sec)
Heartbeat CPU 0 instructions: 530000003 cycles: 442153230 heartbeat IPC: 0.09404 cumulative IPC: 1.118 (Simulation time: 01 hr 40 min 06 sec)
Heartbeat CPU 0 instructions: 540000003 cycles: 476604889 heartbeat IPC: 0.2903 cumulative IPC: 1.057 (Simulation time: 01 hr 46 min 45 sec)
Heartbeat CPU 0 instructions: 550000000 cycles: 514900336 heartbeat IPC: 0.2611 cumulative IPC: 0.996 (Simulation time: 01 hr 54 min 03 sec)
Heartbeat CPU 0 instructions: 560000000 cycles: 552982282 heartbeat IPC: 0.2626 cumulative IPC: 0.9443 (Simulation time: 02 hr 01 min 20 sec)
Heartbeat CPU 0 instructions: 570000002 cycles: 591086118 heartbeat IPC: 0.2624 cumulative IPC: 0.8993 (Simulation time: 02 hr 08 min 49 sec)
Heartbeat CPU 0 instructions: 580000002 cycles: 620919900 heartbeat IPC: 0.3352 cumulative IPC: 0.8717 (Simulation time: 02 hr 14 min 45 sec)
Heartbeat CPU 0 instructions: 590000001 cycles: 658804246 heartbeat IPC: 0.264 cumulative IPC: 0.836 (Simulation time: 02 hr 22 min 01 sec)
*** Reached end of trace: (0, "traces/bt.A.champsimtrace")
Heartbeat CPU 0 instructions: 600000000 cycles: 696848767 heartbeat IPC: 0.2628 cumulative IPC: 0.8041 (Simulation time: 02 hr 29 min 32 sec)
Heartbeat CPU 0 instructions: 610000004 cycles: 720973017 heartbeat IPC: 0.4145 cumulative IPC: 0.7909 (Simulation time: 02 hr 33 min 23 sec)
Heartbeat CPU 0 instructions: 620000000 cycles: 723475347 heartbeat IPC: 3.996 cumulative IPC: 0.8021 (Simulation time: 02 hr 34 min 14 sec)
Heartbeat CPU 0 instructions: 630000003 cycles: 725977665 heartbeat IPC: 3.996 cumulative IPC: 0.8134 (Simulation time: 02 hr 35 min 04 sec)
Heartbeat CPU 0 instructions: 640000003 cycles: 728479984 heartbeat IPC: 3.996 cumulative IPC: 0.8245 (Simulation time: 02 hr 35 min 57 sec)
Heartbeat CPU 0 instructions: 650000003 cycles: 730982380 heartbeat IPC: 3.996 cumulative IPC: 0.8355 (Simulation time: 02 hr 36 min 47 sec)
Simulation finished CPU 0 instructions: 600000001 cycles: 718101350 cumulative IPC: 0.8355 (Simulation time: 02 hr 36 min 47 sec)
Simulation complete CPU 0 instructions: 600000001 cycles: 718101350 cumulative IPC: 0.8355 (Simulation time: 02 hr 36 min 47 sec)

ChampSim completed all CPUs

=== Simulation ===
CPU 0 runs traces/bt.A.champsimtrace
Region of Interest Statistics

CPU 0 cumulative IPC: 0.8355 instructions: 600000001 cycles: 718101350
CPU 0 Branch Prediction Accuracy: 99.29% MPKI: 0.1288 Average ROB Occupancy at Mispredict: 280.4
Branch type MPKI
BRANCH_DIRECT_JUMP: 5e-06
BRANCH_INDIRECT: 7.83e-05
BRANCH_CONDITIONAL: 0.129
BRANCH_DIRECT_CALL: 6.67e-06
BRANCH_INDIRECT_CALL: 3.33e-05
BRANCH_RETURN: 2.33e-05

LLC TOTAL        ACCESS:    5110478 HIT:     459906 MISS:    4650572
LLC LOAD         ACCESS:    2235664 HIT:     306762 MISS:    1928902
LLC RFO          ACCESS:     889370 HIT:      62980 MISS:     826390
LLC PREFETCH     ACCESS:          0 HIT:          0 MISS:          0
LLC WRITE        ACCESS:    1982074 HIT:      89993 MISS:    1892081
LLC TRANSLATION  ACCESS:       3370 HIT:        171 MISS:       3199
LLC PREFETCH REQUESTED:          0 ISSUED:          0 USEFUL:          0 USELESS:          0
LLC AVERAGE MISS LATENCY: 702.6 cycles
cpu0_DTLB TOTAL        ACCESS:  126382012 HIT:  125640504 MISS:     741508
cpu0_DTLB LOAD         ACCESS:  126382012 HIT:  125640504 MISS:     741508
cpu0_DTLB RFO          ACCESS:          0 HIT:          0 MISS:          0
cpu0_DTLB PREFETCH     ACCESS:          0 HIT:          0 MISS:          0
cpu0_DTLB WRITE        ACCESS:          0 HIT:          0 MISS:          0
cpu0_DTLB TRANSLATION  ACCESS:          0 HIT:          0 MISS:          0
cpu0_DTLB PREFETCH REQUESTED:          0 ISSUED:          0 USEFUL:          0 USELESS:          0
cpu0_DTLB AVERAGE MISS LATENCY: 17.02 cycles
cpu0_ITLB TOTAL        ACCESS:     145446 HIT:     145194 MISS:        252
cpu0_ITLB LOAD         ACCESS:     145446 HIT:     145194 MISS:        252
cpu0_ITLB RFO          ACCESS:          0 HIT:          0 MISS:          0
cpu0_ITLB PREFETCH     ACCESS:          0 HIT:          0 MISS:          0
cpu0_ITLB WRITE        ACCESS:          0 HIT:          0 MISS:          0
cpu0_ITLB TRANSLATION  ACCESS:          0 HIT:          0 MISS:          0
cpu0_ITLB PREFETCH REQUESTED:          0 ISSUED:          0 USEFUL:          0 USELESS:          0
cpu0_ITLB AVERAGE MISS LATENCY: 182.5 cycles
cpu0_L1D TOTAL        ACCESS:  193145683 HIT:  179155961 MISS:   13989722
cpu0_L1D LOAD         ACCESS:  158463406 HIT:  148551034 MISS:    9912372
cpu0_L1D RFO          ACCESS:          0 HIT:          0 MISS:          0
cpu0_L1D PREFETCH     ACCESS:          0 HIT:          0 MISS:          0
cpu0_L1D WRITE        ACCESS:   34635523 HIT:   30575237 MISS:    4060286
cpu0_L1D TRANSLATION  ACCESS:      46754 HIT:      29690 MISS:      17064
cpu0_L1D PREFETCH REQUESTED:          0 ISSUED:          0 USEFUL:          0 USELESS:          0
cpu0_L1D AVERAGE MISS LATENCY: 173.6 cycles
cpu0_L1I TOTAL        ACCESS:     195219 HIT:     192435 MISS:       2784
cpu0_L1I LOAD         ACCESS:     195219 HIT:     192435 MISS:       2784
cpu0_L1I RFO          ACCESS:          0 HIT:          0 MISS:          0
cpu0_L1I PREFETCH     ACCESS:          0 HIT:          0 MISS:          0
cpu0_L1I WRITE        ACCESS:          0 HIT:          0 MISS:          0
cpu0_L1I TRANSLATION  ACCESS:          0 HIT:          0 MISS:          0
cpu0_L1I PREFETCH REQUESTED:          0 ISSUED:          0 USEFUL:          0 USELESS:          0
cpu0_L1I AVERAGE MISS LATENCY: 382.8 cycles
cpu0_L2C TOTAL        ACCESS:    5271547 HIT:    2142784 MISS:    3128763
cpu0_L2C LOAD         ACCESS:    2364178 HIT:     128451 MISS:    2235727
cpu0_L2C RFO          ACCESS:     890962 HIT:       1592 MISS:     889370
cpu0_L2C PREFETCH     ACCESS:          0 HIT:          0 MISS:          0
cpu0_L2C WRITE        ACCESS:    1999346 HIT:    1999050 MISS:        296
cpu0_L2C TRANSLATION  ACCESS:      17061 HIT:      13691 MISS:       3370
cpu0_L2C PREFETCH REQUESTED:          0 ISSUED:          0 USEFUL:          0 USELESS:          0
cpu0_L2C AVERAGE MISS LATENCY: 1065 cycles
cpu0_STLB TOTAL        ACCESS:     296452 HIT:     249720 MISS:      46732
cpu0_STLB LOAD         ACCESS:     296452 HIT:     249720 MISS:      46732
cpu0_STLB RFO          ACCESS:          0 HIT:          0 MISS:          0
cpu0_STLB PREFETCH     ACCESS:          0 HIT:          0 MISS:          0
cpu0_STLB WRITE        ACCESS:          0 HIT:          0 MISS:          0
cpu0_STLB TRANSLATION  ACCESS:          0 HIT:          0 MISS:          0
cpu0_STLB PREFETCH REQUESTED:          0 ISSUED:          0 USEFUL:          0 USELESS:          0
cpu0_STLB AVERAGE MISS LATENCY: 370.9 cycles

DRAM Statistics

Channel 0 RQ ROW_BUFFER_HIT:     728793
  ROW_BUFFER_MISS:    2025278
 AVG DBUS CONGESTED CYCLE: 3.97
WQ ROW_BUFFER_HIT: Channel 0 
  ROW_BUFFER_MISS:     657110
  FULL:    1247172
