WARNING: physical memory size is smaller than virtual memory size.

*** ChampSim Multicore Out-of-Order Simulator ***
Warmup Instructions: 50000000
Simulation Instructions: 600000000
Number of CPUs: 1
Page size: 4096

Off-chip DRAM Size: 4 GiB Channels: 1 Width: 64-bit Data Race: 3200 MT/s
Heartbeat CPU 0 instructions: 10000002 cycles: 2881030 heartbeat IPC: 3.471 cumulative IPC: 3.471 (Simulation time: 00 hr 00 min 50 sec)
Heartbeat CPU 0 instructions: 20000002 cycles: 5381030 heartbeat IPC: 4 cumulative IPC: 3.717 (Simulation time: 00 hr 01 min 37 sec)
Heartbeat CPU 0 instructions: 30000002 cycles: 7881030 heartbeat IPC: 4 cumulative IPC: 3.807 (Simulation time: 00 hr 02 min 22 sec)
Heartbeat CPU 0 instructions: 40000002 cycles: 10381030 heartbeat IPC: 4 cumulative IPC: 3.853 (Simulation time: 00 hr 03 min 08 sec)
Heartbeat CPU 0 instructions: 50000002 cycles: 12881030 heartbeat IPC: 4 cumulative IPC: 3.882 (Simulation time: 00 hr 03 min 55 sec)
Warmup finished CPU 0 instructions: 50000002 cycles: 12881031 cumulative IPC: 3.882 (Simulation time: 00 hr 03 min 55 sec)
Warmup complete CPU 0 instructions: 50000002 cycles: 12881031 cumulative IPC: 3.882 (Simulation time: 00 hr 03 min 55 sec)
Heartbeat CPU 0 instructions: 60000004 cycles: 15384188 heartbeat IPC: 3.995 cumulative IPC: 3.995 (Simulation time: 00 hr 05 min 00 sec)
Heartbeat CPU 0 instructions: 70000000 cycles: 17887226 heartbeat IPC: 3.995 cumulative IPC: 3.995 (Simulation time: 00 hr 05 min 53 sec)
Heartbeat CPU 0 instructions: 80000002 cycles: 20390081 heartbeat IPC: 3.995 cumulative IPC: 3.995 (Simulation time: 00 hr 06 min 47 sec)
Heartbeat CPU 0 instructions: 90000004 cycles: 22892490 heartbeat IPC: 3.996 cumulative IPC: 3.995 (Simulation time: 00 hr 07 min 39 sec)
Heartbeat CPU 0 instructions: 100000004 cycles: 25395768 heartbeat IPC: 3.995 cumulative IPC: 3.995 (Simulation time: 00 hr 08 min 31 sec)
Heartbeat CPU 0 instructions: 110000000 cycles: 27898453 heartbeat IPC: 3.996 cumulative IPC: 3.995 (Simulation time: 00 hr 09 min 23 sec)
Heartbeat CPU 0 instructions: 120000003 cycles: 30400851 heartbeat IPC: 3.996 cumulative IPC: 3.995 (Simulation time: 00 hr 10 min 17 sec)
Heartbeat CPU 0 instructions: 130000000 cycles: 32903855 heartbeat IPC: 3.995 cumulative IPC: 3.995 (Simulation time: 00 hr 11 min 11 sec)
Heartbeat CPU 0 instructions: 140000001 cycles: 35406669 heartbeat IPC: 3.996 cumulative IPC: 3.995 (Simulation time: 00 hr 12 min 04 sec)
Heartbeat CPU 0 instructions: 150000000 cycles: 37910027 heartbeat IPC: 3.995 cumulative IPC: 3.995 (Simulation time: 00 hr 12 min 57 sec)
Heartbeat CPU 0 instructions: 160000001 cycles: 40412432 heartbeat IPC: 3.996 cumulative IPC: 3.995 (Simulation time: 00 hr 13 min 49 sec)
Heartbeat CPU 0 instructions: 170000002 cycles: 42917215 heartbeat IPC: 3.992 cumulative IPC: 3.995 (Simulation time: 00 hr 14 min 42 sec)
Heartbeat CPU 0 instructions: 180000001 cycles: 45420568 heartbeat IPC: 3.995 cumulative IPC: 3.995 (Simulation time: 00 hr 15 min 34 sec)
Heartbeat CPU 0 instructions: 190000004 cycles: 47923600 heartbeat IPC: 3.995 cumulative IPC: 3.995 (Simulation time: 00 hr 16 min 25 sec)
Heartbeat CPU 0 instructions: 200000000 cycles: 50426811 heartbeat IPC: 3.995 cumulative IPC: 3.995 (Simulation time: 00 hr 17 min 18 sec)
Heartbeat CPU 0 instructions: 210000000 cycles: 52929219 heartbeat IPC: 3.996 cumulative IPC: 3.995 (Simulation time: 00 hr 18 min 11 sec)
Heartbeat CPU 0 instructions: 220000000 cycles: 55432921 heartbeat IPC: 3.994 cumulative IPC: 3.995 (Simulation time: 00 hr 19 min 04 sec)
Heartbeat CPU 0 instructions: 230000004 cycles: 90021248 heartbeat IPC: 0.2891 cumulative IPC: 2.333 (Simulation time: 00 hr 24 min 50 sec)
Heartbeat CPU 0 instructions: 240000001 cycles: 92549511 heartbeat IPC: 3.955 cumulative IPC: 2.385 (Simulation time: 00 hr 25 min 44 sec)
Heartbeat CPU 0 instructions: 250000000 cycles: 97304826 heartbeat IPC: 2.103 cumulative IPC: 2.369 (Simulation time: 00 hr 27 min 06 sec)
Heartbeat CPU 0 instructions: 260000002 cycles: 103294871 heartbeat IPC: 1.669 cumulative IPC: 2.323 (Simulation time: 00 hr 28 min 43 sec)
Heartbeat CPU 0 instructions: 270000000 cycles: 109343636 heartbeat IPC: 1.653 cumulative IPC: 2.281 (Simulation time: 00 hr 30 min 19 sec)
Heartbeat CPU 0 instructions: 280000001 cycles: 115392617 heartbeat IPC: 1.653 cumulative IPC: 2.244 (Simulation time: 00 hr 31 min 57 sec)
Heartbeat CPU 0 instructions: 290000003 cycles: 121426446 heartbeat IPC: 1.657 cumulative IPC: 2.211 (Simulation time: 00 hr 33 min 34 sec)
Heartbeat CPU 0 instructions: 300000003 cycles: 127486251 heartbeat IPC: 1.65 cumulative IPC: 2.181 (Simulation time: 00 hr 35 min 12 sec)
Heartbeat CPU 0 instructions: 310000000 cycles: 133549496 heartbeat IPC: 1.649 cumulative IPC: 2.155 (Simulation time: 00 hr 36 min 49 sec)
Heartbeat CPU 0 instructions: 320000002 cycles: 139613879 heartbeat IPC: 1.649 cumulative IPC: 2.13 (Simulation time: 00 hr 38 min 27 sec)
Heartbeat CPU 0 instructions: 330000003 cycles: 144512459 heartbeat IPC: 2.041 cumulative IPC: 2.127 (Simulation time: 00 hr 39 min 51 sec)
Heartbeat CPU 0 instructions: 340000003 cycles: 148884361 heartbeat IPC: 2.287 cumulative IPC: 2.132 (Simulation time: 00 hr 41 min 08 sec)
Heartbeat CPU 0 instructions: 350000000 cycles: 153575296 heartbeat IPC: 2.132 cumulative IPC: 2.132 (Simulation time: 00 hr 42 min 31 sec)
Heartbeat CPU 0 instructions: 360000001 cycles: 159845154 heartbeat IPC: 1.595 cumulative IPC: 2.109 (Simulation time: 00 hr 44 min 11 sec)
Heartbeat CPU 0 instructions: 370000004 cycles: 166541308 heartbeat IPC: 1.493 cumulative IPC: 2.083 (Simulation time: 00 hr 45 min 54 sec)
Heartbeat CPU 0 instructions: 380000003 cycles: 173471888 heartbeat IPC: 1.443 cumulative IPC: 2.055 (Simulation time: 00 hr 47 min 42 sec)
Heartbeat CPU 0 instructions: 390000000 cycles: 180156371 heartbeat IPC: 1.496 cumulative IPC: 2.033 (Simulation time: 00 hr 49 min 28 sec)
Heartbeat CPU 0 instructions: 400000001 cycles: 187031932 heartbeat IPC: 1.454 cumulative IPC: 2.01 (Simulation time: 00 hr 51 min 15 sec)
Heartbeat CPU 0 instructions: 410000004 cycles: 193768496 heartbeat IPC: 1.484 cumulative IPC: 1.99 (Simulation time: 00 hr 53 min 00 sec)
Heartbeat CPU 0 instructions: 420000004 cycles: 200566942 heartbeat IPC: 1.471 cumulative IPC: 1.971 (Simulation time: 00 hr 54 min 46 sec)
Heartbeat CPU 0 instructions: 430000004 cycles: 207125513 heartbeat IPC: 1.525 cumulative IPC: 1.956 (Simulation time: 00 hr 56 min 29 sec)
Heartbeat CPU 0 instructions: 440000004 cycles: 213979616 heartbeat IPC: 1.459 cumulative IPC: 1.939 (Simulation time: 00 hr 58 min 14 sec)
Heartbeat CPU 0 instructions: 450000000 cycles: 220460617 heartbeat IPC: 1.543 cumulative IPC: 1.927 (Simulation time: 00 hr 59 min 56 sec)
Heartbeat CPU 0 instructions: 460000001 cycles: 227194910 heartbeat IPC: 1.485 cumulative IPC: 1.913 (Simulation time: 01 hr 01 min 39 sec)
Heartbeat CPU 0 instructions: 470000000 cycles: 233991480 heartbeat IPC: 1.471 cumulative IPC: 1.9 (Simulation time: 01 hr 03 min 24 sec)
Heartbeat CPU 0 instructions: 480000003 cycles: 240894782 heartbeat IPC: 1.449 cumulative IPC: 1.886 (Simulation time: 01 hr 05 min 12 sec)
Heartbeat CPU 0 instructions: 490000004 cycles: 247786478 heartbeat IPC: 1.451 cumulative IPC: 1.873 (Simulation time: 01 hr 06 min 57 sec)
Heartbeat CPU 0 instructions: 500000004 cycles: 254684632 heartbeat IPC: 1.45 cumulative IPC: 1.861 (Simulation time: 01 hr 08 min 44 sec)
Heartbeat CPU 0 instructions: 510000003 cycles: 261509314 heartbeat IPC: 1.465 cumulative IPC: 1.85 (Simulation time: 01 hr 10 min 31 sec)
Heartbeat CPU 0 instructions: 520000003 cycles: 327242896 heartbeat IPC: 0.1521 cumulative IPC: 1.495 (Simulation time: 01 hr 23 min 42 sec)
Heartbeat CPU 0 instructions: 530000000 cycles: 436772588 heartbeat IPC: 0.0913 cumulative IPC: 1.132 (Simulation time: 01 hr 44 min 54 sec)
Heartbeat CPU 0 instructions: 540000003 cycles: 468728208 heartbeat IPC: 0.3129 cumulative IPC: 1.075 (Simulation time: 01 hr 51 min 32 sec)
Heartbeat CPU 0 instructions: 550000000 cycles: 499339966 heartbeat IPC: 0.3267 cumulative IPC: 1.028 (Simulation time: 01 hr 57 min 52 sec)
Heartbeat CPU 0 instructions: 560000000 cycles: 531155576 heartbeat IPC: 0.3143 cumulative IPC: 0.984 (Simulation time: 02 hr 04 min 27 sec)
Heartbeat CPU 0 instructions: 570000002 cycles: 564870345 heartbeat IPC: 0.2966 cumulative IPC: 0.942 (Simulation time: 02 hr 11 min 23 sec)
Heartbeat CPU 0 instructions: 580000001 cycles: 597914979 heartbeat IPC: 0.3026 cumulative IPC: 0.9059 (Simulation time: 02 hr 18 min 19 sec)
Heartbeat CPU 0 instructions: 590000001 cycles: 630374123 heartbeat IPC: 0.3081 cumulative IPC: 0.8745 (Simulation time: 02 hr 25 min 06 sec)
*** Reached end of trace: (0, "traces/bt.A.champsimtrace")
Heartbeat CPU 0 instructions: 600000000 cycles: 662901340 heartbeat IPC: 0.3074 cumulative IPC: 0.8461 (Simulation time: 02 hr 32 min 16 sec)
Heartbeat CPU 0 instructions: 610000004 cycles: 690213778 heartbeat IPC: 0.3661 cumulative IPC: 0.8268 (Simulation time: 02 hr 36 min 55 sec)
Heartbeat CPU 0 instructions: 620000000 cycles: 692716369 heartbeat IPC: 3.996 cumulative IPC: 0.8384 (Simulation time: 02 hr 37 min 50 sec)
Heartbeat CPU 0 instructions: 630000003 cycles: 695218780 heartbeat IPC: 3.996 cumulative IPC: 0.85 (Simulation time: 02 hr 38 min 46 sec)
Heartbeat CPU 0 instructions: 640000003 cycles: 697721189 heartbeat IPC: 3.996 cumulative IPC: 0.8615 (Simulation time: 02 hr 39 min 53 sec)
Heartbeat CPU 0 instructions: 650000003 cycles: 700223585 heartbeat IPC: 3.996 cumulative IPC: 0.8729 (Simulation time: 02 hr 40 min 48 sec)
Simulation finished CPU 0 instructions: 600000001 cycles: 687342555 cumulative IPC: 0.8729 (Simulation time: 02 hr 40 min 48 sec)
Simulation complete CPU 0 instructions: 600000001 cycles: 687342555 cumulative IPC: 0.8729 (Simulation time: 02 hr 40 min 48 sec)

ChampSim completed all CPUs

=== Simulation ===
CPU 0 runs traces/bt.A.champsimtrace
Region of Interest Statistics

CPU 0 cumulative IPC: 0.8729 instructions: 600000001 cycles: 687342555
CPU 0 Branch Prediction Accuracy: 99.28% MPKI: 0.1297 Average ROB Occupancy at Mispredict: 279.5
Branch type MPKI
BRANCH_DIRECT_JUMP: 5e-06
BRANCH_INDIRECT: 7.83e-05
BRANCH_CONDITIONAL: 0.13
BRANCH_DIRECT_CALL: 6.67e-06
BRANCH_INDIRECT_CALL: 3.33e-05
BRANCH_RETURN: 2.33e-05

LLC TOTAL        ACCESS:    5115369 HIT:    1243389 MISS:    3871980
LLC LOAD         ACCESS:    2237943 HIT:     557005 MISS:    1680938
LLC RFO          ACCESS:     889375 HIT:      22255 MISS:     867120
LLC PREFETCH     ACCESS:          0 HIT:          0 MISS:          0
LLC WRITE        ACCESS:    1984679 HIT:     663746 MISS:    1320933
LLC TRANSLATION  ACCESS:       3372 HIT:        383 MISS:       2989
LLC PREFETCH REQUESTED:          0 ISSUED:          0 USEFUL:          0 USELESS:          0
LLC AVERAGE MISS LATENCY: 827 cycles
cpu0_DTLB TOTAL        ACCESS:  126762763 HIT:  126019734 MISS:     743029
cpu0_DTLB LOAD         ACCESS:  126762763 HIT:  126019734 MISS:     743029
cpu0_DTLB RFO          ACCESS:          0 HIT:          0 MISS:          0
cpu0_DTLB PREFETCH     ACCESS:          0 HIT:          0 MISS:          0
cpu0_DTLB WRITE        ACCESS:          0 HIT:          0 MISS:          0
cpu0_DTLB TRANSLATION  ACCESS:          0 HIT:          0 MISS:          0
cpu0_DTLB PREFETCH REQUESTED:          0 ISSUED:          0 USEFUL:          0 USELESS:          0
cpu0_DTLB AVERAGE MISS LATENCY: 16.8 cycles
cpu0_ITLB TOTAL        ACCESS:     144484 HIT:     144240 MISS:        244
cpu0_ITLB LOAD         ACCESS:     144484 HIT:     144240 MISS:        244
cpu0_ITLB RFO          ACCESS:          0 HIT:          0 MISS:          0
cpu0_ITLB PREFETCH     ACCESS:          0 HIT:          0 MISS:          0
cpu0_ITLB WRITE        ACCESS:          0 HIT:          0 MISS:          0
cpu0_ITLB TRANSLATION  ACCESS:          0 HIT:          0 MISS:          0
cpu0_ITLB PREFETCH REQUESTED:          0 ISSUED:          0 USEFUL:          0 USELESS:          0
cpu0_ITLB AVERAGE MISS LATENCY: 287.9 cycles
cpu0_L1D TOTAL        ACCESS:  193618324 HIT:  179732095 MISS:   13886229
cpu0_L1D LOAD         ACCESS:  158936051 HIT:  149149600 MISS:    9786451
cpu0_L1D RFO          ACCESS:          0 HIT:          0 MISS:          0
cpu0_L1D PREFETCH     ACCESS:          0 HIT:          0 MISS:          0
cpu0_L1D WRITE        ACCESS:   34635519 HIT:   30552807 MISS:    4082712
cpu0_L1D TRANSLATION  ACCESS:      46754 HIT:      29688 MISS:      17066
cpu0_L1D PREFETCH REQUESTED:          0 ISSUED:          0 USEFUL:          0 USELESS:          0
cpu0_L1D AVERAGE MISS LATENCY: 172.4 cycles
cpu0_L1I TOTAL        ACCESS:     194225 HIT:     191505 MISS:       2720
cpu0_L1I LOAD         ACCESS:     194225 HIT:     191505 MISS:       2720
cpu0_L1I RFO          ACCESS:          0 HIT:          0 MISS:          0
cpu0_L1I PREFETCH     ACCESS:          0 HIT:          0 MISS:          0
cpu0_L1I WRITE        ACCESS:          0 HIT:          0 MISS:          0
cpu0_L1I TRANSLATION  ACCESS:          0 HIT:          0 MISS:          0
cpu0_L1I PREFETCH REQUESTED:          0 ISSUED:          0 USEFUL:          0 USELESS:          0
cpu0_L1I AVERAGE MISS LATENCY: 571.9 cycles
cpu0_L2C TOTAL        ACCESS:    5272215 HIT:    2140954 MISS:    3131261
cpu0_L2C LOAD         ACCESS:    2364912 HIT:     126697 MISS:    2238215
cpu0_L2C RFO          ACCESS:     890963 HIT:       1588 MISS:     889375
cpu0_L2C PREFETCH     ACCESS:          0 HIT:          0 MISS:          0
cpu0_L2C WRITE        ACCESS:    1999277 HIT:    1998978 MISS:        299
cpu0_L2C TRANSLATION  ACCESS:      17063 HIT:      13691 MISS:       3372
cpu0_L2C PREFETCH REQUESTED:          0 ISSUED:          0 USEFUL:          0 USELESS:          0
cpu0_L2C AVERAGE MISS LATENCY: 1044 cycles
cpu0_STLB TOTAL        ACCESS:     296479 HIT:     249746 MISS:      46733
cpu0_STLB LOAD         ACCESS:     296479 HIT:     249746 MISS:      46733
cpu0_STLB RFO          ACCESS:          0 HIT:          0 MISS:          0
cpu0_STLB PREFETCH     ACCESS:          0 HIT:          0 MISS:          0
cpu0_STLB WRITE        ACCESS:          0 HIT:          0 MISS:          0
cpu0_STLB TRANSLATION  ACCESS:          0 HIT:          0 MISS:          0
cpu0_STLB PREFETCH REQUESTED:          0 ISSUED:          0 USEFUL:          0 USELESS:          0
cpu0_STLB AVERAGE MISS LATENCY: 369.3 cycles

DRAM Statistics

Channel 0 RQ ROW_BUFFER_HIT:     682073
  ROW_BUFFER_MISS:    1868937
 AVG DBUS CONGESTED CYCLE: 3.972
WQ ROW_BUFFER_HIT: Channel 0 
  ROW_BUFFER_MISS:     511914
  FULL:    1234990
Final OPTGen Hits: 10705
Final OPTGen Access: 52046
Final OPTGEN Hit Rate: 20.5684
