WARNING: physical memory size is smaller than virtual memory size.

*** ChampSim Multicore Out-of-Order Simulator ***
Warmup Instructions: 50000000
Simulation Instructions: 600000000
Number of CPUs: 1
Page size: 4096

Off-chip DRAM Size: 4 GiB Channels: 1 Width: 64-bit Data Race: 3200 MT/s
Heartbeat CPU 0 instructions: 10000003 cycles: 2881044 heartbeat IPC: 3.471 cumulative IPC: 3.471 (Simulation time: 00 hr 00 min 51 sec)
Heartbeat CPU 0 instructions: 20000003 cycles: 5381044 heartbeat IPC: 4 cumulative IPC: 3.717 (Simulation time: 00 hr 01 min 39 sec)
Heartbeat CPU 0 instructions: 30000003 cycles: 7881044 heartbeat IPC: 4 cumulative IPC: 3.807 (Simulation time: 00 hr 02 min 27 sec)
Heartbeat CPU 0 instructions: 40000003 cycles: 10381044 heartbeat IPC: 4 cumulative IPC: 3.853 (Simulation time: 00 hr 03 min 16 sec)
Heartbeat CPU 0 instructions: 50000003 cycles: 12881044 heartbeat IPC: 4 cumulative IPC: 3.882 (Simulation time: 00 hr 04 min 04 sec)
Warmup finished CPU 0 instructions: 50000003 cycles: 12881045 cumulative IPC: 3.882 (Simulation time: 00 hr 04 min 04 sec)
Warmup complete CPU 0 instructions: 50000003 cycles: 12881045 cumulative IPC: 3.882 (Simulation time: 00 hr 04 min 04 sec)
Heartbeat CPU 0 instructions: 60000001 cycles: 15384494 heartbeat IPC: 3.994 cumulative IPC: 3.994 (Simulation time: 00 hr 05 min 09 sec)
Heartbeat CPU 0 instructions: 70000003 cycles: 17888703 heartbeat IPC: 3.993 cumulative IPC: 3.994 (Simulation time: 00 hr 06 min 04 sec)
Heartbeat CPU 0 instructions: 80000002 cycles: 20391751 heartbeat IPC: 3.995 cumulative IPC: 3.994 (Simulation time: 00 hr 07 min 02 sec)
Heartbeat CPU 0 instructions: 90000002 cycles: 22894570 heartbeat IPC: 3.995 cumulative IPC: 3.995 (Simulation time: 00 hr 08 min 00 sec)
Heartbeat CPU 0 instructions: 100000003 cycles: 25397695 heartbeat IPC: 3.995 cumulative IPC: 3.995 (Simulation time: 00 hr 08 min 57 sec)
Heartbeat CPU 0 instructions: 110000000 cycles: 27901632 heartbeat IPC: 3.994 cumulative IPC: 3.995 (Simulation time: 00 hr 09 min 56 sec)
Heartbeat CPU 0 instructions: 120000001 cycles: 30404099 heartbeat IPC: 3.996 cumulative IPC: 3.995 (Simulation time: 00 hr 10 min 54 sec)
Heartbeat CPU 0 instructions: 130000004 cycles: 32907038 heartbeat IPC: 3.995 cumulative IPC: 3.995 (Simulation time: 00 hr 11 min 51 sec)
Heartbeat CPU 0 instructions: 140000000 cycles: 35410492 heartbeat IPC: 3.994 cumulative IPC: 3.995 (Simulation time: 00 hr 12 min 48 sec)
Heartbeat CPU 0 instructions: 150000001 cycles: 37914884 heartbeat IPC: 3.993 cumulative IPC: 3.995 (Simulation time: 00 hr 13 min 45 sec)
Heartbeat CPU 0 instructions: 160000004 cycles: 40418009 heartbeat IPC: 3.995 cumulative IPC: 3.995 (Simulation time: 00 hr 14 min 42 sec)
Heartbeat CPU 0 instructions: 170000004 cycles: 42920844 heartbeat IPC: 3.995 cumulative IPC: 3.995 (Simulation time: 00 hr 15 min 39 sec)
Heartbeat CPU 0 instructions: 180000000 cycles: 45423501 heartbeat IPC: 3.996 cumulative IPC: 3.995 (Simulation time: 00 hr 16 min 44 sec)
Heartbeat CPU 0 instructions: 190000004 cycles: 47926464 heartbeat IPC: 3.995 cumulative IPC: 3.995 (Simulation time: 00 hr 17 min 44 sec)
Heartbeat CPU 0 instructions: 200000000 cycles: 50428942 heartbeat IPC: 3.996 cumulative IPC: 3.995 (Simulation time: 00 hr 18 min 43 sec)
Heartbeat CPU 0 instructions: 210000003 cycles: 52931433 heartbeat IPC: 3.996 cumulative IPC: 3.995 (Simulation time: 00 hr 19 min 40 sec)
Heartbeat CPU 0 instructions: 220000000 cycles: 55434411 heartbeat IPC: 3.995 cumulative IPC: 3.995 (Simulation time: 00 hr 20 min 36 sec)
Heartbeat CPU 0 instructions: 230000002 cycles: 90511879 heartbeat IPC: 0.2851 cumulative IPC: 2.319 (Simulation time: 00 hr 26 min 03 sec)
Heartbeat CPU 0 instructions: 240000000 cycles: 96524202 heartbeat IPC: 1.663 cumulative IPC: 2.272 (Simulation time: 00 hr 27 min 43 sec)
Heartbeat CPU 0 instructions: 250000004 cycles: 102553934 heartbeat IPC: 1.658 cumulative IPC: 2.23 (Simulation time: 00 hr 29 min 24 sec)
Heartbeat CPU 0 instructions: 260000004 cycles: 108584320 heartbeat IPC: 1.658 cumulative IPC: 2.194 (Simulation time: 00 hr 31 min 07 sec)
Heartbeat CPU 0 instructions: 270000001 cycles: 114616603 heartbeat IPC: 1.658 cumulative IPC: 2.162 (Simulation time: 00 hr 32 min 48 sec)
Heartbeat CPU 0 instructions: 280000002 cycles: 120642781 heartbeat IPC: 1.659 cumulative IPC: 2.134 (Simulation time: 00 hr 34 min 28 sec)
Heartbeat CPU 0 instructions: 290000000 cycles: 126680768 heartbeat IPC: 1.656 cumulative IPC: 2.109 (Simulation time: 00 hr 36 min 10 sec)
Heartbeat CPU 0 instructions: 300000002 cycles: 132725366 heartbeat IPC: 1.654 cumulative IPC: 2.086 (Simulation time: 00 hr 37 min 50 sec)
Heartbeat CPU 0 instructions: 310000004 cycles: 138793432 heartbeat IPC: 1.648 cumulative IPC: 2.065 (Simulation time: 00 hr 39 min 30 sec)
Heartbeat CPU 0 instructions: 320000004 cycles: 144864801 heartbeat IPC: 1.647 cumulative IPC: 2.046 (Simulation time: 00 hr 41 min 06 sec)
Heartbeat CPU 0 instructions: 330000000 cycles: 151293645 heartbeat IPC: 1.555 cumulative IPC: 2.023 (Simulation time: 00 hr 42 min 46 sec)
Heartbeat CPU 0 instructions: 340000004 cycles: 157775891 heartbeat IPC: 1.543 cumulative IPC: 2.001 (Simulation time: 00 hr 44 min 27 sec)
Heartbeat CPU 0 instructions: 350000002 cycles: 164323164 heartbeat IPC: 1.527 cumulative IPC: 1.981 (Simulation time: 00 hr 46 min 09 sec)
Heartbeat CPU 0 instructions: 360000002 cycles: 170803767 heartbeat IPC: 1.543 cumulative IPC: 1.963 (Simulation time: 00 hr 47 min 50 sec)
Heartbeat CPU 0 instructions: 370000004 cycles: 177370842 heartbeat IPC: 1.523 cumulative IPC: 1.945 (Simulation time: 00 hr 49 min 33 sec)
Heartbeat CPU 0 instructions: 380000004 cycles: 184272335 heartbeat IPC: 1.449 cumulative IPC: 1.925 (Simulation time: 00 hr 51 min 19 sec)
Heartbeat CPU 0 instructions: 390000004 cycles: 190773545 heartbeat IPC: 1.538 cumulative IPC: 1.911 (Simulation time: 00 hr 53 min 02 sec)
Heartbeat CPU 0 instructions: 400000004 cycles: 197364668 heartbeat IPC: 1.517 cumulative IPC: 1.897 (Simulation time: 00 hr 54 min 48 sec)
Heartbeat CPU 0 instructions: 410000000 cycles: 203853976 heartbeat IPC: 1.541 cumulative IPC: 1.885 (Simulation time: 00 hr 56 min 33 sec)
Heartbeat CPU 0 instructions: 420000001 cycles: 210416552 heartbeat IPC: 1.524 cumulative IPC: 1.873 (Simulation time: 00 hr 58 min 26 sec)
Heartbeat CPU 0 instructions: 430000003 cycles: 215937256 heartbeat IPC: 1.811 cumulative IPC: 1.871 (Simulation time: 00 hr 59 min 58 sec)
Heartbeat CPU 0 instructions: 440000002 cycles: 221563382 heartbeat IPC: 1.777 cumulative IPC: 1.869 (Simulation time: 01 hr 01 min 37 sec)
Heartbeat CPU 0 instructions: 450000002 cycles: 227194336 heartbeat IPC: 1.776 cumulative IPC: 1.866 (Simulation time: 01 hr 03 min 15 sec)
Heartbeat CPU 0 instructions: 460000002 cycles: 232913051 heartbeat IPC: 1.749 cumulative IPC: 1.863 (Simulation time: 01 hr 04 min 54 sec)
Heartbeat CPU 0 instructions: 470000004 cycles: 238549997 heartbeat IPC: 1.774 cumulative IPC: 1.861 (Simulation time: 01 hr 07 min 29 sec)
Heartbeat CPU 0 instructions: 480000000 cycles: 244255883 heartbeat IPC: 1.753 cumulative IPC: 1.858 (Simulation time: 01 hr 09 min 28 sec)
Heartbeat CPU 0 instructions: 490000003 cycles: 249860913 heartbeat IPC: 1.784 cumulative IPC: 1.857 (Simulation time: 01 hr 11 min 04 sec)
Heartbeat CPU 0 instructions: 500000002 cycles: 255517501 heartbeat IPC: 1.768 cumulative IPC: 1.855 (Simulation time: 01 hr 12 min 39 sec)
Heartbeat CPU 0 instructions: 510000002 cycles: 261192919 heartbeat IPC: 1.762 cumulative IPC: 1.853 (Simulation time: 01 hr 14 min 14 sec)
Heartbeat CPU 0 instructions: 520000002 cycles: 314015637 heartbeat IPC: 0.1893 cumulative IPC: 1.561 (Simulation time: 01 hr 24 min 57 sec)
Heartbeat CPU 0 instructions: 530000001 cycles: 427202345 heartbeat IPC: 0.08835 cumulative IPC: 1.159 (Simulation time: 01 hr 45 min 45 sec)
Heartbeat CPU 0 instructions: 540000002 cycles: 457104822 heartbeat IPC: 0.3344 cumulative IPC: 1.103 (Simulation time: 01 hr 51 min 33 sec)
Heartbeat CPU 0 instructions: 550000003 cycles: 486565429 heartbeat IPC: 0.3394 cumulative IPC: 1.056 (Simulation time: 01 hr 57 min 28 sec)
Heartbeat CPU 0 instructions: 560000004 cycles: 516272610 heartbeat IPC: 0.3366 cumulative IPC: 1.013 (Simulation time: 02 hr 03 min 20 sec)
Heartbeat CPU 0 instructions: 570000001 cycles: 545687915 heartbeat IPC: 0.34 cumulative IPC: 0.976 (Simulation time: 02 hr 09 min 07 sec)
Heartbeat CPU 0 instructions: 580000002 cycles: 571334066 heartbeat IPC: 0.3899 cumulative IPC: 0.9491 (Simulation time: 02 hr 14 min 06 sec)
Heartbeat CPU 0 instructions: 590000000 cycles: 602105957 heartbeat IPC: 0.325 cumulative IPC: 0.9165 (Simulation time: 02 hr 20 min 23 sec)
*** Reached end of trace: (0, "traces/bt.A.champsimtrace")
Heartbeat CPU 0 instructions: 600000001 cycles: 632908030 heartbeat IPC: 0.3247 cumulative IPC: 0.8871 (Simulation time: 02 hr 26 min 30 sec)
Heartbeat CPU 0 instructions: 610000002 cycles: 660635503 heartbeat IPC: 0.3607 cumulative IPC: 0.8645 (Simulation time: 02 hr 30 min 40 sec)
Heartbeat CPU 0 instructions: 620000002 cycles: 663137922 heartbeat IPC: 3.996 cumulative IPC: 0.8766 (Simulation time: 02 hr 31 min 34 sec)
Heartbeat CPU 0 instructions: 630000003 cycles: 665640712 heartbeat IPC: 3.996 cumulative IPC: 0.8885 (Simulation time: 02 hr 32 min 30 sec)
Heartbeat CPU 0 instructions: 640000003 cycles: 668143491 heartbeat IPC: 3.996 cumulative IPC: 0.9004 (Simulation time: 02 hr 33 min 26 sec)
Heartbeat CPU 0 instructions: 650000000 cycles: 670646094 heartbeat IPC: 3.996 cumulative IPC: 0.9122 (Simulation time: 02 hr 34 min 24 sec)
Simulation finished CPU 0 instructions: 600000002 cycles: 657765051 cumulative IPC: 0.9122 (Simulation time: 02 hr 34 min 24 sec)
Simulation complete CPU 0 instructions: 600000002 cycles: 657765051 cumulative IPC: 0.9122 (Simulation time: 02 hr 34 min 24 sec)

ChampSim completed all CPUs

=== Simulation ===
CPU 0 runs traces/bt.A.champsimtrace
Region of Interest Statistics

CPU 0 cumulative IPC: 0.9122 instructions: 600000002 cycles: 657765051
CPU 0 Branch Prediction Accuracy: 99.29% MPKI: 0.1288 Average ROB Occupancy at Mispredict: 280
Branch type MPKI
BRANCH_DIRECT_JUMP: 5e-06
BRANCH_INDIRECT: 8.67e-05
BRANCH_CONDITIONAL: 0.129
BRANCH_DIRECT_CALL: 6.67e-06
BRANCH_INDIRECT_CALL: 3.83e-05
BRANCH_RETURN: 2.17e-05

LLC TOTAL        ACCESS:    5121713 HIT:    1782473 MISS:    3339240
LLC LOAD         ACCESS:    2240506 HIT:     546339 MISS:    1694167
LLC RFO          ACCESS:     889337 HIT:      23601 MISS:     865736
LLC PREFETCH     ACCESS:          0 HIT:          0 MISS:          0
LLC WRITE        ACCESS:    1988499 HIT:    1211445 MISS:     777054
LLC TRANSLATION  ACCESS:       3371 HIT:       1088 MISS:       2283
LLC PREFETCH REQUESTED:          0 ISSUED:          0 USEFUL:          0 USELESS:          0
LLC AVERAGE MISS LATENCY: 909.1 cycles
cpu0_DTLB TOTAL        ACCESS:  126672836 HIT:  125907819 MISS:     765017
cpu0_DTLB LOAD         ACCESS:  126672836 HIT:  125907819 MISS:     765017
cpu0_DTLB RFO          ACCESS:          0 HIT:          0 MISS:          0
cpu0_DTLB PREFETCH     ACCESS:          0 HIT:          0 MISS:          0
cpu0_DTLB WRITE        ACCESS:          0 HIT:          0 MISS:          0
cpu0_DTLB TRANSLATION  ACCESS:          0 HIT:          0 MISS:          0
cpu0_DTLB PREFETCH REQUESTED:          0 ISSUED:          0 USEFUL:          0 USELESS:          0
cpu0_DTLB AVERAGE MISS LATENCY: 14.3 cycles
cpu0_ITLB TOTAL        ACCESS:     144463 HIT:     144194 MISS:        269
cpu0_ITLB LOAD         ACCESS:     144463 HIT:     144194 MISS:        269
cpu0_ITLB RFO          ACCESS:          0 HIT:          0 MISS:          0
cpu0_ITLB PREFETCH     ACCESS:          0 HIT:          0 MISS:          0
cpu0_ITLB WRITE        ACCESS:          0 HIT:          0 MISS:          0
cpu0_ITLB TRANSLATION  ACCESS:          0 HIT:          0 MISS:          0
cpu0_ITLB PREFETCH REQUESTED:          0 ISSUED:          0 USEFUL:          0 USELESS:          0
cpu0_ITLB AVERAGE MISS LATENCY: 278.8 cycles
cpu0_L1D TOTAL        ACCESS:  194149833 HIT:  180141406 MISS:   14008427
cpu0_L1D LOAD         ACCESS:  159467713 HIT:  149547679 MISS:    9920034
cpu0_L1D RFO          ACCESS:          0 HIT:          0 MISS:          0
cpu0_L1D PREFETCH     ACCESS:          0 HIT:          0 MISS:          0
cpu0_L1D WRITE        ACCESS:   34635355 HIT:   30564009 MISS:    4071346
cpu0_L1D TRANSLATION  ACCESS:      46765 HIT:      29718 MISS:      17047
cpu0_L1D PREFETCH REQUESTED:          0 ISSUED:          0 USEFUL:          0 USELESS:          0
cpu0_L1D AVERAGE MISS LATENCY: 161.1 cycles
cpu0_L1I TOTAL        ACCESS:     193546 HIT:     190746 MISS:       2800
cpu0_L1I LOAD         ACCESS:     193546 HIT:     190746 MISS:       2800
cpu0_L1I RFO          ACCESS:          0 HIT:          0 MISS:          0
cpu0_L1I PREFETCH     ACCESS:          0 HIT:          0 MISS:          0
cpu0_L1I WRITE        ACCESS:          0 HIT:          0 MISS:          0
cpu0_L1I TRANSLATION  ACCESS:          0 HIT:          0 MISS:          0
cpu0_L1I PREFETCH REQUESTED:          0 ISSUED:          0 USEFUL:          0 USELESS:          0
cpu0_L1I AVERAGE MISS LATENCY: 548.1 cycles
cpu0_L2C TOTAL        ACCESS:    5275205 HIT:    2141577 MISS:    3133628
cpu0_L2C LOAD         ACCESS:    2367706 HIT:     127161 MISS:    2240545
cpu0_L2C RFO          ACCESS:     890700 HIT:       1363 MISS:     889337
cpu0_L2C PREFETCH     ACCESS:          0 HIT:          0 MISS:          0
cpu0_L2C WRITE        ACCESS:    1999753 HIT:    1999378 MISS:        375
cpu0_L2C TRANSLATION  ACCESS:      17046 HIT:      13675 MISS:       3371
cpu0_L2C PREFETCH REQUESTED:          0 ISSUED:          0 USEFUL:          0 USELESS:          0
cpu0_L2C AVERAGE MISS LATENCY: 989.5 cycles
cpu0_STLB TOTAL        ACCESS:     310946 HIT:     264200 MISS:      46746
cpu0_STLB LOAD         ACCESS:     310946 HIT:     264200 MISS:      46746
cpu0_STLB RFO          ACCESS:          0 HIT:          0 MISS:          0
cpu0_STLB PREFETCH     ACCESS:          0 HIT:          0 MISS:          0
cpu0_STLB WRITE        ACCESS:          0 HIT:          0 MISS:          0
cpu0_STLB TRANSLATION  ACCESS:          0 HIT:          0 MISS:          0
cpu0_STLB PREFETCH REQUESTED:          0 ISSUED:          0 USEFUL:          0 USELESS:          0
cpu0_STLB AVERAGE MISS LATENCY: 312.2 cycles

DRAM Statistics

Channel 0 RQ ROW_BUFFER_HIT:     674953
  ROW_BUFFER_MISS:    1887108
 AVG DBUS CONGESTED CYCLE: 3.971
WQ ROW_BUFFER_HIT: Channel 0 
  ROW_BUFFER_MISS:     444922
  FULL:    1222931
