WARNING: physical memory size is smaller than virtual memory size.

*** ChampSim Multicore Out-of-Order Simulator ***
Warmup Instructions: 50000000
Simulation Instructions: 600000000
Number of CPUs: 1
Page size: 4096

Off-chip DRAM Size: 4 GiB Channels: 1 Width: 64-bit Data Race: 3200 MT/s
Heartbeat CPU 0 instructions: 10000000 cycles: 2881042 heartbeat IPC: 3.471 cumulative IPC: 3.471 (Simulation time: 00 hr 00 min 37 sec)
Heartbeat CPU 0 instructions: 20000000 cycles: 5381042 heartbeat IPC: 4 cumulative IPC: 3.717 (Simulation time: 00 hr 01 min 10 sec)
Heartbeat CPU 0 instructions: 30000000 cycles: 7881042 heartbeat IPC: 4 cumulative IPC: 3.807 (Simulation time: 00 hr 01 min 43 sec)
Heartbeat CPU 0 instructions: 40000000 cycles: 10381042 heartbeat IPC: 4 cumulative IPC: 3.853 (Simulation time: 00 hr 02 min 15 sec)
Heartbeat CPU 0 instructions: 50000000 cycles: 12881042 heartbeat IPC: 4 cumulative IPC: 3.882 (Simulation time: 00 hr 02 min 47 sec)
Warmup finished CPU 0 instructions: 50000000 cycles: 12881043 cumulative IPC: 3.882 (Simulation time: 00 hr 02 min 47 sec)
Warmup complete CPU 0 instructions: 50000000 cycles: 12881043 cumulative IPC: 3.882 (Simulation time: 00 hr 02 min 47 sec)
Heartbeat CPU 0 instructions: 60000004 cycles: 15383364 heartbeat IPC: 3.996 cumulative IPC: 3.996 (Simulation time: 00 hr 03 min 26 sec)
Heartbeat CPU 0 instructions: 70000002 cycles: 17885682 heartbeat IPC: 3.996 cumulative IPC: 3.996 (Simulation time: 00 hr 04 min 03 sec)
Heartbeat CPU 0 instructions: 80000002 cycles: 20387998 heartbeat IPC: 3.996 cumulative IPC: 3.996 (Simulation time: 00 hr 04 min 41 sec)
Heartbeat CPU 0 instructions: 90000004 cycles: 22890375 heartbeat IPC: 3.996 cumulative IPC: 3.996 (Simulation time: 00 hr 05 min 20 sec)
Heartbeat CPU 0 instructions: 100000000 cycles: 25392780 heartbeat IPC: 3.996 cumulative IPC: 3.996 (Simulation time: 00 hr 05 min 58 sec)
Heartbeat CPU 0 instructions: 110000002 cycles: 27895186 heartbeat IPC: 3.996 cumulative IPC: 3.996 (Simulation time: 00 hr 06 min 40 sec)
Heartbeat CPU 0 instructions: 120000000 cycles: 30399217 heartbeat IPC: 3.994 cumulative IPC: 3.996 (Simulation time: 00 hr 07 min 22 sec)
Heartbeat CPU 0 instructions: 130000002 cycles: 32904649 heartbeat IPC: 3.991 cumulative IPC: 3.995 (Simulation time: 00 hr 08 min 04 sec)
Heartbeat CPU 0 instructions: 140000004 cycles: 35407215 heartbeat IPC: 3.996 cumulative IPC: 3.995 (Simulation time: 00 hr 08 min 45 sec)
Heartbeat CPU 0 instructions: 150000000 cycles: 37910811 heartbeat IPC: 3.994 cumulative IPC: 3.995 (Simulation time: 00 hr 09 min 26 sec)
Heartbeat CPU 0 instructions: 160000003 cycles: 40413218 heartbeat IPC: 3.996 cumulative IPC: 3.995 (Simulation time: 00 hr 10 min 10 sec)
Heartbeat CPU 0 instructions: 170000002 cycles: 42918011 heartbeat IPC: 3.992 cumulative IPC: 3.995 (Simulation time: 00 hr 10 min 51 sec)
Heartbeat CPU 0 instructions: 180000000 cycles: 45420756 heartbeat IPC: 3.996 cumulative IPC: 3.995 (Simulation time: 00 hr 11 min 32 sec)
Heartbeat CPU 0 instructions: 190000003 cycles: 47924023 heartbeat IPC: 3.995 cumulative IPC: 3.995 (Simulation time: 00 hr 12 min 12 sec)
Heartbeat CPU 0 instructions: 200000000 cycles: 50427812 heartbeat IPC: 3.994 cumulative IPC: 3.995 (Simulation time: 00 hr 12 min 53 sec)
Heartbeat CPU 0 instructions: 210000000 cycles: 52930635 heartbeat IPC: 3.995 cumulative IPC: 3.995 (Simulation time: 00 hr 13 min 34 sec)
Heartbeat CPU 0 instructions: 220000003 cycles: 55433097 heartbeat IPC: 3.996 cumulative IPC: 3.995 (Simulation time: 00 hr 14 min 14 sec)
Heartbeat CPU 0 instructions: 230000002 cycles: 88742881 heartbeat IPC: 0.3002 cumulative IPC: 2.373 (Simulation time: 00 hr 17 min 56 sec)
Heartbeat CPU 0 instructions: 240000002 cycles: 92265948 heartbeat IPC: 2.838 cumulative IPC: 2.393 (Simulation time: 00 hr 18 min 46 sec)
Heartbeat CPU 0 instructions: 250000000 cycles: 95645901 heartbeat IPC: 2.959 cumulative IPC: 2.416 (Simulation time: 00 hr 19 min 36 sec)
Heartbeat CPU 0 instructions: 260000002 cycles: 99026903 heartbeat IPC: 2.958 cumulative IPC: 2.438 (Simulation time: 00 hr 20 min 26 sec)
Heartbeat CPU 0 instructions: 270000003 cycles: 102402737 heartbeat IPC: 2.962 cumulative IPC: 2.458 (Simulation time: 00 hr 21 min 13 sec)
Heartbeat CPU 0 instructions: 280000001 cycles: 105804917 heartbeat IPC: 2.939 cumulative IPC: 2.475 (Simulation time: 00 hr 22 min 02 sec)
Heartbeat CPU 0 instructions: 290000002 cycles: 109202009 heartbeat IPC: 2.944 cumulative IPC: 2.492 (Simulation time: 00 hr 22 min 49 sec)
Heartbeat CPU 0 instructions: 300000003 cycles: 112557022 heartbeat IPC: 2.981 cumulative IPC: 2.508 (Simulation time: 00 hr 23 min 38 sec)
Heartbeat CPU 0 instructions: 310000002 cycles: 115952999 heartbeat IPC: 2.945 cumulative IPC: 2.523 (Simulation time: 00 hr 24 min 25 sec)
Heartbeat CPU 0 instructions: 320000002 cycles: 119351262 heartbeat IPC: 2.943 cumulative IPC: 2.536 (Simulation time: 00 hr 25 min 12 sec)
Heartbeat CPU 0 instructions: 330000000 cycles: 124637028 heartbeat IPC: 1.892 cumulative IPC: 2.505 (Simulation time: 00 hr 26 min 15 sec)
Heartbeat CPU 0 instructions: 340000002 cycles: 131453001 heartbeat IPC: 1.467 cumulative IPC: 2.446 (Simulation time: 00 hr 27 min 32 sec)
Heartbeat CPU 0 instructions: 350000002 cycles: 138286964 heartbeat IPC: 1.463 cumulative IPC: 2.392 (Simulation time: 00 hr 28 min 49 sec)
Heartbeat CPU 0 instructions: 360000000 cycles: 145105285 heartbeat IPC: 1.467 cumulative IPC: 2.345 (Simulation time: 00 hr 30 min 04 sec)
Heartbeat CPU 0 instructions: 370000001 cycles: 151897910 heartbeat IPC: 1.472 cumulative IPC: 2.302 (Simulation time: 00 hr 31 min 19 sec)
Heartbeat CPU 0 instructions: 380000003 cycles: 158776916 heartbeat IPC: 1.454 cumulative IPC: 2.262 (Simulation time: 00 hr 32 min 36 sec)
Heartbeat CPU 0 instructions: 390000004 cycles: 165488008 heartbeat IPC: 1.49 cumulative IPC: 2.228 (Simulation time: 00 hr 33 min 50 sec)
Heartbeat CPU 0 instructions: 400000000 cycles: 172369909 heartbeat IPC: 1.453 cumulative IPC: 2.195 (Simulation time: 00 hr 35 min 08 sec)
Heartbeat CPU 0 instructions: 410000000 cycles: 179054520 heartbeat IPC: 1.496 cumulative IPC: 2.166 (Simulation time: 00 hr 36 min 22 sec)
Heartbeat CPU 0 instructions: 420000000 cycles: 185085632 heartbeat IPC: 1.658 cumulative IPC: 2.149 (Simulation time: 00 hr 37 min 32 sec)
Heartbeat CPU 0 instructions: 430000002 cycles: 191652808 heartbeat IPC: 1.523 cumulative IPC: 2.126 (Simulation time: 00 hr 38 min 44 sec)
Heartbeat CPU 0 instructions: 440000002 cycles: 198600829 heartbeat IPC: 1.439 cumulative IPC: 2.1 (Simulation time: 00 hr 39 min 59 sec)
Heartbeat CPU 0 instructions: 450000000 cycles: 205556290 heartbeat IPC: 1.438 cumulative IPC: 2.076 (Simulation time: 00 hr 41 min 15 sec)
Heartbeat CPU 0 instructions: 460000003 cycles: 212519891 heartbeat IPC: 1.436 cumulative IPC: 2.054 (Simulation time: 00 hr 42 min 34 sec)
Heartbeat CPU 0 instructions: 470000004 cycles: 219436746 heartbeat IPC: 1.446 cumulative IPC: 2.033 (Simulation time: 00 hr 43 min 53 sec)
Heartbeat CPU 0 instructions: 480000000 cycles: 226628096 heartbeat IPC: 1.391 cumulative IPC: 2.012 (Simulation time: 00 hr 45 min 13 sec)
Heartbeat CPU 0 instructions: 490000001 cycles: 233788896 heartbeat IPC: 1.396 cumulative IPC: 1.992 (Simulation time: 00 hr 46 min 35 sec)
Heartbeat CPU 0 instructions: 500000001 cycles: 240938910 heartbeat IPC: 1.399 cumulative IPC: 1.973 (Simulation time: 00 hr 47 min 57 sec)
Heartbeat CPU 0 instructions: 510000002 cycles: 247830696 heartbeat IPC: 1.451 cumulative IPC: 1.958 (Simulation time: 00 hr 49 min 15 sec)
Heartbeat CPU 0 instructions: 520000000 cycles: 316338925 heartbeat IPC: 0.146 cumulative IPC: 1.549 (Simulation time: 00 hr 58 min 29 sec)
Heartbeat CPU 0 instructions: 530000000 cycles: 447216105 heartbeat IPC: 0.07641 cumulative IPC: 1.105 (Simulation time: 01 hr 15 min 46 sec)
Heartbeat CPU 0 instructions: 540000001 cycles: 468530764 heartbeat IPC: 0.4692 cumulative IPC: 1.075 (Simulation time: 01 hr 18 min 58 sec)
Heartbeat CPU 0 instructions: 550000003 cycles: 497091554 heartbeat IPC: 0.3501 cumulative IPC: 1.033 (Simulation time: 01 hr 23 min 03 sec)
Heartbeat CPU 0 instructions: 560000001 cycles: 528823900 heartbeat IPC: 0.3151 cumulative IPC: 0.9885 (Simulation time: 01 hr 27 min 34 sec)
Heartbeat CPU 0 instructions: 570000001 cycles: 560539412 heartbeat IPC: 0.3153 cumulative IPC: 0.9495 (Simulation time: 01 hr 32 min 00 sec)
Heartbeat CPU 0 instructions: 580000002 cycles: 583775428 heartbeat IPC: 0.4304 cumulative IPC: 0.9284 (Simulation time: 01 hr 35 min 20 sec)
Heartbeat CPU 0 instructions: 590000000 cycles: 607033011 heartbeat IPC: 0.43 cumulative IPC: 0.9089 (Simulation time: 01 hr 38 min 42 sec)
*** Reached end of trace: (0, "traces/bt.A.champsimtrace")
Heartbeat CPU 0 instructions: 600000002 cycles: 637017291 heartbeat IPC: 0.3335 cumulative IPC: 0.8812 (Simulation time: 01 hr 42 min 58 sec)
Heartbeat CPU 0 instructions: 610000004 cycles: 657793945 heartbeat IPC: 0.4813 cumulative IPC: 0.8683 (Simulation time: 01 hr 45 min 23 sec)
Heartbeat CPU 0 instructions: 620000000 cycles: 660296275 heartbeat IPC: 3.996 cumulative IPC: 0.8804 (Simulation time: 01 hr 46 min 02 sec)
Heartbeat CPU 0 instructions: 630000002 cycles: 662798593 heartbeat IPC: 3.996 cumulative IPC: 0.8924 (Simulation time: 01 hr 46 min 41 sec)
Heartbeat CPU 0 instructions: 640000000 cycles: 665300911 heartbeat IPC: 3.996 cumulative IPC: 0.9043 (Simulation time: 01 hr 47 min 22 sec)
Heartbeat CPU 0 instructions: 650000002 cycles: 667803218 heartbeat IPC: 3.996 cumulative IPC: 0.9161 (Simulation time: 01 hr 48 min 02 sec)
Simulation finished CPU 0 instructions: 600000002 cycles: 654922176 cumulative IPC: 0.9161 (Simulation time: 01 hr 48 min 02 sec)
Simulation complete CPU 0 instructions: 600000002 cycles: 654922176 cumulative IPC: 0.9161 (Simulation time: 01 hr 48 min 02 sec)

ChampSim completed all CPUs

=== Simulation ===
CPU 0 runs traces/bt.A.champsimtrace
Region of Interest Statistics

CPU 0 cumulative IPC: 0.9161 instructions: 600000002 cycles: 654922176
CPU 0 Branch Prediction Accuracy: 99.29% MPKI: 0.1296 Average ROB Occupancy at Mispredict: 278.9
Branch type MPKI
BRANCH_DIRECT_JUMP: 5e-06
BRANCH_INDIRECT: 7.83e-05
BRANCH_CONDITIONAL: 0.129
BRANCH_DIRECT_CALL: 6.67e-06
BRANCH_INDIRECT_CALL: 3.67e-05
BRANCH_RETURN: 2.33e-05

LLC TOTAL        ACCESS:    7756499 HIT:    3716646 MISS:    4039853
LLC LOAD         ACCESS:    2240122 HIT:    1334703 MISS:     905419
LLC RFO          ACCESS:     889446 HIT:     123528 MISS:     765918
LLC PREFETCH     ACCESS:    2635047 HIT:    1377259 MISS:    1257788
LLC WRITE        ACCESS:    1988515 HIT:     880902 MISS:    1107613
LLC TRANSLATION  ACCESS:       3369 HIT:        254 MISS:       3115
LLC PREFETCH REQUESTED:    2635047 ISSUED:    2635047 USEFUL:     916229 USELESS:      25820
LLC AVERAGE MISS LATENCY: 1014 cycles
cpu0_DTLB TOTAL        ACCESS:  126488361 HIT:  125726590 MISS:     761771
cpu0_DTLB LOAD         ACCESS:  126488361 HIT:  125726590 MISS:     761771
cpu0_DTLB RFO          ACCESS:          0 HIT:          0 MISS:          0
cpu0_DTLB PREFETCH     ACCESS:          0 HIT:          0 MISS:          0
cpu0_DTLB WRITE        ACCESS:          0 HIT:          0 MISS:          0
cpu0_DTLB TRANSLATION  ACCESS:          0 HIT:          0 MISS:          0
cpu0_DTLB PREFETCH REQUESTED:          0 ISSUED:          0 USEFUL:          0 USELESS:          0
cpu0_DTLB AVERAGE MISS LATENCY: 15.07 cycles
cpu0_ITLB TOTAL        ACCESS:     142546 HIT:     142303 MISS:        243
cpu0_ITLB LOAD         ACCESS:     142546 HIT:     142303 MISS:        243
cpu0_ITLB RFO          ACCESS:          0 HIT:          0 MISS:          0
cpu0_ITLB PREFETCH     ACCESS:          0 HIT:          0 MISS:          0
cpu0_ITLB WRITE        ACCESS:          0 HIT:          0 MISS:          0
cpu0_ITLB TRANSLATION  ACCESS:          0 HIT:          0 MISS:          0
cpu0_ITLB PREFETCH REQUESTED:          0 ISSUED:          0 USEFUL:          0 USELESS:          0
cpu0_ITLB AVERAGE MISS LATENCY: 299.1 cycles
cpu0_L1D TOTAL        ACCESS:  194550250 HIT:  182065632 MISS:   12484618
cpu0_L1D LOAD         ACCESS:  159868029 HIT:  151512545 MISS:    8355484
cpu0_L1D RFO          ACCESS:          0 HIT:          0 MISS:          0
cpu0_L1D PREFETCH     ACCESS:          0 HIT:          0 MISS:          0
cpu0_L1D WRITE        ACCESS:   34635446 HIT:   30523379 MISS:    4112067
cpu0_L1D TRANSLATION  ACCESS:      46775 HIT:      29708 MISS:      17067
cpu0_L1D PREFETCH REQUESTED:          0 ISSUED:          0 USEFUL:          0 USELESS:          0
cpu0_L1D AVERAGE MISS LATENCY: 166 cycles
cpu0_L1I TOTAL        ACCESS:     192151 HIT:     189360 MISS:       2791
cpu0_L1I LOAD         ACCESS:     192151 HIT:     189360 MISS:       2791
cpu0_L1I RFO          ACCESS:          0 HIT:          0 MISS:          0
cpu0_L1I PREFETCH     ACCESS:          0 HIT:          0 MISS:          0
cpu0_L1I WRITE        ACCESS:          0 HIT:          0 MISS:          0
cpu0_L1I TRANSLATION  ACCESS:          0 HIT:          0 MISS:          0
cpu0_L1I PREFETCH REQUESTED:          0 ISSUED:          0 USEFUL:          0 USELESS:          0
cpu0_L1I AVERAGE MISS LATENCY: 558 cycles
cpu0_L2C TOTAL        ACCESS:    5259221 HIT:    2125814 MISS:    3133407
cpu0_L2C LOAD         ACCESS:    2353094 HIT:     112956 MISS:    2240138
cpu0_L2C RFO          ACCESS:     889976 HIT:        530 MISS:     889446
cpu0_L2C PREFETCH     ACCESS:          0 HIT:          0 MISS:          0
cpu0_L2C WRITE        ACCESS:    1999088 HIT:    1998634 MISS:        454
cpu0_L2C TRANSLATION  ACCESS:      17063 HIT:      13694 MISS:       3369
cpu0_L2C PREFETCH REQUESTED:          0 ISSUED:          0 USEFUL:          0 USELESS:          0
cpu0_L2C AVERAGE MISS LATENCY: 812.8 cycles
cpu0_STLB TOTAL        ACCESS:     310585 HIT:     263833 MISS:      46752
cpu0_STLB LOAD         ACCESS:     310585 HIT:     263833 MISS:      46752
cpu0_STLB RFO          ACCESS:          0 HIT:          0 MISS:          0
cpu0_STLB PREFETCH     ACCESS:          0 HIT:          0 MISS:          0
cpu0_STLB WRITE        ACCESS:          0 HIT:          0 MISS:          0
cpu0_STLB TRANSLATION  ACCESS:          0 HIT:          0 MISS:          0
cpu0_STLB PREFETCH REQUESTED:          0 ISSUED:          0 USEFUL:          0 USELESS:          0
cpu0_STLB AVERAGE MISS LATENCY: 341.4 cycles

DRAM Statistics

Channel 0 RQ ROW_BUFFER_HIT:     933276
  ROW_BUFFER_MISS:    1620312
 AVG DBUS CONGESTED CYCLE: 3.958
WQ ROW_BUFFER_HIT: Channel 0 
  ROW_BUFFER_MISS:     624203
  FULL:    1144957
