WARNING: physical memory size is smaller than virtual memory size.

*** ChampSim Multicore Out-of-Order Simulator ***
Warmup Instructions: 50000000
Simulation Instructions: 600000000
Number of CPUs: 1
Page size: 4096

Off-chip DRAM Size: 4 GiB Channels: 1 Width: 64-bit Data Race: 3200 MT/s
Heartbeat CPU 0 instructions: 10000000 cycles: 2881040 heartbeat IPC: 3.471 cumulative IPC: 3.471 (Simulation time: 00 hr 00 min 37 sec)
Heartbeat CPU 0 instructions: 20000000 cycles: 5381040 heartbeat IPC: 4 cumulative IPC: 3.717 (Simulation time: 00 hr 01 min 10 sec)
Heartbeat CPU 0 instructions: 30000000 cycles: 7881040 heartbeat IPC: 4 cumulative IPC: 3.807 (Simulation time: 00 hr 01 min 43 sec)
Heartbeat CPU 0 instructions: 40000000 cycles: 10381040 heartbeat IPC: 4 cumulative IPC: 3.853 (Simulation time: 00 hr 02 min 17 sec)
Heartbeat CPU 0 instructions: 50000000 cycles: 12881040 heartbeat IPC: 4 cumulative IPC: 3.882 (Simulation time: 00 hr 02 min 51 sec)
Warmup finished CPU 0 instructions: 50000000 cycles: 12881041 cumulative IPC: 3.882 (Simulation time: 00 hr 02 min 51 sec)
Warmup complete CPU 0 instructions: 50000000 cycles: 12881041 cumulative IPC: 3.882 (Simulation time: 00 hr 02 min 51 sec)
Heartbeat CPU 0 instructions: 60000004 cycles: 15383362 heartbeat IPC: 3.996 cumulative IPC: 3.996 (Simulation time: 00 hr 03 min 29 sec)
Heartbeat CPU 0 instructions: 70000002 cycles: 17885680 heartbeat IPC: 3.996 cumulative IPC: 3.996 (Simulation time: 00 hr 04 min 08 sec)
Heartbeat CPU 0 instructions: 80000002 cycles: 20387996 heartbeat IPC: 3.996 cumulative IPC: 3.996 (Simulation time: 00 hr 04 min 47 sec)
Heartbeat CPU 0 instructions: 90000004 cycles: 22890419 heartbeat IPC: 3.996 cumulative IPC: 3.996 (Simulation time: 00 hr 05 min 26 sec)
Heartbeat CPU 0 instructions: 100000000 cycles: 25393450 heartbeat IPC: 3.995 cumulative IPC: 3.996 (Simulation time: 00 hr 06 min 05 sec)
Heartbeat CPU 0 instructions: 110000002 cycles: 27898105 heartbeat IPC: 3.993 cumulative IPC: 3.995 (Simulation time: 00 hr 06 min 44 sec)
Heartbeat CPU 0 instructions: 120000000 cycles: 30402245 heartbeat IPC: 3.993 cumulative IPC: 3.995 (Simulation time: 00 hr 07 min 23 sec)
Heartbeat CPU 0 instructions: 130000002 cycles: 32906722 heartbeat IPC: 3.993 cumulative IPC: 3.995 (Simulation time: 00 hr 08 min 03 sec)
Heartbeat CPU 0 instructions: 140000004 cycles: 35409289 heartbeat IPC: 3.996 cumulative IPC: 3.995 (Simulation time: 00 hr 08 min 42 sec)
Heartbeat CPU 0 instructions: 150000000 cycles: 37912886 heartbeat IPC: 3.994 cumulative IPC: 3.995 (Simulation time: 00 hr 09 min 21 sec)
Heartbeat CPU 0 instructions: 160000003 cycles: 40415293 heartbeat IPC: 3.996 cumulative IPC: 3.995 (Simulation time: 00 hr 10 min 00 sec)
Heartbeat CPU 0 instructions: 170000002 cycles: 42920086 heartbeat IPC: 3.992 cumulative IPC: 3.995 (Simulation time: 00 hr 10 min 38 sec)
Heartbeat CPU 0 instructions: 180000000 cycles: 45422831 heartbeat IPC: 3.996 cumulative IPC: 3.995 (Simulation time: 00 hr 11 min 17 sec)
Heartbeat CPU 0 instructions: 190000003 cycles: 47926098 heartbeat IPC: 3.995 cumulative IPC: 3.995 (Simulation time: 00 hr 11 min 56 sec)
Heartbeat CPU 0 instructions: 200000000 cycles: 50429887 heartbeat IPC: 3.994 cumulative IPC: 3.995 (Simulation time: 00 hr 12 min 34 sec)
Heartbeat CPU 0 instructions: 210000000 cycles: 52932710 heartbeat IPC: 3.995 cumulative IPC: 3.995 (Simulation time: 00 hr 13 min 13 sec)
Heartbeat CPU 0 instructions: 220000003 cycles: 55435172 heartbeat IPC: 3.996 cumulative IPC: 3.995 (Simulation time: 00 hr 13 min 51 sec)
Heartbeat CPU 0 instructions: 230000000 cycles: 88912408 heartbeat IPC: 0.2987 cumulative IPC: 2.367 (Simulation time: 00 hr 17 min 32 sec)
Heartbeat CPU 0 instructions: 240000002 cycles: 93265518 heartbeat IPC: 2.297 cumulative IPC: 2.364 (Simulation time: 00 hr 18 min 31 sec)
Heartbeat CPU 0 instructions: 250000000 cycles: 97610772 heartbeat IPC: 2.301 cumulative IPC: 2.36 (Simulation time: 00 hr 19 min 29 sec)
Heartbeat CPU 0 instructions: 260000004 cycles: 102049872 heartbeat IPC: 2.253 cumulative IPC: 2.355 (Simulation time: 00 hr 20 min 28 sec)
Heartbeat CPU 0 instructions: 270000003 cycles: 106417574 heartbeat IPC: 2.29 cumulative IPC: 2.352 (Simulation time: 00 hr 21 min 26 sec)
Heartbeat CPU 0 instructions: 280000001 cycles: 110853069 heartbeat IPC: 2.255 cumulative IPC: 2.348 (Simulation time: 00 hr 22 min 23 sec)
Heartbeat CPU 0 instructions: 290000000 cycles: 115248368 heartbeat IPC: 2.275 cumulative IPC: 2.344 (Simulation time: 00 hr 23 min 19 sec)
Heartbeat CPU 0 instructions: 300000003 cycles: 119681278 heartbeat IPC: 2.256 cumulative IPC: 2.341 (Simulation time: 00 hr 24 min 17 sec)
Heartbeat CPU 0 instructions: 310000002 cycles: 124063221 heartbeat IPC: 2.282 cumulative IPC: 2.339 (Simulation time: 00 hr 25 min 15 sec)
Heartbeat CPU 0 instructions: 320000002 cycles: 128498132 heartbeat IPC: 2.255 cumulative IPC: 2.335 (Simulation time: 00 hr 26 min 12 sec)
Heartbeat CPU 0 instructions: 330000002 cycles: 132577177 heartbeat IPC: 2.452 cumulative IPC: 2.339 (Simulation time: 00 hr 27 min 06 sec)
Heartbeat CPU 0 instructions: 340000002 cycles: 135995779 heartbeat IPC: 2.925 cumulative IPC: 2.356 (Simulation time: 00 hr 27 min 53 sec)
Heartbeat CPU 0 instructions: 350000002 cycles: 139420664 heartbeat IPC: 2.92 cumulative IPC: 2.371 (Simulation time: 00 hr 28 min 40 sec)
Heartbeat CPU 0 instructions: 360000000 cycles: 142906687 heartbeat IPC: 2.869 cumulative IPC: 2.384 (Simulation time: 00 hr 29 min 30 sec)
Heartbeat CPU 0 instructions: 370000001 cycles: 146459126 heartbeat IPC: 2.815 cumulative IPC: 2.396 (Simulation time: 00 hr 30 min 21 sec)
Heartbeat CPU 0 instructions: 380000003 cycles: 149970184 heartbeat IPC: 2.848 cumulative IPC: 2.407 (Simulation time: 00 hr 31 min 13 sec)
Heartbeat CPU 0 instructions: 390000004 cycles: 153426409 heartbeat IPC: 2.893 cumulative IPC: 2.419 (Simulation time: 00 hr 32 min 03 sec)
Heartbeat CPU 0 instructions: 400000000 cycles: 157013313 heartbeat IPC: 2.788 cumulative IPC: 2.428 (Simulation time: 00 hr 32 min 54 sec)
Heartbeat CPU 0 instructions: 410000002 cycles: 160508225 heartbeat IPC: 2.861 cumulative IPC: 2.439 (Simulation time: 00 hr 33 min 43 sec)
Heartbeat CPU 0 instructions: 420000000 cycles: 164103943 heartbeat IPC: 2.781 cumulative IPC: 2.447 (Simulation time: 00 hr 34 min 33 sec)
Heartbeat CPU 0 instructions: 430000001 cycles: 167797258 heartbeat IPC: 2.708 cumulative IPC: 2.453 (Simulation time: 00 hr 35 min 24 sec)
Heartbeat CPU 0 instructions: 440000002 cycles: 171641406 heartbeat IPC: 2.601 cumulative IPC: 2.457 (Simulation time: 00 hr 36 min 17 sec)
Heartbeat CPU 0 instructions: 450000000 cycles: 175408285 heartbeat IPC: 2.655 cumulative IPC: 2.461 (Simulation time: 00 hr 37 min 09 sec)
Heartbeat CPU 0 instructions: 460000003 cycles: 179269559 heartbeat IPC: 2.59 cumulative IPC: 2.464 (Simulation time: 00 hr 38 min 01 sec)
Heartbeat CPU 0 instructions: 470000004 cycles: 183100891 heartbeat IPC: 2.61 cumulative IPC: 2.467 (Simulation time: 00 hr 38 min 52 sec)
Heartbeat CPU 0 instructions: 480000000 cycles: 186975726 heartbeat IPC: 2.581 cumulative IPC: 2.47 (Simulation time: 00 hr 39 min 43 sec)
Heartbeat CPU 0 instructions: 490000001 cycles: 190757136 heartbeat IPC: 2.645 cumulative IPC: 2.474 (Simulation time: 00 hr 40 min 34 sec)
Heartbeat CPU 0 instructions: 500000000 cycles: 194607093 heartbeat IPC: 2.597 cumulative IPC: 2.476 (Simulation time: 00 hr 41 min 28 sec)
Heartbeat CPU 0 instructions: 510000002 cycles: 198469878 heartbeat IPC: 2.589 cumulative IPC: 2.479 (Simulation time: 00 hr 42 min 20 sec)
Heartbeat CPU 0 instructions: 520000000 cycles: 255334631 heartbeat IPC: 0.1759 cumulative IPC: 1.939 (Simulation time: 00 hr 50 min 12 sec)
Heartbeat CPU 0 instructions: 530000000 cycles: 370190906 heartbeat IPC: 0.08707 cumulative IPC: 1.343 (Simulation time: 01 hr 05 min 29 sec)
Heartbeat CPU 0 instructions: 540000001 cycles: 394580739 heartbeat IPC: 0.41 cumulative IPC: 1.284 (Simulation time: 01 hr 09 min 04 sec)
Heartbeat CPU 0 instructions: 550000003 cycles: 427484989 heartbeat IPC: 0.3039 cumulative IPC: 1.206 (Simulation time: 01 hr 13 min 43 sec)
Heartbeat CPU 0 instructions: 560000004 cycles: 463832522 heartbeat IPC: 0.2751 cumulative IPC: 1.131 (Simulation time: 01 hr 18 min 52 sec)
Heartbeat CPU 0 instructions: 570000001 cycles: 500190542 heartbeat IPC: 0.275 cumulative IPC: 1.067 (Simulation time: 01 hr 24 min 04 sec)
Heartbeat CPU 0 instructions: 580000002 cycles: 525016503 heartbeat IPC: 0.4028 cumulative IPC: 1.035 (Simulation time: 01 hr 27 min 44 sec)
Heartbeat CPU 0 instructions: 590000001 cycles: 551526070 heartbeat IPC: 0.3772 cumulative IPC: 1.003 (Simulation time: 01 hr 31 min 41 sec)
*** Reached end of trace: (0, "traces/bt.A.champsimtrace")
Heartbeat CPU 0 instructions: 600000002 cycles: 588472375 heartbeat IPC: 0.2707 cumulative IPC: 0.9555 (Simulation time: 01 hr 36 min 52 sec)
Heartbeat CPU 0 instructions: 610000004 cycles: 608429214 heartbeat IPC: 0.5011 cumulative IPC: 0.9403 (Simulation time: 01 hr 39 min 16 sec)
Heartbeat CPU 0 instructions: 620000000 cycles: 610931544 heartbeat IPC: 3.996 cumulative IPC: 0.9531 (Simulation time: 01 hr 39 min 56 sec)
Heartbeat CPU 0 instructions: 630000002 cycles: 613433862 heartbeat IPC: 3.996 cumulative IPC: 0.9658 (Simulation time: 01 hr 40 min 36 sec)
Heartbeat CPU 0 instructions: 640000000 cycles: 615936180 heartbeat IPC: 3.996 cumulative IPC: 0.9784 (Simulation time: 01 hr 41 min 16 sec)
Heartbeat CPU 0 instructions: 650000002 cycles: 618438487 heartbeat IPC: 3.996 cumulative IPC: 0.9908 (Simulation time: 01 hr 41 min 55 sec)
Simulation finished CPU 0 instructions: 600000002 cycles: 605557447 cumulative IPC: 0.9908 (Simulation time: 01 hr 41 min 55 sec)
Simulation complete CPU 0 instructions: 600000002 cycles: 605557447 cumulative IPC: 0.9908 (Simulation time: 01 hr 41 min 55 sec)

ChampSim completed all CPUs

=== Simulation ===
CPU 0 runs traces/bt.A.champsimtrace
Region of Interest Statistics

CPU 0 cumulative IPC: 0.9908 instructions: 600000002 cycles: 605557447
CPU 0 Branch Prediction Accuracy: 99.29% MPKI: 0.1296 Average ROB Occupancy at Mispredict: 279.4
Branch type MPKI
BRANCH_DIRECT_JUMP: 5e-06
BRANCH_INDIRECT: 7.83e-05
BRANCH_CONDITIONAL: 0.129
BRANCH_DIRECT_CALL: 6.67e-06
BRANCH_INDIRECT_CALL: 3.67e-05
BRANCH_RETURN: 2.33e-05

LLC TOTAL        ACCESS:    7361386 HIT:    2483905 MISS:    4877481
LLC LOAD         ACCESS:    2240101 HIT:    1159397 MISS:    1080704
LLC RFO          ACCESS:     889447 HIT:     124348 MISS:     765099
LLC PREFETCH     ACCESS:    2240166 HIT:     510490 MISS:    1729676
LLC WRITE        ACCESS:    1988301 HIT:     689400 MISS:    1298901
LLC TRANSLATION  ACCESS:       3371 HIT:        270 MISS:       3101
LLC PREFETCH REQUESTED:    2241470 ISSUED:    2240166 USEFUL:    1366608 USELESS:      35127
LLC AVERAGE MISS LATENCY: 905.9 cycles
cpu0_DTLB TOTAL        ACCESS:  127865844 HIT:  127108144 MISS:     757700
cpu0_DTLB LOAD         ACCESS:  127865844 HIT:  127108144 MISS:     757700
cpu0_DTLB RFO          ACCESS:          0 HIT:          0 MISS:          0
cpu0_DTLB PREFETCH     ACCESS:          0 HIT:          0 MISS:          0
cpu0_DTLB WRITE        ACCESS:          0 HIT:          0 MISS:          0
cpu0_DTLB TRANSLATION  ACCESS:          0 HIT:          0 MISS:          0
cpu0_DTLB PREFETCH REQUESTED:          0 ISSUED:          0 USEFUL:          0 USELESS:          0
cpu0_DTLB AVERAGE MISS LATENCY: 16.97 cycles
cpu0_ITLB TOTAL        ACCESS:     142147 HIT:     141906 MISS:        241
cpu0_ITLB LOAD         ACCESS:     142147 HIT:     141906 MISS:        241
cpu0_ITLB RFO          ACCESS:          0 HIT:          0 MISS:          0
cpu0_ITLB PREFETCH     ACCESS:          0 HIT:          0 MISS:          0
cpu0_ITLB WRITE        ACCESS:          0 HIT:          0 MISS:          0
cpu0_ITLB TRANSLATION  ACCESS:          0 HIT:          0 MISS:          0
cpu0_ITLB PREFETCH REQUESTED:          0 ISSUED:          0 USEFUL:          0 USELESS:          0
cpu0_ITLB AVERAGE MISS LATENCY: 331.4 cycles
cpu0_L1D TOTAL        ACCESS:  196049193 HIT:  182958406 MISS:   13090787
cpu0_L1D LOAD         ACCESS:  161366937 HIT:  152334194 MISS:    9032743
cpu0_L1D RFO          ACCESS:          0 HIT:          0 MISS:          0
cpu0_L1D PREFETCH     ACCESS:          0 HIT:          0 MISS:          0
cpu0_L1D WRITE        ACCESS:   34635481 HIT:   30594510 MISS:    4040971
cpu0_L1D TRANSLATION  ACCESS:      46775 HIT:      29702 MISS:      17073
cpu0_L1D PREFETCH REQUESTED:          0 ISSUED:          0 USEFUL:          0 USELESS:          0
cpu0_L1D AVERAGE MISS LATENCY: 152.1 cycles
cpu0_L1I TOTAL        ACCESS:     191595 HIT:     188828 MISS:       2767
cpu0_L1I LOAD         ACCESS:     191595 HIT:     188828 MISS:       2767
cpu0_L1I RFO          ACCESS:          0 HIT:          0 MISS:          0
cpu0_L1I PREFETCH     ACCESS:          0 HIT:          0 MISS:          0
cpu0_L1I WRITE        ACCESS:          0 HIT:          0 MISS:          0
cpu0_L1I TRANSLATION  ACCESS:          0 HIT:          0 MISS:          0
cpu0_L1I PREFETCH REQUESTED:          0 ISSUED:          0 USEFUL:          0 USELESS:          0
cpu0_L1I AVERAGE MISS LATENCY: 516.8 cycles
cpu0_L2C TOTAL        ACCESS:    5263752 HIT:    2130360 MISS:    3133392
cpu0_L2C LOAD         ACCESS:    2357627 HIT:     117507 MISS:    2240120
cpu0_L2C RFO          ACCESS:     889979 HIT:        532 MISS:     889447
cpu0_L2C PREFETCH     ACCESS:          0 HIT:          0 MISS:          0
cpu0_L2C WRITE        ACCESS:    1999077 HIT:    1998623 MISS:        454
cpu0_L2C TRANSLATION  ACCESS:      17069 HIT:      13698 MISS:       3371
cpu0_L2C PREFETCH REQUESTED:          0 ISSUED:          0 USEFUL:          0 USELESS:          0
cpu0_L2C AVERAGE MISS LATENCY: 824.8 cycles
cpu0_STLB TOTAL        ACCESS:     310969 HIT:     264217 MISS:      46752
cpu0_STLB LOAD         ACCESS:     310969 HIT:     264217 MISS:      46752
cpu0_STLB RFO          ACCESS:          0 HIT:          0 MISS:          0
cpu0_STLB PREFETCH     ACCESS:          0 HIT:          0 MISS:          0
cpu0_STLB WRITE        ACCESS:          0 HIT:          0 MISS:          0
cpu0_STLB TRANSLATION  ACCESS:          0 HIT:          0 MISS:          0
cpu0_STLB PREFETCH REQUESTED:          0 ISSUED:          0 USEFUL:          0 USELESS:          0
cpu0_STLB AVERAGE MISS LATENCY: 380.9 cycles

DRAM Statistics

Channel 0 RQ ROW_BUFFER_HIT:     774496
  ROW_BUFFER_MISS:    1760372
 AVG DBUS CONGESTED CYCLE: 3.975
WQ ROW_BUFFER_HIT: Channel 0 
  ROW_BUFFER_MISS:     650266
  FULL:    1118464
