WARNING: physical memory size is smaller than virtual memory size.

*** ChampSim Multicore Out-of-Order Simulator ***
Warmup Instructions: 50000000
Simulation Instructions: 600000000
Number of CPUs: 1
Page size: 4096

CPU 0 Tage branch predictor
Off-chip DRAM Size: 4 GiB Channels: 1 Width: 64-bit Data Race: 3200 MT/s
Heartbeat CPU 0 instructions: 10000001 cycles: 2881028 heartbeat IPC: 3.471 cumulative IPC: 3.471 (Simulation time: 00 hr 00 min 50 sec)
Heartbeat CPU 0 instructions: 20000001 cycles: 5381028 heartbeat IPC: 4 cumulative IPC: 3.717 (Simulation time: 00 hr 01 min 39 sec)
Heartbeat CPU 0 instructions: 30000001 cycles: 7881028 heartbeat IPC: 4 cumulative IPC: 3.807 (Simulation time: 00 hr 02 min 27 sec)
Heartbeat CPU 0 instructions: 40000001 cycles: 10381028 heartbeat IPC: 4 cumulative IPC: 3.853 (Simulation time: 00 hr 03 min 14 sec)
Heartbeat CPU 0 instructions: 50000001 cycles: 12881028 heartbeat IPC: 4 cumulative IPC: 3.882 (Simulation time: 00 hr 04 min 00 sec)
Warmup finished CPU 0 instructions: 50000001 cycles: 12881029 cumulative IPC: 3.882 (Simulation time: 00 hr 04 min 00 sec)
Warmup complete CPU 0 instructions: 50000001 cycles: 12881029 cumulative IPC: 3.882 (Simulation time: 00 hr 04 min 00 sec)
Heartbeat CPU 0 instructions: 60000004 cycles: 15382792 heartbeat IPC: 3.997 cumulative IPC: 3.997 (Simulation time: 00 hr 04 min 53 sec)
Heartbeat CPU 0 instructions: 70000000 cycles: 17885251 heartbeat IPC: 3.996 cumulative IPC: 3.997 (Simulation time: 00 hr 05 min 44 sec)
Heartbeat CPU 0 instructions: 80000002 cycles: 20386484 heartbeat IPC: 3.998 cumulative IPC: 3.997 (Simulation time: 00 hr 06 min 36 sec)
Heartbeat CPU 0 instructions: 90000004 cycles: 22887924 heartbeat IPC: 3.998 cumulative IPC: 3.997 (Simulation time: 00 hr 07 min 29 sec)
Heartbeat CPU 0 instructions: 100000004 cycles: 25388673 heartbeat IPC: 3.999 cumulative IPC: 3.998 (Simulation time: 00 hr 08 min 20 sec)
Heartbeat CPU 0 instructions: 110000000 cycles: 27890299 heartbeat IPC: 3.997 cumulative IPC: 3.998 (Simulation time: 00 hr 09 min 12 sec)
Heartbeat CPU 0 instructions: 120000003 cycles: 30391273 heartbeat IPC: 3.998 cumulative IPC: 3.998 (Simulation time: 00 hr 10 min 04 sec)
Heartbeat CPU 0 instructions: 130000000 cycles: 32892063 heartbeat IPC: 3.999 cumulative IPC: 3.998 (Simulation time: 00 hr 10 min 56 sec)
Heartbeat CPU 0 instructions: 140000001 cycles: 35393189 heartbeat IPC: 3.998 cumulative IPC: 3.998 (Simulation time: 00 hr 11 min 47 sec)
Heartbeat CPU 0 instructions: 150000000 cycles: 37893382 heartbeat IPC: 4 cumulative IPC: 3.998 (Simulation time: 00 hr 12 min 40 sec)
Heartbeat CPU 0 instructions: 160000001 cycles: 40396481 heartbeat IPC: 3.995 cumulative IPC: 3.998 (Simulation time: 00 hr 13 min 31 sec)
Heartbeat CPU 0 instructions: 170000002 cycles: 42898094 heartbeat IPC: 3.997 cumulative IPC: 3.998 (Simulation time: 00 hr 14 min 23 sec)
Heartbeat CPU 0 instructions: 180000001 cycles: 45398399 heartbeat IPC: 4 cumulative IPC: 3.998 (Simulation time: 00 hr 15 min 16 sec)
Heartbeat CPU 0 instructions: 190000004 cycles: 47899699 heartbeat IPC: 3.998 cumulative IPC: 3.998 (Simulation time: 00 hr 16 min 08 sec)
Heartbeat CPU 0 instructions: 200000000 cycles: 50402288 heartbeat IPC: 3.996 cumulative IPC: 3.998 (Simulation time: 00 hr 17 min 01 sec)
Heartbeat CPU 0 instructions: 210000000 cycles: 52902572 heartbeat IPC: 4 cumulative IPC: 3.998 (Simulation time: 00 hr 17 min 51 sec)
Heartbeat CPU 0 instructions: 220000000 cycles: 55402768 heartbeat IPC: 4 cumulative IPC: 3.998 (Simulation time: 00 hr 18 min 43 sec)
Heartbeat CPU 0 instructions: 230000003 cycles: 92513505 heartbeat IPC: 0.2695 cumulative IPC: 2.26 (Simulation time: 00 hr 23 min 55 sec)
Heartbeat CPU 0 instructions: 240000001 cycles: 96267928 heartbeat IPC: 2.664 cumulative IPC: 2.279 (Simulation time: 00 hr 25 min 01 sec)
Heartbeat CPU 0 instructions: 250000000 cycles: 99909568 heartbeat IPC: 2.746 cumulative IPC: 2.298 (Simulation time: 00 hr 26 min 05 sec)
Heartbeat CPU 0 instructions: 260000004 cycles: 103380655 heartbeat IPC: 2.881 cumulative IPC: 2.32 (Simulation time: 00 hr 27 min 07 sec)
Heartbeat CPU 0 instructions: 270000000 cycles: 106925961 heartbeat IPC: 2.821 cumulative IPC: 2.339 (Simulation time: 00 hr 28 min 10 sec)
Heartbeat CPU 0 instructions: 280000001 cycles: 110569211 heartbeat IPC: 2.745 cumulative IPC: 2.354 (Simulation time: 00 hr 29 min 12 sec)
Heartbeat CPU 0 instructions: 290000000 cycles: 113958882 heartbeat IPC: 2.95 cumulative IPC: 2.374 (Simulation time: 00 hr 30 min 14 sec)
Heartbeat CPU 0 instructions: 300000003 cycles: 117298541 heartbeat IPC: 2.994 cumulative IPC: 2.394 (Simulation time: 00 hr 31 min 15 sec)
Heartbeat CPU 0 instructions: 310000001 cycles: 120657096 heartbeat IPC: 2.977 cumulative IPC: 2.412 (Simulation time: 00 hr 32 min 15 sec)
Heartbeat CPU 0 instructions: 320000001 cycles: 124347140 heartbeat IPC: 2.71 cumulative IPC: 2.422 (Simulation time: 00 hr 33 min 20 sec)
Heartbeat CPU 0 instructions: 330000000 cycles: 130493166 heartbeat IPC: 1.627 cumulative IPC: 2.381 (Simulation time: 00 hr 34 min 46 sec)
Heartbeat CPU 0 instructions: 340000003 cycles: 137060008 heartbeat IPC: 1.523 cumulative IPC: 2.335 (Simulation time: 00 hr 36 min 19 sec)
Heartbeat CPU 0 instructions: 350000000 cycles: 143325032 heartbeat IPC: 1.596 cumulative IPC: 2.3 (Simulation time: 00 hr 37 min 47 sec)
Heartbeat CPU 0 instructions: 360000001 cycles: 149857342 heartbeat IPC: 1.531 cumulative IPC: 2.263 (Simulation time: 00 hr 39 min 18 sec)
Heartbeat CPU 0 instructions: 370000004 cycles: 156371230 heartbeat IPC: 1.535 cumulative IPC: 2.23 (Simulation time: 00 hr 40 min 51 sec)
Heartbeat CPU 0 instructions: 380000003 cycles: 162798591 heartbeat IPC: 1.556 cumulative IPC: 2.201 (Simulation time: 00 hr 42 min 23 sec)
Heartbeat CPU 0 instructions: 390000000 cycles: 169153629 heartbeat IPC: 1.574 cumulative IPC: 2.176 (Simulation time: 00 hr 43 min 51 sec)
Heartbeat CPU 0 instructions: 400000001 cycles: 175569974 heartbeat IPC: 1.559 cumulative IPC: 2.151 (Simulation time: 00 hr 45 min 22 sec)
Heartbeat CPU 0 instructions: 410000004 cycles: 181908566 heartbeat IPC: 1.578 cumulative IPC: 2.13 (Simulation time: 00 hr 46 min 50 sec)
Heartbeat CPU 0 instructions: 420000004 cycles: 188916480 heartbeat IPC: 1.427 cumulative IPC: 2.102 (Simulation time: 00 hr 48 min 27 sec)
Heartbeat CPU 0 instructions: 430000000 cycles: 194558879 heartbeat IPC: 1.772 cumulative IPC: 2.092 (Simulation time: 00 hr 49 min 48 sec)
Heartbeat CPU 0 instructions: 440000004 cycles: 200723912 heartbeat IPC: 1.622 cumulative IPC: 2.076 (Simulation time: 00 hr 51 min 15 sec)
Heartbeat CPU 0 instructions: 450000000 cycles: 207427563 heartbeat IPC: 1.492 cumulative IPC: 2.056 (Simulation time: 00 hr 52 min 47 sec)
Heartbeat CPU 0 instructions: 460000001 cycles: 214488138 heartbeat IPC: 1.416 cumulative IPC: 2.034 (Simulation time: 00 hr 54 min 23 sec)
Heartbeat CPU 0 instructions: 470000000 cycles: 221575602 heartbeat IPC: 1.411 cumulative IPC: 2.013 (Simulation time: 00 hr 55 min 58 sec)
Heartbeat CPU 0 instructions: 480000003 cycles: 228674454 heartbeat IPC: 1.409 cumulative IPC: 1.993 (Simulation time: 00 hr 57 min 34 sec)
Heartbeat CPU 0 instructions: 490000004 cycles: 235783694 heartbeat IPC: 1.407 cumulative IPC: 1.974 (Simulation time: 00 hr 59 min 09 sec)
Heartbeat CPU 0 instructions: 500000002 cycles: 242853441 heartbeat IPC: 1.414 cumulative IPC: 1.957 (Simulation time: 01 hr 00 min 44 sec)
Heartbeat CPU 0 instructions: 510000003 cycles: 249909593 heartbeat IPC: 1.417 cumulative IPC: 1.941 (Simulation time: 01 hr 02 min 19 sec)
Heartbeat CPU 0 instructions: 520000001 cycles: 331493097 heartbeat IPC: 0.1226 cumulative IPC: 1.475 (Simulation time: 01 hr 14 min 04 sec)
Heartbeat CPU 0 instructions: 530000002 cycles: 459497872 heartbeat IPC: 0.07812 cumulative IPC: 1.075 (Simulation time: 01 hr 29 min 41 sec)
Heartbeat CPU 0 instructions: 540000004 cycles: 482889114 heartbeat IPC: 0.4275 cumulative IPC: 1.043 (Simulation time: 01 hr 32 min 52 sec)
Heartbeat CPU 0 instructions: 550000002 cycles: 509052358 heartbeat IPC: 0.3822 cumulative IPC: 1.008 (Simulation time: 01 hr 36 min 22 sec)
Heartbeat CPU 0 instructions: 560000001 cycles: 533756321 heartbeat IPC: 0.4048 cumulative IPC: 0.9791 (Simulation time: 01 hr 39 min 42 sec)
Heartbeat CPU 0 instructions: 570000002 cycles: 558708778 heartbeat IPC: 0.4008 cumulative IPC: 0.9527 (Simulation time: 01 hr 43 min 07 sec)
Heartbeat CPU 0 instructions: 580000002 cycles: 583795029 heartbeat IPC: 0.3986 cumulative IPC: 0.9283 (Simulation time: 01 hr 46 min 36 sec)
Heartbeat CPU 0 instructions: 590000001 cycles: 608910334 heartbeat IPC: 0.3982 cumulative IPC: 0.906 (Simulation time: 01 hr 49 min 59 sec)
*** Reached end of trace: (0, "traces/bt.A.champsimtrace")
Heartbeat CPU 0 instructions: 600000001 cycles: 633522283 heartbeat IPC: 0.4063 cumulative IPC: 0.8862 (Simulation time: 01 hr 53 min 20 sec)
Heartbeat CPU 0 instructions: 610000004 cycles: 664496639 heartbeat IPC: 0.3228 cumulative IPC: 0.8594 (Simulation time: 01 hr 56 min 31 sec)
Heartbeat CPU 0 instructions: 620000000 cycles: 666996870 heartbeat IPC: 4 cumulative IPC: 0.8714 (Simulation time: 01 hr 57 min 10 sec)
Heartbeat CPU 0 instructions: 630000003 cycles: 669497146 heartbeat IPC: 4 cumulative IPC: 0.8833 (Simulation time: 01 hr 57 min 50 sec)
Heartbeat CPU 0 instructions: 640000003 cycles: 671997390 heartbeat IPC: 4 cumulative IPC: 0.8951 (Simulation time: 01 hr 58 min 26 sec)
Heartbeat CPU 0 instructions: 650000003 cycles: 674498998 heartbeat IPC: 3.997 cumulative IPC: 0.9069 (Simulation time: 01 hr 58 min 57 sec)
Simulation finished CPU 0 instructions: 600000002 cycles: 661617970 cumulative IPC: 0.9069 (Simulation time: 01 hr 58 min 57 sec)
Simulation complete CPU 0 instructions: 600000002 cycles: 661617970 cumulative IPC: 0.9069 (Simulation time: 01 hr 58 min 57 sec)

ChampSim completed all CPUs

=== Simulation ===
CPU 0 runs traces/bt.A.champsimtrace
Region of Interest Statistics

CPU 0 cumulative IPC: 0.9069 instructions: 600000002 cycles: 661617970
CPU 0 Branch Prediction Accuracy: 99.98% MPKI: 0.004067 Average ROB Occupancy at Mispredict: 105.7
Branch type MPKI
BRANCH_DIRECT_JUMP: 5e-06
BRANCH_INDIRECT: 7.67e-05
BRANCH_CONDITIONAL: 0.00392
BRANCH_DIRECT_CALL: 6.67e-06
BRANCH_INDIRECT_CALL: 3.33e-05
BRANCH_RETURN: 2.33e-05

LLC TOTAL        ACCESS:    7779446 HIT:    4236014 MISS:    3543432
LLC LOAD         ACCESS:    2237013 HIT:    1361550 MISS:     875463
LLC RFO          ACCESS:     889407 HIT:      13231 MISS:     876176
LLC PREFETCH     ACCESS:    2663315 HIT:    1496096 MISS:    1167219
LLC WRITE        ACCESS:    1986351 HIT:    1364846 MISS:     621505
LLC TRANSLATION  ACCESS:       3360 HIT:        291 MISS:       3069
LLC PREFETCH REQUESTED:    2663315 ISSUED:    2663315 USEFUL:     956125 USELESS:      17497
LLC AVERAGE MISS LATENCY: 1192 cycles
cpu0_DTLB TOTAL        ACCESS:  127493690 HIT:  126722747 MISS:     770943
cpu0_DTLB LOAD         ACCESS:  127493690 HIT:  126722747 MISS:     770943
cpu0_DTLB RFO          ACCESS:          0 HIT:          0 MISS:          0
cpu0_DTLB PREFETCH     ACCESS:          0 HIT:          0 MISS:          0
cpu0_DTLB WRITE        ACCESS:          0 HIT:          0 MISS:          0
cpu0_DTLB TRANSLATION  ACCESS:          0 HIT:          0 MISS:          0
cpu0_DTLB PREFETCH REQUESTED:          0 ISSUED:          0 USEFUL:          0 USELESS:          0
cpu0_DTLB AVERAGE MISS LATENCY: 14.74 cycles
cpu0_ITLB TOTAL        ACCESS:     173953 HIT:     173704 MISS:        249
cpu0_ITLB LOAD         ACCESS:     173953 HIT:     173704 MISS:        249
cpu0_ITLB RFO          ACCESS:          0 HIT:          0 MISS:          0
cpu0_ITLB PREFETCH     ACCESS:          0 HIT:          0 MISS:          0
cpu0_ITLB WRITE        ACCESS:          0 HIT:          0 MISS:          0
cpu0_ITLB TRANSLATION  ACCESS:          0 HIT:          0 MISS:          0
cpu0_ITLB PREFETCH REQUESTED:          0 ISSUED:          0 USEFUL:          0 USELESS:          0
cpu0_ITLB AVERAGE MISS LATENCY: 303.6 cycles
cpu0_L1D TOTAL        ACCESS:  195968848 HIT:  183193268 MISS:   12775580
cpu0_L1D LOAD         ACCESS:  161286621 HIT:  152722330 MISS:    8564291
cpu0_L1D RFO          ACCESS:          0 HIT:          0 MISS:          0
cpu0_L1D PREFETCH     ACCESS:          0 HIT:          0 MISS:          0
cpu0_L1D WRITE        ACCESS:   34635477 HIT:   30441275 MISS:    4194202
cpu0_L1D TRANSLATION  ACCESS:      46750 HIT:      29663 MISS:      17087
cpu0_L1D PREFETCH REQUESTED:          0 ISSUED:          0 USEFUL:          0 USELESS:          0
cpu0_L1D AVERAGE MISS LATENCY: 173.1 cycles
cpu0_L1I TOTAL        ACCESS:     206408 HIT:     203447 MISS:       2961
cpu0_L1I LOAD         ACCESS:     206408 HIT:     203447 MISS:       2961
cpu0_L1I RFO          ACCESS:          0 HIT:          0 MISS:          0
cpu0_L1I PREFETCH     ACCESS:          0 HIT:          0 MISS:          0
cpu0_L1I WRITE        ACCESS:          0 HIT:          0 MISS:          0
cpu0_L1I TRANSLATION  ACCESS:          0 HIT:          0 MISS:          0
cpu0_L1I PREFETCH REQUESTED:          0 ISSUED:          0 USEFUL:          0 USELESS:          0
cpu0_L1I AVERAGE MISS LATENCY: 539 cycles
cpu0_L2C TOTAL        ACCESS:    5262151 HIT:    2131677 MISS:    3130474
cpu0_L2C LOAD         ACCESS:    2355265 HIT:     117921 MISS:    2237344
cpu0_L2C RFO          ACCESS:     890356 HIT:        949 MISS:     889407
cpu0_L2C PREFETCH     ACCESS:          0 HIT:          0 MISS:          0
cpu0_L2C WRITE        ACCESS:    1999445 HIT:    1999082 MISS:        363
cpu0_L2C TRANSLATION  ACCESS:      17085 HIT:      13725 MISS:       3360
cpu0_L2C PREFETCH REQUESTED:          0 ISSUED:          0 USEFUL:          0 USELESS:          0
cpu0_L2C AVERAGE MISS LATENCY: 861.6 cycles
cpu0_STLB TOTAL        ACCESS:     297093 HIT:     250358 MISS:      46735
cpu0_STLB LOAD         ACCESS:     297093 HIT:     250358 MISS:      46735
cpu0_STLB RFO          ACCESS:          0 HIT:          0 MISS:          0
cpu0_STLB PREFETCH     ACCESS:          0 HIT:          0 MISS:          0
cpu0_STLB WRITE        ACCESS:          0 HIT:          0 MISS:          0
cpu0_STLB TRANSLATION  ACCESS:          0 HIT:          0 MISS:          0
cpu0_STLB PREFETCH REQUESTED:          0 ISSUED:          0 USEFUL:          0 USELESS:          0
cpu0_STLB AVERAGE MISS LATENCY: 343 cycles

DRAM Statistics

Channel 0 RQ ROW_BUFFER_HIT:     909970
  ROW_BUFFER_MISS:    1757815
 AVG DBUS CONGESTED CYCLE: 3.967
WQ ROW_BUFFER_HIT: Channel 0 
  ROW_BUFFER_MISS:     253158
  FULL:    1515880
