WARNING: physical memory size is smaller than virtual memory size.

*** ChampSim Multicore Out-of-Order Simulator ***
Warmup Instructions: 50000000
Simulation Instructions: 600000000
Number of CPUs: 1
Page size: 4096

Off-chip DRAM Size: 4 GiB Channels: 1 Width: 64-bit Data Race: 3200 MT/s
Heartbeat CPU 0 instructions: 10000003 cycles: 2881043 heartbeat IPC: 3.471 cumulative IPC: 3.471 (Simulation time: 00 hr 01 min 00 sec)
Heartbeat CPU 0 instructions: 20000003 cycles: 5381043 heartbeat IPC: 4 cumulative IPC: 3.717 (Simulation time: 00 hr 01 min 54 sec)
Heartbeat CPU 0 instructions: 30000003 cycles: 7881043 heartbeat IPC: 4 cumulative IPC: 3.807 (Simulation time: 00 hr 02 min 44 sec)
Heartbeat CPU 0 instructions: 40000003 cycles: 10381043 heartbeat IPC: 4 cumulative IPC: 3.853 (Simulation time: 00 hr 03 min 35 sec)
Heartbeat CPU 0 instructions: 50000003 cycles: 12881043 heartbeat IPC: 4 cumulative IPC: 3.882 (Simulation time: 00 hr 04 min 27 sec)
Warmup finished CPU 0 instructions: 50000003 cycles: 12881044 cumulative IPC: 3.882 (Simulation time: 00 hr 04 min 27 sec)
Warmup complete CPU 0 instructions: 50000003 cycles: 12881044 cumulative IPC: 3.882 (Simulation time: 00 hr 04 min 27 sec)
Heartbeat CPU 0 instructions: 60000001 cycles: 15384176 heartbeat IPC: 3.995 cumulative IPC: 3.995 (Simulation time: 00 hr 05 min 22 sec)
Heartbeat CPU 0 instructions: 70000003 cycles: 17886582 heartbeat IPC: 3.996 cumulative IPC: 3.996 (Simulation time: 00 hr 06 min 16 sec)
Heartbeat CPU 0 instructions: 80000002 cycles: 20388991 heartbeat IPC: 3.996 cumulative IPC: 3.996 (Simulation time: 00 hr 07 min 13 sec)
Heartbeat CPU 0 instructions: 90000002 cycles: 22891400 heartbeat IPC: 3.996 cumulative IPC: 3.996 (Simulation time: 00 hr 08 min 13 sec)
Heartbeat CPU 0 instructions: 100000003 cycles: 25393820 heartbeat IPC: 3.996 cumulative IPC: 3.996 (Simulation time: 00 hr 09 min 13 sec)
Heartbeat CPU 0 instructions: 110000000 cycles: 27896272 heartbeat IPC: 3.996 cumulative IPC: 3.996 (Simulation time: 00 hr 10 min 15 sec)
Heartbeat CPU 0 instructions: 120000001 cycles: 30398670 heartbeat IPC: 3.996 cumulative IPC: 3.996 (Simulation time: 00 hr 11 min 18 sec)
Heartbeat CPU 0 instructions: 130000004 cycles: 32901078 heartbeat IPC: 3.996 cumulative IPC: 3.996 (Simulation time: 00 hr 12 min 17 sec)
Heartbeat CPU 0 instructions: 140000000 cycles: 35403482 heartbeat IPC: 3.996 cumulative IPC: 3.996 (Simulation time: 00 hr 13 min 17 sec)
Heartbeat CPU 0 instructions: 150000001 cycles: 37905892 heartbeat IPC: 3.996 cumulative IPC: 3.996 (Simulation time: 00 hr 14 min 15 sec)
Heartbeat CPU 0 instructions: 160000004 cycles: 40408299 heartbeat IPC: 3.996 cumulative IPC: 3.996 (Simulation time: 00 hr 15 min 12 sec)
Heartbeat CPU 0 instructions: 170000004 cycles: 42910721 heartbeat IPC: 3.996 cumulative IPC: 3.996 (Simulation time: 00 hr 16 min 12 sec)
Heartbeat CPU 0 instructions: 180000000 cycles: 45413082 heartbeat IPC: 3.996 cumulative IPC: 3.996 (Simulation time: 00 hr 17 min 12 sec)
Heartbeat CPU 0 instructions: 190000004 cycles: 47915435 heartbeat IPC: 3.996 cumulative IPC: 3.996 (Simulation time: 00 hr 18 min 13 sec)
Heartbeat CPU 0 instructions: 200000000 cycles: 50418407 heartbeat IPC: 3.995 cumulative IPC: 3.996 (Simulation time: 00 hr 19 min 15 sec)
Heartbeat CPU 0 instructions: 210000003 cycles: 52920815 heartbeat IPC: 3.996 cumulative IPC: 3.996 (Simulation time: 00 hr 20 min 21 sec)
Heartbeat CPU 0 instructions: 220000000 cycles: 55423223 heartbeat IPC: 3.996 cumulative IPC: 3.996 (Simulation time: 00 hr 21 min 22 sec)
Heartbeat CPU 0 instructions: 230000002 cycles: 92759875 heartbeat IPC: 0.2678 cumulative IPC: 2.253 (Simulation time: 00 hr 27 min 40 sec)
Heartbeat CPU 0 instructions: 240000000 cycles: 97342639 heartbeat IPC: 2.182 cumulative IPC: 2.25 (Simulation time: 00 hr 29 min 04 sec)
Heartbeat CPU 0 instructions: 250000004 cycles: 101657478 heartbeat IPC: 2.318 cumulative IPC: 2.253 (Simulation time: 00 hr 30 min 30 sec)
Heartbeat CPU 0 instructions: 260000004 cycles: 105926090 heartbeat IPC: 2.343 cumulative IPC: 2.257 (Simulation time: 00 hr 32 min 03 sec)
Heartbeat CPU 0 instructions: 270000001 cycles: 110242001 heartbeat IPC: 2.317 cumulative IPC: 2.26 (Simulation time: 00 hr 33 min 41 sec)
Heartbeat CPU 0 instructions: 280000002 cycles: 114558323 heartbeat IPC: 2.317 cumulative IPC: 2.262 (Simulation time: 00 hr 35 min 01 sec)
Heartbeat CPU 0 instructions: 290000002 cycles: 118895116 heartbeat IPC: 2.306 cumulative IPC: 2.264 (Simulation time: 00 hr 37 min 05 sec)
Heartbeat CPU 0 instructions: 300000002 cycles: 123237143 heartbeat IPC: 2.303 cumulative IPC: 2.265 (Simulation time: 00 hr 38 min 35 sec)
Heartbeat CPU 0 instructions: 310000004 cycles: 127606496 heartbeat IPC: 2.289 cumulative IPC: 2.266 (Simulation time: 00 hr 40 min 06 sec)
Heartbeat CPU 0 instructions: 320000001 cycles: 131973917 heartbeat IPC: 2.29 cumulative IPC: 2.267 (Simulation time: 00 hr 41 min 35 sec)
Heartbeat CPU 0 instructions: 330000000 cycles: 135779494 heartbeat IPC: 2.628 cumulative IPC: 2.278 (Simulation time: 00 hr 42 min 55 sec)
Heartbeat CPU 0 instructions: 340000004 cycles: 139578474 heartbeat IPC: 2.632 cumulative IPC: 2.289 (Simulation time: 00 hr 44 min 14 sec)
Heartbeat CPU 0 instructions: 350000002 cycles: 143284046 heartbeat IPC: 2.699 cumulative IPC: 2.301 (Simulation time: 00 hr 45 min 26 sec)
Heartbeat CPU 0 instructions: 360000002 cycles: 147074005 heartbeat IPC: 2.639 cumulative IPC: 2.31 (Simulation time: 00 hr 46 min 43 sec)
Heartbeat CPU 0 instructions: 370000004 cycles: 150803834 heartbeat IPC: 2.681 cumulative IPC: 2.32 (Simulation time: 00 hr 48 min 00 sec)
Heartbeat CPU 0 instructions: 380000004 cycles: 154563706 heartbeat IPC: 2.66 cumulative IPC: 2.329 (Simulation time: 00 hr 49 min 50 sec)
Heartbeat CPU 0 instructions: 390000004 cycles: 158282482 heartbeat IPC: 2.689 cumulative IPC: 2.338 (Simulation time: 00 hr 51 min 55 sec)
Heartbeat CPU 0 instructions: 400000004 cycles: 162041793 heartbeat IPC: 2.66 cumulative IPC: 2.346 (Simulation time: 00 hr 53 min 57 sec)
Heartbeat CPU 0 instructions: 410000000 cycles: 165670891 heartbeat IPC: 2.756 cumulative IPC: 2.356 (Simulation time: 00 hr 55 min 25 sec)
Heartbeat CPU 0 instructions: 420000001 cycles: 169369950 heartbeat IPC: 2.703 cumulative IPC: 2.364 (Simulation time: 00 hr 56 min 43 sec)
Heartbeat CPU 0 instructions: 430000004 cycles: 172688147 heartbeat IPC: 3.014 cumulative IPC: 2.378 (Simulation time: 00 hr 57 min 54 sec)
Heartbeat CPU 0 instructions: 440000002 cycles: 175951317 heartbeat IPC: 3.065 cumulative IPC: 2.392 (Simulation time: 00 hr 59 min 04 sec)
Heartbeat CPU 0 instructions: 450000002 cycles: 179562201 heartbeat IPC: 2.769 cumulative IPC: 2.4 (Simulation time: 01 hr 00 min 18 sec)
Heartbeat CPU 0 instructions: 460000002 cycles: 183230356 heartbeat IPC: 2.726 cumulative IPC: 2.407 (Simulation time: 01 hr 01 min 32 sec)
Heartbeat CPU 0 instructions: 470000004 cycles: 186483850 heartbeat IPC: 3.074 cumulative IPC: 2.419 (Simulation time: 01 hr 02 min 41 sec)
Heartbeat CPU 0 instructions: 480000001 cycles: 189891525 heartbeat IPC: 2.935 cumulative IPC: 2.429 (Simulation time: 01 hr 03 min 52 sec)
Heartbeat CPU 0 instructions: 490000003 cycles: 193403793 heartbeat IPC: 2.847 cumulative IPC: 2.437 (Simulation time: 01 hr 05 min 07 sec)
Heartbeat CPU 0 instructions: 500000002 cycles: 196961115 heartbeat IPC: 2.811 cumulative IPC: 2.445 (Simulation time: 01 hr 06 min 22 sec)
Heartbeat CPU 0 instructions: 510000002 cycles: 200519941 heartbeat IPC: 2.81 cumulative IPC: 2.452 (Simulation time: 01 hr 07 min 36 sec)
Heartbeat CPU 0 instructions: 520000002 cycles: 269865418 heartbeat IPC: 0.1442 cumulative IPC: 1.829 (Simulation time: 01 hr 20 min 06 sec)
Heartbeat CPU 0 instructions: 530000001 cycles: 388458591 heartbeat IPC: 0.08432 cumulative IPC: 1.278 (Simulation time: 01 hr 43 min 05 sec)
Heartbeat CPU 0 instructions: 540000004 cycles: 417219431 heartbeat IPC: 0.3477 cumulative IPC: 1.212 (Simulation time: 01 hr 48 min 53 sec)
Heartbeat CPU 0 instructions: 550000003 cycles: 448182546 heartbeat IPC: 0.323 cumulative IPC: 1.149 (Simulation time: 01 hr 55 min 02 sec)
Heartbeat CPU 0 instructions: 560000004 cycles: 478644193 heartbeat IPC: 0.3283 cumulative IPC: 1.095 (Simulation time: 02 hr 01 min 09 sec)
Heartbeat CPU 0 instructions: 570000000 cycles: 509296067 heartbeat IPC: 0.3262 cumulative IPC: 1.048 (Simulation time: 02 hr 07 min 15 sec)
Heartbeat CPU 0 instructions: 580000002 cycles: 543504222 heartbeat IPC: 0.2923 cumulative IPC: 0.9988 (Simulation time: 02 hr 14 min 00 sec)
Heartbeat CPU 0 instructions: 590000000 cycles: 575430634 heartbeat IPC: 0.3132 cumulative IPC: 0.9599 (Simulation time: 02 hr 20 min 34 sec)
*** Reached end of trace: (0, "traces/bt.A.champsimtrace")
Heartbeat CPU 0 instructions: 600000001 cycles: 607090790 heartbeat IPC: 0.3159 cumulative IPC: 0.9256 (Simulation time: 02 hr 27 min 06 sec)
Heartbeat CPU 0 instructions: 610000002 cycles: 637876582 heartbeat IPC: 0.3248 cumulative IPC: 0.896 (Simulation time: 02 hr 31 min 41 sec)
Heartbeat CPU 0 instructions: 620000002 cycles: 640379490 heartbeat IPC: 3.995 cumulative IPC: 0.9084 (Simulation time: 02 hr 32 min 37 sec)
Heartbeat CPU 0 instructions: 630000003 cycles: 642881897 heartbeat IPC: 3.996 cumulative IPC: 0.9206 (Simulation time: 02 hr 33 min 35 sec)
Heartbeat CPU 0 instructions: 640000003 cycles: 645385235 heartbeat IPC: 3.995 cumulative IPC: 0.9328 (Simulation time: 02 hr 34 min 32 sec)
Heartbeat CPU 0 instructions: 650000000 cycles: 647887633 heartbeat IPC: 3.996 cumulative IPC: 0.9449 (Simulation time: 02 hr 35 min 32 sec)
Simulation finished CPU 0 instructions: 600000002 cycles: 635006591 cumulative IPC: 0.9449 (Simulation time: 02 hr 35 min 32 sec)
Simulation complete CPU 0 instructions: 600000002 cycles: 635006591 cumulative IPC: 0.9449 (Simulation time: 02 hr 35 min 32 sec)

ChampSim completed all CPUs

=== Simulation ===
CPU 0 runs traces/bt.A.champsimtrace
Region of Interest Statistics

CPU 0 cumulative IPC: 0.9449 instructions: 600000002 cycles: 635006591
CPU 0 Branch Prediction Accuracy: 99.29% MPKI: 0.1288 Average ROB Occupancy at Mispredict: 279.8
Branch type MPKI
BRANCH_DIRECT_JUMP: 5e-06
BRANCH_INDIRECT: 8.67e-05
BRANCH_CONDITIONAL: 0.129
BRANCH_DIRECT_CALL: 6.67e-06
BRANCH_INDIRECT_CALL: 3.83e-05
BRANCH_RETURN: 2.17e-05

LLC TOTAL        ACCESS:    7362184 HIT:    3115964 MISS:    4246220
LLC LOAD         ACCESS:    2240472 HIT:    1132204 MISS:    1108268
LLC RFO          ACCESS:     889337 HIT:      13840 MISS:     875497
LLC PREFETCH     ACCESS:    2240502 HIT:     491519 MISS:    1748983
LLC WRITE        ACCESS:    1988500 HIT:    1478107 MISS:     510393
LLC TRANSLATION  ACCESS:       3373 HIT:        294 MISS:       3079
LLC PREFETCH REQUESTED:    2240622 ISSUED:    2240502 USEFUL:    1462399 USELESS:      23395
LLC AVERAGE MISS LATENCY: 1101 cycles
cpu0_DTLB TOTAL        ACCESS:  128382455 HIT:  127627676 MISS:     754779
cpu0_DTLB LOAD         ACCESS:  128382455 HIT:  127627676 MISS:     754779
cpu0_DTLB RFO          ACCESS:          0 HIT:          0 MISS:          0
cpu0_DTLB PREFETCH     ACCESS:          0 HIT:          0 MISS:          0
cpu0_DTLB WRITE        ACCESS:          0 HIT:          0 MISS:          0
cpu0_DTLB TRANSLATION  ACCESS:          0 HIT:          0 MISS:          0
cpu0_DTLB PREFETCH REQUESTED:          0 ISSUED:          0 USEFUL:          0 USELESS:          0
cpu0_DTLB AVERAGE MISS LATENCY: 18.46 cycles
cpu0_ITLB TOTAL        ACCESS:     141376 HIT:     141112 MISS:        264
cpu0_ITLB LOAD         ACCESS:     141376 HIT:     141112 MISS:        264
cpu0_ITLB RFO          ACCESS:          0 HIT:          0 MISS:          0
cpu0_ITLB PREFETCH     ACCESS:          0 HIT:          0 MISS:          0
cpu0_ITLB WRITE        ACCESS:          0 HIT:          0 MISS:          0
cpu0_ITLB TRANSLATION  ACCESS:          0 HIT:          0 MISS:          0
cpu0_ITLB PREFETCH REQUESTED:          0 ISSUED:          0 USEFUL:          0 USELESS:          0
cpu0_ITLB AVERAGE MISS LATENCY: 332.7 cycles
cpu0_L1D TOTAL        ACCESS:  196801571 HIT:  183324308 MISS:   13477263
cpu0_L1D LOAD         ACCESS:  162119362 HIT:  152758491 MISS:    9360871
cpu0_L1D RFO          ACCESS:          0 HIT:          0 MISS:          0
cpu0_L1D PREFETCH     ACCESS:          0 HIT:          0 MISS:          0
cpu0_L1D WRITE        ACCESS:   34635443 HIT:   30536084 MISS:    4099359
cpu0_L1D TRANSLATION  ACCESS:      46766 HIT:      29733 MISS:      17033
cpu0_L1D PREFETCH REQUESTED:          0 ISSUED:          0 USEFUL:          0 USELESS:          0
cpu0_L1D AVERAGE MISS LATENCY: 167.8 cycles
cpu0_L1I TOTAL        ACCESS:     190694 HIT:     187912 MISS:       2782
cpu0_L1I LOAD         ACCESS:     190694 HIT:     187912 MISS:       2782
cpu0_L1I RFO          ACCESS:          0 HIT:          0 MISS:          0
cpu0_L1I PREFETCH     ACCESS:          0 HIT:          0 MISS:          0
cpu0_L1I WRITE        ACCESS:          0 HIT:          0 MISS:          0
cpu0_L1I TRANSLATION  ACCESS:          0 HIT:          0 MISS:          0
cpu0_L1I PREFETCH REQUESTED:          0 ISSUED:          0 USEFUL:          0 USELESS:          0
cpu0_L1I AVERAGE MISS LATENCY: 562.1 cycles
cpu0_L2C TOTAL        ACCESS:    5268483 HIT:    2134888 MISS:    3133595
cpu0_L2C LOAD         ACCESS:    2360999 HIT:     120487 MISS:    2240512
cpu0_L2C RFO          ACCESS:     890699 HIT:       1362 MISS:     889337
cpu0_L2C PREFETCH     ACCESS:          0 HIT:          0 MISS:          0
cpu0_L2C WRITE        ACCESS:    1999754 HIT:    1999381 MISS:        373
cpu0_L2C TRANSLATION  ACCESS:      17031 HIT:      13658 MISS:       3373
cpu0_L2C PREFETCH REQUESTED:          0 ISSUED:          0 USEFUL:          0 USELESS:          0
cpu0_L2C AVERAGE MISS LATENCY: 934.4 cycles
cpu0_STLB TOTAL        ACCESS:     310459 HIT:     263712 MISS:      46747
cpu0_STLB LOAD         ACCESS:     310459 HIT:     263712 MISS:      46747
cpu0_STLB RFO          ACCESS:          0 HIT:          0 MISS:          0
cpu0_STLB PREFETCH     ACCESS:          0 HIT:          0 MISS:          0
cpu0_STLB WRITE        ACCESS:          0 HIT:          0 MISS:          0
cpu0_STLB TRANSLATION  ACCESS:          0 HIT:          0 MISS:          0
cpu0_STLB PREFETCH REQUESTED:          0 ISSUED:          0 USEFUL:          0 USELESS:          0
cpu0_STLB AVERAGE MISS LATENCY: 403.1 cycles

DRAM Statistics

Channel 0 RQ ROW_BUFFER_HIT:     736790
  ROW_BUFFER_MISS:    1925611
 AVG DBUS CONGESTED CYCLE: 3.981
WQ ROW_BUFFER_HIT: Channel 0 
  ROW_BUFFER_MISS:     271227
  FULL:    1508117
