WARNING: physical memory size is smaller than virtual memory size.

*** ChampSim Multicore Out-of-Order Simulator ***
Warmup Instructions: 50000000
Simulation Instructions: 600000000
Number of CPUs: 1
Page size: 4096

Off-chip DRAM Size: 4 GiB Channels: 1 Width: 64-bit Data Race: 3200 MT/s
Heartbeat CPU 0 instructions: 10000000 cycles: 2881040 heartbeat IPC: 3.471 cumulative IPC: 3.471 (Simulation time: 00 hr 00 min 38 sec)
Heartbeat CPU 0 instructions: 20000000 cycles: 5381040 heartbeat IPC: 4 cumulative IPC: 3.717 (Simulation time: 00 hr 01 min 12 sec)
Heartbeat CPU 0 instructions: 30000000 cycles: 7881040 heartbeat IPC: 4 cumulative IPC: 3.807 (Simulation time: 00 hr 01 min 45 sec)
Heartbeat CPU 0 instructions: 40000000 cycles: 10381040 heartbeat IPC: 4 cumulative IPC: 3.853 (Simulation time: 00 hr 02 min 18 sec)
Heartbeat CPU 0 instructions: 50000000 cycles: 12881040 heartbeat IPC: 4 cumulative IPC: 3.882 (Simulation time: 00 hr 02 min 51 sec)
Warmup finished CPU 0 instructions: 50000000 cycles: 12881041 cumulative IPC: 3.882 (Simulation time: 00 hr 02 min 51 sec)
Warmup complete CPU 0 instructions: 50000000 cycles: 12881041 cumulative IPC: 3.882 (Simulation time: 00 hr 02 min 51 sec)
Heartbeat CPU 0 instructions: 60000004 cycles: 15383362 heartbeat IPC: 3.996 cumulative IPC: 3.996 (Simulation time: 00 hr 03 min 29 sec)
Heartbeat CPU 0 instructions: 70000002 cycles: 17885680 heartbeat IPC: 3.996 cumulative IPC: 3.996 (Simulation time: 00 hr 04 min 07 sec)
Heartbeat CPU 0 instructions: 80000002 cycles: 20387996 heartbeat IPC: 3.996 cumulative IPC: 3.996 (Simulation time: 00 hr 04 min 47 sec)
Heartbeat CPU 0 instructions: 90000004 cycles: 22890374 heartbeat IPC: 3.996 cumulative IPC: 3.996 (Simulation time: 00 hr 05 min 27 sec)
Heartbeat CPU 0 instructions: 100000000 cycles: 25392779 heartbeat IPC: 3.996 cumulative IPC: 3.996 (Simulation time: 00 hr 06 min 08 sec)
Heartbeat CPU 0 instructions: 110000002 cycles: 27895500 heartbeat IPC: 3.996 cumulative IPC: 3.996 (Simulation time: 00 hr 06 min 50 sec)
Heartbeat CPU 0 instructions: 120000000 cycles: 30398882 heartbeat IPC: 3.995 cumulative IPC: 3.996 (Simulation time: 00 hr 07 min 29 sec)
Heartbeat CPU 0 instructions: 130000002 cycles: 32902510 heartbeat IPC: 3.994 cumulative IPC: 3.996 (Simulation time: 00 hr 08 min 07 sec)
Heartbeat CPU 0 instructions: 140000004 cycles: 35405137 heartbeat IPC: 3.996 cumulative IPC: 3.996 (Simulation time: 00 hr 08 min 46 sec)
Heartbeat CPU 0 instructions: 150000000 cycles: 37908259 heartbeat IPC: 3.995 cumulative IPC: 3.996 (Simulation time: 00 hr 09 min 25 sec)
Heartbeat CPU 0 instructions: 160000003 cycles: 40410950 heartbeat IPC: 3.996 cumulative IPC: 3.996 (Simulation time: 00 hr 10 min 04 sec)
Heartbeat CPU 0 instructions: 170000002 cycles: 42914883 heartbeat IPC: 3.994 cumulative IPC: 3.995 (Simulation time: 00 hr 10 min 43 sec)
Heartbeat CPU 0 instructions: 180000000 cycles: 45418357 heartbeat IPC: 3.994 cumulative IPC: 3.995 (Simulation time: 00 hr 11 min 21 sec)
Heartbeat CPU 0 instructions: 190000003 cycles: 47920836 heartbeat IPC: 3.996 cumulative IPC: 3.995 (Simulation time: 00 hr 12 min 00 sec)
Heartbeat CPU 0 instructions: 200000000 cycles: 50423415 heartbeat IPC: 3.996 cumulative IPC: 3.995 (Simulation time: 00 hr 12 min 39 sec)
Heartbeat CPU 0 instructions: 210000000 cycles: 52927403 heartbeat IPC: 3.994 cumulative IPC: 3.995 (Simulation time: 00 hr 13 min 17 sec)
Heartbeat CPU 0 instructions: 220000003 cycles: 55430813 heartbeat IPC: 3.995 cumulative IPC: 3.995 (Simulation time: 00 hr 13 min 57 sec)
Heartbeat CPU 0 instructions: 230000001 cycles: 88815014 heartbeat IPC: 0.2995 cumulative IPC: 2.37 (Simulation time: 00 hr 17 min 37 sec)
Heartbeat CPU 0 instructions: 240000002 cycles: 93094626 heartbeat IPC: 2.337 cumulative IPC: 2.369 (Simulation time: 00 hr 18 min 36 sec)
Heartbeat CPU 0 instructions: 250000000 cycles: 97442366 heartbeat IPC: 2.3 cumulative IPC: 2.365 (Simulation time: 00 hr 19 min 32 sec)
Heartbeat CPU 0 instructions: 260000004 cycles: 101752369 heartbeat IPC: 2.32 cumulative IPC: 2.363 (Simulation time: 00 hr 20 min 28 sec)
Heartbeat CPU 0 instructions: 270000003 cycles: 106095357 heartbeat IPC: 2.303 cumulative IPC: 2.36 (Simulation time: 00 hr 21 min 24 sec)
Heartbeat CPU 0 instructions: 280000001 cycles: 110432953 heartbeat IPC: 2.305 cumulative IPC: 2.358 (Simulation time: 00 hr 22 min 22 sec)
Heartbeat CPU 0 instructions: 290000000 cycles: 114739265 heartbeat IPC: 2.322 cumulative IPC: 2.356 (Simulation time: 00 hr 23 min 17 sec)
Heartbeat CPU 0 instructions: 300000003 cycles: 119060293 heartbeat IPC: 2.314 cumulative IPC: 2.355 (Simulation time: 00 hr 24 min 12 sec)
Heartbeat CPU 0 instructions: 310000002 cycles: 123376363 heartbeat IPC: 2.317 cumulative IPC: 2.353 (Simulation time: 00 hr 25 min 10 sec)
Heartbeat CPU 0 instructions: 320000004 cycles: 127667404 heartbeat IPC: 2.33 cumulative IPC: 2.352 (Simulation time: 00 hr 26 min 05 sec)
Heartbeat CPU 0 instructions: 330000002 cycles: 131864123 heartbeat IPC: 2.383 cumulative IPC: 2.353 (Simulation time: 00 hr 26 min 59 sec)
Heartbeat CPU 0 instructions: 340000002 cycles: 135218971 heartbeat IPC: 2.981 cumulative IPC: 2.37 (Simulation time: 00 hr 27 min 45 sec)
Heartbeat CPU 0 instructions: 350000002 cycles: 138595544 heartbeat IPC: 2.962 cumulative IPC: 2.386 (Simulation time: 00 hr 28 min 32 sec)
Heartbeat CPU 0 instructions: 360000000 cycles: 142058079 heartbeat IPC: 2.888 cumulative IPC: 2.4 (Simulation time: 00 hr 29 min 20 sec)
Heartbeat CPU 0 instructions: 370000001 cycles: 145410131 heartbeat IPC: 2.983 cumulative IPC: 2.415 (Simulation time: 00 hr 30 min 08 sec)
Heartbeat CPU 0 instructions: 380000003 cycles: 148692857 heartbeat IPC: 3.046 cumulative IPC: 2.43 (Simulation time: 00 hr 30 min 55 sec)
Heartbeat CPU 0 instructions: 390000002 cycles: 151886674 heartbeat IPC: 3.131 cumulative IPC: 2.446 (Simulation time: 00 hr 31 min 41 sec)
Heartbeat CPU 0 instructions: 400000000 cycles: 155271481 heartbeat IPC: 2.954 cumulative IPC: 2.458 (Simulation time: 00 hr 32 min 28 sec)
Heartbeat CPU 0 instructions: 410000002 cycles: 158481476 heartbeat IPC: 3.115 cumulative IPC: 2.473 (Simulation time: 00 hr 33 min 13 sec)
Heartbeat CPU 0 instructions: 420000000 cycles: 161797313 heartbeat IPC: 3.016 cumulative IPC: 2.485 (Simulation time: 00 hr 33 min 59 sec)
Heartbeat CPU 0 instructions: 430000002 cycles: 165160828 heartbeat IPC: 2.973 cumulative IPC: 2.495 (Simulation time: 00 hr 34 min 46 sec)
Heartbeat CPU 0 instructions: 440000002 cycles: 168703766 heartbeat IPC: 2.823 cumulative IPC: 2.503 (Simulation time: 00 hr 35 min 35 sec)
Heartbeat CPU 0 instructions: 450000000 cycles: 172167622 heartbeat IPC: 2.887 cumulative IPC: 2.511 (Simulation time: 00 hr 36 min 23 sec)
Heartbeat CPU 0 instructions: 460000003 cycles: 175539479 heartbeat IPC: 2.966 cumulative IPC: 2.521 (Simulation time: 00 hr 37 min 10 sec)
Heartbeat CPU 0 instructions: 470000004 cycles: 179238840 heartbeat IPC: 2.703 cumulative IPC: 2.525 (Simulation time: 00 hr 38 min 00 sec)
Heartbeat CPU 0 instructions: 480000000 cycles: 182930910 heartbeat IPC: 2.709 cumulative IPC: 2.529 (Simulation time: 00 hr 38 min 49 sec)
Heartbeat CPU 0 instructions: 490000001 cycles: 186533937 heartbeat IPC: 2.775 cumulative IPC: 2.534 (Simulation time: 00 hr 39 min 38 sec)
Heartbeat CPU 0 instructions: 500000000 cycles: 190113313 heartbeat IPC: 2.794 cumulative IPC: 2.539 (Simulation time: 00 hr 40 min 25 sec)
Heartbeat CPU 0 instructions: 510000002 cycles: 193520111 heartbeat IPC: 2.935 cumulative IPC: 2.547 (Simulation time: 00 hr 41 min 12 sec)
Heartbeat CPU 0 instructions: 520000000 cycles: 249460240 heartbeat IPC: 0.1788 cumulative IPC: 1.987 (Simulation time: 00 hr 48 min 54 sec)
Heartbeat CPU 0 instructions: 530000000 cycles: 368707948 heartbeat IPC: 0.08386 cumulative IPC: 1.349 (Simulation time: 01 hr 04 min 56 sec)
Heartbeat CPU 0 instructions: 540000001 cycles: 392794679 heartbeat IPC: 0.4152 cumulative IPC: 1.29 (Simulation time: 01 hr 08 min 30 sec)
Heartbeat CPU 0 instructions: 550000003 cycles: 425664678 heartbeat IPC: 0.3042 cumulative IPC: 1.211 (Simulation time: 01 hr 13 min 18 sec)
Heartbeat CPU 0 instructions: 560000004 cycles: 462040368 heartbeat IPC: 0.2749 cumulative IPC: 1.135 (Simulation time: 01 hr 18 min 33 sec)
Heartbeat CPU 0 instructions: 570000001 cycles: 498368348 heartbeat IPC: 0.2753 cumulative IPC: 1.071 (Simulation time: 01 hr 23 min 49 sec)
Heartbeat CPU 0 instructions: 580000002 cycles: 523918508 heartbeat IPC: 0.3914 cumulative IPC: 1.037 (Simulation time: 01 hr 27 min 39 sec)
Heartbeat CPU 0 instructions: 590000001 cycles: 550456452 heartbeat IPC: 0.3768 cumulative IPC: 1.005 (Simulation time: 01 hr 31 min 34 sec)
*** Reached end of trace: (0, "traces/bt.A.champsimtrace")
Heartbeat CPU 0 instructions: 600000002 cycles: 587467733 heartbeat IPC: 0.2702 cumulative IPC: 0.9572 (Simulation time: 01 hr 36 min 55 sec)
Heartbeat CPU 0 instructions: 610000004 cycles: 607981526 heartbeat IPC: 0.4875 cumulative IPC: 0.941 (Simulation time: 01 hr 39 min 17 sec)
Heartbeat CPU 0 instructions: 620000000 cycles: 610483856 heartbeat IPC: 3.996 cumulative IPC: 0.9538 (Simulation time: 01 hr 39 min 57 sec)
Heartbeat CPU 0 instructions: 630000002 cycles: 612986174 heartbeat IPC: 3.996 cumulative IPC: 0.9665 (Simulation time: 01 hr 40 min 38 sec)
Heartbeat CPU 0 instructions: 640000000 cycles: 615488492 heartbeat IPC: 3.996 cumulative IPC: 0.9791 (Simulation time: 01 hr 41 min 18 sec)
Heartbeat CPU 0 instructions: 650000002 cycles: 617990799 heartbeat IPC: 3.996 cumulative IPC: 0.9916 (Simulation time: 01 hr 41 min 59 sec)
Simulation finished CPU 0 instructions: 600000002 cycles: 605109759 cumulative IPC: 0.9916 (Simulation time: 01 hr 41 min 59 sec)
Simulation complete CPU 0 instructions: 600000002 cycles: 605109759 cumulative IPC: 0.9916 (Simulation time: 01 hr 41 min 59 sec)

ChampSim completed all CPUs

=== Simulation ===
CPU 0 runs traces/bt.A.champsimtrace
Region of Interest Statistics

CPU 0 cumulative IPC: 0.9916 instructions: 600000002 cycles: 605109759
CPU 0 Branch Prediction Accuracy: 99.29% MPKI: 0.1288 Average ROB Occupancy at Mispredict: 279.6
Branch type MPKI
BRANCH_DIRECT_JUMP: 5e-06
BRANCH_INDIRECT: 7.83e-05
BRANCH_CONDITIONAL: 0.129
BRANCH_DIRECT_CALL: 6.67e-06
BRANCH_INDIRECT_CALL: 3.67e-05
BRANCH_RETURN: 2.33e-05

LLC TOTAL        ACCESS:    7361325 HIT:    2729563 MISS:    4631762
LLC LOAD         ACCESS:    2240074 HIT:    1148890 MISS:    1091184
LLC RFO          ACCESS:     889446 HIT:     116921 MISS:     772525
LLC PREFETCH     ACCESS:    2240145 HIT:     496901 MISS:    1743244
LLC WRITE        ACCESS:    1988288 HIT:     966298 MISS:    1021990
LLC TRANSLATION  ACCESS:       3372 HIT:        553 MISS:       2819
LLC PREFETCH REQUESTED:    2241923 ISSUED:    2240145 USEFUL:    1377431 USELESS:      35157
LLC AVERAGE MISS LATENCY: 890.7 cycles
cpu0_DTLB TOTAL        ACCESS:  128040433 HIT:  127283036 MISS:     757397
cpu0_DTLB LOAD         ACCESS:  128040433 HIT:  127283036 MISS:     757397
cpu0_DTLB RFO          ACCESS:          0 HIT:          0 MISS:          0
cpu0_DTLB PREFETCH     ACCESS:          0 HIT:          0 MISS:          0
cpu0_DTLB WRITE        ACCESS:          0 HIT:          0 MISS:          0
cpu0_DTLB TRANSLATION  ACCESS:          0 HIT:          0 MISS:          0
cpu0_DTLB PREFETCH REQUESTED:          0 ISSUED:          0 USEFUL:          0 USELESS:          0
cpu0_DTLB AVERAGE MISS LATENCY: 16.44 cycles
cpu0_ITLB TOTAL        ACCESS:     142509 HIT:     142257 MISS:        252
cpu0_ITLB LOAD         ACCESS:     142509 HIT:     142257 MISS:        252
cpu0_ITLB RFO          ACCESS:          0 HIT:          0 MISS:          0
cpu0_ITLB PREFETCH     ACCESS:          0 HIT:          0 MISS:          0
cpu0_ITLB WRITE        ACCESS:          0 HIT:          0 MISS:          0
cpu0_ITLB TRANSLATION  ACCESS:          0 HIT:          0 MISS:          0
cpu0_ITLB PREFETCH REQUESTED:          0 ISSUED:          0 USEFUL:          0 USELESS:          0
cpu0_ITLB AVERAGE MISS LATENCY: 353.2 cycles
cpu0_L1D TOTAL        ACCESS:  196219298 HIT:  183091714 MISS:   13127584
cpu0_L1D LOAD         ACCESS:  161537114 HIT:  152464973 MISS:    9072141
cpu0_L1D RFO          ACCESS:          0 HIT:          0 MISS:          0
cpu0_L1D PREFETCH     ACCESS:          0 HIT:          0 MISS:          0
cpu0_L1D WRITE        ACCESS:   34635409 HIT:   30597037 MISS:    4038372
cpu0_L1D TRANSLATION  ACCESS:      46775 HIT:      29704 MISS:      17071
cpu0_L1D PREFETCH REQUESTED:          0 ISSUED:          0 USEFUL:          0 USELESS:          0
cpu0_L1D AVERAGE MISS LATENCY: 152.8 cycles
cpu0_L1I TOTAL        ACCESS:     192006 HIT:     189268 MISS:       2738
cpu0_L1I LOAD         ACCESS:     192006 HIT:     189268 MISS:       2738
cpu0_L1I RFO          ACCESS:          0 HIT:          0 MISS:          0
cpu0_L1I PREFETCH     ACCESS:          0 HIT:          0 MISS:          0
cpu0_L1I WRITE        ACCESS:          0 HIT:          0 MISS:          0
cpu0_L1I TRANSLATION  ACCESS:          0 HIT:          0 MISS:          0
cpu0_L1I PREFETCH REQUESTED:          0 ISSUED:          0 USEFUL:          0 USELESS:          0
cpu0_L1I AVERAGE MISS LATENCY: 556.5 cycles
cpu0_L2C TOTAL        ACCESS:    5263875 HIT:    2130511 MISS:    3133364
cpu0_L2C LOAD         ACCESS:    2357749 HIT:     117659 MISS:    2240090
cpu0_L2C RFO          ACCESS:     889975 HIT:        529 MISS:     889446
cpu0_L2C PREFETCH     ACCESS:          0 HIT:          0 MISS:          0
cpu0_L2C WRITE        ACCESS:    1999083 HIT:    1998627 MISS:        456
cpu0_L2C TRANSLATION  ACCESS:      17068 HIT:      13696 MISS:       3372
cpu0_L2C PREFETCH REQUESTED:          0 ISSUED:          0 USEFUL:          0 USELESS:          0
cpu0_L2C AVERAGE MISS LATENCY: 833.4 cycles
cpu0_STLB TOTAL        ACCESS:     311014 HIT:     264262 MISS:      46752
cpu0_STLB LOAD         ACCESS:     311014 HIT:     264262 MISS:      46752
cpu0_STLB RFO          ACCESS:          0 HIT:          0 MISS:          0
cpu0_STLB PREFETCH     ACCESS:          0 HIT:          0 MISS:          0
cpu0_STLB WRITE        ACCESS:          0 HIT:          0 MISS:          0
cpu0_STLB TRANSLATION  ACCESS:          0 HIT:          0 MISS:          0
cpu0_STLB PREFETCH REQUESTED:          0 ISSUED:          0 USEFUL:          0 USELESS:          0
cpu0_STLB AVERAGE MISS LATENCY: 366 cycles

DRAM Statistics

Channel 0 RQ ROW_BUFFER_HIT:     785569
  ROW_BUFFER_MISS:    1769970
 AVG DBUS CONGESTED CYCLE: 3.972
WQ ROW_BUFFER_HIT: Channel 0 
  ROW_BUFFER_MISS:     622587
  FULL:    1162065
