WARNING: physical memory size is smaller than virtual memory size.

*** ChampSim Multicore Out-of-Order Simulator ***
Warmup Instructions: 50000000
Simulation Instructions: 600000000
Number of CPUs: 1
Page size: 4096

CPU 0 Tage branch predictor
Off-chip DRAM Size: 4 GiB Channels: 1 Width: 64-bit Data Race: 3200 MT/s
Heartbeat CPU 0 instructions: 10000002 cycles: 2881030 heartbeat IPC: 3.471 cumulative IPC: 3.471 (Simulation time: 00 hr 00 min 59 sec)
Heartbeat CPU 0 instructions: 20000002 cycles: 5381030 heartbeat IPC: 4 cumulative IPC: 3.717 (Simulation time: 00 hr 01 min 54 sec)
Heartbeat CPU 0 instructions: 30000002 cycles: 7881030 heartbeat IPC: 4 cumulative IPC: 3.807 (Simulation time: 00 hr 02 min 49 sec)
Heartbeat CPU 0 instructions: 40000002 cycles: 10381030 heartbeat IPC: 4 cumulative IPC: 3.853 (Simulation time: 00 hr 03 min 44 sec)
Heartbeat CPU 0 instructions: 50000002 cycles: 12881030 heartbeat IPC: 4 cumulative IPC: 3.882 (Simulation time: 00 hr 04 min 40 sec)
Warmup finished CPU 0 instructions: 50000002 cycles: 12881031 cumulative IPC: 3.882 (Simulation time: 00 hr 04 min 40 sec)
Warmup complete CPU 0 instructions: 50000002 cycles: 12881031 cumulative IPC: 3.882 (Simulation time: 00 hr 04 min 40 sec)
Heartbeat CPU 0 instructions: 60000004 cycles: 15382401 heartbeat IPC: 3.998 cumulative IPC: 3.998 (Simulation time: 00 hr 05 min 43 sec)
Heartbeat CPU 0 instructions: 70000000 cycles: 17883625 heartbeat IPC: 3.998 cumulative IPC: 3.998 (Simulation time: 00 hr 06 min 45 sec)
Heartbeat CPU 0 instructions: 80000002 cycles: 20385573 heartbeat IPC: 3.997 cumulative IPC: 3.998 (Simulation time: 00 hr 07 min 48 sec)
Heartbeat CPU 0 instructions: 90000004 cycles: 22888131 heartbeat IPC: 3.996 cumulative IPC: 3.997 (Simulation time: 00 hr 08 min 51 sec)
Heartbeat CPU 0 instructions: 100000004 cycles: 25390029 heartbeat IPC: 3.997 cumulative IPC: 3.997 (Simulation time: 00 hr 09 min 53 sec)
Heartbeat CPU 0 instructions: 110000000 cycles: 27890889 heartbeat IPC: 3.999 cumulative IPC: 3.997 (Simulation time: 00 hr 10 min 56 sec)
Heartbeat CPU 0 instructions: 120000003 cycles: 30391229 heartbeat IPC: 3.999 cumulative IPC: 3.998 (Simulation time: 00 hr 11 min 59 sec)
Heartbeat CPU 0 instructions: 130000000 cycles: 32894540 heartbeat IPC: 3.995 cumulative IPC: 3.997 (Simulation time: 00 hr 13 min 01 sec)
Heartbeat CPU 0 instructions: 140000001 cycles: 35396736 heartbeat IPC: 3.996 cumulative IPC: 3.997 (Simulation time: 00 hr 14 min 04 sec)
Heartbeat CPU 0 instructions: 150000000 cycles: 37897907 heartbeat IPC: 3.998 cumulative IPC: 3.997 (Simulation time: 00 hr 15 min 06 sec)
Heartbeat CPU 0 instructions: 160000001 cycles: 40400760 heartbeat IPC: 3.995 cumulative IPC: 3.997 (Simulation time: 00 hr 16 min 08 sec)
Heartbeat CPU 0 instructions: 170000002 cycles: 42902902 heartbeat IPC: 3.997 cumulative IPC: 3.997 (Simulation time: 00 hr 17 min 09 sec)
Heartbeat CPU 0 instructions: 180000001 cycles: 45403576 heartbeat IPC: 3.999 cumulative IPC: 3.997 (Simulation time: 00 hr 18 min 12 sec)
Heartbeat CPU 0 instructions: 190000004 cycles: 47903621 heartbeat IPC: 4 cumulative IPC: 3.997 (Simulation time: 00 hr 19 min 16 sec)
Heartbeat CPU 0 instructions: 200000000 cycles: 50404419 heartbeat IPC: 3.999 cumulative IPC: 3.998 (Simulation time: 00 hr 20 min 18 sec)
Heartbeat CPU 0 instructions: 210000000 cycles: 52904887 heartbeat IPC: 3.999 cumulative IPC: 3.998 (Simulation time: 00 hr 21 min 20 sec)
Heartbeat CPU 0 instructions: 220000000 cycles: 55407233 heartbeat IPC: 3.996 cumulative IPC: 3.998 (Simulation time: 00 hr 22 min 23 sec)
Heartbeat CPU 0 instructions: 230000004 cycles: 89230968 heartbeat IPC: 0.2957 cumulative IPC: 2.358 (Simulation time: 00 hr 28 min 23 sec)
Heartbeat CPU 0 instructions: 240000001 cycles: 92575503 heartbeat IPC: 2.99 cumulative IPC: 2.384 (Simulation time: 00 hr 29 min 40 sec)
Heartbeat CPU 0 instructions: 250000000 cycles: 95932803 heartbeat IPC: 2.979 cumulative IPC: 2.408 (Simulation time: 00 hr 31 min 08 sec)
Heartbeat CPU 0 instructions: 260000004 cycles: 99331025 heartbeat IPC: 2.943 cumulative IPC: 2.429 (Simulation time: 00 hr 32 min 24 sec)
Heartbeat CPU 0 instructions: 270000000 cycles: 102697143 heartbeat IPC: 2.971 cumulative IPC: 2.449 (Simulation time: 00 hr 33 min 39 sec)
Heartbeat CPU 0 instructions: 280000001 cycles: 106092567 heartbeat IPC: 2.945 cumulative IPC: 2.468 (Simulation time: 00 hr 34 min 54 sec)
Heartbeat CPU 0 instructions: 290000000 cycles: 109456324 heartbeat IPC: 2.973 cumulative IPC: 2.485 (Simulation time: 00 hr 36 min 10 sec)
Heartbeat CPU 0 instructions: 300000003 cycles: 112811060 heartbeat IPC: 2.981 cumulative IPC: 2.502 (Simulation time: 00 hr 37 min 24 sec)
Heartbeat CPU 0 instructions: 310000000 cycles: 116191130 heartbeat IPC: 2.959 cumulative IPC: 2.517 (Simulation time: 00 hr 38 min 39 sec)
Heartbeat CPU 0 instructions: 320000001 cycles: 119561396 heartbeat IPC: 2.967 cumulative IPC: 2.531 (Simulation time: 00 hr 39 min 54 sec)
Heartbeat CPU 0 instructions: 330000000 cycles: 125081800 heartbeat IPC: 1.811 cumulative IPC: 2.496 (Simulation time: 00 hr 41 min 34 sec)
Heartbeat CPU 0 instructions: 340000003 cycles: 131865945 heartbeat IPC: 1.474 cumulative IPC: 2.437 (Simulation time: 00 hr 43 min 29 sec)
Heartbeat CPU 0 instructions: 350000000 cycles: 138574166 heartbeat IPC: 1.491 cumulative IPC: 2.387 (Simulation time: 00 hr 45 min 25 sec)
Heartbeat CPU 0 instructions: 360000001 cycles: 145376454 heartbeat IPC: 1.47 cumulative IPC: 2.34 (Simulation time: 00 hr 47 min 21 sec)
Heartbeat CPU 0 instructions: 370000004 cycles: 152100178 heartbeat IPC: 1.487 cumulative IPC: 2.299 (Simulation time: 00 hr 49 min 16 sec)
Heartbeat CPU 0 instructions: 380000003 cycles: 158913573 heartbeat IPC: 1.468 cumulative IPC: 2.26 (Simulation time: 00 hr 51 min 10 sec)
Heartbeat CPU 0 instructions: 390000000 cycles: 165654859 heartbeat IPC: 1.483 cumulative IPC: 2.226 (Simulation time: 00 hr 53 min 03 sec)
Heartbeat CPU 0 instructions: 400000001 cycles: 172501878 heartbeat IPC: 1.46 cumulative IPC: 2.193 (Simulation time: 00 hr 54 min 59 sec)
Heartbeat CPU 0 instructions: 410000004 cycles: 179269439 heartbeat IPC: 1.478 cumulative IPC: 2.164 (Simulation time: 00 hr 56 min 52 sec)
Heartbeat CPU 0 instructions: 420000004 cycles: 186025820 heartbeat IPC: 1.48 cumulative IPC: 2.137 (Simulation time: 00 hr 58 min 47 sec)
Heartbeat CPU 0 instructions: 430000004 cycles: 193105873 heartbeat IPC: 1.412 cumulative IPC: 2.108 (Simulation time: 01 hr 00 min 45 sec)
Heartbeat CPU 0 instructions: 440000004 cycles: 200383263 heartbeat IPC: 1.374 cumulative IPC: 2.08 (Simulation time: 01 hr 02 min 47 sec)
Heartbeat CPU 0 instructions: 450000000 cycles: 207674492 heartbeat IPC: 1.372 cumulative IPC: 2.053 (Simulation time: 01 hr 04 min 47 sec)
Heartbeat CPU 0 instructions: 460000001 cycles: 214970831 heartbeat IPC: 1.371 cumulative IPC: 2.029 (Simulation time: 01 hr 06 min 48 sec)
Heartbeat CPU 0 instructions: 470000000 cycles: 222455638 heartbeat IPC: 1.336 cumulative IPC: 2.004 (Simulation time: 01 hr 08 min 52 sec)
Heartbeat CPU 0 instructions: 480000003 cycles: 228817142 heartbeat IPC: 1.572 cumulative IPC: 1.991 (Simulation time: 01 hr 10 min 41 sec)
Heartbeat CPU 0 instructions: 490000004 cycles: 235801259 heartbeat IPC: 1.432 cumulative IPC: 1.974 (Simulation time: 01 hr 12 min 37 sec)
Heartbeat CPU 0 instructions: 500000002 cycles: 243123811 heartbeat IPC: 1.366 cumulative IPC: 1.954 (Simulation time: 01 hr 14 min 38 sec)
Heartbeat CPU 0 instructions: 510000003 cycles: 250458002 heartbeat IPC: 1.363 cumulative IPC: 1.936 (Simulation time: 01 hr 16 min 39 sec)
Heartbeat CPU 0 instructions: 520000001 cycles: 317618961 heartbeat IPC: 0.1489 cumulative IPC: 1.542 (Simulation time: 01 hr 30 min 17 sec)
Heartbeat CPU 0 instructions: 530000002 cycles: 442412532 heartbeat IPC: 0.08013 cumulative IPC: 1.117 (Simulation time: 01 hr 54 min 57 sec)
Heartbeat CPU 0 instructions: 540000004 cycles: 474765054 heartbeat IPC: 0.3091 cumulative IPC: 1.061 (Simulation time: 02 hr 01 min 48 sec)
Heartbeat CPU 0 instructions: 550000004 cycles: 507287219 heartbeat IPC: 0.3075 cumulative IPC: 1.011 (Simulation time: 02 hr 08 min 44 sec)
Heartbeat CPU 0 instructions: 560000000 cycles: 539628937 heartbeat IPC: 0.3092 cumulative IPC: 0.9682 (Simulation time: 02 hr 15 min 36 sec)
Heartbeat CPU 0 instructions: 570000002 cycles: 572034666 heartbeat IPC: 0.3086 cumulative IPC: 0.93 (Simulation time: 02 hr 22 min 28 sec)
Heartbeat CPU 0 instructions: 580000001 cycles: 602270022 heartbeat IPC: 0.3307 cumulative IPC: 0.8992 (Simulation time: 02 hr 28 min 57 sec)
Heartbeat CPU 0 instructions: 590000001 cycles: 634262057 heartbeat IPC: 0.3126 cumulative IPC: 0.869 (Simulation time: 02 hr 35 min 47 sec)
*** Reached end of trace: (0, "traces/bt.A.champsimtrace")
Heartbeat CPU 0 instructions: 600000000 cycles: 665481670 heartbeat IPC: 0.3203 cumulative IPC: 0.8428 (Simulation time: 02 hr 42 min 30 sec)
Heartbeat CPU 0 instructions: 610000004 cycles: 694183960 heartbeat IPC: 0.3484 cumulative IPC: 0.822 (Simulation time: 02 hr 47 min 28 sec)
Heartbeat CPU 0 instructions: 620000000 cycles: 696687195 heartbeat IPC: 3.995 cumulative IPC: 0.8336 (Simulation time: 02 hr 48 min 31 sec)
Heartbeat CPU 0 instructions: 630000003 cycles: 699188951 heartbeat IPC: 3.997 cumulative IPC: 0.8451 (Simulation time: 02 hr 49 min 33 sec)
Heartbeat CPU 0 instructions: 640000003 cycles: 701689245 heartbeat IPC: 4 cumulative IPC: 0.8566 (Simulation time: 02 hr 50 min 35 sec)
Heartbeat CPU 0 instructions: 650000003 cycles: 704189939 heartbeat IPC: 3.999 cumulative IPC: 0.8679 (Simulation time: 02 hr 51 min 38 sec)
Simulation finished CPU 0 instructions: 600000001 cycles: 691308909 cumulative IPC: 0.8679 (Simulation time: 02 hr 51 min 38 sec)
Simulation complete CPU 0 instructions: 600000001 cycles: 691308909 cumulative IPC: 0.8679 (Simulation time: 02 hr 51 min 38 sec)

ChampSim completed all CPUs

=== Simulation ===
CPU 0 runs traces/bt.A.champsimtrace
Region of Interest Statistics

CPU 0 cumulative IPC: 0.8679 instructions: 600000001 cycles: 691308909
CPU 0 Branch Prediction Accuracy: 99.98% MPKI: 0.004178 Average ROB Occupancy at Mispredict: 109.5
Branch type MPKI
BRANCH_DIRECT_JUMP: 5e-06
BRANCH_INDIRECT: 7.83e-05
BRANCH_CONDITIONAL: 0.00403
BRANCH_DIRECT_CALL: 6.67e-06
BRANCH_INDIRECT_CALL: 3.33e-05
BRANCH_RETURN: 2.33e-05

LLC TOTAL        ACCESS:    7746215 HIT:    2632973 MISS:    5113242
LLC LOAD         ACCESS:    2234940 HIT:    1173282 MISS:    1061658
LLC RFO          ACCESS:     889371 HIT:      13260 MISS:     876111
LLC PREFETCH     ACCESS:    2634656 HIT:    1344894 MISS:    1289762
LLC WRITE        ACCESS:    1983875 HIT:     101504 MISS:    1882371
LLC TRANSLATION  ACCESS:       3373 HIT:         33 MISS:       3340
LLC PREFETCH REQUESTED:    2634656 ISSUED:    2634656 USEFUL:    1022394 USELESS:      46264
LLC AVERAGE MISS LATENCY: 844.5 cycles
cpu0_DTLB TOTAL        ACCESS:  127111202 HIT:  126359479 MISS:     751723
cpu0_DTLB LOAD         ACCESS:  127111202 HIT:  126359479 MISS:     751723
cpu0_DTLB RFO          ACCESS:          0 HIT:          0 MISS:          0
cpu0_DTLB PREFETCH     ACCESS:          0 HIT:          0 MISS:          0
cpu0_DTLB WRITE        ACCESS:          0 HIT:          0 MISS:          0
cpu0_DTLB TRANSLATION  ACCESS:          0 HIT:          0 MISS:          0
cpu0_DTLB PREFETCH REQUESTED:          0 ISSUED:          0 USEFUL:          0 USELESS:          0
cpu0_DTLB AVERAGE MISS LATENCY: 15.37 cycles
cpu0_ITLB TOTAL        ACCESS:     172725 HIT:     172466 MISS:        259
cpu0_ITLB LOAD         ACCESS:     172725 HIT:     172466 MISS:        259
cpu0_ITLB RFO          ACCESS:          0 HIT:          0 MISS:          0
cpu0_ITLB PREFETCH     ACCESS:          0 HIT:          0 MISS:          0
cpu0_ITLB WRITE        ACCESS:          0 HIT:          0 MISS:          0
cpu0_ITLB TRANSLATION  ACCESS:          0 HIT:          0 MISS:          0
cpu0_ITLB PREFETCH REQUESTED:          0 ISSUED:          0 USEFUL:          0 USELESS:          0
cpu0_ITLB AVERAGE MISS LATENCY: 304.6 cycles
cpu0_L1D TOTAL        ACCESS:  194868204 HIT:  182005398 MISS:   12862806
cpu0_L1D LOAD         ACCESS:  160186025 HIT:  151574037 MISS:    8611988
cpu0_L1D RFO          ACCESS:          0 HIT:          0 MISS:          0
cpu0_L1D PREFETCH     ACCESS:          0 HIT:          0 MISS:          0
cpu0_L1D WRITE        ACCESS:   34635425 HIT:   30401665 MISS:    4233760
cpu0_L1D TRANSLATION  ACCESS:      46754 HIT:      29696 MISS:      17058
cpu0_L1D PREFETCH REQUESTED:          0 ISSUED:          0 USEFUL:          0 USELESS:          0
cpu0_L1D AVERAGE MISS LATENCY: 171.4 cycles
cpu0_L1I TOTAL        ACCESS:     205649 HIT:     202681 MISS:       2968
cpu0_L1I LOAD         ACCESS:     205649 HIT:     202681 MISS:       2968
cpu0_L1I RFO          ACCESS:          0 HIT:          0 MISS:          0
cpu0_L1I PREFETCH     ACCESS:          0 HIT:          0 MISS:          0
cpu0_L1I WRITE        ACCESS:          0 HIT:          0 MISS:          0
cpu0_L1I TRANSLATION  ACCESS:          0 HIT:          0 MISS:          0
cpu0_L1I PREFETCH REQUESTED:          0 ISSUED:          0 USEFUL:          0 USELESS:          0
cpu0_L1I AVERAGE MISS LATENCY: 511.6 cycles
cpu0_L2C TOTAL        ACCESS:    5258304 HIT:    2130288 MISS:    3128016
cpu0_L2C LOAD         ACCESS:    2349679 HIT:     114703 MISS:    2234976
cpu0_L2C RFO          ACCESS:     891563 HIT:       2192 MISS:     889371
cpu0_L2C PREFETCH     ACCESS:          0 HIT:          0 MISS:          0
cpu0_L2C WRITE        ACCESS:    2000007 HIT:    1999711 MISS:        296
cpu0_L2C TRANSLATION  ACCESS:      17055 HIT:      13682 MISS:       3373
cpu0_L2C PREFETCH REQUESTED:          0 ISSUED:          0 USEFUL:          0 USELESS:          0
cpu0_L2C AVERAGE MISS LATENCY: 872.2 cycles
cpu0_STLB TOTAL        ACCESS:     296184 HIT:     249452 MISS:      46732
cpu0_STLB LOAD         ACCESS:     296184 HIT:     249452 MISS:      46732
cpu0_STLB RFO          ACCESS:          0 HIT:          0 MISS:          0
cpu0_STLB PREFETCH     ACCESS:          0 HIT:          0 MISS:          0
cpu0_STLB WRITE        ACCESS:          0 HIT:          0 MISS:          0
cpu0_STLB TRANSLATION  ACCESS:          0 HIT:          0 MISS:          0
cpu0_STLB PREFETCH REQUESTED:          0 ISSUED:          0 USEFUL:          0 USELESS:          0
cpu0_STLB AVERAGE MISS LATENCY: 350.7 cycles

DRAM Statistics

Channel 0 RQ ROW_BUFFER_HIT:     983881
  ROW_BUFFER_MISS:    1947517
 AVG DBUS CONGESTED CYCLE: 3.96
WQ ROW_BUFFER_HIT: Channel 0 
  ROW_BUFFER_MISS:     650553
  FULL:    1304180
