WARNING: physical memory size is smaller than virtual memory size.

*** ChampSim Multicore Out-of-Order Simulator ***
Warmup Instructions: 50000000
Simulation Instructions: 600000000
Number of CPUs: 1
Page size: 4096

Off-chip DRAM Size: 4 GiB Channels: 1 Width: 64-bit Data Race: 3200 MT/s
Heartbeat CPU 0 instructions: 10000003 cycles: 2881043 heartbeat IPC: 3.471 cumulative IPC: 3.471 (Simulation time: 00 hr 00 min 20 sec)
Heartbeat CPU 0 instructions: 20000003 cycles: 5381043 heartbeat IPC: 4 cumulative IPC: 3.717 (Simulation time: 00 hr 00 min 40 sec)
Heartbeat CPU 0 instructions: 30000003 cycles: 7881043 heartbeat IPC: 4 cumulative IPC: 3.807 (Simulation time: 00 hr 01 min 02 sec)
Heartbeat CPU 0 instructions: 40000003 cycles: 10381043 heartbeat IPC: 4 cumulative IPC: 3.853 (Simulation time: 00 hr 01 min 36 sec)
Heartbeat CPU 0 instructions: 50000003 cycles: 12881043 heartbeat IPC: 4 cumulative IPC: 3.882 (Simulation time: 00 hr 02 min 18 sec)
Warmup finished CPU 0 instructions: 50000003 cycles: 12881044 cumulative IPC: 3.882 (Simulation time: 00 hr 02 min 18 sec)
Warmup complete CPU 0 instructions: 50000003 cycles: 12881044 cumulative IPC: 3.882 (Simulation time: 00 hr 02 min 18 sec)
Heartbeat CPU 0 instructions: 60000001 cycles: 15384489 heartbeat IPC: 3.994 cumulative IPC: 3.994 (Simulation time: 00 hr 03 min 19 sec)
Heartbeat CPU 0 instructions: 70000003 cycles: 17888698 heartbeat IPC: 3.993 cumulative IPC: 3.994 (Simulation time: 00 hr 04 min 24 sec)
Heartbeat CPU 0 instructions: 80000002 cycles: 20392014 heartbeat IPC: 3.995 cumulative IPC: 3.994 (Simulation time: 00 hr 05 min 29 sec)
Heartbeat CPU 0 instructions: 90000002 cycles: 22894514 heartbeat IPC: 3.996 cumulative IPC: 3.995 (Simulation time: 00 hr 06 min 44 sec)
Heartbeat CPU 0 instructions: 100000003 cycles: 25397380 heartbeat IPC: 3.995 cumulative IPC: 3.995 (Simulation time: 00 hr 07 min 55 sec)
Heartbeat CPU 0 instructions: 110000000 cycles: 27901527 heartbeat IPC: 3.993 cumulative IPC: 3.995 (Simulation time: 00 hr 09 min 03 sec)
Heartbeat CPU 0 instructions: 120000001 cycles: 30404070 heartbeat IPC: 3.996 cumulative IPC: 3.995 (Simulation time: 00 hr 10 min 10 sec)
Heartbeat CPU 0 instructions: 130000004 cycles: 32906478 heartbeat IPC: 3.996 cumulative IPC: 3.995 (Simulation time: 00 hr 11 min 14 sec)
Heartbeat CPU 0 instructions: 140000000 cycles: 35409830 heartbeat IPC: 3.995 cumulative IPC: 3.995 (Simulation time: 00 hr 12 min 10 sec)
Heartbeat CPU 0 instructions: 150000001 cycles: 37912756 heartbeat IPC: 3.995 cumulative IPC: 3.995 (Simulation time: 00 hr 13 min 09 sec)
Heartbeat CPU 0 instructions: 160000004 cycles: 40416569 heartbeat IPC: 3.994 cumulative IPC: 3.995 (Simulation time: 00 hr 14 min 16 sec)
Heartbeat CPU 0 instructions: 170000004 cycles: 42918991 heartbeat IPC: 3.996 cumulative IPC: 3.995 (Simulation time: 00 hr 15 min 23 sec)
Heartbeat CPU 0 instructions: 180000000 cycles: 45422149 heartbeat IPC: 3.995 cumulative IPC: 3.995 (Simulation time: 00 hr 16 min 19 sec)
Heartbeat CPU 0 instructions: 190000004 cycles: 47924502 heartbeat IPC: 3.996 cumulative IPC: 3.995 (Simulation time: 00 hr 17 min 21 sec)
Heartbeat CPU 0 instructions: 200000000 cycles: 50427631 heartbeat IPC: 3.995 cumulative IPC: 3.995 (Simulation time: 00 hr 18 min 22 sec)
Heartbeat CPU 0 instructions: 210000003 cycles: 52930039 heartbeat IPC: 3.996 cumulative IPC: 3.995 (Simulation time: 00 hr 19 min 13 sec)
Heartbeat CPU 0 instructions: 220000000 cycles: 55432752 heartbeat IPC: 3.996 cumulative IPC: 3.995 (Simulation time: 00 hr 20 min 05 sec)
Heartbeat CPU 0 instructions: 230000002 cycles: 89029857 heartbeat IPC: 0.2976 cumulative IPC: 2.364 (Simulation time: 00 hr 26 min 08 sec)
Heartbeat CPU 0 instructions: 240000000 cycles: 93404905 heartbeat IPC: 2.286 cumulative IPC: 2.36 (Simulation time: 00 hr 27 min 25 sec)
Heartbeat CPU 0 instructions: 250000004 cycles: 97778839 heartbeat IPC: 2.286 cumulative IPC: 2.356 (Simulation time: 00 hr 28 min 41 sec)
Heartbeat CPU 0 instructions: 260000004 cycles: 102190198 heartbeat IPC: 2.267 cumulative IPC: 2.351 (Simulation time: 00 hr 30 min 00 sec)
Heartbeat CPU 0 instructions: 270000001 cycles: 106589338 heartbeat IPC: 2.273 cumulative IPC: 2.348 (Simulation time: 00 hr 31 min 23 sec)
Heartbeat CPU 0 instructions: 280000002 cycles: 111079876 heartbeat IPC: 2.227 cumulative IPC: 2.342 (Simulation time: 00 hr 32 min 50 sec)
Heartbeat CPU 0 instructions: 290000002 cycles: 115496175 heartbeat IPC: 2.264 cumulative IPC: 2.339 (Simulation time: 00 hr 34 min 16 sec)
Heartbeat CPU 0 instructions: 300000002 cycles: 119953433 heartbeat IPC: 2.244 cumulative IPC: 2.335 (Simulation time: 00 hr 35 min 44 sec)
Heartbeat CPU 0 instructions: 310000004 cycles: 124376737 heartbeat IPC: 2.261 cumulative IPC: 2.332 (Simulation time: 00 hr 37 min 11 sec)
Heartbeat CPU 0 instructions: 320000004 cycles: 128857406 heartbeat IPC: 2.232 cumulative IPC: 2.328 (Simulation time: 00 hr 38 min 35 sec)
Heartbeat CPU 0 instructions: 330000000 cycles: 132923731 heartbeat IPC: 2.459 cumulative IPC: 2.333 (Simulation time: 00 hr 39 min 53 sec)
Heartbeat CPU 0 instructions: 340000004 cycles: 136411814 heartbeat IPC: 2.867 cumulative IPC: 2.348 (Simulation time: 00 hr 41 min 03 sec)
Heartbeat CPU 0 instructions: 350000002 cycles: 139945346 heartbeat IPC: 2.83 cumulative IPC: 2.361 (Simulation time: 00 hr 42 min 13 sec)
Heartbeat CPU 0 instructions: 360000002 cycles: 143560455 heartbeat IPC: 2.766 cumulative IPC: 2.372 (Simulation time: 00 hr 43 min 20 sec)
Heartbeat CPU 0 instructions: 370000004 cycles: 147122271 heartbeat IPC: 2.808 cumulative IPC: 2.384 (Simulation time: 00 hr 44 min 31 sec)
Heartbeat CPU 0 instructions: 380000004 cycles: 150699660 heartbeat IPC: 2.795 cumulative IPC: 2.394 (Simulation time: 00 hr 45 min 44 sec)
Heartbeat CPU 0 instructions: 390000004 cycles: 154303755 heartbeat IPC: 2.775 cumulative IPC: 2.404 (Simulation time: 00 hr 46 min 58 sec)
Heartbeat CPU 0 instructions: 400000004 cycles: 157883402 heartbeat IPC: 2.794 cumulative IPC: 2.414 (Simulation time: 00 hr 48 min 12 sec)
Heartbeat CPU 0 instructions: 410000000 cycles: 161422932 heartbeat IPC: 2.825 cumulative IPC: 2.424 (Simulation time: 00 hr 49 min 26 sec)
Heartbeat CPU 0 instructions: 420000001 cycles: 165136233 heartbeat IPC: 2.693 cumulative IPC: 2.43 (Simulation time: 00 hr 50 min 44 sec)
Heartbeat CPU 0 instructions: 430000004 cycles: 168637913 heartbeat IPC: 2.856 cumulative IPC: 2.44 (Simulation time: 00 hr 52 min 06 sec)
Heartbeat CPU 0 instructions: 440000002 cycles: 172408581 heartbeat IPC: 2.652 cumulative IPC: 2.445 (Simulation time: 00 hr 53 min 22 sec)
Heartbeat CPU 0 instructions: 450000002 cycles: 176156091 heartbeat IPC: 2.668 cumulative IPC: 2.45 (Simulation time: 00 hr 54 min 34 sec)
Heartbeat CPU 0 instructions: 460000002 cycles: 179985585 heartbeat IPC: 2.611 cumulative IPC: 2.454 (Simulation time: 00 hr 55 min 50 sec)
Heartbeat CPU 0 instructions: 470000004 cycles: 183817282 heartbeat IPC: 2.61 cumulative IPC: 2.457 (Simulation time: 00 hr 57 min 06 sec)
Heartbeat CPU 0 instructions: 480000001 cycles: 187686244 heartbeat IPC: 2.585 cumulative IPC: 2.46 (Simulation time: 00 hr 58 min 21 sec)
Heartbeat CPU 0 instructions: 490000003 cycles: 191493354 heartbeat IPC: 2.627 cumulative IPC: 2.463 (Simulation time: 00 hr 59 min 45 sec)
Heartbeat CPU 0 instructions: 500000002 cycles: 195339486 heartbeat IPC: 2.6 cumulative IPC: 2.466 (Simulation time: 01 hr 01 min 00 sec)
Heartbeat CPU 0 instructions: 510000002 cycles: 199129603 heartbeat IPC: 2.638 cumulative IPC: 2.47 (Simulation time: 01 hr 02 min 19 sec)
Heartbeat CPU 0 instructions: 520000001 cycles: 262555337 heartbeat IPC: 0.1577 cumulative IPC: 1.882 (Simulation time: 01 hr 14 min 22 sec)
Heartbeat CPU 0 instructions: 530000000 cycles: 385313992 heartbeat IPC: 0.08146 cumulative IPC: 1.289 (Simulation time: 01 hr 36 min 49 sec)
Heartbeat CPU 0 instructions: 540000004 cycles: 418405729 heartbeat IPC: 0.3022 cumulative IPC: 1.208 (Simulation time: 01 hr 43 min 16 sec)
Heartbeat CPU 0 instructions: 550000003 cycles: 451619896 heartbeat IPC: 0.3011 cumulative IPC: 1.14 (Simulation time: 01 hr 49 min 55 sec)
Heartbeat CPU 0 instructions: 560000004 cycles: 483982390 heartbeat IPC: 0.309 cumulative IPC: 1.083 (Simulation time: 01 hr 55 min 58 sec)
Heartbeat CPU 0 instructions: 570000000 cycles: 517064058 heartbeat IPC: 0.3023 cumulative IPC: 1.031 (Simulation time: 02 hr 02 min 07 sec)
Heartbeat CPU 0 instructions: 580000002 cycles: 548439812 heartbeat IPC: 0.3187 cumulative IPC: 0.9896 (Simulation time: 02 hr 07 min 59 sec)
Heartbeat CPU 0 instructions: 590000000 cycles: 583561162 heartbeat IPC: 0.2847 cumulative IPC: 0.9462 (Simulation time: 02 hr 14 min 27 sec)
*** Reached end of trace: (0, "traces/bt.A.champsimtrace")
Heartbeat CPU 0 instructions: 600000001 cycles: 618909418 heartbeat IPC: 0.2829 cumulative IPC: 0.9075 (Simulation time: 02 hr 21 min 38 sec)
Heartbeat CPU 0 instructions: 610000002 cycles: 645004146 heartbeat IPC: 0.3832 cumulative IPC: 0.8859 (Simulation time: 02 hr 26 min 02 sec)
Heartbeat CPU 0 instructions: 620000002 cycles: 647507756 heartbeat IPC: 3.994 cumulative IPC: 0.8982 (Simulation time: 02 hr 26 min 59 sec)
Heartbeat CPU 0 instructions: 630000003 cycles: 650010163 heartbeat IPC: 3.996 cumulative IPC: 0.9103 (Simulation time: 02 hr 27 min 51 sec)
Heartbeat CPU 0 instructions: 640000003 cycles: 652513681 heartbeat IPC: 3.994 cumulative IPC: 0.9224 (Simulation time: 02 hr 28 min 43 sec)
Heartbeat CPU 0 instructions: 650000000 cycles: 655016221 heartbeat IPC: 3.996 cumulative IPC: 0.9344 (Simulation time: 02 hr 29 min 36 sec)
Simulation finished CPU 0 instructions: 600000002 cycles: 642135179 cumulative IPC: 0.9344 (Simulation time: 02 hr 29 min 36 sec)
Simulation complete CPU 0 instructions: 600000002 cycles: 642135179 cumulative IPC: 0.9344 (Simulation time: 02 hr 29 min 36 sec)

ChampSim completed all CPUs

=== Simulation ===
CPU 0 runs traces/bt.A.champsimtrace
Region of Interest Statistics

CPU 0 cumulative IPC: 0.9344 instructions: 600000002 cycles: 642135179
CPU 0 Branch Prediction Accuracy: 99.29% MPKI: 0.1288 Average ROB Occupancy at Mispredict: 280
Branch type MPKI
BRANCH_DIRECT_JUMP: 5e-06
BRANCH_INDIRECT: 8.67e-05
BRANCH_CONDITIONAL: 0.129
BRANCH_DIRECT_CALL: 6.67e-06
BRANCH_INDIRECT_CALL: 3.83e-05
BRANCH_RETURN: 2.17e-05

LLC TOTAL        ACCESS:    7362146 HIT:    2564727 MISS:    4797419
LLC LOAD         ACCESS:    2240299 HIT:    1015391 MISS:    1224908
LLC RFO          ACCESS:     889337 HIT:      18745 MISS:     870592
LLC PREFETCH     ACCESS:    2240796 HIT:     368234 MISS:    1872562
LLC WRITE        ACCESS:    1988342 HIT:    1162048 MISS:     826294
LLC TRANSLATION  ACCESS:       3372 HIT:        309 MISS:       3063
LLC PREFETCH REQUESTED:    2248179 ISSUED:    2240796 USEFUL:    1518129 USELESS:      32187
LLC AVERAGE MISS LATENCY: 1012 cycles
cpu0_DTLB TOTAL        ACCESS:  128218727 HIT:  127463534 MISS:     755193
cpu0_DTLB LOAD         ACCESS:  128218727 HIT:  127463534 MISS:     755193
cpu0_DTLB RFO          ACCESS:          0 HIT:          0 MISS:          0
cpu0_DTLB PREFETCH     ACCESS:          0 HIT:          0 MISS:          0
cpu0_DTLB WRITE        ACCESS:          0 HIT:          0 MISS:          0
cpu0_DTLB TRANSLATION  ACCESS:          0 HIT:          0 MISS:          0
cpu0_DTLB PREFETCH REQUESTED:          0 ISSUED:          0 USEFUL:          0 USELESS:          0
cpu0_DTLB AVERAGE MISS LATENCY: 17.23 cycles
cpu0_ITLB TOTAL        ACCESS:     142793 HIT:     142540 MISS:        253
cpu0_ITLB LOAD         ACCESS:     142793 HIT:     142540 MISS:        253
cpu0_ITLB RFO          ACCESS:          0 HIT:          0 MISS:          0
cpu0_ITLB PREFETCH     ACCESS:          0 HIT:          0 MISS:          0
cpu0_ITLB WRITE        ACCESS:          0 HIT:          0 MISS:          0
cpu0_ITLB TRANSLATION  ACCESS:          0 HIT:          0 MISS:          0
cpu0_ITLB PREFETCH REQUESTED:          0 ISSUED:          0 USEFUL:          0 USELESS:          0
cpu0_ITLB AVERAGE MISS LATENCY: 324 cycles
cpu0_L1D TOTAL        ACCESS:  196596300 HIT:  182991534 MISS:   13604766
cpu0_L1D LOAD         ACCESS:  161914161 HIT:  152424162 MISS:    9489999
cpu0_L1D RFO          ACCESS:          0 HIT:          0 MISS:          0
cpu0_L1D PREFETCH     ACCESS:          0 HIT:          0 MISS:          0
cpu0_L1D WRITE        ACCESS:   34635373 HIT:   30537642 MISS:    4097731
cpu0_L1D TRANSLATION  ACCESS:      46766 HIT:      29730 MISS:      17036
cpu0_L1D PREFETCH REQUESTED:          0 ISSUED:          0 USEFUL:          0 USELESS:          0
cpu0_L1D AVERAGE MISS LATENCY: 164.9 cycles
cpu0_L1I TOTAL        ACCESS:     192315 HIT:     189534 MISS:       2781
cpu0_L1I LOAD         ACCESS:     192315 HIT:     189534 MISS:       2781
cpu0_L1I RFO          ACCESS:          0 HIT:          0 MISS:          0
cpu0_L1I PREFETCH     ACCESS:          0 HIT:          0 MISS:          0
cpu0_L1I WRITE        ACCESS:          0 HIT:          0 MISS:          0
cpu0_L1I TRANSLATION  ACCESS:          0 HIT:          0 MISS:          0
cpu0_L1I PREFETCH REQUESTED:          0 ISSUED:          0 USEFUL:          0 USELESS:          0
cpu0_L1I AVERAGE MISS LATENCY: 505.7 cycles
cpu0_L2C TOTAL        ACCESS:    5268388 HIT:    2134971 MISS:    3133417
cpu0_L2C LOAD         ACCESS:    2360857 HIT:     120522 MISS:    2240335
cpu0_L2C RFO          ACCESS:     890700 HIT:       1363 MISS:     889337
cpu0_L2C PREFETCH     ACCESS:          0 HIT:          0 MISS:          0
cpu0_L2C WRITE        ACCESS:    1999796 HIT:    1999423 MISS:        373
cpu0_L2C TRANSLATION  ACCESS:      17035 HIT:      13663 MISS:       3372
cpu0_L2C PREFETCH REQUESTED:          0 ISSUED:          0 USEFUL:          0 USELESS:          0
cpu0_L2C AVERAGE MISS LATENCY: 937.4 cycles
cpu0_STLB TOTAL        ACCESS:     310420 HIT:     263673 MISS:      46747
cpu0_STLB LOAD         ACCESS:     310420 HIT:     263673 MISS:      46747
cpu0_STLB RFO          ACCESS:          0 HIT:          0 MISS:          0
cpu0_STLB PREFETCH     ACCESS:          0 HIT:          0 MISS:          0
cpu0_STLB WRITE        ACCESS:          0 HIT:          0 MISS:          0
cpu0_STLB TRANSLATION  ACCESS:          0 HIT:          0 MISS:          0
cpu0_STLB PREFETCH REQUESTED:          0 ISSUED:          0 USEFUL:          0 USELESS:          0
cpu0_STLB AVERAGE MISS LATENCY: 381.4 cycles

DRAM Statistics

Channel 0 RQ ROW_BUFFER_HIT:     798159
  ROW_BUFFER_MISS:    1982504
 AVG DBUS CONGESTED CYCLE: 3.975
WQ ROW_BUFFER_HIT: Channel 0 
  ROW_BUFFER_MISS:     441203
  FULL:    1378514
