WARNING: physical memory size is smaller than virtual memory size.

*** ChampSim Multicore Out-of-Order Simulator ***
Warmup Instructions: 50000000
Simulation Instructions: 600000000
Number of CPUs: 1
Page size: 4096

CPU 0 Tage branch predictor
Off-chip DRAM Size: 4 GiB Channels: 1 Width: 64-bit Data Race: 3200 MT/s
Heartbeat CPU 0 instructions: 10000003 cycles: 2881043 heartbeat IPC: 3.471 cumulative IPC: 3.471 (Simulation time: 00 hr 01 min 00 sec)
Heartbeat CPU 0 instructions: 20000003 cycles: 5381043 heartbeat IPC: 4 cumulative IPC: 3.717 (Simulation time: 00 hr 01 min 56 sec)
Heartbeat CPU 0 instructions: 30000003 cycles: 7881043 heartbeat IPC: 4 cumulative IPC: 3.807 (Simulation time: 00 hr 02 min 51 sec)
Heartbeat CPU 0 instructions: 40000003 cycles: 10381043 heartbeat IPC: 4 cumulative IPC: 3.853 (Simulation time: 00 hr 03 min 53 sec)
Heartbeat CPU 0 instructions: 50000003 cycles: 12881043 heartbeat IPC: 4 cumulative IPC: 3.882 (Simulation time: 00 hr 04 min 52 sec)
Warmup finished CPU 0 instructions: 50000003 cycles: 12881044 cumulative IPC: 3.882 (Simulation time: 00 hr 04 min 52 sec)
Warmup complete CPU 0 instructions: 50000003 cycles: 12881044 cumulative IPC: 3.882 (Simulation time: 00 hr 04 min 52 sec)
Heartbeat CPU 0 instructions: 60000001 cycles: 15381166 heartbeat IPC: 4 cumulative IPC: 4 (Simulation time: 00 hr 06 min 03 sec)
Heartbeat CPU 0 instructions: 70000003 cycles: 17881286 heartbeat IPC: 4 cumulative IPC: 4 (Simulation time: 00 hr 07 min 13 sec)
Heartbeat CPU 0 instructions: 80000002 cycles: 20381408 heartbeat IPC: 4 cumulative IPC: 4 (Simulation time: 00 hr 08 min 21 sec)
Heartbeat CPU 0 instructions: 90000002 cycles: 22881528 heartbeat IPC: 4 cumulative IPC: 4 (Simulation time: 00 hr 09 min 29 sec)
Heartbeat CPU 0 instructions: 100000003 cycles: 25381648 heartbeat IPC: 4 cumulative IPC: 4 (Simulation time: 00 hr 10 min 36 sec)
Heartbeat CPU 0 instructions: 110000000 cycles: 27882881 heartbeat IPC: 3.998 cumulative IPC: 4 (Simulation time: 00 hr 11 min 41 sec)
Heartbeat CPU 0 instructions: 120000001 cycles: 30382993 heartbeat IPC: 4 cumulative IPC: 4 (Simulation time: 00 hr 12 min 49 sec)
Heartbeat CPU 0 instructions: 130000004 cycles: 32883114 heartbeat IPC: 4 cumulative IPC: 4 (Simulation time: 00 hr 13 min 59 sec)
Heartbeat CPU 0 instructions: 140000000 cycles: 35383231 heartbeat IPC: 4 cumulative IPC: 4 (Simulation time: 00 hr 15 min 07 sec)
Heartbeat CPU 0 instructions: 150000001 cycles: 37883355 heartbeat IPC: 4 cumulative IPC: 4 (Simulation time: 00 hr 16 min 18 sec)
Heartbeat CPU 0 instructions: 160000004 cycles: 40383477 heartbeat IPC: 4 cumulative IPC: 4 (Simulation time: 00 hr 17 min 28 sec)
Heartbeat CPU 0 instructions: 170000004 cycles: 42883598 heartbeat IPC: 4 cumulative IPC: 4 (Simulation time: 00 hr 18 min 37 sec)
Heartbeat CPU 0 instructions: 180000000 cycles: 45383672 heartbeat IPC: 4 cumulative IPC: 4 (Simulation time: 00 hr 19 min 47 sec)
Heartbeat CPU 0 instructions: 190000004 cycles: 47883739 heartbeat IPC: 4 cumulative IPC: 4 (Simulation time: 00 hr 20 min 56 sec)
Heartbeat CPU 0 instructions: 200000000 cycles: 50384437 heartbeat IPC: 3.999 cumulative IPC: 4 (Simulation time: 00 hr 22 min 05 sec)
Heartbeat CPU 0 instructions: 210000003 cycles: 52884558 heartbeat IPC: 4 cumulative IPC: 4 (Simulation time: 00 hr 23 min 15 sec)
Heartbeat CPU 0 instructions: 220000000 cycles: 55384677 heartbeat IPC: 4 cumulative IPC: 4 (Simulation time: 00 hr 24 min 21 sec)
Heartbeat CPU 0 instructions: 230000002 cycles: 92777049 heartbeat IPC: 0.2674 cumulative IPC: 2.253 (Simulation time: 00 hr 30 min 18 sec)
Heartbeat CPU 0 instructions: 240000000 cycles: 97302974 heartbeat IPC: 2.209 cumulative IPC: 2.251 (Simulation time: 00 hr 31 min 50 sec)
Heartbeat CPU 0 instructions: 250000004 cycles: 101522818 heartbeat IPC: 2.37 cumulative IPC: 2.256 (Simulation time: 00 hr 33 min 18 sec)
Heartbeat CPU 0 instructions: 260000001 cycles: 105782936 heartbeat IPC: 2.347 cumulative IPC: 2.26 (Simulation time: 00 hr 34 min 49 sec)
Heartbeat CPU 0 instructions: 270000001 cycles: 110012980 heartbeat IPC: 2.364 cumulative IPC: 2.265 (Simulation time: 00 hr 36 min 13 sec)
Heartbeat CPU 0 instructions: 280000001 cycles: 114295455 heartbeat IPC: 2.335 cumulative IPC: 2.268 (Simulation time: 00 hr 37 min 40 sec)
Heartbeat CPU 0 instructions: 290000002 cycles: 118529021 heartbeat IPC: 2.362 cumulative IPC: 2.272 (Simulation time: 00 hr 39 min 04 sec)
Heartbeat CPU 0 instructions: 300000002 cycles: 122802004 heartbeat IPC: 2.34 cumulative IPC: 2.274 (Simulation time: 00 hr 40 min 35 sec)
Heartbeat CPU 0 instructions: 310000004 cycles: 127093513 heartbeat IPC: 2.33 cumulative IPC: 2.276 (Simulation time: 00 hr 42 min 05 sec)
Heartbeat CPU 0 instructions: 320000004 cycles: 131366712 heartbeat IPC: 2.34 cumulative IPC: 2.279 (Simulation time: 00 hr 43 min 38 sec)
Heartbeat CPU 0 instructions: 330000004 cycles: 135190037 heartbeat IPC: 2.616 cumulative IPC: 2.289 (Simulation time: 00 hr 45 min 07 sec)
Heartbeat CPU 0 instructions: 340000004 cycles: 138991000 heartbeat IPC: 2.631 cumulative IPC: 2.3 (Simulation time: 00 hr 46 min 33 sec)
Heartbeat CPU 0 instructions: 350000002 cycles: 142681576 heartbeat IPC: 2.71 cumulative IPC: 2.311 (Simulation time: 00 hr 47 min 56 sec)
Heartbeat CPU 0 instructions: 360000002 cycles: 146450801 heartbeat IPC: 2.653 cumulative IPC: 2.321 (Simulation time: 00 hr 49 min 26 sec)
Heartbeat CPU 0 instructions: 370000004 cycles: 150200358 heartbeat IPC: 2.667 cumulative IPC: 2.33 (Simulation time: 00 hr 50 min 49 sec)
Heartbeat CPU 0 instructions: 380000004 cycles: 153988918 heartbeat IPC: 2.64 cumulative IPC: 2.339 (Simulation time: 00 hr 52 min 13 sec)
Heartbeat CPU 0 instructions: 390000004 cycles: 157734967 heartbeat IPC: 2.669 cumulative IPC: 2.347 (Simulation time: 00 hr 53 min 40 sec)
Heartbeat CPU 0 instructions: 400000004 cycles: 161510044 heartbeat IPC: 2.649 cumulative IPC: 2.355 (Simulation time: 00 hr 55 min 08 sec)
Heartbeat CPU 0 instructions: 410000002 cycles: 165153492 heartbeat IPC: 2.745 cumulative IPC: 2.364 (Simulation time: 00 hr 56 min 33 sec)
Heartbeat CPU 0 instructions: 420000001 cycles: 168862830 heartbeat IPC: 2.696 cumulative IPC: 2.372 (Simulation time: 00 hr 57 min 58 sec)
Heartbeat CPU 0 instructions: 430000003 cycles: 172076087 heartbeat IPC: 3.112 cumulative IPC: 2.387 (Simulation time: 00 hr 59 min 20 sec)
Heartbeat CPU 0 instructions: 440000002 cycles: 175317810 heartbeat IPC: 3.085 cumulative IPC: 2.401 (Simulation time: 01 hr 00 min 41 sec)
Heartbeat CPU 0 instructions: 450000000 cycles: 178940291 heartbeat IPC: 2.761 cumulative IPC: 2.409 (Simulation time: 01 hr 02 min 13 sec)
Heartbeat CPU 0 instructions: 460000002 cycles: 182627126 heartbeat IPC: 2.712 cumulative IPC: 2.415 (Simulation time: 01 hr 03 min 58 sec)
Heartbeat CPU 0 instructions: 470000004 cycles: 186151127 heartbeat IPC: 2.838 cumulative IPC: 2.424 (Simulation time: 01 hr 05 min 12 sec)
Heartbeat CPU 0 instructions: 480000001 cycles: 189868799 heartbeat IPC: 2.69 cumulative IPC: 2.43 (Simulation time: 01 hr 06 min 28 sec)
Heartbeat CPU 0 instructions: 490000003 cycles: 193492912 heartbeat IPC: 2.759 cumulative IPC: 2.436 (Simulation time: 01 hr 07 min 45 sec)
Heartbeat CPU 0 instructions: 500000002 cycles: 197188422 heartbeat IPC: 2.706 cumulative IPC: 2.442 (Simulation time: 01 hr 09 min 01 sec)
Heartbeat CPU 0 instructions: 510000002 cycles: 200838750 heartbeat IPC: 2.739 cumulative IPC: 2.447 (Simulation time: 01 hr 10 min 19 sec)
Heartbeat CPU 0 instructions: 520000000 cycles: 270288462 heartbeat IPC: 0.144 cumulative IPC: 1.826 (Simulation time: 01 hr 23 min 55 sec)
Heartbeat CPU 0 instructions: 530000001 cycles: 389585039 heartbeat IPC: 0.08382 cumulative IPC: 1.274 (Simulation time: 01 hr 45 min 21 sec)
Heartbeat CPU 0 instructions: 540000004 cycles: 418122676 heartbeat IPC: 0.3504 cumulative IPC: 1.209 (Simulation time: 01 hr 51 min 15 sec)
Heartbeat CPU 0 instructions: 550000003 cycles: 448390955 heartbeat IPC: 0.3304 cumulative IPC: 1.148 (Simulation time: 01 hr 57 min 15 sec)
Heartbeat CPU 0 instructions: 560000004 cycles: 478189118 heartbeat IPC: 0.3356 cumulative IPC: 1.096 (Simulation time: 02 hr 03 min 13 sec)
Heartbeat CPU 0 instructions: 570000000 cycles: 508331352 heartbeat IPC: 0.3318 cumulative IPC: 1.05 (Simulation time: 02 hr 09 min 12 sec)
Heartbeat CPU 0 instructions: 580000002 cycles: 543187577 heartbeat IPC: 0.2869 cumulative IPC: 0.9994 (Simulation time: 02 hr 15 min 51 sec)
Heartbeat CPU 0 instructions: 590000000 cycles: 575136987 heartbeat IPC: 0.313 cumulative IPC: 0.9604 (Simulation time: 02 hr 21 min 51 sec)
*** Reached end of trace: (0, "traces/bt.A.champsimtrace")
Heartbeat CPU 0 instructions: 600000001 cycles: 606873015 heartbeat IPC: 0.3151 cumulative IPC: 0.9259 (Simulation time: 02 hr 28 min 33 sec)
Heartbeat CPU 0 instructions: 610000002 cycles: 637470654 heartbeat IPC: 0.3268 cumulative IPC: 0.8966 (Simulation time: 02 hr 33 min 16 sec)
Heartbeat CPU 0 instructions: 620000002 cycles: 639970911 heartbeat IPC: 4 cumulative IPC: 0.909 (Simulation time: 02 hr 34 min 20 sec)
Heartbeat CPU 0 instructions: 630000003 cycles: 642471031 heartbeat IPC: 4 cumulative IPC: 0.9212 (Simulation time: 02 hr 35 min 31 sec)
Heartbeat CPU 0 instructions: 640000003 cycles: 644971225 heartbeat IPC: 4 cumulative IPC: 0.9334 (Simulation time: 02 hr 36 min 53 sec)
Heartbeat CPU 0 instructions: 650000000 cycles: 647471334 heartbeat IPC: 4 cumulative IPC: 0.9455 (Simulation time: 02 hr 37 min 55 sec)
Simulation finished CPU 0 instructions: 600000002 cycles: 634590292 cumulative IPC: 0.9455 (Simulation time: 02 hr 37 min 55 sec)
Simulation complete CPU 0 instructions: 600000002 cycles: 634590292 cumulative IPC: 0.9455 (Simulation time: 02 hr 37 min 55 sec)

ChampSim completed all CPUs

=== Simulation ===
CPU 0 runs traces/bt.A.champsimtrace
Region of Interest Statistics

CPU 0 cumulative IPC: 0.9455 instructions: 600000002 cycles: 634590292
CPU 0 Branch Prediction Accuracy: 99.98% MPKI: 0.004165 Average ROB Occupancy at Mispredict: 126.3
Branch type MPKI
BRANCH_DIRECT_JUMP: 5e-06
BRANCH_INDIRECT: 8.67e-05
BRANCH_CONDITIONAL: 0.00401
BRANCH_DIRECT_CALL: 6.67e-06
BRANCH_INDIRECT_CALL: 3.83e-05
BRANCH_RETURN: 2.17e-05

LLC TOTAL        ACCESS:    7362623 HIT:    3115045 MISS:    4247578
LLC LOAD         ACCESS:    2240624 HIT:    1129882 MISS:    1110742
LLC RFO          ACCESS:     889335 HIT:      14181 MISS:     875154
LLC PREFETCH     ACCESS:    2240624 HIT:     492039 MISS:    1748585
LLC WRITE        ACCESS:    1988667 HIT:    1478855 MISS:     509812
LLC TRANSLATION  ACCESS:       3373 HIT:         88 MISS:       3285
LLC PREFETCH REQUESTED:    2240624 ISSUED:    2240624 USEFUL:    1463638 USELESS:      23238
LLC AVERAGE MISS LATENCY: 1118 cycles
cpu0_DTLB TOTAL        ACCESS:  129583877 HIT:  128825740 MISS:     758137
cpu0_DTLB LOAD         ACCESS:  129583877 HIT:  128825740 MISS:     758137
cpu0_DTLB RFO          ACCESS:          0 HIT:          0 MISS:          0
cpu0_DTLB PREFETCH     ACCESS:          0 HIT:          0 MISS:          0
cpu0_DTLB WRITE        ACCESS:          0 HIT:          0 MISS:          0
cpu0_DTLB TRANSLATION  ACCESS:          0 HIT:          0 MISS:          0
cpu0_DTLB PREFETCH REQUESTED:          0 ISSUED:          0 USEFUL:          0 USELESS:          0
cpu0_DTLB AVERAGE MISS LATENCY: 18.63 cycles
cpu0_ITLB TOTAL        ACCESS:     171664 HIT:     171390 MISS:        274
cpu0_ITLB LOAD         ACCESS:     171664 HIT:     171390 MISS:        274
cpu0_ITLB RFO          ACCESS:          0 HIT:          0 MISS:          0
cpu0_ITLB PREFETCH     ACCESS:          0 HIT:          0 MISS:          0
cpu0_ITLB WRITE        ACCESS:          0 HIT:          0 MISS:          0
cpu0_ITLB TRANSLATION  ACCESS:          0 HIT:          0 MISS:          0
cpu0_ITLB PREFETCH REQUESTED:          0 ISSUED:          0 USEFUL:          0 USELESS:          0
cpu0_ITLB AVERAGE MISS LATENCY: 374.8 cycles
cpu0_L1D TOTAL        ACCESS:  198333498 HIT:  184862475 MISS:   13471023
cpu0_L1D LOAD         ACCESS:  163651295 HIT:  154301513 MISS:    9349782
cpu0_L1D RFO          ACCESS:          0 HIT:          0 MISS:          0
cpu0_L1D PREFETCH     ACCESS:          0 HIT:          0 MISS:          0
cpu0_L1D WRITE        ACCESS:   34635436 HIT:   30531219 MISS:    4104217
cpu0_L1D TRANSLATION  ACCESS:      46767 HIT:      29743 MISS:      17024
cpu0_L1D PREFETCH REQUESTED:          0 ISSUED:          0 USEFUL:          0 USELESS:          0
cpu0_L1D AVERAGE MISS LATENCY: 168.4 cycles
cpu0_L1I TOTAL        ACCESS:     203060 HIT:     200141 MISS:       2919
cpu0_L1I LOAD         ACCESS:     203060 HIT:     200141 MISS:       2919
cpu0_L1I RFO          ACCESS:          0 HIT:          0 MISS:          0
cpu0_L1I PREFETCH     ACCESS:          0 HIT:          0 MISS:          0
cpu0_L1I WRITE        ACCESS:          0 HIT:          0 MISS:          0
cpu0_L1I TRANSLATION  ACCESS:          0 HIT:          0 MISS:          0
cpu0_L1I PREFETCH REQUESTED:          0 ISSUED:          0 USEFUL:          0 USELESS:          0
cpu0_L1I AVERAGE MISS LATENCY: 519.2 cycles
cpu0_L2C TOTAL        ACCESS:    5269243 HIT:    2135477 MISS:    3133766
cpu0_L2C LOAD         ACCESS:    2361104 HIT:     120418 MISS:    2240686
cpu0_L2C RFO          ACCESS:     891030 HIT:       1695 MISS:     889335
cpu0_L2C PREFETCH     ACCESS:          0 HIT:          0 MISS:          0
cpu0_L2C WRITE        ACCESS:    2000088 HIT:    1999716 MISS:        372
cpu0_L2C TRANSLATION  ACCESS:      17021 HIT:      13648 MISS:       3373
cpu0_L2C PREFETCH REQUESTED:          0 ISSUED:          0 USEFUL:          0 USELESS:          0
cpu0_L2C AVERAGE MISS LATENCY: 935.9 cycles
cpu0_STLB TOTAL        ACCESS:     310467 HIT:     263720 MISS:      46747
cpu0_STLB LOAD         ACCESS:     310467 HIT:     263720 MISS:      46747
cpu0_STLB RFO          ACCESS:          0 HIT:          0 MISS:          0
cpu0_STLB PREFETCH     ACCESS:          0 HIT:          0 MISS:          0
cpu0_STLB WRITE        ACCESS:          0 HIT:          0 MISS:          0
cpu0_STLB TRANSLATION  ACCESS:          0 HIT:          0 MISS:          0
cpu0_STLB PREFETCH REQUESTED:          0 ISSUED:          0 USEFUL:          0 USELESS:          0
cpu0_STLB AVERAGE MISS LATENCY: 421.6 cycles

DRAM Statistics

Channel 0 RQ ROW_BUFFER_HIT:     736938
  ROW_BUFFER_MISS:    1924279
 AVG DBUS CONGESTED CYCLE: 3.981
WQ ROW_BUFFER_HIT: Channel 0 
  ROW_BUFFER_MISS:     264458
  FULL:    1513346
