WARNING: physical memory size is smaller than virtual memory size.

*** ChampSim Multicore Out-of-Order Simulator ***
Warmup Instructions: 50000000
Simulation Instructions: 600000000
Number of CPUs: 1
Page size: 4096

CPU 0 Tage branch predictor
Off-chip DRAM Size: 4 GiB Channels: 1 Width: 64-bit Data Race: 3200 MT/s
Heartbeat CPU 0 instructions: 10000003 cycles: 2881044 heartbeat IPC: 3.471 cumulative IPC: 3.471 (Simulation time: 00 hr 00 min 52 sec)
Heartbeat CPU 0 instructions: 20000003 cycles: 5381044 heartbeat IPC: 4 cumulative IPC: 3.717 (Simulation time: 00 hr 01 min 50 sec)
Heartbeat CPU 0 instructions: 30000003 cycles: 7881044 heartbeat IPC: 4 cumulative IPC: 3.807 (Simulation time: 00 hr 02 min 47 sec)
Heartbeat CPU 0 instructions: 40000003 cycles: 10381044 heartbeat IPC: 4 cumulative IPC: 3.853 (Simulation time: 00 hr 03 min 45 sec)
Heartbeat CPU 0 instructions: 50000003 cycles: 12881044 heartbeat IPC: 4 cumulative IPC: 3.882 (Simulation time: 00 hr 04 min 42 sec)
Warmup finished CPU 0 instructions: 50000003 cycles: 12881045 cumulative IPC: 3.882 (Simulation time: 00 hr 04 min 42 sec)
Warmup complete CPU 0 instructions: 50000003 cycles: 12881045 cumulative IPC: 3.882 (Simulation time: 00 hr 04 min 42 sec)
Heartbeat CPU 0 instructions: 60000001 cycles: 15382215 heartbeat IPC: 3.998 cumulative IPC: 3.998 (Simulation time: 00 hr 05 min 52 sec)
Heartbeat CPU 0 instructions: 70000003 cycles: 17883452 heartbeat IPC: 3.998 cumulative IPC: 3.998 (Simulation time: 00 hr 07 min 05 sec)
Heartbeat CPU 0 instructions: 80000002 cycles: 20383894 heartbeat IPC: 3.999 cumulative IPC: 3.998 (Simulation time: 00 hr 08 min 13 sec)
Heartbeat CPU 0 instructions: 90000002 cycles: 22884833 heartbeat IPC: 3.998 cumulative IPC: 3.998 (Simulation time: 00 hr 09 min 22 sec)
Heartbeat CPU 0 instructions: 100000003 cycles: 25385807 heartbeat IPC: 3.998 cumulative IPC: 3.998 (Simulation time: 00 hr 10 min 31 sec)
Heartbeat CPU 0 instructions: 110000000 cycles: 27886433 heartbeat IPC: 3.999 cumulative IPC: 3.999 (Simulation time: 00 hr 11 min 40 sec)
Heartbeat CPU 0 instructions: 120000001 cycles: 30386613 heartbeat IPC: 4 cumulative IPC: 3.999 (Simulation time: 00 hr 12 min 57 sec)
Heartbeat CPU 0 instructions: 130000004 cycles: 32887563 heartbeat IPC: 3.998 cumulative IPC: 3.999 (Simulation time: 00 hr 14 min 00 sec)
Heartbeat CPU 0 instructions: 140000000 cycles: 35387681 heartbeat IPC: 4 cumulative IPC: 3.999 (Simulation time: 00 hr 15 min 07 sec)
Heartbeat CPU 0 instructions: 150000001 cycles: 37888410 heartbeat IPC: 3.999 cumulative IPC: 3.999 (Simulation time: 00 hr 16 min 14 sec)
Heartbeat CPU 0 instructions: 160000004 cycles: 40389098 heartbeat IPC: 3.999 cumulative IPC: 3.999 (Simulation time: 00 hr 17 min 22 sec)
Heartbeat CPU 0 instructions: 170000004 cycles: 42890935 heartbeat IPC: 3.997 cumulative IPC: 3.999 (Simulation time: 00 hr 18 min 30 sec)
Heartbeat CPU 0 instructions: 180000000 cycles: 45391010 heartbeat IPC: 4 cumulative IPC: 3.999 (Simulation time: 00 hr 19 min 33 sec)
Heartbeat CPU 0 instructions: 190000004 cycles: 47892490 heartbeat IPC: 3.998 cumulative IPC: 3.999 (Simulation time: 00 hr 20 min 34 sec)
Heartbeat CPU 0 instructions: 200000000 cycles: 50393056 heartbeat IPC: 3.999 cumulative IPC: 3.999 (Simulation time: 00 hr 21 min 36 sec)
Heartbeat CPU 0 instructions: 210000003 cycles: 52893886 heartbeat IPC: 3.999 cumulative IPC: 3.999 (Simulation time: 00 hr 22 min 38 sec)
Heartbeat CPU 0 instructions: 220000000 cycles: 55394007 heartbeat IPC: 4 cumulative IPC: 3.999 (Simulation time: 00 hr 23 min 42 sec)
Heartbeat CPU 0 instructions: 230000003 cycles: 89371806 heartbeat IPC: 0.2943 cumulative IPC: 2.353 (Simulation time: 00 hr 28 min 46 sec)
Heartbeat CPU 0 instructions: 240000000 cycles: 92982061 heartbeat IPC: 2.77 cumulative IPC: 2.372 (Simulation time: 00 hr 30 min 02 sec)
Heartbeat CPU 0 instructions: 250000004 cycles: 96476773 heartbeat IPC: 2.861 cumulative IPC: 2.392 (Simulation time: 00 hr 31 min 18 sec)
Heartbeat CPU 0 instructions: 260000004 cycles: 99947794 heartbeat IPC: 2.881 cumulative IPC: 2.412 (Simulation time: 00 hr 32 min 36 sec)
Heartbeat CPU 0 instructions: 270000001 cycles: 103414972 heartbeat IPC: 2.884 cumulative IPC: 2.43 (Simulation time: 00 hr 33 min 56 sec)
Heartbeat CPU 0 instructions: 280000002 cycles: 106924593 heartbeat IPC: 2.849 cumulative IPC: 2.446 (Simulation time: 00 hr 35 min 14 sec)
Heartbeat CPU 0 instructions: 290000002 cycles: 110381488 heartbeat IPC: 2.893 cumulative IPC: 2.462 (Simulation time: 00 hr 36 min 33 sec)
Heartbeat CPU 0 instructions: 300000002 cycles: 113837013 heartbeat IPC: 2.894 cumulative IPC: 2.476 (Simulation time: 00 hr 37 min 52 sec)
Heartbeat CPU 0 instructions: 310000004 cycles: 117298180 heartbeat IPC: 2.889 cumulative IPC: 2.49 (Simulation time: 00 hr 39 min 15 sec)
Heartbeat CPU 0 instructions: 320000000 cycles: 120737874 heartbeat IPC: 2.907 cumulative IPC: 2.503 (Simulation time: 00 hr 40 min 33 sec)
Heartbeat CPU 0 instructions: 330000000 cycles: 124829243 heartbeat IPC: 2.444 cumulative IPC: 2.501 (Simulation time: 00 hr 41 min 56 sec)
Heartbeat CPU 0 instructions: 340000004 cycles: 131216714 heartbeat IPC: 1.566 cumulative IPC: 2.451 (Simulation time: 00 hr 43 min 48 sec)
Heartbeat CPU 0 instructions: 350000002 cycles: 137732931 heartbeat IPC: 1.535 cumulative IPC: 2.403 (Simulation time: 00 hr 45 min 46 sec)
Heartbeat CPU 0 instructions: 360000002 cycles: 144529567 heartbeat IPC: 1.471 cumulative IPC: 2.355 (Simulation time: 00 hr 48 min 06 sec)
Heartbeat CPU 0 instructions: 370000004 cycles: 151330202 heartbeat IPC: 1.47 cumulative IPC: 2.311 (Simulation time: 00 hr 51 min 12 sec)
Heartbeat CPU 0 instructions: 380000004 cycles: 158127174 heartbeat IPC: 1.471 cumulative IPC: 2.272 (Simulation time: 00 hr 53 min 08 sec)
Heartbeat CPU 0 instructions: 390000004 cycles: 164926973 heartbeat IPC: 1.471 cumulative IPC: 2.236 (Simulation time: 00 hr 55 min 02 sec)
Heartbeat CPU 0 instructions: 400000004 cycles: 171717262 heartbeat IPC: 1.473 cumulative IPC: 2.204 (Simulation time: 00 hr 56 min 54 sec)
Heartbeat CPU 0 instructions: 410000002 cycles: 178261494 heartbeat IPC: 1.528 cumulative IPC: 2.177 (Simulation time: 00 hr 58 min 44 sec)
Heartbeat CPU 0 instructions: 420000001 cycles: 182857830 heartbeat IPC: 2.176 cumulative IPC: 2.177 (Simulation time: 01 hr 00 min 13 sec)
Heartbeat CPU 0 instructions: 430000001 cycles: 188543256 heartbeat IPC: 1.759 cumulative IPC: 2.163 (Simulation time: 01 hr 01 min 58 sec)
Heartbeat CPU 0 instructions: 440000002 cycles: 194343331 heartbeat IPC: 1.724 cumulative IPC: 2.149 (Simulation time: 01 hr 03 min 49 sec)
Heartbeat CPU 0 instructions: 450000004 cycles: 200087712 heartbeat IPC: 1.741 cumulative IPC: 2.137 (Simulation time: 01 hr 05 min 34 sec)
Heartbeat CPU 0 instructions: 460000002 cycles: 205933394 heartbeat IPC: 1.711 cumulative IPC: 2.124 (Simulation time: 01 hr 07 min 17 sec)
Heartbeat CPU 0 instructions: 470000004 cycles: 211717575 heartbeat IPC: 1.729 cumulative IPC: 2.112 (Simulation time: 01 hr 09 min 01 sec)
Heartbeat CPU 0 instructions: 480000002 cycles: 217511532 heartbeat IPC: 1.726 cumulative IPC: 2.101 (Simulation time: 01 hr 10 min 46 sec)
Heartbeat CPU 0 instructions: 490000001 cycles: 223153836 heartbeat IPC: 1.772 cumulative IPC: 2.093 (Simulation time: 01 hr 12 min 30 sec)
Heartbeat CPU 0 instructions: 500000002 cycles: 228811738 heartbeat IPC: 1.767 cumulative IPC: 2.084 (Simulation time: 01 hr 14 min 18 sec)
Heartbeat CPU 0 instructions: 510000002 cycles: 234480903 heartbeat IPC: 1.764 cumulative IPC: 2.076 (Simulation time: 01 hr 15 min 56 sec)
Heartbeat CPU 0 instructions: 520000001 cycles: 309508693 heartbeat IPC: 0.1333 cumulative IPC: 1.584 (Simulation time: 01 hr 30 min 17 sec)
Heartbeat CPU 0 instructions: 530000001 cycles: 441194325 heartbeat IPC: 0.07594 cumulative IPC: 1.121 (Simulation time: 01 hr 54 min 37 sec)
Heartbeat CPU 0 instructions: 540000002 cycles: 468741963 heartbeat IPC: 0.363 cumulative IPC: 1.075 (Simulation time: 02 hr 00 min 03 sec)
Heartbeat CPU 0 instructions: 550000003 cycles: 496803624 heartbeat IPC: 0.3564 cumulative IPC: 1.033 (Simulation time: 02 hr 05 min 53 sec)
Heartbeat CPU 0 instructions: 560000000 cycles: 524236906 heartbeat IPC: 0.3645 cumulative IPC: 0.9973 (Simulation time: 02 hr 11 min 24 sec)
Heartbeat CPU 0 instructions: 570000003 cycles: 552172577 heartbeat IPC: 0.358 cumulative IPC: 0.9642 (Simulation time: 02 hr 17 min 08 sec)
Heartbeat CPU 0 instructions: 580000002 cycles: 577733527 heartbeat IPC: 0.3912 cumulative IPC: 0.9383 (Simulation time: 02 hr 22 min 17 sec)
Heartbeat CPU 0 instructions: 590000000 cycles: 604852656 heartbeat IPC: 0.3687 cumulative IPC: 0.9122 (Simulation time: 02 hr 28 min 09 sec)
*** Reached end of trace: (0, "traces/bt.A.champsimtrace")
Heartbeat CPU 0 instructions: 600000001 cycles: 631943126 heartbeat IPC: 0.3691 cumulative IPC: 0.8884 (Simulation time: 02 hr 33 min 36 sec)
Heartbeat CPU 0 instructions: 610000002 cycles: 658983555 heartbeat IPC: 0.3698 cumulative IPC: 0.8667 (Simulation time: 02 hr 37 min 51 sec)
Heartbeat CPU 0 instructions: 620000002 cycles: 661483585 heartbeat IPC: 4 cumulative IPC: 0.8788 (Simulation time: 02 hr 38 min 53 sec)
Heartbeat CPU 0 instructions: 630000003 cycles: 663983658 heartbeat IPC: 4 cumulative IPC: 0.8908 (Simulation time: 02 hr 40 min 01 sec)
Heartbeat CPU 0 instructions: 640000003 cycles: 666483759 heartbeat IPC: 4 cumulative IPC: 0.9027 (Simulation time: 02 hr 41 min 11 sec)
Heartbeat CPU 0 instructions: 650000000 cycles: 668984014 heartbeat IPC: 4 cumulative IPC: 0.9145 (Simulation time: 02 hr 42 min 19 sec)
Simulation finished CPU 0 instructions: 600000002 cycles: 656102971 cumulative IPC: 0.9145 (Simulation time: 02 hr 42 min 19 sec)
Simulation complete CPU 0 instructions: 600000002 cycles: 656102971 cumulative IPC: 0.9145 (Simulation time: 02 hr 42 min 19 sec)

ChampSim completed all CPUs

=== Simulation ===
CPU 0 runs traces/bt.A.champsimtrace
Region of Interest Statistics

CPU 0 cumulative IPC: 0.9145 instructions: 600000002 cycles: 656102971
CPU 0 Branch Prediction Accuracy: 99.98% MPKI: 0.004165 Average ROB Occupancy at Mispredict: 123.1
Branch type MPKI
BRANCH_DIRECT_JUMP: 5e-06
BRANCH_INDIRECT: 8.67e-05
BRANCH_CONDITIONAL: 0.00401
BRANCH_DIRECT_CALL: 6.67e-06
BRANCH_INDIRECT_CALL: 3.83e-05
BRANCH_RETURN: 2.17e-05

LLC TOTAL        ACCESS:    7775308 HIT:    3789991 MISS:    3985317
LLC LOAD         ACCESS:    2240195 HIT:    1320437 MISS:     919758
LLC RFO          ACCESS:     889336 HIT:      36152 MISS:     853184
LLC PREFETCH     ACCESS:    2653859 HIT:    1436009 MISS:    1217850
LLC WRITE        ACCESS:    1988547 HIT:     997131 MISS:     991416
LLC TRANSLATION  ACCESS:       3371 HIT:        262 MISS:       3109
LLC PREFETCH REQUESTED:    2653859 ISSUED:    2653859 USEFUL:     990077 USELESS:      20271
LLC AVERAGE MISS LATENCY: 1043 cycles
cpu0_DTLB TOTAL        ACCESS:  127279178 HIT:  126509274 MISS:     769904
cpu0_DTLB LOAD         ACCESS:  127279178 HIT:  126509274 MISS:     769904
cpu0_DTLB RFO          ACCESS:          0 HIT:          0 MISS:          0
cpu0_DTLB PREFETCH     ACCESS:          0 HIT:          0 MISS:          0
cpu0_DTLB WRITE        ACCESS:          0 HIT:          0 MISS:          0
cpu0_DTLB TRANSLATION  ACCESS:          0 HIT:          0 MISS:          0
cpu0_DTLB PREFETCH REQUESTED:          0 ISSUED:          0 USEFUL:          0 USELESS:          0
cpu0_DTLB AVERAGE MISS LATENCY: 14.78 cycles
cpu0_ITLB TOTAL        ACCESS:     171568 HIT:     171298 MISS:        270
cpu0_ITLB LOAD         ACCESS:     171568 HIT:     171298 MISS:        270
cpu0_ITLB RFO          ACCESS:          0 HIT:          0 MISS:          0
cpu0_ITLB PREFETCH     ACCESS:          0 HIT:          0 MISS:          0
cpu0_ITLB WRITE        ACCESS:          0 HIT:          0 MISS:          0
cpu0_ITLB TRANSLATION  ACCESS:          0 HIT:          0 MISS:          0
cpu0_ITLB PREFETCH REQUESTED:          0 ISSUED:          0 USEFUL:          0 USELESS:          0
cpu0_ITLB AVERAGE MISS LATENCY: 264.1 cycles
cpu0_L1D TOTAL        ACCESS:  195829607 HIT:  183072204 MISS:   12757403
cpu0_L1D LOAD         ACCESS:  161147458 HIT:  152566178 MISS:    8581280
cpu0_L1D RFO          ACCESS:          0 HIT:          0 MISS:          0
cpu0_L1D PREFETCH     ACCESS:          0 HIT:          0 MISS:          0
cpu0_L1D WRITE        ACCESS:   34635383 HIT:   30476290 MISS:    4159093
cpu0_L1D TRANSLATION  ACCESS:      46766 HIT:      29736 MISS:      17030
cpu0_L1D PREFETCH REQUESTED:          0 ISSUED:          0 USEFUL:          0 USELESS:          0
cpu0_L1D AVERAGE MISS LATENCY: 167.5 cycles
cpu0_L1I TOTAL        ACCESS:     203873 HIT:     200944 MISS:       2929
cpu0_L1I LOAD         ACCESS:     203873 HIT:     200944 MISS:       2929
cpu0_L1I RFO          ACCESS:          0 HIT:          0 MISS:          0
cpu0_L1I PREFETCH     ACCESS:          0 HIT:          0 MISS:          0
cpu0_L1I WRITE        ACCESS:          0 HIT:          0 MISS:          0
cpu0_L1I TRANSLATION  ACCESS:          0 HIT:          0 MISS:          0
cpu0_L1I PREFETCH REQUESTED:          0 ISSUED:          0 USEFUL:          0 USELESS:          0
cpu0_L1I AVERAGE MISS LATENCY: 521.2 cycles
cpu0_L2C TOTAL        ACCESS:    5261639 HIT:    2128340 MISS:    3133299
cpu0_L2C LOAD         ACCESS:    2353443 HIT:     113225 MISS:    2240218
cpu0_L2C RFO          ACCESS:     891023 HIT:       1687 MISS:     889336
cpu0_L2C PREFETCH     ACCESS:          0 HIT:          0 MISS:          0
cpu0_L2C WRITE        ACCESS:    2000145 HIT:    1999771 MISS:        374
cpu0_L2C TRANSLATION  ACCESS:      17028 HIT:      13657 MISS:       3371
cpu0_L2C PREFETCH REQUESTED:          0 ISSUED:          0 USEFUL:          0 USELESS:          0
cpu0_L2C AVERAGE MISS LATENCY: 841.2 cycles
cpu0_STLB TOTAL        ACCESS:     309951 HIT:     263205 MISS:      46746
cpu0_STLB LOAD         ACCESS:     309951 HIT:     263205 MISS:      46746
cpu0_STLB RFO          ACCESS:          0 HIT:          0 MISS:          0
cpu0_STLB PREFETCH     ACCESS:          0 HIT:          0 MISS:          0
cpu0_STLB WRITE        ACCESS:          0 HIT:          0 MISS:          0
cpu0_STLB TRANSLATION  ACCESS:          0 HIT:          0 MISS:          0
cpu0_STLB PREFETCH REQUESTED:          0 ISSUED:          0 USEFUL:          0 USELESS:          0
cpu0_STLB AVERAGE MISS LATENCY: 335.7 cycles

DRAM Statistics

Channel 0 RQ ROW_BUFFER_HIT:     934911
  ROW_BUFFER_MISS:    1782860
 AVG DBUS CONGESTED CYCLE: 3.963
WQ ROW_BUFFER_HIT: Channel 0 
  ROW_BUFFER_MISS:     394210
  FULL:    1315520
