WARNING: physical memory size is smaller than virtual memory size.

*** ChampSim Multicore Out-of-Order Simulator ***
Warmup Instructions: 50000000
Simulation Instructions: 600000000
Number of CPUs: 1
Page size: 4096

Off-chip DRAM Size: 4 GiB Channels: 1 Width: 64-bit Data Race: 3200 MT/s
Heartbeat CPU 0 instructions: 10000003 cycles: 2881044 heartbeat IPC: 3.471 cumulative IPC: 3.471 (Simulation time: 00 hr 00 min 54 sec)
Heartbeat CPU 0 instructions: 20000003 cycles: 5381044 heartbeat IPC: 4 cumulative IPC: 3.717 (Simulation time: 00 hr 01 min 47 sec)
Heartbeat CPU 0 instructions: 30000003 cycles: 7881044 heartbeat IPC: 4 cumulative IPC: 3.807 (Simulation time: 00 hr 02 min 40 sec)
Heartbeat CPU 0 instructions: 40000003 cycles: 10381044 heartbeat IPC: 4 cumulative IPC: 3.853 (Simulation time: 00 hr 03 min 33 sec)
Heartbeat CPU 0 instructions: 50000003 cycles: 12881044 heartbeat IPC: 4 cumulative IPC: 3.882 (Simulation time: 00 hr 04 min 24 sec)
Warmup finished CPU 0 instructions: 50000003 cycles: 12881045 cumulative IPC: 3.882 (Simulation time: 00 hr 04 min 24 sec)
Warmup complete CPU 0 instructions: 50000003 cycles: 12881045 cumulative IPC: 3.882 (Simulation time: 00 hr 04 min 24 sec)
Heartbeat CPU 0 instructions: 60000001 cycles: 15384494 heartbeat IPC: 3.994 cumulative IPC: 3.994 (Simulation time: 00 hr 05 min 24 sec)
Heartbeat CPU 0 instructions: 70000003 cycles: 17887732 heartbeat IPC: 3.995 cumulative IPC: 3.995 (Simulation time: 00 hr 06 min 26 sec)
Heartbeat CPU 0 instructions: 80000002 cycles: 20390141 heartbeat IPC: 3.996 cumulative IPC: 3.995 (Simulation time: 00 hr 07 min 28 sec)
Heartbeat CPU 0 instructions: 90000002 cycles: 22893394 heartbeat IPC: 3.995 cumulative IPC: 3.995 (Simulation time: 00 hr 08 min 27 sec)
Heartbeat CPU 0 instructions: 100000003 cycles: 25395814 heartbeat IPC: 3.996 cumulative IPC: 3.995 (Simulation time: 00 hr 09 min 37 sec)
Heartbeat CPU 0 instructions: 110000000 cycles: 27899927 heartbeat IPC: 3.993 cumulative IPC: 3.995 (Simulation time: 00 hr 10 min 51 sec)
Heartbeat CPU 0 instructions: 120000001 cycles: 30403606 heartbeat IPC: 3.994 cumulative IPC: 3.995 (Simulation time: 00 hr 11 min 52 sec)
Heartbeat CPU 0 instructions: 130000004 cycles: 32906013 heartbeat IPC: 3.996 cumulative IPC: 3.995 (Simulation time: 00 hr 12 min 50 sec)
Heartbeat CPU 0 instructions: 140000000 cycles: 35408417 heartbeat IPC: 3.996 cumulative IPC: 3.995 (Simulation time: 00 hr 13 min 45 sec)
Heartbeat CPU 0 instructions: 150000001 cycles: 37910847 heartbeat IPC: 3.996 cumulative IPC: 3.995 (Simulation time: 00 hr 14 min 39 sec)
Heartbeat CPU 0 instructions: 160000004 cycles: 40413254 heartbeat IPC: 3.996 cumulative IPC: 3.995 (Simulation time: 00 hr 15 min 33 sec)
Heartbeat CPU 0 instructions: 170000004 cycles: 42917485 heartbeat IPC: 3.993 cumulative IPC: 3.995 (Simulation time: 00 hr 16 min 27 sec)
Heartbeat CPU 0 instructions: 180000000 cycles: 45419847 heartbeat IPC: 3.996 cumulative IPC: 3.995 (Simulation time: 00 hr 17 min 21 sec)
Heartbeat CPU 0 instructions: 190000004 cycles: 47923278 heartbeat IPC: 3.995 cumulative IPC: 3.995 (Simulation time: 00 hr 18 min 16 sec)
Heartbeat CPU 0 instructions: 200000000 cycles: 50426461 heartbeat IPC: 3.995 cumulative IPC: 3.995 (Simulation time: 00 hr 19 min 14 sec)
Heartbeat CPU 0 instructions: 210000003 cycles: 52929010 heartbeat IPC: 3.996 cumulative IPC: 3.995 (Simulation time: 00 hr 20 min 11 sec)
Heartbeat CPU 0 instructions: 220000000 cycles: 55432345 heartbeat IPC: 3.995 cumulative IPC: 3.995 (Simulation time: 00 hr 21 min 06 sec)
Heartbeat CPU 0 instructions: 230000003 cycles: 89316945 heartbeat IPC: 0.2951 cumulative IPC: 2.355 (Simulation time: 00 hr 26 min 07 sec)
Heartbeat CPU 0 instructions: 240000000 cycles: 92898744 heartbeat IPC: 2.792 cumulative IPC: 2.374 (Simulation time: 00 hr 27 min 14 sec)
Heartbeat CPU 0 instructions: 250000004 cycles: 96429366 heartbeat IPC: 2.832 cumulative IPC: 2.394 (Simulation time: 00 hr 28 min 21 sec)
Heartbeat CPU 0 instructions: 260000004 cycles: 99942813 heartbeat IPC: 2.846 cumulative IPC: 2.412 (Simulation time: 00 hr 29 min 29 sec)
Heartbeat CPU 0 instructions: 270000001 cycles: 103478466 heartbeat IPC: 2.828 cumulative IPC: 2.428 (Simulation time: 00 hr 30 min 39 sec)
Heartbeat CPU 0 instructions: 280000002 cycles: 107012171 heartbeat IPC: 2.83 cumulative IPC: 2.443 (Simulation time: 00 hr 31 min 49 sec)
Heartbeat CPU 0 instructions: 290000002 cycles: 110503953 heartbeat IPC: 2.864 cumulative IPC: 2.458 (Simulation time: 00 hr 32 min 59 sec)
Heartbeat CPU 0 instructions: 300000002 cycles: 114005462 heartbeat IPC: 2.856 cumulative IPC: 2.472 (Simulation time: 00 hr 34 min 07 sec)
Heartbeat CPU 0 instructions: 310000004 cycles: 117530290 heartbeat IPC: 2.837 cumulative IPC: 2.484 (Simulation time: 00 hr 35 min 13 sec)
Heartbeat CPU 0 instructions: 320000000 cycles: 120986654 heartbeat IPC: 2.893 cumulative IPC: 2.498 (Simulation time: 00 hr 36 min 20 sec)
Heartbeat CPU 0 instructions: 330000000 cycles: 125233598 heartbeat IPC: 2.355 cumulative IPC: 2.492 (Simulation time: 00 hr 37 min 36 sec)
Heartbeat CPU 0 instructions: 340000004 cycles: 131772779 heartbeat IPC: 1.529 cumulative IPC: 2.439 (Simulation time: 00 hr 39 min 13 sec)
Heartbeat CPU 0 instructions: 350000002 cycles: 138284634 heartbeat IPC: 1.536 cumulative IPC: 2.392 (Simulation time: 00 hr 40 min 54 sec)
Heartbeat CPU 0 instructions: 360000003 cycles: 145132084 heartbeat IPC: 1.46 cumulative IPC: 2.344 (Simulation time: 00 hr 42 min 37 sec)
Heartbeat CPU 0 instructions: 370000004 cycles: 151972393 heartbeat IPC: 1.462 cumulative IPC: 2.301 (Simulation time: 00 hr 44 min 21 sec)
Heartbeat CPU 0 instructions: 380000004 cycles: 158864845 heartbeat IPC: 1.451 cumulative IPC: 2.261 (Simulation time: 00 hr 46 min 26 sec)
Heartbeat CPU 0 instructions: 390000004 cycles: 165703055 heartbeat IPC: 1.462 cumulative IPC: 2.225 (Simulation time: 00 hr 48 min 24 sec)
Heartbeat CPU 0 instructions: 400000004 cycles: 172486757 heartbeat IPC: 1.474 cumulative IPC: 2.193 (Simulation time: 00 hr 50 min 10 sec)
Heartbeat CPU 0 instructions: 410000002 cycles: 179150989 heartbeat IPC: 1.501 cumulative IPC: 2.165 (Simulation time: 00 hr 52 min 06 sec)
Heartbeat CPU 0 instructions: 420000001 cycles: 183819002 heartbeat IPC: 2.142 cumulative IPC: 2.165 (Simulation time: 00 hr 53 min 34 sec)
Heartbeat CPU 0 instructions: 430000001 cycles: 189502289 heartbeat IPC: 1.76 cumulative IPC: 2.151 (Simulation time: 00 hr 55 min 11 sec)
Heartbeat CPU 0 instructions: 440000002 cycles: 195281380 heartbeat IPC: 1.73 cumulative IPC: 2.138 (Simulation time: 00 hr 56 min 42 sec)
Heartbeat CPU 0 instructions: 450000003 cycles: 200957078 heartbeat IPC: 1.762 cumulative IPC: 2.127 (Simulation time: 00 hr 58 min 24 sec)
Heartbeat CPU 0 instructions: 460000002 cycles: 206730029 heartbeat IPC: 1.732 cumulative IPC: 2.115 (Simulation time: 01 hr 00 min 08 sec)
Heartbeat CPU 0 instructions: 470000004 cycles: 212473911 heartbeat IPC: 1.741 cumulative IPC: 2.104 (Simulation time: 01 hr 01 min 47 sec)
Heartbeat CPU 0 instructions: 480000003 cycles: 218182416 heartbeat IPC: 1.752 cumulative IPC: 2.094 (Simulation time: 01 hr 03 min 30 sec)
Heartbeat CPU 0 instructions: 490000003 cycles: 223808100 heartbeat IPC: 1.778 cumulative IPC: 2.086 (Simulation time: 01 hr 05 min 08 sec)
Heartbeat CPU 0 instructions: 500000002 cycles: 229443708 heartbeat IPC: 1.774 cumulative IPC: 2.078 (Simulation time: 01 hr 06 min 44 sec)
Heartbeat CPU 0 instructions: 510000002 cycles: 235081300 heartbeat IPC: 1.774 cumulative IPC: 2.07 (Simulation time: 01 hr 08 min 21 sec)
Heartbeat CPU 0 instructions: 520000004 cycles: 309970853 heartbeat IPC: 0.1335 cumulative IPC: 1.582 (Simulation time: 01 hr 22 min 54 sec)
Heartbeat CPU 0 instructions: 530000001 cycles: 441815110 heartbeat IPC: 0.07585 cumulative IPC: 1.119 (Simulation time: 01 hr 47 min 09 sec)
Heartbeat CPU 0 instructions: 540000004 cycles: 469450921 heartbeat IPC: 0.3618 cumulative IPC: 1.073 (Simulation time: 01 hr 52 min 35 sec)
Heartbeat CPU 0 instructions: 550000003 cycles: 497577730 heartbeat IPC: 0.3555 cumulative IPC: 1.032 (Simulation time: 01 hr 58 min 06 sec)
Heartbeat CPU 0 instructions: 560000000 cycles: 525043301 heartbeat IPC: 0.3641 cumulative IPC: 0.9958 (Simulation time: 02 hr 03 min 41 sec)
Heartbeat CPU 0 instructions: 570000003 cycles: 552968115 heartbeat IPC: 0.3581 cumulative IPC: 0.9628 (Simulation time: 02 hr 09 min 29 sec)
Heartbeat CPU 0 instructions: 580000002 cycles: 578493604 heartbeat IPC: 0.3918 cumulative IPC: 0.937 (Simulation time: 02 hr 14 min 49 sec)
Heartbeat CPU 0 instructions: 590000000 cycles: 605692405 heartbeat IPC: 0.3677 cumulative IPC: 0.9109 (Simulation time: 02 hr 20 min 21 sec)
*** Reached end of trace: (0, "traces/bt.A.champsimtrace")
Heartbeat CPU 0 instructions: 600000001 cycles: 632884533 heartbeat IPC: 0.3678 cumulative IPC: 0.8871 (Simulation time: 02 hr 25 min 44 sec)
Heartbeat CPU 0 instructions: 610000002 cycles: 660170710 heartbeat IPC: 0.3665 cumulative IPC: 0.8651 (Simulation time: 02 hr 29 min 56 sec)
Heartbeat CPU 0 instructions: 620000002 cycles: 662673099 heartbeat IPC: 3.996 cumulative IPC: 0.8772 (Simulation time: 02 hr 30 min 53 sec)
Heartbeat CPU 0 instructions: 630000003 cycles: 665175461 heartbeat IPC: 3.996 cumulative IPC: 0.8892 (Simulation time: 02 hr 31 min 49 sec)
Heartbeat CPU 0 instructions: 640000003 cycles: 667677827 heartbeat IPC: 3.996 cumulative IPC: 0.901 (Simulation time: 02 hr 32 min 43 sec)
Heartbeat CPU 0 instructions: 650000000 cycles: 670180345 heartbeat IPC: 3.996 cumulative IPC: 0.9128 (Simulation time: 02 hr 33 min 38 sec)
Simulation finished CPU 0 instructions: 600000002 cycles: 657299302 cumulative IPC: 0.9128 (Simulation time: 02 hr 33 min 38 sec)
Simulation complete CPU 0 instructions: 600000002 cycles: 657299302 cumulative IPC: 0.9128 (Simulation time: 02 hr 33 min 38 sec)

ChampSim completed all CPUs

=== Simulation ===
CPU 0 runs traces/bt.A.champsimtrace
Region of Interest Statistics

CPU 0 cumulative IPC: 0.9128 instructions: 600000002 cycles: 657299302
CPU 0 Branch Prediction Accuracy: 99.28% MPKI: 0.1297 Average ROB Occupancy at Mispredict: 278.4
Branch type MPKI
BRANCH_DIRECT_JUMP: 5e-06
BRANCH_INDIRECT: 8.67e-05
BRANCH_CONDITIONAL: 0.13
BRANCH_DIRECT_CALL: 6.67e-06
BRANCH_INDIRECT_CALL: 3.83e-05
BRANCH_RETURN: 2.17e-05

LLC TOTAL        ACCESS:    7749079 HIT:    3768450 MISS:    3980629
LLC LOAD         ACCESS:    2240163 HIT:    1317211 MISS:     922952
LLC RFO          ACCESS:     889338 HIT:      36136 MISS:     853202
LLC PREFETCH     ACCESS:    2627705 HIT:    1421607 MISS:    1206098
LLC WRITE        ACCESS:    1988511 HIT:     993217 MISS:     995294
LLC TRANSLATION  ACCESS:       3362 HIT:        279 MISS:       3083
LLC PREFETCH REQUESTED:    2627705 ISSUED:    2627705 USEFUL:     985857 USELESS:      20312
LLC AVERAGE MISS LATENCY: 1043 cycles
cpu0_DTLB TOTAL        ACCESS:  126542421 HIT:  125783842 MISS:     758579
cpu0_DTLB LOAD         ACCESS:  126542421 HIT:  125783842 MISS:     758579
cpu0_DTLB RFO          ACCESS:          0 HIT:          0 MISS:          0
cpu0_DTLB PREFETCH     ACCESS:          0 HIT:          0 MISS:          0
cpu0_DTLB WRITE        ACCESS:          0 HIT:          0 MISS:          0
cpu0_DTLB TRANSLATION  ACCESS:          0 HIT:          0 MISS:          0
cpu0_DTLB PREFETCH REQUESTED:          0 ISSUED:          0 USEFUL:          0 USELESS:          0
cpu0_DTLB AVERAGE MISS LATENCY: 15.08 cycles
cpu0_ITLB TOTAL        ACCESS:     141905 HIT:     141671 MISS:        234
cpu0_ITLB LOAD         ACCESS:     141905 HIT:     141671 MISS:        234
cpu0_ITLB RFO          ACCESS:          0 HIT:          0 MISS:          0
cpu0_ITLB PREFETCH     ACCESS:          0 HIT:          0 MISS:          0
cpu0_ITLB WRITE        ACCESS:          0 HIT:          0 MISS:          0
cpu0_ITLB TRANSLATION  ACCESS:          0 HIT:          0 MISS:          0
cpu0_ITLB PREFETCH REQUESTED:          0 ISSUED:          0 USEFUL:          0 USELESS:          0
cpu0_ITLB AVERAGE MISS LATENCY: 326.3 cycles
cpu0_L1D TOTAL        ACCESS:  194853477 HIT:  182072093 MISS:   12781384
cpu0_L1D LOAD         ACCESS:  160171303 HIT:  151563529 MISS:    8607774
cpu0_L1D RFO          ACCESS:          0 HIT:          0 MISS:          0
cpu0_L1D PREFETCH     ACCESS:          0 HIT:          0 MISS:          0
cpu0_L1D WRITE        ACCESS:   34635409 HIT:   30478827 MISS:    4156582
cpu0_L1D TRANSLATION  ACCESS:      46765 HIT:      29737 MISS:      17028
cpu0_L1D PREFETCH REQUESTED:          0 ISSUED:          0 USEFUL:          0 USELESS:          0
cpu0_L1D AVERAGE MISS LATENCY: 167.4 cycles
cpu0_L1I TOTAL        ACCESS:     191208 HIT:     188472 MISS:       2736
cpu0_L1I LOAD         ACCESS:     191208 HIT:     188472 MISS:       2736
cpu0_L1I RFO          ACCESS:          0 HIT:          0 MISS:          0
cpu0_L1I PREFETCH     ACCESS:          0 HIT:          0 MISS:          0
cpu0_L1I WRITE        ACCESS:          0 HIT:          0 MISS:          0
cpu0_L1I TRANSLATION  ACCESS:          0 HIT:          0 MISS:          0
cpu0_L1I PREFETCH REQUESTED:          0 ISSUED:          0 USEFUL:          0 USELESS:          0
cpu0_L1I AVERAGE MISS LATENCY: 555.4 cycles
cpu0_L2C TOTAL        ACCESS:    5260743 HIT:    2127480 MISS:    3133263
cpu0_L2C LOAD         ACCESS:    2353204 HIT:     113014 MISS:    2240190
cpu0_L2C RFO          ACCESS:     890700 HIT:       1362 MISS:     889338
cpu0_L2C PREFETCH     ACCESS:          0 HIT:          0 MISS:          0
cpu0_L2C WRITE        ACCESS:    1999812 HIT:    1999439 MISS:        373
cpu0_L2C TRANSLATION  ACCESS:      17027 HIT:      13665 MISS:       3362
cpu0_L2C PREFETCH REQUESTED:          0 ISSUED:          0 USEFUL:          0 USELESS:          0
cpu0_L2C AVERAGE MISS LATENCY: 842.1 cycles
cpu0_STLB TOTAL        ACCESS:     309886 HIT:     263140 MISS:      46746
cpu0_STLB LOAD         ACCESS:     309886 HIT:     263140 MISS:      46746
cpu0_STLB RFO          ACCESS:          0 HIT:          0 MISS:          0
cpu0_STLB PREFETCH     ACCESS:          0 HIT:          0 MISS:          0
cpu0_STLB WRITE        ACCESS:          0 HIT:          0 MISS:          0
cpu0_STLB TRANSLATION  ACCESS:          0 HIT:          0 MISS:          0
cpu0_STLB PREFETCH REQUESTED:          0 ISSUED:          0 USEFUL:          0 USELESS:          0
cpu0_STLB AVERAGE MISS LATENCY: 329.5 cycles

DRAM Statistics

Channel 0 RQ ROW_BUFFER_HIT:     932660
  ROW_BUFFER_MISS:    1785409
 AVG DBUS CONGESTED CYCLE: 3.963
WQ ROW_BUFFER_HIT: Channel 0 
  ROW_BUFFER_MISS:     395858
  FULL:    1317073
