WARNING: physical memory size is smaller than virtual memory size.

*** ChampSim Multicore Out-of-Order Simulator ***
Warmup Instructions: 50000000
Simulation Instructions: 600000000
Number of CPUs: 1
Page size: 4096

CPU 0 Tage branch predictor
Off-chip DRAM Size: 4 GiB Channels: 1 Width: 64-bit Data Race: 3200 MT/s
Heartbeat CPU 0 instructions: 10000000 cycles: 2881042 heartbeat IPC: 3.471 cumulative IPC: 3.471 (Simulation time: 00 hr 00 min 43 sec)
Heartbeat CPU 0 instructions: 20000000 cycles: 5381042 heartbeat IPC: 4 cumulative IPC: 3.717 (Simulation time: 00 hr 01 min 21 sec)
Heartbeat CPU 0 instructions: 30000000 cycles: 7881042 heartbeat IPC: 4 cumulative IPC: 3.807 (Simulation time: 00 hr 01 min 58 sec)
Heartbeat CPU 0 instructions: 40000000 cycles: 10381042 heartbeat IPC: 4 cumulative IPC: 3.853 (Simulation time: 00 hr 02 min 37 sec)
Heartbeat CPU 0 instructions: 50000000 cycles: 12881042 heartbeat IPC: 4 cumulative IPC: 3.882 (Simulation time: 00 hr 03 min 17 sec)
Warmup finished CPU 0 instructions: 50000000 cycles: 12881043 cumulative IPC: 3.882 (Simulation time: 00 hr 03 min 17 sec)
Warmup complete CPU 0 instructions: 50000000 cycles: 12881043 cumulative IPC: 3.882 (Simulation time: 00 hr 03 min 17 sec)
Heartbeat CPU 0 instructions: 60000004 cycles: 15381076 heartbeat IPC: 4 cumulative IPC: 4 (Simulation time: 00 hr 04 min 03 sec)
Heartbeat CPU 0 instructions: 70000002 cycles: 17881107 heartbeat IPC: 4 cumulative IPC: 4 (Simulation time: 00 hr 04 min 48 sec)
Heartbeat CPU 0 instructions: 80000001 cycles: 20381135 heartbeat IPC: 4 cumulative IPC: 4 (Simulation time: 00 hr 05 min 31 sec)
Heartbeat CPU 0 instructions: 90000004 cycles: 22881212 heartbeat IPC: 4 cumulative IPC: 4 (Simulation time: 00 hr 06 min 15 sec)
Heartbeat CPU 0 instructions: 100000000 cycles: 25381478 heartbeat IPC: 4 cumulative IPC: 4 (Simulation time: 00 hr 06 min 58 sec)
Heartbeat CPU 0 instructions: 110000002 cycles: 27881819 heartbeat IPC: 3.999 cumulative IPC: 4 (Simulation time: 00 hr 07 min 42 sec)
Heartbeat CPU 0 instructions: 120000000 cycles: 30383785 heartbeat IPC: 3.997 cumulative IPC: 3.999 (Simulation time: 00 hr 08 min 26 sec)
Heartbeat CPU 0 instructions: 130000002 cycles: 32885223 heartbeat IPC: 3.998 cumulative IPC: 3.999 (Simulation time: 00 hr 09 min 09 sec)
Heartbeat CPU 0 instructions: 140000004 cycles: 35387482 heartbeat IPC: 3.996 cumulative IPC: 3.999 (Simulation time: 00 hr 09 min 53 sec)
Heartbeat CPU 0 instructions: 150000000 cycles: 37888617 heartbeat IPC: 3.998 cumulative IPC: 3.999 (Simulation time: 00 hr 10 min 37 sec)
Heartbeat CPU 0 instructions: 160000003 cycles: 40389625 heartbeat IPC: 3.998 cumulative IPC: 3.999 (Simulation time: 00 hr 11 min 22 sec)
Heartbeat CPU 0 instructions: 170000002 cycles: 42890734 heartbeat IPC: 3.998 cumulative IPC: 3.999 (Simulation time: 00 hr 12 min 07 sec)
Heartbeat CPU 0 instructions: 180000000 cycles: 45391250 heartbeat IPC: 3.999 cumulative IPC: 3.999 (Simulation time: 00 hr 12 min 51 sec)
Heartbeat CPU 0 instructions: 190000003 cycles: 47892475 heartbeat IPC: 3.998 cumulative IPC: 3.999 (Simulation time: 00 hr 13 min 36 sec)
Heartbeat CPU 0 instructions: 200000000 cycles: 50392642 heartbeat IPC: 4 cumulative IPC: 3.999 (Simulation time: 00 hr 14 min 22 sec)
Heartbeat CPU 0 instructions: 210000000 cycles: 52893471 heartbeat IPC: 3.999 cumulative IPC: 3.999 (Simulation time: 00 hr 15 min 07 sec)
Heartbeat CPU 0 instructions: 220000003 cycles: 55395038 heartbeat IPC: 3.997 cumulative IPC: 3.999 (Simulation time: 00 hr 15 min 52 sec)
Heartbeat CPU 0 instructions: 230000002 cycles: 88638154 heartbeat IPC: 0.3008 cumulative IPC: 2.376 (Simulation time: 00 hr 19 min 40 sec)
Heartbeat CPU 0 instructions: 240000002 cycles: 92116835 heartbeat IPC: 2.875 cumulative IPC: 2.398 (Simulation time: 00 hr 20 min 34 sec)
Heartbeat CPU 0 instructions: 250000000 cycles: 95462210 heartbeat IPC: 2.989 cumulative IPC: 2.422 (Simulation time: 00 hr 21 min 26 sec)
Heartbeat CPU 0 instructions: 260000002 cycles: 98778008 heartbeat IPC: 3.016 cumulative IPC: 2.445 (Simulation time: 00 hr 22 min 17 sec)
Heartbeat CPU 0 instructions: 270000003 cycles: 102104245 heartbeat IPC: 3.006 cumulative IPC: 2.466 (Simulation time: 00 hr 23 min 10 sec)
Heartbeat CPU 0 instructions: 280000003 cycles: 105465152 heartbeat IPC: 2.975 cumulative IPC: 2.484 (Simulation time: 00 hr 24 min 07 sec)
Heartbeat CPU 0 instructions: 290000002 cycles: 108805901 heartbeat IPC: 2.993 cumulative IPC: 2.502 (Simulation time: 00 hr 25 min 02 sec)
Heartbeat CPU 0 instructions: 300000003 cycles: 112107403 heartbeat IPC: 3.029 cumulative IPC: 2.519 (Simulation time: 00 hr 25 min 58 sec)
Heartbeat CPU 0 instructions: 310000002 cycles: 115436599 heartbeat IPC: 3.004 cumulative IPC: 2.535 (Simulation time: 00 hr 26 min 51 sec)
Heartbeat CPU 0 instructions: 320000004 cycles: 118747445 heartbeat IPC: 3.02 cumulative IPC: 2.55 (Simulation time: 00 hr 27 min 44 sec)
Heartbeat CPU 0 instructions: 330000000 cycles: 123985159 heartbeat IPC: 1.909 cumulative IPC: 2.52 (Simulation time: 00 hr 28 min 51 sec)
Heartbeat CPU 0 instructions: 340000002 cycles: 130715573 heartbeat IPC: 1.486 cumulative IPC: 2.461 (Simulation time: 00 hr 30 min 10 sec)
Heartbeat CPU 0 instructions: 350000002 cycles: 137505439 heartbeat IPC: 1.473 cumulative IPC: 2.407 (Simulation time: 00 hr 31 min 31 sec)
Heartbeat CPU 0 instructions: 360000002 cycles: 144265264 heartbeat IPC: 1.479 cumulative IPC: 2.359 (Simulation time: 00 hr 32 min 51 sec)
Heartbeat CPU 0 instructions: 370000001 cycles: 150984628 heartbeat IPC: 1.488 cumulative IPC: 2.317 (Simulation time: 00 hr 34 min 10 sec)
Heartbeat CPU 0 instructions: 380000003 cycles: 157816094 heartbeat IPC: 1.464 cumulative IPC: 2.277 (Simulation time: 00 hr 35 min 33 sec)
Heartbeat CPU 0 instructions: 390000004 cycles: 164477759 heartbeat IPC: 1.501 cumulative IPC: 2.243 (Simulation time: 00 hr 36 min 53 sec)
Heartbeat CPU 0 instructions: 400000000 cycles: 171286366 heartbeat IPC: 1.469 cumulative IPC: 2.21 (Simulation time: 00 hr 38 min 18 sec)
Heartbeat CPU 0 instructions: 410000003 cycles: 177941110 heartbeat IPC: 1.503 cumulative IPC: 2.181 (Simulation time: 00 hr 39 min 40 sec)
Heartbeat CPU 0 instructions: 420000000 cycles: 183950356 heartbeat IPC: 1.664 cumulative IPC: 2.163 (Simulation time: 00 hr 40 min 54 sec)
Heartbeat CPU 0 instructions: 430000002 cycles: 190639927 heartbeat IPC: 1.495 cumulative IPC: 2.138 (Simulation time: 00 hr 42 min 13 sec)
Heartbeat CPU 0 instructions: 440000002 cycles: 197690002 heartbeat IPC: 1.418 cumulative IPC: 2.11 (Simulation time: 00 hr 43 min 36 sec)
Heartbeat CPU 0 instructions: 450000000 cycles: 204787220 heartbeat IPC: 1.409 cumulative IPC: 2.084 (Simulation time: 00 hr 45 min 00 sec)
Heartbeat CPU 0 instructions: 460000003 cycles: 211856196 heartbeat IPC: 1.415 cumulative IPC: 2.061 (Simulation time: 00 hr 46 min 26 sec)
Heartbeat CPU 0 instructions: 470000004 cycles: 218884802 heartbeat IPC: 1.423 cumulative IPC: 2.039 (Simulation time: 00 hr 47 min 48 sec)
Heartbeat CPU 0 instructions: 480000000 cycles: 226191114 heartbeat IPC: 1.369 cumulative IPC: 2.016 (Simulation time: 00 hr 49 min 17 sec)
Heartbeat CPU 0 instructions: 490000001 cycles: 233424345 heartbeat IPC: 1.383 cumulative IPC: 1.995 (Simulation time: 00 hr 50 min 40 sec)
Heartbeat CPU 0 instructions: 500000001 cycles: 240678951 heartbeat IPC: 1.378 cumulative IPC: 1.975 (Simulation time: 00 hr 52 min 06 sec)
Heartbeat CPU 0 instructions: 510000002 cycles: 247714264 heartbeat IPC: 1.421 cumulative IPC: 1.959 (Simulation time: 00 hr 53 min 28 sec)
Heartbeat CPU 0 instructions: 520000000 cycles: 316186944 heartbeat IPC: 0.146 cumulative IPC: 1.55 (Simulation time: 01 hr 02 min 59 sec)
Heartbeat CPU 0 instructions: 530000001 cycles: 446975708 heartbeat IPC: 0.07646 cumulative IPC: 1.106 (Simulation time: 01 hr 20 min 42 sec)
Heartbeat CPU 0 instructions: 540000001 cycles: 468205300 heartbeat IPC: 0.471 cumulative IPC: 1.076 (Simulation time: 01 hr 23 min 56 sec)
Heartbeat CPU 0 instructions: 550000003 cycles: 496725314 heartbeat IPC: 0.3506 cumulative IPC: 1.033 (Simulation time: 01 hr 28 min 08 sec)
Heartbeat CPU 0 instructions: 560000001 cycles: 528409950 heartbeat IPC: 0.3156 cumulative IPC: 0.9893 (Simulation time: 01 hr 32 min 52 sec)
Heartbeat CPU 0 instructions: 570000001 cycles: 560125806 heartbeat IPC: 0.3153 cumulative IPC: 0.9502 (Simulation time: 01 hr 37 min 34 sec)
Heartbeat CPU 0 instructions: 580000002 cycles: 583206296 heartbeat IPC: 0.4333 cumulative IPC: 0.9293 (Simulation time: 01 hr 41 min 07 sec)
Heartbeat CPU 0 instructions: 590000000 cycles: 606611136 heartbeat IPC: 0.4273 cumulative IPC: 0.9095 (Simulation time: 01 hr 44 min 44 sec)
*** Reached end of trace: (0, "traces/bt.A.champsimtrace")
Heartbeat CPU 0 instructions: 600000002 cycles: 636546890 heartbeat IPC: 0.334 cumulative IPC: 0.8819 (Simulation time: 01 hr 49 min 15 sec)
Heartbeat CPU 0 instructions: 610000004 cycles: 657160194 heartbeat IPC: 0.4851 cumulative IPC: 0.8692 (Simulation time: 01 hr 51 min 43 sec)
Heartbeat CPU 0 instructions: 620000000 cycles: 659660224 heartbeat IPC: 4 cumulative IPC: 0.8813 (Simulation time: 01 hr 52 min 28 sec)
Heartbeat CPU 0 instructions: 630000002 cycles: 662160255 heartbeat IPC: 4 cumulative IPC: 0.8933 (Simulation time: 01 hr 53 min 13 sec)
Heartbeat CPU 0 instructions: 640000001 cycles: 664660286 heartbeat IPC: 4 cumulative IPC: 0.9052 (Simulation time: 01 hr 53 min 59 sec)
Heartbeat CPU 0 instructions: 650000002 cycles: 667160305 heartbeat IPC: 4 cumulative IPC: 0.917 (Simulation time: 01 hr 54 min 45 sec)
Simulation finished CPU 0 instructions: 600000002 cycles: 654279263 cumulative IPC: 0.917 (Simulation time: 01 hr 54 min 45 sec)
Simulation complete CPU 0 instructions: 600000002 cycles: 654279263 cumulative IPC: 0.917 (Simulation time: 01 hr 54 min 45 sec)

ChampSim completed all CPUs

=== Simulation ===
CPU 0 runs traces/bt.A.champsimtrace
Region of Interest Statistics

CPU 0 cumulative IPC: 0.917 instructions: 600000002 cycles: 654279263
CPU 0 Branch Prediction Accuracy: 99.98% MPKI: 0.004168 Average ROB Occupancy at Mispredict: 111.6
Branch type MPKI
BRANCH_DIRECT_JUMP: 5e-06
BRANCH_INDIRECT: 7.83e-05
BRANCH_CONDITIONAL: 0.00402
BRANCH_DIRECT_CALL: 6.67e-06
BRANCH_INDIRECT_CALL: 3.67e-05
BRANCH_RETURN: 2.33e-05

LLC TOTAL        ACCESS:    7786107 HIT:    3736196 MISS:    4049911
LLC LOAD         ACCESS:    2240146 HIT:    1336833 MISS:     903313
LLC RFO          ACCESS:     889446 HIT:     123671 MISS:     765775
LLC PREFETCH     ACCESS:    2664586 HIT:    1392998 MISS:    1271588
LLC WRITE        ACCESS:    1988553 HIT:     882437 MISS:    1106116
LLC TRANSLATION  ACCESS:       3376 HIT:        257 MISS:       3119
LLC PREFETCH REQUESTED:    2664586 ISSUED:    2664586 USEFUL:     920473 USELESS:      25902
LLC AVERAGE MISS LATENCY: 1014 cycles
cpu0_DTLB TOTAL        ACCESS:  127246506 HIT:  126470042 MISS:     776464
cpu0_DTLB LOAD         ACCESS:  127246506 HIT:  126470042 MISS:     776464
cpu0_DTLB RFO          ACCESS:          0 HIT:          0 MISS:          0
cpu0_DTLB PREFETCH     ACCESS:          0 HIT:          0 MISS:          0
cpu0_DTLB WRITE        ACCESS:          0 HIT:          0 MISS:          0
cpu0_DTLB TRANSLATION  ACCESS:          0 HIT:          0 MISS:          0
cpu0_DTLB PREFETCH REQUESTED:          0 ISSUED:          0 USEFUL:          0 USELESS:          0
cpu0_DTLB AVERAGE MISS LATENCY: 14.41 cycles
cpu0_ITLB TOTAL        ACCESS:     173008 HIT:     172756 MISS:        252
cpu0_ITLB LOAD         ACCESS:     173008 HIT:     172756 MISS:        252
cpu0_ITLB RFO          ACCESS:          0 HIT:          0 MISS:          0
cpu0_ITLB PREFETCH     ACCESS:          0 HIT:          0 MISS:          0
cpu0_ITLB WRITE        ACCESS:          0 HIT:          0 MISS:          0
cpu0_ITLB TRANSLATION  ACCESS:          0 HIT:          0 MISS:          0
cpu0_ITLB PREFETCH REQUESTED:          0 ISSUED:          0 USEFUL:          0 USELESS:          0
cpu0_ITLB AVERAGE MISS LATENCY: 300.7 cycles
cpu0_L1D TOTAL        ACCESS:  195480779 HIT:  183026790 MISS:   12453989
cpu0_L1D LOAD         ACCESS:  160798553 HIT:  152471620 MISS:    8326933
cpu0_L1D RFO          ACCESS:          0 HIT:          0 MISS:          0
cpu0_L1D PREFETCH     ACCESS:          0 HIT:          0 MISS:          0
cpu0_L1D WRITE        ACCESS:   34635452 HIT:   30525466 MISS:    4109986
cpu0_L1D TRANSLATION  ACCESS:      46774 HIT:      29704 MISS:      17070
cpu0_L1D PREFETCH REQUESTED:          0 ISSUED:          0 USEFUL:          0 USELESS:          0
cpu0_L1D AVERAGE MISS LATENCY: 166.7 cycles
cpu0_L1I TOTAL        ACCESS:     205574 HIT:     202607 MISS:       2967
cpu0_L1I LOAD         ACCESS:     205574 HIT:     202607 MISS:       2967
cpu0_L1I RFO          ACCESS:          0 HIT:          0 MISS:          0
cpu0_L1I PREFETCH     ACCESS:          0 HIT:          0 MISS:          0
cpu0_L1I WRITE        ACCESS:          0 HIT:          0 MISS:          0
cpu0_L1I TRANSLATION  ACCESS:          0 HIT:          0 MISS:          0
cpu0_L1I PREFETCH REQUESTED:          0 ISSUED:          0 USEFUL:          0 USELESS:          0
cpu0_L1I AVERAGE MISS LATENCY: 528 cycles
cpu0_L2C TOTAL        ACCESS:    5259368 HIT:    2125916 MISS:    3133452
cpu0_L2C LOAD         ACCESS:    2353229 HIT:     113055 MISS:    2240174
cpu0_L2C RFO          ACCESS:     889975 HIT:        529 MISS:     889446
cpu0_L2C PREFETCH     ACCESS:          0 HIT:          0 MISS:          0
cpu0_L2C WRITE        ACCESS:    1999096 HIT:    1998640 MISS:        456
cpu0_L2C TRANSLATION  ACCESS:      17068 HIT:      13692 MISS:       3376
cpu0_L2C PREFETCH REQUESTED:          0 ISSUED:          0 USEFUL:          0 USELESS:          0
cpu0_L2C AVERAGE MISS LATENCY: 812.3 cycles
cpu0_STLB TOTAL        ACCESS:     314164 HIT:     267412 MISS:      46752
cpu0_STLB LOAD         ACCESS:     314164 HIT:     267412 MISS:      46752
cpu0_STLB RFO          ACCESS:          0 HIT:          0 MISS:          0
cpu0_STLB PREFETCH     ACCESS:          0 HIT:          0 MISS:          0
cpu0_STLB WRITE        ACCESS:          0 HIT:          0 MISS:          0
cpu0_STLB TRANSLATION  ACCESS:          0 HIT:          0 MISS:          0
cpu0_STLB PREFETCH REQUESTED:          0 ISSUED:          0 USEFUL:          0 USELESS:          0
cpu0_STLB AVERAGE MISS LATENCY: 333.8 cycles

DRAM Statistics

Channel 0 RQ ROW_BUFFER_HIT:     936630
  ROW_BUFFER_MISS:    1617437
 AVG DBUS CONGESTED CYCLE: 3.958
WQ ROW_BUFFER_HIT: Channel 0 
  ROW_BUFFER_MISS:     624991
  FULL:    1144082
