WARNING: physical memory size is smaller than virtual memory size.

*** ChampSim Multicore Out-of-Order Simulator ***
Warmup Instructions: 50000000
Simulation Instructions: 600000000
Number of CPUs: 1
Page size: 4096

Off-chip DRAM Size: 4 GiB Channels: 1 Width: 64-bit Data Race: 3200 MT/s
Heartbeat CPU 0 instructions: 10000002 cycles: 2881030 heartbeat IPC: 3.471 cumulative IPC: 3.471 (Simulation time: 00 hr 00 min 52 sec)
Heartbeat CPU 0 instructions: 20000002 cycles: 5381030 heartbeat IPC: 4 cumulative IPC: 3.717 (Simulation time: 00 hr 01 min 39 sec)
Heartbeat CPU 0 instructions: 30000002 cycles: 7881030 heartbeat IPC: 4 cumulative IPC: 3.807 (Simulation time: 00 hr 02 min 27 sec)
Heartbeat CPU 0 instructions: 40000002 cycles: 10381030 heartbeat IPC: 4 cumulative IPC: 3.853 (Simulation time: 00 hr 03 min 14 sec)
Heartbeat CPU 0 instructions: 50000002 cycles: 12881030 heartbeat IPC: 4 cumulative IPC: 3.882 (Simulation time: 00 hr 04 min 00 sec)
Warmup finished CPU 0 instructions: 50000002 cycles: 12881031 cumulative IPC: 3.882 (Simulation time: 00 hr 04 min 00 sec)
Warmup complete CPU 0 instructions: 50000002 cycles: 12881031 cumulative IPC: 3.882 (Simulation time: 00 hr 04 min 00 sec)
Heartbeat CPU 0 instructions: 60000004 cycles: 15386053 heartbeat IPC: 3.992 cumulative IPC: 3.992 (Simulation time: 00 hr 04 min 54 sec)
Heartbeat CPU 0 instructions: 70000000 cycles: 17889869 heartbeat IPC: 3.994 cumulative IPC: 3.993 (Simulation time: 00 hr 05 min 48 sec)
Heartbeat CPU 0 instructions: 80000002 cycles: 20394248 heartbeat IPC: 3.993 cumulative IPC: 3.993 (Simulation time: 00 hr 06 min 42 sec)
Heartbeat CPU 0 instructions: 90000004 cycles: 22901812 heartbeat IPC: 3.988 cumulative IPC: 3.992 (Simulation time: 00 hr 07 min 35 sec)
Heartbeat CPU 0 instructions: 100000004 cycles: 25406784 heartbeat IPC: 3.992 cumulative IPC: 3.992 (Simulation time: 00 hr 08 min 29 sec)
Heartbeat CPU 0 instructions: 110000000 cycles: 27910553 heartbeat IPC: 3.994 cumulative IPC: 3.992 (Simulation time: 00 hr 09 min 23 sec)
Heartbeat CPU 0 instructions: 120000003 cycles: 30412951 heartbeat IPC: 3.996 cumulative IPC: 3.993 (Simulation time: 00 hr 10 min 16 sec)
Heartbeat CPU 0 instructions: 130000000 cycles: 32916765 heartbeat IPC: 3.994 cumulative IPC: 3.993 (Simulation time: 00 hr 11 min 10 sec)
Heartbeat CPU 0 instructions: 140000001 cycles: 35420713 heartbeat IPC: 3.994 cumulative IPC: 3.993 (Simulation time: 00 hr 12 min 04 sec)
Heartbeat CPU 0 instructions: 150000000 cycles: 37924673 heartbeat IPC: 3.994 cumulative IPC: 3.993 (Simulation time: 00 hr 12 min 58 sec)
Heartbeat CPU 0 instructions: 160000001 cycles: 40430230 heartbeat IPC: 3.991 cumulative IPC: 3.993 (Simulation time: 00 hr 13 min 52 sec)
Heartbeat CPU 0 instructions: 170000002 cycles: 42934278 heartbeat IPC: 3.994 cumulative IPC: 3.993 (Simulation time: 00 hr 14 min 45 sec)
Heartbeat CPU 0 instructions: 180000001 cycles: 45436641 heartbeat IPC: 3.996 cumulative IPC: 3.993 (Simulation time: 00 hr 15 min 39 sec)
Heartbeat CPU 0 instructions: 190000004 cycles: 47940322 heartbeat IPC: 3.994 cumulative IPC: 3.993 (Simulation time: 00 hr 16 min 33 sec)
Heartbeat CPU 0 instructions: 200000000 cycles: 50442773 heartbeat IPC: 3.996 cumulative IPC: 3.993 (Simulation time: 00 hr 17 min 26 sec)
Heartbeat CPU 0 instructions: 210000000 cycles: 52945923 heartbeat IPC: 3.995 cumulative IPC: 3.994 (Simulation time: 00 hr 18 min 19 sec)
Heartbeat CPU 0 instructions: 220000000 cycles: 55453593 heartbeat IPC: 3.988 cumulative IPC: 3.993 (Simulation time: 00 hr 19 min 14 sec)
Heartbeat CPU 0 instructions: 230000004 cycles: 89759297 heartbeat IPC: 0.2915 cumulative IPC: 2.341 (Simulation time: 00 hr 25 min 13 sec)
Heartbeat CPU 0 instructions: 240000001 cycles: 95778222 heartbeat IPC: 1.661 cumulative IPC: 2.292 (Simulation time: 00 hr 26 min 51 sec)
Heartbeat CPU 0 instructions: 250000000 cycles: 101829467 heartbeat IPC: 1.653 cumulative IPC: 2.248 (Simulation time: 00 hr 28 min 29 sec)
Heartbeat CPU 0 instructions: 260000002 cycles: 107894622 heartbeat IPC: 1.649 cumulative IPC: 2.21 (Simulation time: 00 hr 30 min 07 sec)
Heartbeat CPU 0 instructions: 270000000 cycles: 113970131 heartbeat IPC: 1.646 cumulative IPC: 2.176 (Simulation time: 00 hr 31 min 45 sec)
Heartbeat CPU 0 instructions: 280000001 cycles: 120035915 heartbeat IPC: 1.649 cumulative IPC: 2.146 (Simulation time: 00 hr 33 min 24 sec)
Heartbeat CPU 0 instructions: 290000003 cycles: 126137264 heartbeat IPC: 1.639 cumulative IPC: 2.119 (Simulation time: 00 hr 35 min 02 sec)
Heartbeat CPU 0 instructions: 300000003 cycles: 132219031 heartbeat IPC: 1.644 cumulative IPC: 2.095 (Simulation time: 00 hr 36 min 40 sec)
Heartbeat CPU 0 instructions: 310000000 cycles: 138289480 heartbeat IPC: 1.647 cumulative IPC: 2.073 (Simulation time: 00 hr 38 min 18 sec)
Heartbeat CPU 0 instructions: 320000002 cycles: 144351904 heartbeat IPC: 1.65 cumulative IPC: 2.054 (Simulation time: 00 hr 39 min 57 sec)
Heartbeat CPU 0 instructions: 330000002 cycles: 151039688 heartbeat IPC: 1.495 cumulative IPC: 2.027 (Simulation time: 00 hr 41 min 41 sec)
Heartbeat CPU 0 instructions: 340000003 cycles: 157946095 heartbeat IPC: 1.448 cumulative IPC: 1.999 (Simulation time: 00 hr 43 min 32 sec)
Heartbeat CPU 0 instructions: 350000000 cycles: 164806271 heartbeat IPC: 1.458 cumulative IPC: 1.975 (Simulation time: 00 hr 45 min 20 sec)
Heartbeat CPU 0 instructions: 360000001 cycles: 171711559 heartbeat IPC: 1.448 cumulative IPC: 1.952 (Simulation time: 00 hr 47 min 07 sec)
Heartbeat CPU 0 instructions: 370000004 cycles: 178554092 heartbeat IPC: 1.461 cumulative IPC: 1.932 (Simulation time: 00 hr 48 min 53 sec)
Heartbeat CPU 0 instructions: 380000003 cycles: 185475050 heartbeat IPC: 1.445 cumulative IPC: 1.912 (Simulation time: 00 hr 50 min 41 sec)
Heartbeat CPU 0 instructions: 390000000 cycles: 192274357 heartbeat IPC: 1.471 cumulative IPC: 1.895 (Simulation time: 00 hr 52 min 27 sec)
Heartbeat CPU 0 instructions: 400000001 cycles: 199211946 heartbeat IPC: 1.441 cumulative IPC: 1.878 (Simulation time: 00 hr 54 min 16 sec)
Heartbeat CPU 0 instructions: 410000001 cycles: 206076354 heartbeat IPC: 1.457 cumulative IPC: 1.863 (Simulation time: 00 hr 56 min 03 sec)
Heartbeat CPU 0 instructions: 420000004 cycles: 212935946 heartbeat IPC: 1.458 cumulative IPC: 1.849 (Simulation time: 00 hr 57 min 50 sec)
Heartbeat CPU 0 instructions: 430000004 cycles: 220539048 heartbeat IPC: 1.315 cumulative IPC: 1.83 (Simulation time: 00 hr 59 min 44 sec)
Heartbeat CPU 0 instructions: 440000004 cycles: 227090109 heartbeat IPC: 1.526 cumulative IPC: 1.821 (Simulation time: 01 hr 01 min 27 sec)
Heartbeat CPU 0 instructions: 450000000 cycles: 233706550 heartbeat IPC: 1.511 cumulative IPC: 1.811 (Simulation time: 01 hr 03 min 10 sec)
Heartbeat CPU 0 instructions: 460000001 cycles: 240972472 heartbeat IPC: 1.376 cumulative IPC: 1.798 (Simulation time: 01 hr 05 min 01 sec)
Heartbeat CPU 0 instructions: 470000000 cycles: 248216132 heartbeat IPC: 1.381 cumulative IPC: 1.785 (Simulation time: 01 hr 06 min 52 sec)
Heartbeat CPU 0 instructions: 480000003 cycles: 255507157 heartbeat IPC: 1.372 cumulative IPC: 1.772 (Simulation time: 01 hr 08 min 44 sec)
Heartbeat CPU 0 instructions: 490000004 cycles: 262790060 heartbeat IPC: 1.373 cumulative IPC: 1.761 (Simulation time: 01 hr 10 min 36 sec)
Heartbeat CPU 0 instructions: 500000002 cycles: 270065556 heartbeat IPC: 1.374 cumulative IPC: 1.75 (Simulation time: 01 hr 12 min 27 sec)
Heartbeat CPU 0 instructions: 510000003 cycles: 277860917 heartbeat IPC: 1.283 cumulative IPC: 1.736 (Simulation time: 01 hr 14 min 24 sec)
Heartbeat CPU 0 instructions: 520000003 cycles: 333572267 heartbeat IPC: 0.1795 cumulative IPC: 1.466 (Simulation time: 01 hr 25 min 34 sec)
Heartbeat CPU 0 instructions: 530000002 cycles: 444443336 heartbeat IPC: 0.09019 cumulative IPC: 1.112 (Simulation time: 01 hr 47 min 28 sec)
Heartbeat CPU 0 instructions: 540000003 cycles: 482440454 heartbeat IPC: 0.2632 cumulative IPC: 1.044 (Simulation time: 01 hr 55 min 19 sec)
Heartbeat CPU 0 instructions: 550000000 cycles: 520765685 heartbeat IPC: 0.2609 cumulative IPC: 0.9845 (Simulation time: 02 hr 03 min 12 sec)
Heartbeat CPU 0 instructions: 560000000 cycles: 558849619 heartbeat IPC: 0.2626 cumulative IPC: 0.9341 (Simulation time: 02 hr 11 min 03 sec)
Heartbeat CPU 0 instructions: 570000002 cycles: 596932895 heartbeat IPC: 0.2626 cumulative IPC: 0.8903 (Simulation time: 02 hr 18 min 56 sec)
Heartbeat CPU 0 instructions: 580000000 cycles: 633552979 heartbeat IPC: 0.2731 cumulative IPC: 0.8539 (Simulation time: 02 hr 26 min 33 sec)
Heartbeat CPU 0 instructions: 590000001 cycles: 670219687 heartbeat IPC: 0.2727 cumulative IPC: 0.8215 (Simulation time: 02 hr 34 min 12 sec)
*** Reached end of trace: (0, "traces/bt.A.champsimtrace")
Heartbeat CPU 0 instructions: 600000000 cycles: 708275992 heartbeat IPC: 0.2628 cumulative IPC: 0.7909 (Simulation time: 02 hr 42 min 12 sec)
Heartbeat CPU 0 instructions: 610000004 cycles: 736728582 heartbeat IPC: 0.3515 cumulative IPC: 0.7736 (Simulation time: 02 hr 46 min 56 sec)
Heartbeat CPU 0 instructions: 620000000 cycles: 739232507 heartbeat IPC: 3.994 cumulative IPC: 0.7847 (Simulation time: 02 hr 47 min 51 sec)
Heartbeat CPU 0 instructions: 630000003 cycles: 741735244 heartbeat IPC: 3.996 cumulative IPC: 0.7958 (Simulation time: 02 hr 48 min 45 sec)
Heartbeat CPU 0 instructions: 640000003 cycles: 744237653 heartbeat IPC: 3.996 cumulative IPC: 0.8067 (Simulation time: 02 hr 49 min 39 sec)
Heartbeat CPU 0 instructions: 650000003 cycles: 746740510 heartbeat IPC: 3.995 cumulative IPC: 0.8176 (Simulation time: 02 hr 50 min 33 sec)
Simulation finished CPU 0 instructions: 600000001 cycles: 733859480 cumulative IPC: 0.8176 (Simulation time: 02 hr 50 min 33 sec)
Simulation complete CPU 0 instructions: 600000001 cycles: 733859480 cumulative IPC: 0.8176 (Simulation time: 02 hr 50 min 33 sec)

ChampSim completed all CPUs

=== Simulation ===
CPU 0 runs traces/bt.A.champsimtrace
Region of Interest Statistics

CPU 0 cumulative IPC: 0.8176 instructions: 600000001 cycles: 733859480
CPU 0 Branch Prediction Accuracy: 99.29% MPKI: 0.1288 Average ROB Occupancy at Mispredict: 279.7
Branch type MPKI
BRANCH_DIRECT_JUMP: 5e-06
BRANCH_INDIRECT: 7.83e-05
BRANCH_CONDITIONAL: 0.129
BRANCH_DIRECT_CALL: 6.67e-06
BRANCH_INDIRECT_CALL: 3.33e-05
BRANCH_RETURN: 2.33e-05

LLC TOTAL        ACCESS:    5109678 HIT:     383580 MISS:    4726098
LLC LOAD         ACCESS:    2235268 HIT:     249582 MISS:    1985686
LLC RFO          ACCESS:     889371 HIT:      17861 MISS:     871510
LLC PREFETCH     ACCESS:          0 HIT:          0 MISS:          0
LLC WRITE        ACCESS:    1981670 HIT:     116079 MISS:    1865591
LLC TRANSLATION  ACCESS:       3369 HIT:         58 MISS:       3311
LLC PREFETCH REQUESTED:          0 ISSUED:          0 USEFUL:          0 USELESS:          0
LLC AVERAGE MISS LATENCY: 720.5 cycles
cpu0_DTLB TOTAL        ACCESS:  126433256 HIT:  125692526 MISS:     740730
cpu0_DTLB LOAD         ACCESS:  126433256 HIT:  125692526 MISS:     740730
cpu0_DTLB RFO          ACCESS:          0 HIT:          0 MISS:          0
cpu0_DTLB PREFETCH     ACCESS:          0 HIT:          0 MISS:          0
cpu0_DTLB WRITE        ACCESS:          0 HIT:          0 MISS:          0
cpu0_DTLB TRANSLATION  ACCESS:          0 HIT:          0 MISS:          0
cpu0_DTLB PREFETCH REQUESTED:          0 ISSUED:          0 USEFUL:          0 USELESS:          0
cpu0_DTLB AVERAGE MISS LATENCY: 17.17 cycles
cpu0_ITLB TOTAL        ACCESS:     145635 HIT:     145380 MISS:        255
cpu0_ITLB LOAD         ACCESS:     145635 HIT:     145380 MISS:        255
cpu0_ITLB RFO          ACCESS:          0 HIT:          0 MISS:          0
cpu0_ITLB PREFETCH     ACCESS:          0 HIT:          0 MISS:          0
cpu0_ITLB WRITE        ACCESS:          0 HIT:          0 MISS:          0
cpu0_ITLB TRANSLATION  ACCESS:          0 HIT:          0 MISS:          0
cpu0_ITLB PREFETCH REQUESTED:          0 ISSUED:          0 USEFUL:          0 USELESS:          0
cpu0_ITLB AVERAGE MISS LATENCY: 270 cycles
cpu0_L1D TOTAL        ACCESS:  193096193 HIT:  178717115 MISS:   14379078
cpu0_L1D LOAD         ACCESS:  158414048 HIT:  148139743 MISS:   10274305
cpu0_L1D RFO          ACCESS:          0 HIT:          0 MISS:          0
cpu0_L1D PREFETCH     ACCESS:          0 HIT:          0 MISS:          0
cpu0_L1D WRITE        ACCESS:   34635391 HIT:   30547681 MISS:    4087710
cpu0_L1D TRANSLATION  ACCESS:      46754 HIT:      29691 MISS:      17063
cpu0_L1D PREFETCH REQUESTED:          0 ISSUED:          0 USEFUL:          0 USELESS:          0
cpu0_L1D AVERAGE MISS LATENCY: 174.5 cycles
cpu0_L1I TOTAL        ACCESS:     195522 HIT:     192705 MISS:       2817
cpu0_L1I LOAD         ACCESS:     195522 HIT:     192705 MISS:       2817
cpu0_L1I RFO          ACCESS:          0 HIT:          0 MISS:          0
cpu0_L1I PREFETCH     ACCESS:          0 HIT:          0 MISS:          0
cpu0_L1I WRITE        ACCESS:          0 HIT:          0 MISS:          0
cpu0_L1I TRANSLATION  ACCESS:          0 HIT:          0 MISS:          0
cpu0_L1I PREFETCH REQUESTED:          0 ISSUED:          0 USEFUL:          0 USELESS:          0
cpu0_L1I AVERAGE MISS LATENCY: 520 cycles
cpu0_L2C TOTAL        ACCESS:    5272108 HIT:    2143784 MISS:    3128324
cpu0_L2C LOAD         ACCESS:    2364730 HIT:     129443 MISS:    2235287
cpu0_L2C RFO          ACCESS:     890961 HIT:       1590 MISS:     889371
cpu0_L2C PREFETCH     ACCESS:          0 HIT:          0 MISS:          0
cpu0_L2C WRITE        ACCESS:    1999357 HIT:    1999060 MISS:        297
cpu0_L2C TRANSLATION  ACCESS:      17060 HIT:      13691 MISS:       3369
cpu0_L2C PREFETCH REQUESTED:          0 ISSUED:          0 USEFUL:          0 USELESS:          0
cpu0_L2C AVERAGE MISS LATENCY: 1109 cycles
cpu0_STLB TOTAL        ACCESS:     296480 HIT:     249748 MISS:      46732
cpu0_STLB LOAD         ACCESS:     296480 HIT:     249748 MISS:      46732
cpu0_STLB RFO          ACCESS:          0 HIT:          0 MISS:          0
cpu0_STLB PREFETCH     ACCESS:          0 HIT:          0 MISS:          0
cpu0_STLB WRITE        ACCESS:          0 HIT:          0 MISS:          0
cpu0_STLB TRANSLATION  ACCESS:          0 HIT:          0 MISS:          0
cpu0_STLB PREFETCH REQUESTED:          0 ISSUED:          0 USEFUL:          0 USELESS:          0
cpu0_STLB AVERAGE MISS LATENCY: 374.2 cycles

DRAM Statistics

Channel 0 RQ ROW_BUFFER_HIT:     759096
  ROW_BUFFER_MISS:    2097490
 AVG DBUS CONGESTED CYCLE: 3.97
WQ ROW_BUFFER_HIT: Channel 0 
  ROW_BUFFER_MISS:     603768
  FULL:    1307732
