WARNING: physical memory size is smaller than virtual memory size.

*** ChampSim Multicore Out-of-Order Simulator ***
Warmup Instructions: 50000000
Simulation Instructions: 600000000
Number of CPUs: 1
Page size: 4096

Off-chip DRAM Size: 4 GiB Channels: 1 Width: 64-bit Data Race: 3200 MT/s
Heartbeat CPU 0 instructions: 10000001 cycles: 2881028 heartbeat IPC: 3.471 cumulative IPC: 3.471 (Simulation time: 00 hr 00 min 47 sec)
Heartbeat CPU 0 instructions: 20000001 cycles: 5381028 heartbeat IPC: 4 cumulative IPC: 3.717 (Simulation time: 00 hr 01 min 27 sec)
Heartbeat CPU 0 instructions: 30000001 cycles: 7881028 heartbeat IPC: 4 cumulative IPC: 3.807 (Simulation time: 00 hr 02 min 07 sec)
Heartbeat CPU 0 instructions: 40000001 cycles: 10381028 heartbeat IPC: 4 cumulative IPC: 3.853 (Simulation time: 00 hr 02 min 48 sec)
Heartbeat CPU 0 instructions: 50000001 cycles: 12881028 heartbeat IPC: 4 cumulative IPC: 3.882 (Simulation time: 00 hr 03 min 29 sec)
Warmup finished CPU 0 instructions: 50000001 cycles: 12881029 cumulative IPC: 3.882 (Simulation time: 00 hr 03 min 29 sec)
Warmup complete CPU 0 instructions: 50000001 cycles: 12881029 cumulative IPC: 3.882 (Simulation time: 00 hr 03 min 29 sec)
Heartbeat CPU 0 instructions: 60000004 cycles: 15384417 heartbeat IPC: 3.995 cumulative IPC: 3.995 (Simulation time: 00 hr 04 min 16 sec)
Heartbeat CPU 0 instructions: 70000000 cycles: 17887740 heartbeat IPC: 3.995 cumulative IPC: 3.995 (Simulation time: 00 hr 05 min 02 sec)
Heartbeat CPU 0 instructions: 80000002 cycles: 20390987 heartbeat IPC: 3.995 cumulative IPC: 3.995 (Simulation time: 00 hr 05 min 49 sec)
Heartbeat CPU 0 instructions: 90000004 cycles: 22893447 heartbeat IPC: 3.996 cumulative IPC: 3.995 (Simulation time: 00 hr 06 min 35 sec)
Heartbeat CPU 0 instructions: 100000004 cycles: 25397075 heartbeat IPC: 3.994 cumulative IPC: 3.995 (Simulation time: 00 hr 07 min 23 sec)
Heartbeat CPU 0 instructions: 110000000 cycles: 27900616 heartbeat IPC: 3.994 cumulative IPC: 3.995 (Simulation time: 00 hr 08 min 10 sec)
Heartbeat CPU 0 instructions: 120000003 cycles: 30403737 heartbeat IPC: 3.995 cumulative IPC: 3.995 (Simulation time: 00 hr 08 min 56 sec)
Heartbeat CPU 0 instructions: 130000000 cycles: 32906474 heartbeat IPC: 3.996 cumulative IPC: 3.995 (Simulation time: 00 hr 09 min 43 sec)
Heartbeat CPU 0 instructions: 140000001 cycles: 35409659 heartbeat IPC: 3.995 cumulative IPC: 3.995 (Simulation time: 00 hr 10 min 30 sec)
Heartbeat CPU 0 instructions: 150000000 cycles: 37912069 heartbeat IPC: 3.996 cumulative IPC: 3.995 (Simulation time: 00 hr 11 min 17 sec)
Heartbeat CPU 0 instructions: 160000001 cycles: 40416341 heartbeat IPC: 3.993 cumulative IPC: 3.995 (Simulation time: 00 hr 12 min 03 sec)
Heartbeat CPU 0 instructions: 170000002 cycles: 42919415 heartbeat IPC: 3.995 cumulative IPC: 3.995 (Simulation time: 00 hr 12 min 50 sec)
Heartbeat CPU 0 instructions: 180000001 cycles: 45422513 heartbeat IPC: 3.995 cumulative IPC: 3.995 (Simulation time: 00 hr 13 min 36 sec)
Heartbeat CPU 0 instructions: 190000004 cycles: 47925303 heartbeat IPC: 3.996 cumulative IPC: 3.995 (Simulation time: 00 hr 14 min 23 sec)
Heartbeat CPU 0 instructions: 200000000 cycles: 50428334 heartbeat IPC: 3.995 cumulative IPC: 3.995 (Simulation time: 00 hr 15 min 10 sec)
Heartbeat CPU 0 instructions: 210000000 cycles: 52931210 heartbeat IPC: 3.995 cumulative IPC: 3.995 (Simulation time: 00 hr 15 min 57 sec)
Heartbeat CPU 0 instructions: 220000000 cycles: 55433755 heartbeat IPC: 3.996 cumulative IPC: 3.995 (Simulation time: 00 hr 16 min 43 sec)
Heartbeat CPU 0 instructions: 230000004 cycles: 93256840 heartbeat IPC: 0.2644 cumulative IPC: 2.239 (Simulation time: 00 hr 21 min 56 sec)
Heartbeat CPU 0 instructions: 240000001 cycles: 99619661 heartbeat IPC: 1.572 cumulative IPC: 2.19 (Simulation time: 00 hr 23 min 22 sec)
Heartbeat CPU 0 instructions: 250000000 cycles: 105806564 heartbeat IPC: 1.616 cumulative IPC: 2.152 (Simulation time: 00 hr 24 min 46 sec)
Heartbeat CPU 0 instructions: 260000002 cycles: 112219188 heartbeat IPC: 1.559 cumulative IPC: 2.114 (Simulation time: 00 hr 26 min 11 sec)
Heartbeat CPU 0 instructions: 270000000 cycles: 118612986 heartbeat IPC: 1.564 cumulative IPC: 2.081 (Simulation time: 00 hr 27 min 39 sec)
Heartbeat CPU 0 instructions: 280000001 cycles: 124799821 heartbeat IPC: 1.616 cumulative IPC: 2.055 (Simulation time: 00 hr 29 min 00 sec)
Heartbeat CPU 0 instructions: 290000003 cycles: 130838231 heartbeat IPC: 1.656 cumulative IPC: 2.035 (Simulation time: 00 hr 30 min 22 sec)
Heartbeat CPU 0 instructions: 300000003 cycles: 136891066 heartbeat IPC: 1.652 cumulative IPC: 2.016 (Simulation time: 00 hr 31 min 42 sec)
Heartbeat CPU 0 instructions: 310000000 cycles: 142934006 heartbeat IPC: 1.655 cumulative IPC: 1.999 (Simulation time: 00 hr 33 min 04 sec)
Heartbeat CPU 0 instructions: 320000002 cycles: 148998415 heartbeat IPC: 1.649 cumulative IPC: 1.984 (Simulation time: 00 hr 34 min 24 sec)
Heartbeat CPU 0 instructions: 330000000 cycles: 155433978 heartbeat IPC: 1.554 cumulative IPC: 1.964 (Simulation time: 00 hr 35 min 48 sec)
Heartbeat CPU 0 instructions: 340000003 cycles: 161957694 heartbeat IPC: 1.533 cumulative IPC: 1.945 (Simulation time: 00 hr 37 min 10 sec)
Heartbeat CPU 0 instructions: 350000000 cycles: 168511835 heartbeat IPC: 1.526 cumulative IPC: 1.928 (Simulation time: 00 hr 38 min 36 sec)
Heartbeat CPU 0 instructions: 360000001 cycles: 174994817 heartbeat IPC: 1.543 cumulative IPC: 1.912 (Simulation time: 00 hr 39 min 59 sec)
Heartbeat CPU 0 instructions: 370000004 cycles: 181516409 heartbeat IPC: 1.533 cumulative IPC: 1.898 (Simulation time: 00 hr 41 min 23 sec)
Heartbeat CPU 0 instructions: 380000003 cycles: 188061599 heartbeat IPC: 1.528 cumulative IPC: 1.884 (Simulation time: 00 hr 42 min 48 sec)
Heartbeat CPU 0 instructions: 390000000 cycles: 194535048 heartbeat IPC: 1.545 cumulative IPC: 1.872 (Simulation time: 00 hr 44 min 12 sec)
Heartbeat CPU 0 instructions: 400000001 cycles: 201091087 heartbeat IPC: 1.525 cumulative IPC: 1.86 (Simulation time: 00 hr 45 min 37 sec)
Heartbeat CPU 0 instructions: 410000004 cycles: 207575816 heartbeat IPC: 1.542 cumulative IPC: 1.849 (Simulation time: 00 hr 46 min 59 sec)
Heartbeat CPU 0 instructions: 420000004 cycles: 214634195 heartbeat IPC: 1.417 cumulative IPC: 1.834 (Simulation time: 00 hr 48 min 27 sec)
Heartbeat CPU 0 instructions: 430000000 cycles: 220285001 heartbeat IPC: 1.77 cumulative IPC: 1.832 (Simulation time: 00 hr 49 min 43 sec)
Heartbeat CPU 0 instructions: 440000004 cycles: 226422104 heartbeat IPC: 1.629 cumulative IPC: 1.826 (Simulation time: 00 hr 51 min 02 sec)
Heartbeat CPU 0 instructions: 450000000 cycles: 232993343 heartbeat IPC: 1.522 cumulative IPC: 1.817 (Simulation time: 00 hr 52 min 29 sec)
Heartbeat CPU 0 instructions: 460000001 cycles: 239985803 heartbeat IPC: 1.43 cumulative IPC: 1.805 (Simulation time: 00 hr 53 min 57 sec)
Heartbeat CPU 0 instructions: 470000000 cycles: 247055261 heartbeat IPC: 1.415 cumulative IPC: 1.794 (Simulation time: 00 hr 55 min 25 sec)
Heartbeat CPU 0 instructions: 480000003 cycles: 254146157 heartbeat IPC: 1.41 cumulative IPC: 1.782 (Simulation time: 00 hr 56 min 54 sec)
Heartbeat CPU 0 instructions: 490000004 cycles: 261175376 heartbeat IPC: 1.423 cumulative IPC: 1.772 (Simulation time: 00 hr 58 min 22 sec)
Heartbeat CPU 0 instructions: 500000002 cycles: 268251726 heartbeat IPC: 1.413 cumulative IPC: 1.762 (Simulation time: 00 hr 59 min 50 sec)
Heartbeat CPU 0 instructions: 510000003 cycles: 275307683 heartbeat IPC: 1.417 cumulative IPC: 1.753 (Simulation time: 01 hr 01 min 17 sec)
Heartbeat CPU 0 instructions: 520000003 cycles: 344752105 heartbeat IPC: 0.144 cumulative IPC: 1.416 (Simulation time: 01 hr 11 min 46 sec)
Heartbeat CPU 0 instructions: 530000002 cycles: 458235258 heartbeat IPC: 0.08812 cumulative IPC: 1.078 (Simulation time: 01 hr 25 min 33 sec)
Heartbeat CPU 0 instructions: 540000003 cycles: 489369834 heartbeat IPC: 0.3212 cumulative IPC: 1.028 (Simulation time: 01 hr 29 min 38 sec)
Heartbeat CPU 0 instructions: 550000000 cycles: 517488981 heartbeat IPC: 0.3556 cumulative IPC: 0.9909 (Simulation time: 01 hr 33 min 22 sec)
Heartbeat CPU 0 instructions: 560000000 cycles: 547318957 heartbeat IPC: 0.3352 cumulative IPC: 0.9543 (Simulation time: 01 hr 37 min 19 sec)
Heartbeat CPU 0 instructions: 570000002 cycles: 577069637 heartbeat IPC: 0.3361 cumulative IPC: 0.9217 (Simulation time: 01 hr 41 min 16 sec)
Heartbeat CPU 0 instructions: 580000001 cycles: 609464204 heartbeat IPC: 0.3087 cumulative IPC: 0.8884 (Simulation time: 01 hr 45 min 34 sec)
Heartbeat CPU 0 instructions: 590000001 cycles: 641740062 heartbeat IPC: 0.3098 cumulative IPC: 0.8587 (Simulation time: 01 hr 49 min 50 sec)
*** Reached end of trace: (0, "traces/bt.A.champsimtrace")
Heartbeat CPU 0 instructions: 600000001 cycles: 673018318 heartbeat IPC: 0.3197 cumulative IPC: 0.8332 (Simulation time: 01 hr 53 min 57 sec)
Heartbeat CPU 0 instructions: 610000004 cycles: 704490669 heartbeat IPC: 0.3177 cumulative IPC: 0.8097 (Simulation time: 01 hr 57 min 00 sec)
Heartbeat CPU 0 instructions: 620000000 cycles: 706993044 heartbeat IPC: 3.996 cumulative IPC: 0.8212 (Simulation time: 01 hr 57 min 33 sec)
Heartbeat CPU 0 instructions: 630000003 cycles: 709495451 heartbeat IPC: 3.996 cumulative IPC: 0.8326 (Simulation time: 01 hr 58 min 04 sec)
Heartbeat CPU 0 instructions: 640000003 cycles: 711998803 heartbeat IPC: 3.995 cumulative IPC: 0.8439 (Simulation time: 01 hr 58 min 32 sec)
Heartbeat CPU 0 instructions: 650000003 cycles: 714501198 heartbeat IPC: 3.996 cumulative IPC: 0.8552 (Simulation time: 01 hr 58 min 55 sec)
Simulation finished CPU 0 instructions: 600000002 cycles: 701620170 cumulative IPC: 0.8552 (Simulation time: 01 hr 58 min 55 sec)
Simulation complete CPU 0 instructions: 600000002 cycles: 701620170 cumulative IPC: 0.8552 (Simulation time: 01 hr 58 min 55 sec)

ChampSim completed all CPUs

=== Simulation ===
CPU 0 runs traces/bt.A.champsimtrace
Region of Interest Statistics

CPU 0 cumulative IPC: 0.8552 instructions: 600000002 cycles: 701620170
CPU 0 Branch Prediction Accuracy: 99.29% MPKI: 0.1288 Average ROB Occupancy at Mispredict: 280.2
Branch type MPKI
BRANCH_DIRECT_JUMP: 5e-06
BRANCH_INDIRECT: 7.67e-05
BRANCH_CONDITIONAL: 0.129
BRANCH_DIRECT_CALL: 6.67e-06
BRANCH_INDIRECT_CALL: 3.33e-05
BRANCH_RETURN: 2.33e-05

LLC TOTAL        ACCESS:    5115679 HIT:    1912922 MISS:    3202757
LLC LOAD         ACCESS:    2238126 HIT:     483338 MISS:    1754788
LLC RFO          ACCESS:     889409 HIT:      13578 MISS:     875831
LLC PREFETCH     ACCESS:          0 HIT:          0 MISS:          0
LLC WRITE        ACCESS:    1984787 HIT:    1415723 MISS:     569064
LLC TRANSLATION  ACCESS:       3357 HIT:        283 MISS:       3074
LLC PREFETCH REQUESTED:          0 ISSUED:          0 USEFUL:          0 USELESS:          0
LLC AVERAGE MISS LATENCY: 1032 cycles
cpu0_DTLB TOTAL        ACCESS:  126768418 HIT:  126010883 MISS:     757535
cpu0_DTLB LOAD         ACCESS:  126768418 HIT:  126010883 MISS:     757535
cpu0_DTLB RFO          ACCESS:          0 HIT:          0 MISS:          0
cpu0_DTLB PREFETCH     ACCESS:          0 HIT:          0 MISS:          0
cpu0_DTLB WRITE        ACCESS:          0 HIT:          0 MISS:          0
cpu0_DTLB TRANSLATION  ACCESS:          0 HIT:          0 MISS:          0
cpu0_DTLB PREFETCH REQUESTED:          0 ISSUED:          0 USEFUL:          0 USELESS:          0
cpu0_DTLB AVERAGE MISS LATENCY: 17.06 cycles
cpu0_ITLB TOTAL        ACCESS:     145267 HIT:     145022 MISS:        245
cpu0_ITLB LOAD         ACCESS:     145267 HIT:     145022 MISS:        245
cpu0_ITLB RFO          ACCESS:          0 HIT:          0 MISS:          0
cpu0_ITLB PREFETCH     ACCESS:          0 HIT:          0 MISS:          0
cpu0_ITLB WRITE        ACCESS:          0 HIT:          0 MISS:          0
cpu0_ITLB TRANSLATION  ACCESS:          0 HIT:          0 MISS:          0
cpu0_ITLB PREFETCH REQUESTED:          0 ISSUED:          0 USEFUL:          0 USELESS:          0
cpu0_ITLB AVERAGE MISS LATENCY: 279.4 cycles
cpu0_L1D TOTAL        ACCESS:  194056825 HIT:  180046357 MISS:   14010468
cpu0_L1D LOAD         ACCESS:  159374574 HIT:  149454628 MISS:    9919946
cpu0_L1D RFO          ACCESS:          0 HIT:          0 MISS:          0
cpu0_L1D PREFETCH     ACCESS:          0 HIT:          0 MISS:          0
cpu0_L1D WRITE        ACCESS:   34635500 HIT:   30562054 MISS:    4073446
cpu0_L1D TRANSLATION  ACCESS:      46751 HIT:      29675 MISS:      17076
cpu0_L1D PREFETCH REQUESTED:          0 ISSUED:          0 USEFUL:          0 USELESS:          0
cpu0_L1D AVERAGE MISS LATENCY: 175.8 cycles
cpu0_L1I TOTAL        ACCESS:     195034 HIT:     192202 MISS:       2832
cpu0_L1I LOAD         ACCESS:     195034 HIT:     192202 MISS:       2832
cpu0_L1I RFO          ACCESS:          0 HIT:          0 MISS:          0
cpu0_L1I PREFETCH     ACCESS:          0 HIT:          0 MISS:          0
cpu0_L1I WRITE        ACCESS:          0 HIT:          0 MISS:          0
cpu0_L1I TRANSLATION  ACCESS:          0 HIT:          0 MISS:          0
cpu0_L1I PREFETCH REQUESTED:          0 ISSUED:          0 USEFUL:          0 USELESS:          0
cpu0_L1I AVERAGE MISS LATENCY: 610.1 cycles
cpu0_L2C TOTAL        ACCESS:    5272041 HIT:    2140548 MISS:    3131493
cpu0_L2C LOAD         ACCESS:    2366019 HIT:     127627 MISS:    2238392
cpu0_L2C RFO          ACCESS:     890037 HIT:        628 MISS:     889409
cpu0_L2C PREFETCH     ACCESS:          0 HIT:          0 MISS:          0
cpu0_L2C WRITE        ACCESS:    1998911 HIT:    1998576 MISS:        335
cpu0_L2C TRANSLATION  ACCESS:      17074 HIT:      13717 MISS:       3357
cpu0_L2C PREFETCH REQUESTED:          0 ISSUED:          0 USEFUL:          0 USELESS:          0
cpu0_L2C AVERAGE MISS LATENCY: 1076 cycles
cpu0_STLB TOTAL        ACCESS:     297204 HIT:     250468 MISS:      46736
cpu0_STLB LOAD         ACCESS:     297204 HIT:     250468 MISS:      46736
cpu0_STLB RFO          ACCESS:          0 HIT:          0 MISS:          0
cpu0_STLB PREFETCH     ACCESS:          0 HIT:          0 MISS:          0
cpu0_STLB WRITE        ACCESS:          0 HIT:          0 MISS:          0
cpu0_STLB TRANSLATION  ACCESS:          0 HIT:          0 MISS:          0
cpu0_STLB PREFETCH REQUESTED:          0 ISSUED:          0 USEFUL:          0 USELESS:          0
cpu0_STLB AVERAGE MISS LATENCY: 374.9 cycles

DRAM Statistics

Channel 0 RQ ROW_BUFFER_HIT:     720215
  ROW_BUFFER_MISS:    1913413
 AVG DBUS CONGESTED CYCLE: 3.975
WQ ROW_BUFFER_HIT: Channel 0 
  ROW_BUFFER_MISS:     277527
  FULL:    1479640
