WARNING: physical memory size is smaller than virtual memory size.

*** ChampSim Multicore Out-of-Order Simulator ***
Warmup Instructions: 50000000
Simulation Instructions: 600000000
Number of CPUs: 1
Page size: 4096

Off-chip DRAM Size: 4 GiB Channels: 1 Width: 64-bit Data Race: 3200 MT/s
Heartbeat CPU 0 instructions: 10000000 cycles: 2881042 heartbeat IPC: 3.471 cumulative IPC: 3.471 (Simulation time: 00 hr 00 min 40 sec)
Heartbeat CPU 0 instructions: 20000000 cycles: 5381042 heartbeat IPC: 4 cumulative IPC: 3.717 (Simulation time: 00 hr 01 min 15 sec)
Heartbeat CPU 0 instructions: 30000000 cycles: 7881042 heartbeat IPC: 4 cumulative IPC: 3.807 (Simulation time: 00 hr 01 min 51 sec)
Heartbeat CPU 0 instructions: 40000000 cycles: 10381042 heartbeat IPC: 4 cumulative IPC: 3.853 (Simulation time: 00 hr 02 min 25 sec)
Heartbeat CPU 0 instructions: 50000000 cycles: 12881042 heartbeat IPC: 4 cumulative IPC: 3.882 (Simulation time: 00 hr 03 min 02 sec)
Warmup finished CPU 0 instructions: 50000000 cycles: 12881043 cumulative IPC: 3.882 (Simulation time: 00 hr 03 min 02 sec)
Warmup complete CPU 0 instructions: 50000000 cycles: 12881043 cumulative IPC: 3.882 (Simulation time: 00 hr 03 min 02 sec)
Heartbeat CPU 0 instructions: 60000004 cycles: 15383453 heartbeat IPC: 3.996 cumulative IPC: 3.996 (Simulation time: 00 hr 03 min 43 sec)
Heartbeat CPU 0 instructions: 70000002 cycles: 17885816 heartbeat IPC: 3.996 cumulative IPC: 3.996 (Simulation time: 00 hr 04 min 24 sec)
Heartbeat CPU 0 instructions: 80000002 cycles: 20388526 heartbeat IPC: 3.996 cumulative IPC: 3.996 (Simulation time: 00 hr 05 min 04 sec)
Heartbeat CPU 0 instructions: 90000004 cycles: 22891905 heartbeat IPC: 3.995 cumulative IPC: 3.996 (Simulation time: 00 hr 05 min 44 sec)
Heartbeat CPU 0 instructions: 100000000 cycles: 25394310 heartbeat IPC: 3.996 cumulative IPC: 3.996 (Simulation time: 00 hr 06 min 25 sec)
Heartbeat CPU 0 instructions: 110000002 cycles: 27896716 heartbeat IPC: 3.996 cumulative IPC: 3.996 (Simulation time: 00 hr 07 min 04 sec)
Heartbeat CPU 0 instructions: 120000000 cycles: 30399113 heartbeat IPC: 3.996 cumulative IPC: 3.996 (Simulation time: 00 hr 07 min 43 sec)
Heartbeat CPU 0 instructions: 130000002 cycles: 32901791 heartbeat IPC: 3.996 cumulative IPC: 3.996 (Simulation time: 00 hr 08 min 21 sec)
Heartbeat CPU 0 instructions: 140000004 cycles: 35404200 heartbeat IPC: 3.996 cumulative IPC: 3.996 (Simulation time: 00 hr 09 min 00 sec)
Heartbeat CPU 0 instructions: 150000000 cycles: 37906562 heartbeat IPC: 3.996 cumulative IPC: 3.996 (Simulation time: 00 hr 09 min 38 sec)
Heartbeat CPU 0 instructions: 160000003 cycles: 40408969 heartbeat IPC: 3.996 cumulative IPC: 3.996 (Simulation time: 00 hr 10 min 17 sec)
Heartbeat CPU 0 instructions: 170000002 cycles: 42912291 heartbeat IPC: 3.995 cumulative IPC: 3.996 (Simulation time: 00 hr 10 min 56 sec)
Heartbeat CPU 0 instructions: 180000000 cycles: 45414654 heartbeat IPC: 3.996 cumulative IPC: 3.996 (Simulation time: 00 hr 11 min 35 sec)
Heartbeat CPU 0 instructions: 190000003 cycles: 47917008 heartbeat IPC: 3.996 cumulative IPC: 3.996 (Simulation time: 00 hr 12 min 13 sec)
Heartbeat CPU 0 instructions: 200000000 cycles: 50419460 heartbeat IPC: 3.996 cumulative IPC: 3.996 (Simulation time: 00 hr 12 min 51 sec)
Heartbeat CPU 0 instructions: 210000000 cycles: 52921865 heartbeat IPC: 3.996 cumulative IPC: 3.996 (Simulation time: 00 hr 13 min 29 sec)
Heartbeat CPU 0 instructions: 220000003 cycles: 55424319 heartbeat IPC: 3.996 cumulative IPC: 3.996 (Simulation time: 00 hr 14 min 08 sec)
Heartbeat CPU 0 instructions: 230000001 cycles: 91136936 heartbeat IPC: 0.28 cumulative IPC: 2.3 (Simulation time: 00 hr 18 min 00 sec)
Heartbeat CPU 0 instructions: 240000002 cycles: 95457757 heartbeat IPC: 2.314 cumulative IPC: 2.301 (Simulation time: 00 hr 18 min 56 sec)
Heartbeat CPU 0 instructions: 250000000 cycles: 99783417 heartbeat IPC: 2.312 cumulative IPC: 2.301 (Simulation time: 00 hr 19 min 53 sec)
Heartbeat CPU 0 instructions: 260000004 cycles: 104134282 heartbeat IPC: 2.298 cumulative IPC: 2.301 (Simulation time: 00 hr 20 min 50 sec)
Heartbeat CPU 0 instructions: 270000003 cycles: 108496665 heartbeat IPC: 2.292 cumulative IPC: 2.301 (Simulation time: 00 hr 21 min 46 sec)
Heartbeat CPU 0 instructions: 280000001 cycles: 112913048 heartbeat IPC: 2.264 cumulative IPC: 2.299 (Simulation time: 00 hr 22 min 44 sec)
Heartbeat CPU 0 instructions: 290000000 cycles: 117296412 heartbeat IPC: 2.281 cumulative IPC: 2.299 (Simulation time: 00 hr 23 min 43 sec)
Heartbeat CPU 0 instructions: 300000003 cycles: 121678668 heartbeat IPC: 2.282 cumulative IPC: 2.298 (Simulation time: 00 hr 24 min 40 sec)
Heartbeat CPU 0 instructions: 310000002 cycles: 126076066 heartbeat IPC: 2.274 cumulative IPC: 2.297 (Simulation time: 00 hr 25 min 38 sec)
Heartbeat CPU 0 instructions: 320000002 cycles: 130423562 heartbeat IPC: 2.3 cumulative IPC: 2.297 (Simulation time: 00 hr 26 min 37 sec)
Heartbeat CPU 0 instructions: 330000002 cycles: 133892984 heartbeat IPC: 2.882 cumulative IPC: 2.314 (Simulation time: 00 hr 27 min 25 sec)
Heartbeat CPU 0 instructions: 340000002 cycles: 136919800 heartbeat IPC: 3.304 cumulative IPC: 2.338 (Simulation time: 00 hr 28 min 09 sec)
Heartbeat CPU 0 instructions: 350000002 cycles: 139912815 heartbeat IPC: 3.341 cumulative IPC: 2.362 (Simulation time: 00 hr 28 min 54 sec)
Heartbeat CPU 0 instructions: 360000000 cycles: 143066043 heartbeat IPC: 3.171 cumulative IPC: 2.381 (Simulation time: 00 hr 29 min 41 sec)
Heartbeat CPU 0 instructions: 370000001 cycles: 146474371 heartbeat IPC: 2.934 cumulative IPC: 2.395 (Simulation time: 00 hr 30 min 30 sec)
Heartbeat CPU 0 instructions: 380000003 cycles: 149817434 heartbeat IPC: 2.991 cumulative IPC: 2.41 (Simulation time: 00 hr 31 min 18 sec)
Heartbeat CPU 0 instructions: 390000002 cycles: 153417997 heartbeat IPC: 2.777 cumulative IPC: 2.419 (Simulation time: 00 hr 32 min 08 sec)
Heartbeat CPU 0 instructions: 400000000 cycles: 156837367 heartbeat IPC: 2.925 cumulative IPC: 2.431 (Simulation time: 00 hr 32 min 56 sec)
Heartbeat CPU 0 instructions: 410000002 cycles: 160218596 heartbeat IPC: 2.958 cumulative IPC: 2.443 (Simulation time: 00 hr 33 min 44 sec)
Heartbeat CPU 0 instructions: 420000000 cycles: 163749799 heartbeat IPC: 2.832 cumulative IPC: 2.452 (Simulation time: 00 hr 34 min 33 sec)
Heartbeat CPU 0 instructions: 430000002 cycles: 166538136 heartbeat IPC: 3.586 cumulative IPC: 2.473 (Simulation time: 00 hr 35 min 17 sec)
Heartbeat CPU 0 instructions: 440000002 cycles: 169391855 heartbeat IPC: 3.504 cumulative IPC: 2.492 (Simulation time: 00 hr 36 min 01 sec)
Heartbeat CPU 0 instructions: 450000000 cycles: 172235490 heartbeat IPC: 3.517 cumulative IPC: 2.51 (Simulation time: 00 hr 36 min 45 sec)
Heartbeat CPU 0 instructions: 460000003 cycles: 175347887 heartbeat IPC: 3.213 cumulative IPC: 2.524 (Simulation time: 00 hr 37 min 32 sec)
Heartbeat CPU 0 instructions: 470000004 cycles: 178709897 heartbeat IPC: 2.974 cumulative IPC: 2.533 (Simulation time: 00 hr 38 min 21 sec)
Heartbeat CPU 0 instructions: 480000000 cycles: 182328828 heartbeat IPC: 2.763 cumulative IPC: 2.538 (Simulation time: 00 hr 39 min 10 sec)
Heartbeat CPU 0 instructions: 490000001 cycles: 185699695 heartbeat IPC: 2.967 cumulative IPC: 2.546 (Simulation time: 00 hr 39 min 56 sec)
Heartbeat CPU 0 instructions: 500000000 cycles: 189158113 heartbeat IPC: 2.891 cumulative IPC: 2.553 (Simulation time: 00 hr 40 min 44 sec)
Heartbeat CPU 0 instructions: 510000002 cycles: 192671499 heartbeat IPC: 2.846 cumulative IPC: 2.559 (Simulation time: 00 hr 41 min 32 sec)
Heartbeat CPU 0 instructions: 520000000 cycles: 261753985 heartbeat IPC: 0.1448 cumulative IPC: 1.889 (Simulation time: 00 hr 50 min 54 sec)
Heartbeat CPU 0 instructions: 530000001 cycles: 389835899 heartbeat IPC: 0.07808 cumulative IPC: 1.273 (Simulation time: 01 hr 07 min 52 sec)
Heartbeat CPU 0 instructions: 540000001 cycles: 420022528 heartbeat IPC: 0.3313 cumulative IPC: 1.204 (Simulation time: 01 hr 12 min 13 sec)
Heartbeat CPU 0 instructions: 550000002 cycles: 448687257 heartbeat IPC: 0.3489 cumulative IPC: 1.147 (Simulation time: 01 hr 16 min 24 sec)
Heartbeat CPU 0 instructions: 560000001 cycles: 477414493 heartbeat IPC: 0.3481 cumulative IPC: 1.098 (Simulation time: 01 hr 20 min 33 sec)
Heartbeat CPU 0 instructions: 570000001 cycles: 506142583 heartbeat IPC: 0.3481 cumulative IPC: 1.054 (Simulation time: 01 hr 24 min 41 sec)
Heartbeat CPU 0 instructions: 580000002 cycles: 535852225 heartbeat IPC: 0.3366 cumulative IPC: 1.013 (Simulation time: 01 hr 28 min 58 sec)
Heartbeat CPU 0 instructions: 590000001 cycles: 565686672 heartbeat IPC: 0.3352 cumulative IPC: 0.9768 (Simulation time: 01 hr 33 min 15 sec)
*** Reached end of trace: (0, "traces/bt.A.champsimtrace")
Heartbeat CPU 0 instructions: 600000001 cycles: 595306103 heartbeat IPC: 0.3376 cumulative IPC: 0.9443 (Simulation time: 01 hr 37 min 31 sec)
Heartbeat CPU 0 instructions: 610000004 cycles: 621434474 heartbeat IPC: 0.3827 cumulative IPC: 0.9202 (Simulation time: 01 hr 40 min 23 sec)
Heartbeat CPU 0 instructions: 620000000 cycles: 623936894 heartbeat IPC: 3.996 cumulative IPC: 0.9328 (Simulation time: 01 hr 41 min 02 sec)
Heartbeat CPU 0 instructions: 630000002 cycles: 626439302 heartbeat IPC: 3.996 cumulative IPC: 0.9453 (Simulation time: 01 hr 41 min 43 sec)
Heartbeat CPU 0 instructions: 640000000 cycles: 628942026 heartbeat IPC: 3.996 cumulative IPC: 0.9577 (Simulation time: 01 hr 42 min 22 sec)
Heartbeat CPU 0 instructions: 650000002 cycles: 631445481 heartbeat IPC: 3.994 cumulative IPC: 0.97 (Simulation time: 01 hr 43 min 00 sec)
Simulation finished CPU 0 instructions: 600000002 cycles: 618564439 cumulative IPC: 0.97 (Simulation time: 01 hr 43 min 00 sec)
Simulation complete CPU 0 instructions: 600000002 cycles: 618564439 cumulative IPC: 0.97 (Simulation time: 01 hr 43 min 00 sec)

ChampSim completed all CPUs

=== Simulation ===
CPU 0 runs traces/bt.A.champsimtrace
Region of Interest Statistics

CPU 0 cumulative IPC: 0.97 instructions: 600000002 cycles: 618564439
CPU 0 Branch Prediction Accuracy: 99.29% MPKI: 0.1288 Average ROB Occupancy at Mispredict: 279.5
Branch type MPKI
BRANCH_DIRECT_JUMP: 5e-06
BRANCH_INDIRECT: 7.83e-05
BRANCH_CONDITIONAL: 0.129
BRANCH_DIRECT_CALL: 6.67e-06
BRANCH_INDIRECT_CALL: 3.67e-05
BRANCH_RETURN: 2.33e-05

LLC TOTAL        ACCESS:    7361960 HIT:    3660395 MISS:    3701565
LLC LOAD         ACCESS:    2240303 HIT:    1151913 MISS:    1088390
LLC RFO          ACCESS:     889446 HIT:      12572 MISS:     876874
LLC PREFETCH     ACCESS:    2240303 HIT:     527588 MISS:    1712715
LLC WRITE        ACCESS:    1988537 HIT:    1966785 MISS:      21752
LLC TRANSLATION  ACCESS:       3371 HIT:       1537 MISS:       1834
LLC PREFETCH REQUESTED:    2240303 ISSUED:    2240303 USEFUL:    1443917 USELESS:      25697
LLC AVERAGE MISS LATENCY: 1140 cycles
cpu0_DTLB TOTAL        ACCESS:  128713618 HIT:  127956878 MISS:     756740
cpu0_DTLB LOAD         ACCESS:  128713618 HIT:  127956878 MISS:     756740
cpu0_DTLB RFO          ACCESS:          0 HIT:          0 MISS:          0
cpu0_DTLB PREFETCH     ACCESS:          0 HIT:          0 MISS:          0
cpu0_DTLB WRITE        ACCESS:          0 HIT:          0 MISS:          0
cpu0_DTLB TRANSLATION  ACCESS:          0 HIT:          0 MISS:          0
cpu0_DTLB PREFETCH REQUESTED:          0 ISSUED:          0 USEFUL:          0 USELESS:          0
cpu0_DTLB AVERAGE MISS LATENCY: 14.48 cycles
cpu0_ITLB TOTAL        ACCESS:     141354 HIT:     141098 MISS:        256
cpu0_ITLB LOAD         ACCESS:     141354 HIT:     141098 MISS:        256
cpu0_ITLB RFO          ACCESS:          0 HIT:          0 MISS:          0
cpu0_ITLB PREFETCH     ACCESS:          0 HIT:          0 MISS:          0
cpu0_ITLB WRITE        ACCESS:          0 HIT:          0 MISS:          0
cpu0_ITLB TRANSLATION  ACCESS:          0 HIT:          0 MISS:          0
cpu0_ITLB PREFETCH REQUESTED:          0 ISSUED:          0 USEFUL:          0 USELESS:          0
cpu0_ITLB AVERAGE MISS LATENCY: 331.2 cycles
cpu0_L1D TOTAL        ACCESS:  196966217 HIT:  183400616 MISS:   13565601
cpu0_L1D LOAD         ACCESS:  162283929 HIT:  152858113 MISS:    9425816
cpu0_L1D RFO          ACCESS:          0 HIT:          0 MISS:          0
cpu0_L1D PREFETCH     ACCESS:          0 HIT:          0 MISS:          0
cpu0_L1D WRITE        ACCESS:   34635513 HIT:   30512839 MISS:    4122674
cpu0_L1D TRANSLATION  ACCESS:      46775 HIT:      29664 MISS:      17111
cpu0_L1D PREFETCH REQUESTED:          0 ISSUED:          0 USEFUL:          0 USELESS:          0
cpu0_L1D AVERAGE MISS LATENCY: 162.9 cycles
cpu0_L1I TOTAL        ACCESS:     190627 HIT:     187889 MISS:       2738
cpu0_L1I LOAD         ACCESS:     190627 HIT:     187889 MISS:       2738
cpu0_L1I RFO          ACCESS:          0 HIT:          0 MISS:          0
cpu0_L1I PREFETCH     ACCESS:          0 HIT:          0 MISS:          0
cpu0_L1I WRITE        ACCESS:          0 HIT:          0 MISS:          0
cpu0_L1I TRANSLATION  ACCESS:          0 HIT:          0 MISS:          0
cpu0_L1I PREFETCH REQUESTED:          0 ISSUED:          0 USEFUL:          0 USELESS:          0
cpu0_L1I AVERAGE MISS LATENCY: 487 cycles
cpu0_L2C TOTAL        ACCESS:    5265956 HIT:    2132342 MISS:    3133614
cpu0_L2C LOAD         ACCESS:    2359828 HIT:     119487 MISS:    2240341
cpu0_L2C RFO          ACCESS:     889972 HIT:        526 MISS:     889446
cpu0_L2C PREFETCH     ACCESS:          0 HIT:          0 MISS:          0
cpu0_L2C WRITE        ACCESS:    1999048 HIT:    1998592 MISS:        456
cpu0_L2C TRANSLATION  ACCESS:      17108 HIT:      13737 MISS:       3371
cpu0_L2C PREFETCH REQUESTED:          0 ISSUED:          0 USEFUL:          0 USELESS:          0
cpu0_L2C AVERAGE MISS LATENCY: 927.5 cycles
cpu0_STLB TOTAL        ACCESS:     311368 HIT:     264616 MISS:      46752
cpu0_STLB LOAD         ACCESS:     311368 HIT:     264616 MISS:      46752
cpu0_STLB RFO          ACCESS:          0 HIT:          0 MISS:          0
cpu0_STLB PREFETCH     ACCESS:          0 HIT:          0 MISS:          0
cpu0_STLB WRITE        ACCESS:          0 HIT:          0 MISS:          0
cpu0_STLB TRANSLATION  ACCESS:          0 HIT:          0 MISS:          0
cpu0_STLB PREFETCH REQUESTED:          0 ISSUED:          0 USEFUL:          0 USELESS:          0
cpu0_STLB AVERAGE MISS LATENCY: 312.2 cycles

DRAM Statistics

Channel 0 RQ ROW_BUFFER_HIT:     737082
  ROW_BUFFER_MISS:    1885744
 AVG DBUS CONGESTED CYCLE: 3.979
WQ ROW_BUFFER_HIT: Channel 0 
  ROW_BUFFER_MISS:     238832
  FULL:    1450163
