WARNING: physical memory size is smaller than virtual memory size.

*** ChampSim Multicore Out-of-Order Simulator ***
Warmup Instructions: 50000000
Simulation Instructions: 600000000
Number of CPUs: 1
Page size: 4096

CPU 0 Tage branch predictor
Off-chip DRAM Size: 4 GiB Channels: 1 Width: 64-bit Data Race: 3200 MT/s
Heartbeat CPU 0 instructions: 10000000 cycles: 2500202 heartbeat IPC: 4 cumulative IPC: 4 (Simulation time: 00 hr 00 min 36 sec)
Heartbeat CPU 0 instructions: 20000000 cycles: 5000202 heartbeat IPC: 4 cumulative IPC: 4 (Simulation time: 00 hr 01 min 15 sec)
Heartbeat CPU 0 instructions: 30000000 cycles: 7500202 heartbeat IPC: 4 cumulative IPC: 4 (Simulation time: 00 hr 01 min 53 sec)
Heartbeat CPU 0 instructions: 40000000 cycles: 10000202 heartbeat IPC: 4 cumulative IPC: 4 (Simulation time: 00 hr 02 min 33 sec)
Heartbeat CPU 0 instructions: 50000000 cycles: 12500202 heartbeat IPC: 4 cumulative IPC: 4 (Simulation time: 00 hr 03 min 15 sec)
Warmup finished CPU 0 instructions: 50000000 cycles: 12500203 cumulative IPC: 4 (Simulation time: 00 hr 03 min 15 sec)
Warmup complete CPU 0 instructions: 50000000 cycles: 12500203 cumulative IPC: 4 (Simulation time: 00 hr 03 min 15 sec)
Heartbeat CPU 0 instructions: 60000002 cycles: 15574765 heartbeat IPC: 3.252 cumulative IPC: 3.252 (Simulation time: 00 hr 04 min 05 sec)
Heartbeat CPU 0 instructions: 70000002 cycles: 18076547 heartbeat IPC: 3.997 cumulative IPC: 3.587 (Simulation time: 00 hr 04 min 48 sec)
Heartbeat CPU 0 instructions: 80000003 cycles: 20576569 heartbeat IPC: 4 cumulative IPC: 3.715 (Simulation time: 00 hr 05 min 30 sec)
Heartbeat CPU 0 instructions: 90000004 cycles: 23076590 heartbeat IPC: 4 cumulative IPC: 3.782 (Simulation time: 00 hr 06 min 12 sec)
Heartbeat CPU 0 instructions: 100000003 cycles: 25578507 heartbeat IPC: 3.997 cumulative IPC: 3.823 (Simulation time: 00 hr 06 min 54 sec)
Heartbeat CPU 0 instructions: 110000000 cycles: 28080061 heartbeat IPC: 3.998 cumulative IPC: 3.851 (Simulation time: 00 hr 07 min 36 sec)
Heartbeat CPU 0 instructions: 120000000 cycles: 30580085 heartbeat IPC: 4 cumulative IPC: 3.872 (Simulation time: 00 hr 08 min 17 sec)
Heartbeat CPU 0 instructions: 130000000 cycles: 33080108 heartbeat IPC: 4 cumulative IPC: 3.887 (Simulation time: 00 hr 09 min 00 sec)
Heartbeat CPU 0 instructions: 140000001 cycles: 35580145 heartbeat IPC: 4 cumulative IPC: 3.899 (Simulation time: 00 hr 09 min 42 sec)
Heartbeat CPU 0 instructions: 150000003 cycles: 38080167 heartbeat IPC: 4 cumulative IPC: 3.909 (Simulation time: 00 hr 10 min 24 sec)
Heartbeat CPU 0 instructions: 160000004 cycles: 40582678 heartbeat IPC: 3.996 cumulative IPC: 3.917 (Simulation time: 00 hr 11 min 07 sec)
Heartbeat CPU 0 instructions: 170000001 cycles: 43083200 heartbeat IPC: 3.999 cumulative IPC: 3.924 (Simulation time: 00 hr 11 min 49 sec)
Heartbeat CPU 0 instructions: 180000001 cycles: 45583221 heartbeat IPC: 4 cumulative IPC: 3.93 (Simulation time: 00 hr 12 min 31 sec)
Heartbeat CPU 0 instructions: 190000002 cycles: 48084805 heartbeat IPC: 3.997 cumulative IPC: 3.934 (Simulation time: 00 hr 13 min 13 sec)
Heartbeat CPU 0 instructions: 200000001 cycles: 50584826 heartbeat IPC: 4 cumulative IPC: 3.939 (Simulation time: 00 hr 13 min 54 sec)
Heartbeat CPU 0 instructions: 210000000 cycles: 53088726 heartbeat IPC: 3.994 cumulative IPC: 3.942 (Simulation time: 00 hr 14 min 36 sec)
Heartbeat CPU 0 instructions: 220000001 cycles: 55588769 heartbeat IPC: 4 cumulative IPC: 3.945 (Simulation time: 00 hr 15 min 18 sec)
Heartbeat CPU 0 instructions: 230000002 cycles: 58088790 heartbeat IPC: 4 cumulative IPC: 3.948 (Simulation time: 00 hr 16 min 00 sec)
Heartbeat CPU 0 instructions: 240000004 cycles: 60588828 heartbeat IPC: 4 cumulative IPC: 3.951 (Simulation time: 00 hr 16 min 42 sec)
Heartbeat CPU 0 instructions: 250000000 cycles: 63091239 heartbeat IPC: 3.996 cumulative IPC: 3.953 (Simulation time: 00 hr 17 min 25 sec)
Heartbeat CPU 0 instructions: 260000000 cycles: 65592487 heartbeat IPC: 3.998 cumulative IPC: 3.955 (Simulation time: 00 hr 18 min 06 sec)
Heartbeat CPU 0 instructions: 270000002 cycles: 68092508 heartbeat IPC: 4 cumulative IPC: 3.957 (Simulation time: 00 hr 18 min 50 sec)
Heartbeat CPU 0 instructions: 280000003 cycles: 70592547 heartbeat IPC: 4 cumulative IPC: 3.959 (Simulation time: 00 hr 19 min 32 sec)
Heartbeat CPU 0 instructions: 290000000 cycles: 73092567 heartbeat IPC: 4 cumulative IPC: 3.961 (Simulation time: 00 hr 20 min 17 sec)
Heartbeat CPU 0 instructions: 300000000 cycles: 75595671 heartbeat IPC: 3.995 cumulative IPC: 3.962 (Simulation time: 00 hr 20 min 59 sec)
Heartbeat CPU 0 instructions: 310000002 cycles: 78095708 heartbeat IPC: 4 cumulative IPC: 3.964 (Simulation time: 00 hr 21 min 41 sec)
Heartbeat CPU 0 instructions: 320000004 cycles: 80595730 heartbeat IPC: 4 cumulative IPC: 3.965 (Simulation time: 00 hr 22 min 24 sec)
Heartbeat CPU 0 instructions: 330000000 cycles: 83095751 heartbeat IPC: 4 cumulative IPC: 3.966 (Simulation time: 00 hr 23 min 09 sec)
Heartbeat CPU 0 instructions: 340000002 cycles: 85596983 heartbeat IPC: 3.998 cumulative IPC: 3.967 (Simulation time: 00 hr 23 min 55 sec)
Heartbeat CPU 0 instructions: 350000002 cycles: 88097005 heartbeat IPC: 4 cumulative IPC: 3.968 (Simulation time: 00 hr 24 min 40 sec)
Heartbeat CPU 0 instructions: 360000000 cycles: 90600151 heartbeat IPC: 3.995 cumulative IPC: 3.969 (Simulation time: 00 hr 25 min 25 sec)
Heartbeat CPU 0 instructions: 370000004 cycles: 93100195 heartbeat IPC: 4 cumulative IPC: 3.97 (Simulation time: 00 hr 26 min 09 sec)
Heartbeat CPU 0 instructions: 380000000 cycles: 95600215 heartbeat IPC: 4 cumulative IPC: 3.971 (Simulation time: 00 hr 26 min 51 sec)
Heartbeat CPU 0 instructions: 390000000 cycles: 98100237 heartbeat IPC: 4 cumulative IPC: 3.972 (Simulation time: 00 hr 27 min 36 sec)
Heartbeat CPU 0 instructions: 400000000 cycles: 100603094 heartbeat IPC: 3.995 cumulative IPC: 3.973 (Simulation time: 00 hr 28 min 17 sec)
Heartbeat CPU 0 instructions: 410000000 cycles: 103103567 heartbeat IPC: 3.999 cumulative IPC: 3.973 (Simulation time: 00 hr 28 min 58 sec)
Heartbeat CPU 0 instructions: 420000001 cycles: 105603589 heartbeat IPC: 4 cumulative IPC: 3.974 (Simulation time: 00 hr 29 min 40 sec)
Heartbeat CPU 0 instructions: 430000003 cycles: 108103610 heartbeat IPC: 4 cumulative IPC: 3.975 (Simulation time: 00 hr 30 min 25 sec)
Heartbeat CPU 0 instructions: 440000003 cycles: 110603632 heartbeat IPC: 4 cumulative IPC: 3.975 (Simulation time: 00 hr 31 min 09 sec)
Heartbeat CPU 0 instructions: 450000000 cycles: 113106160 heartbeat IPC: 3.996 cumulative IPC: 3.976 (Simulation time: 00 hr 31 min 51 sec)
Heartbeat CPU 0 instructions: 460000002 cycles: 115606181 heartbeat IPC: 4 cumulative IPC: 3.976 (Simulation time: 00 hr 32 min 33 sec)
Heartbeat CPU 0 instructions: 470000002 cycles: 118106202 heartbeat IPC: 4 cumulative IPC: 3.977 (Simulation time: 00 hr 33 min 15 sec)
Heartbeat CPU 0 instructions: 480000002 cycles: 120606224 heartbeat IPC: 4 cumulative IPC: 3.978 (Simulation time: 00 hr 33 min 56 sec)
Heartbeat CPU 0 instructions: 490000000 cycles: 123107752 heartbeat IPC: 3.998 cumulative IPC: 3.978 (Simulation time: 00 hr 34 min 40 sec)
Heartbeat CPU 0 instructions: 500000002 cycles: 125609937 heartbeat IPC: 3.997 cumulative IPC: 3.978 (Simulation time: 00 hr 35 min 27 sec)
Heartbeat CPU 0 instructions: 510000003 cycles: 128109958 heartbeat IPC: 4 cumulative IPC: 3.979 (Simulation time: 00 hr 36 min 12 sec)
Heartbeat CPU 0 instructions: 520000004 cycles: 130609979 heartbeat IPC: 4 cumulative IPC: 3.979 (Simulation time: 00 hr 37 min 00 sec)
Heartbeat CPU 0 instructions: 530000000 cycles: 133110022 heartbeat IPC: 4 cumulative IPC: 3.98 (Simulation time: 00 hr 37 min 46 sec)
Heartbeat CPU 0 instructions: 540000001 cycles: 135612687 heartbeat IPC: 3.996 cumulative IPC: 3.98 (Simulation time: 00 hr 38 min 40 sec)
Heartbeat CPU 0 instructions: 550000002 cycles: 138112707 heartbeat IPC: 4 cumulative IPC: 3.98 (Simulation time: 00 hr 39 min 23 sec)
Heartbeat CPU 0 instructions: 560000003 cycles: 140613173 heartbeat IPC: 3.999 cumulative IPC: 3.981 (Simulation time: 00 hr 40 min 14 sec)
Heartbeat CPU 0 instructions: 570000004 cycles: 143113195 heartbeat IPC: 4 cumulative IPC: 3.981 (Simulation time: 00 hr 41 min 00 sec)
Heartbeat CPU 0 instructions: 580000000 cycles: 145613217 heartbeat IPC: 4 cumulative IPC: 3.982 (Simulation time: 00 hr 42 min 00 sec)
Heartbeat CPU 0 instructions: 590000002 cycles: 148113254 heartbeat IPC: 4 cumulative IPC: 3.982 (Simulation time: 00 hr 42 min 42 sec)
*** Reached end of trace: (0, "traces/convolution.champsimtrace")
Heartbeat CPU 0 instructions: 600000000 cycles: 150622725 heartbeat IPC: 3.985 cumulative IPC: 3.982 (Simulation time: 00 hr 43 min 33 sec)
Heartbeat CPU 0 instructions: 610000002 cycles: 174287344 heartbeat IPC: 0.4226 cumulative IPC: 3.461 (Simulation time: 00 hr 46 min 54 sec)
Heartbeat CPU 0 instructions: 620000001 cycles: 195257762 heartbeat IPC: 0.4769 cumulative IPC: 3.119 (Simulation time: 00 hr 50 min 10 sec)
Heartbeat CPU 0 instructions: 630000001 cycles: 206410145 heartbeat IPC: 0.8967 cumulative IPC: 2.991 (Simulation time: 00 hr 52 min 02 sec)
Heartbeat CPU 0 instructions: 640000004 cycles: 216866989 heartbeat IPC: 0.9563 cumulative IPC: 2.887 (Simulation time: 00 hr 53 min 47 sec)
Heartbeat CPU 0 instructions: 650000001 cycles: 227294152 heartbeat IPC: 0.959 cumulative IPC: 2.793 (Simulation time: 00 hr 55 min 27 sec)
Simulation finished CPU 0 instructions: 600000001 cycles: 214793950 cumulative IPC: 2.793 (Simulation time: 00 hr 55 min 27 sec)
Simulation complete CPU 0 instructions: 600000001 cycles: 214793950 cumulative IPC: 2.793 (Simulation time: 00 hr 55 min 27 sec)

ChampSim completed all CPUs

=== Simulation ===
CPU 0 runs traces/convolution.champsimtrace
Region of Interest Statistics

CPU 0 cumulative IPC: 2.793 instructions: 600000001 cycles: 214793950
CPU 0 Branch Prediction Accuracy: 100% MPKI: 0.002858 Average ROB Occupancy at Mispredict: 80.05
Branch type MPKI
BRANCH_DIRECT_JUMP: 0.000107
BRANCH_INDIRECT: 4.17e-05
BRANCH_CONDITIONAL: 0.00258
BRANCH_DIRECT_CALL: 0.000103
BRANCH_INDIRECT_CALL: 8.33e-06
BRANCH_RETURN: 1.83e-05

LLC TOTAL        ACCESS:    1183169 HIT:     535740 MISS:     647429
LLC LOAD         ACCESS:       2887 HIT:          3 MISS:       2884
LLC RFO          ACCESS:     535121 HIT:         19 MISS:     535102
LLC PREFETCH     ACCESS:          0 HIT:          0 MISS:          0
LLC WRITE        ACCESS:     535177 HIT:     535154 MISS:         23
LLC TRANSLATION  ACCESS:     109984 HIT:        564 MISS:     109420
LLC PREFETCH REQUESTED:          0 ISSUED:          0 USEFUL:          0 USELESS:          0
LLC AVERAGE MISS LATENCY: 989.9 cycles
cpu0_DTLB TOTAL        ACCESS:  113110885 HIT:  112757424 MISS:     353461
cpu0_DTLB LOAD         ACCESS:  113110885 HIT:  112757424 MISS:     353461
cpu0_DTLB RFO          ACCESS:          0 HIT:          0 MISS:          0
cpu0_DTLB PREFETCH     ACCESS:          0 HIT:          0 MISS:          0
cpu0_DTLB WRITE        ACCESS:          0 HIT:          0 MISS:          0
cpu0_DTLB TRANSLATION  ACCESS:          0 HIT:          0 MISS:          0
cpu0_DTLB PREFETCH REQUESTED:          0 ISSUED:          0 USEFUL:          0 USELESS:          0
cpu0_DTLB AVERAGE MISS LATENCY: 639.2 cycles
cpu0_ITLB TOTAL        ACCESS:       2132 HIT:       2098 MISS:         34
cpu0_ITLB LOAD         ACCESS:       2132 HIT:       2098 MISS:         34
cpu0_ITLB RFO          ACCESS:          0 HIT:          0 MISS:          0
cpu0_ITLB PREFETCH     ACCESS:          0 HIT:          0 MISS:          0
cpu0_ITLB WRITE        ACCESS:          0 HIT:          0 MISS:          0
cpu0_ITLB TRANSLATION  ACCESS:          0 HIT:          0 MISS:          0
cpu0_ITLB PREFETCH REQUESTED:          0 ISSUED:          0 USEFUL:          0 USELESS:          0
cpu0_ITLB AVERAGE MISS LATENCY: 793.3 cycles
cpu0_L1D TOTAL        ACCESS:  146346892 HIT:  140155396 MISS:    6191496
cpu0_L1D LOAD         ACCESS:   74194264 HIT:   74186489 MISS:       7775
cpu0_L1D RFO          ACCESS:          0 HIT:          0 MISS:          0
cpu0_L1D PREFETCH     ACCESS:          0 HIT:          0 MISS:          0
cpu0_L1D WRITE        ACCESS:   71971802 HIT:   65930652 MISS:    6041150
cpu0_L1D TRANSLATION  ACCESS:     180826 HIT:      38255 MISS:     142571
cpu0_L1D PREFETCH REQUESTED:          0 ISSUED:          0 USEFUL:          0 USELESS:          0
cpu0_L1D AVERAGE MISS LATENCY: 80.27 cycles
cpu0_L1I TOTAL        ACCESS:       2492 HIT:       1000 MISS:       1492
cpu0_L1I LOAD         ACCESS:       2492 HIT:       1000 MISS:       1492
cpu0_L1I RFO          ACCESS:          0 HIT:          0 MISS:          0
cpu0_L1I PREFETCH     ACCESS:          0 HIT:          0 MISS:          0
cpu0_L1I WRITE        ACCESS:          0 HIT:          0 MISS:          0
cpu0_L1I TRANSLATION  ACCESS:          0 HIT:          0 MISS:          0
cpu0_L1I PREFETCH REQUESTED:          0 ISSUED:          0 USEFUL:          0 USELESS:          0
cpu0_L1I AVERAGE MISS LATENCY: 613.9 cycles
cpu0_L2C TOTAL        ACCESS:    1193496 HIT:     545486 MISS:     648010
cpu0_L2C LOAD         ACCESS:       3312 HIT:        425 MISS:       2887
cpu0_L2C RFO          ACCESS:     539204 HIT:       4083 MISS:     535121
cpu0_L2C PREFETCH     ACCESS:          0 HIT:          0 MISS:          0
cpu0_L2C WRITE        ACCESS:     539647 HIT:     539630 MISS:         17
cpu0_L2C TRANSLATION  ACCESS:     111333 HIT:       1348 MISS:     109985
cpu0_L2C PREFETCH REQUESTED:          0 ISSUED:          0 USEFUL:          0 USELESS:          0
cpu0_L2C AVERAGE MISS LATENCY: 1010 cycles
cpu0_STLB TOTAL        ACCESS:     156153 HIT:         44 MISS:     156109
cpu0_STLB LOAD         ACCESS:     156153 HIT:         44 MISS:     156109
cpu0_STLB RFO          ACCESS:          0 HIT:          0 MISS:          0
cpu0_STLB PREFETCH     ACCESS:          0 HIT:          0 MISS:          0
cpu0_STLB WRITE        ACCESS:          0 HIT:          0 MISS:          0
cpu0_STLB TRANSLATION  ACCESS:          0 HIT:          0 MISS:          0
cpu0_STLB PREFETCH REQUESTED:          0 ISSUED:          0 USEFUL:          0 USELESS:          0
cpu0_STLB AVERAGE MISS LATENCY: 1646 cycles

DRAM Statistics

Channel 0 RQ ROW_BUFFER_HIT:     140978
  ROW_BUFFER_MISS:     506423
 AVG DBUS CONGESTED CYCLE: 3.981
WQ ROW_BUFFER_HIT: Channel 0 
  ROW_BUFFER_MISS:     106366
  FULL:     428753
