WARNING: physical memory size is smaller than virtual memory size.

*** ChampSim Multicore Out-of-Order Simulator ***
Warmup Instructions: 50000000
Simulation Instructions: 600000000
Number of CPUs: 1
Page size: 4096

CPU 0 Tage branch predictor
Off-chip DRAM Size: 4 GiB Channels: 1 Width: 64-bit Data Race: 3200 MT/s
Heartbeat CPU 0 instructions: 10000000 cycles: 2500202 heartbeat IPC: 4 cumulative IPC: 4 (Simulation time: 00 hr 00 min 41 sec)
Heartbeat CPU 0 instructions: 20000000 cycles: 5000202 heartbeat IPC: 4 cumulative IPC: 4 (Simulation time: 00 hr 01 min 22 sec)
Heartbeat CPU 0 instructions: 30000000 cycles: 7500202 heartbeat IPC: 4 cumulative IPC: 4 (Simulation time: 00 hr 02 min 04 sec)
Heartbeat CPU 0 instructions: 40000000 cycles: 10000202 heartbeat IPC: 4 cumulative IPC: 4 (Simulation time: 00 hr 02 min 45 sec)
Heartbeat CPU 0 instructions: 50000000 cycles: 12500202 heartbeat IPC: 4 cumulative IPC: 4 (Simulation time: 00 hr 03 min 25 sec)
Warmup finished CPU 0 instructions: 50000000 cycles: 12500203 cumulative IPC: 4 (Simulation time: 00 hr 03 min 25 sec)
Warmup complete CPU 0 instructions: 50000000 cycles: 12500203 cumulative IPC: 4 (Simulation time: 00 hr 03 min 25 sec)
Heartbeat CPU 0 instructions: 60000002 cycles: 15584393 heartbeat IPC: 3.242 cumulative IPC: 3.242 (Simulation time: 00 hr 04 min 15 sec)
Heartbeat CPU 0 instructions: 70000002 cycles: 18092804 heartbeat IPC: 3.987 cumulative IPC: 3.576 (Simulation time: 00 hr 05 min 00 sec)
Heartbeat CPU 0 instructions: 80000003 cycles: 20595104 heartbeat IPC: 3.996 cumulative IPC: 3.706 (Simulation time: 00 hr 05 min 47 sec)
Heartbeat CPU 0 instructions: 90000004 cycles: 23104710 heartbeat IPC: 3.985 cumulative IPC: 3.772 (Simulation time: 00 hr 06 min 35 sec)
Heartbeat CPU 0 instructions: 100000003 cycles: 25614838 heartbeat IPC: 3.984 cumulative IPC: 3.813 (Simulation time: 00 hr 07 min 24 sec)
Heartbeat CPU 0 instructions: 110000000 cycles: 28121175 heartbeat IPC: 3.99 cumulative IPC: 3.841 (Simulation time: 00 hr 08 min 09 sec)
Heartbeat CPU 0 instructions: 120000000 cycles: 30625786 heartbeat IPC: 3.993 cumulative IPC: 3.862 (Simulation time: 00 hr 08 min 53 sec)
Heartbeat CPU 0 instructions: 130000000 cycles: 33132144 heartbeat IPC: 3.99 cumulative IPC: 3.877 (Simulation time: 00 hr 09 min 37 sec)
Heartbeat CPU 0 instructions: 140000001 cycles: 35640019 heartbeat IPC: 3.987 cumulative IPC: 3.889 (Simulation time: 00 hr 10 min 22 sec)
Heartbeat CPU 0 instructions: 150000003 cycles: 38148490 heartbeat IPC: 3.986 cumulative IPC: 3.899 (Simulation time: 00 hr 11 min 10 sec)
Heartbeat CPU 0 instructions: 160000003 cycles: 40654367 heartbeat IPC: 3.991 cumulative IPC: 3.907 (Simulation time: 00 hr 11 min 55 sec)
Heartbeat CPU 0 instructions: 170000000 cycles: 43157802 heartbeat IPC: 3.995 cumulative IPC: 3.914 (Simulation time: 00 hr 12 min 39 sec)
Heartbeat CPU 0 instructions: 180000001 cycles: 45661473 heartbeat IPC: 3.994 cumulative IPC: 3.92 (Simulation time: 00 hr 13 min 25 sec)
Heartbeat CPU 0 instructions: 190000002 cycles: 48165615 heartbeat IPC: 3.993 cumulative IPC: 3.925 (Simulation time: 00 hr 14 min 14 sec)
Heartbeat CPU 0 instructions: 200000002 cycles: 50673299 heartbeat IPC: 3.988 cumulative IPC: 3.929 (Simulation time: 00 hr 15 min 00 sec)
Heartbeat CPU 0 instructions: 210000000 cycles: 53180070 heartbeat IPC: 3.989 cumulative IPC: 3.933 (Simulation time: 00 hr 15 min 42 sec)
Heartbeat CPU 0 instructions: 220000001 cycles: 55686968 heartbeat IPC: 3.989 cumulative IPC: 3.936 (Simulation time: 00 hr 16 min 25 sec)
Heartbeat CPU 0 instructions: 230000002 cycles: 58195591 heartbeat IPC: 3.986 cumulative IPC: 3.939 (Simulation time: 00 hr 17 min 09 sec)
Heartbeat CPU 0 instructions: 240000004 cycles: 60701044 heartbeat IPC: 3.991 cumulative IPC: 3.942 (Simulation time: 00 hr 17 min 52 sec)
Heartbeat CPU 0 instructions: 250000000 cycles: 63211544 heartbeat IPC: 3.983 cumulative IPC: 3.944 (Simulation time: 00 hr 18 min 34 sec)
Heartbeat CPU 0 instructions: 260000000 cycles: 65722553 heartbeat IPC: 3.982 cumulative IPC: 3.946 (Simulation time: 00 hr 19 min 16 sec)
Heartbeat CPU 0 instructions: 270000002 cycles: 68225315 heartbeat IPC: 3.996 cumulative IPC: 3.948 (Simulation time: 00 hr 19 min 57 sec)
Heartbeat CPU 0 instructions: 280000003 cycles: 70730524 heartbeat IPC: 3.992 cumulative IPC: 3.95 (Simulation time: 00 hr 20 min 41 sec)
Heartbeat CPU 0 instructions: 290000000 cycles: 73232902 heartbeat IPC: 3.996 cumulative IPC: 3.952 (Simulation time: 00 hr 21 min 26 sec)
Heartbeat CPU 0 instructions: 300000000 cycles: 75739694 heartbeat IPC: 3.989 cumulative IPC: 3.953 (Simulation time: 00 hr 22 min 09 sec)
Heartbeat CPU 0 instructions: 310000002 cycles: 78244121 heartbeat IPC: 3.993 cumulative IPC: 3.955 (Simulation time: 00 hr 22 min 54 sec)
Heartbeat CPU 0 instructions: 320000004 cycles: 80752918 heartbeat IPC: 3.986 cumulative IPC: 3.956 (Simulation time: 00 hr 23 min 38 sec)
Heartbeat CPU 0 instructions: 330000000 cycles: 83261013 heartbeat IPC: 3.987 cumulative IPC: 3.957 (Simulation time: 00 hr 24 min 22 sec)
Heartbeat CPU 0 instructions: 340000002 cycles: 85771132 heartbeat IPC: 3.984 cumulative IPC: 3.958 (Simulation time: 00 hr 25 min 06 sec)
Heartbeat CPU 0 instructions: 350000002 cycles: 88279828 heartbeat IPC: 3.986 cumulative IPC: 3.959 (Simulation time: 00 hr 25 min 48 sec)
Heartbeat CPU 0 instructions: 360000004 cycles: 90787371 heartbeat IPC: 3.988 cumulative IPC: 3.96 (Simulation time: 00 hr 26 min 31 sec)
Heartbeat CPU 0 instructions: 370000004 cycles: 93290669 heartbeat IPC: 3.995 cumulative IPC: 3.961 (Simulation time: 00 hr 27 min 13 sec)
Heartbeat CPU 0 instructions: 380000000 cycles: 95797741 heartbeat IPC: 3.989 cumulative IPC: 3.962 (Simulation time: 00 hr 27 min 55 sec)
Heartbeat CPU 0 instructions: 390000000 cycles: 98301102 heartbeat IPC: 3.995 cumulative IPC: 3.963 (Simulation time: 00 hr 28 min 38 sec)
Heartbeat CPU 0 instructions: 400000000 cycles: 100806949 heartbeat IPC: 3.991 cumulative IPC: 3.963 (Simulation time: 00 hr 29 min 20 sec)
Heartbeat CPU 0 instructions: 410000000 cycles: 103315307 heartbeat IPC: 3.987 cumulative IPC: 3.964 (Simulation time: 00 hr 30 min 02 sec)
Heartbeat CPU 0 instructions: 420000001 cycles: 105818450 heartbeat IPC: 3.995 cumulative IPC: 3.965 (Simulation time: 00 hr 30 min 45 sec)
Heartbeat CPU 0 instructions: 430000003 cycles: 108324676 heartbeat IPC: 3.99 cumulative IPC: 3.966 (Simulation time: 00 hr 31 min 27 sec)
Heartbeat CPU 0 instructions: 440000003 cycles: 110828307 heartbeat IPC: 3.994 cumulative IPC: 3.966 (Simulation time: 00 hr 32 min 09 sec)
Heartbeat CPU 0 instructions: 450000000 cycles: 113337680 heartbeat IPC: 3.985 cumulative IPC: 3.967 (Simulation time: 00 hr 32 min 51 sec)
Heartbeat CPU 0 instructions: 460000001 cycles: 115842869 heartbeat IPC: 3.992 cumulative IPC: 3.967 (Simulation time: 00 hr 33 min 34 sec)
Heartbeat CPU 0 instructions: 470000002 cycles: 118348427 heartbeat IPC: 3.991 cumulative IPC: 3.968 (Simulation time: 00 hr 34 min 16 sec)
Heartbeat CPU 0 instructions: 480000001 cycles: 120852611 heartbeat IPC: 3.993 cumulative IPC: 3.969 (Simulation time: 00 hr 34 min 58 sec)
Heartbeat CPU 0 instructions: 490000000 cycles: 123359975 heartbeat IPC: 3.988 cumulative IPC: 3.969 (Simulation time: 00 hr 35 min 40 sec)
Heartbeat CPU 0 instructions: 500000002 cycles: 125866435 heartbeat IPC: 3.99 cumulative IPC: 3.969 (Simulation time: 00 hr 36 min 22 sec)
Heartbeat CPU 0 instructions: 510000003 cycles: 128373711 heartbeat IPC: 3.988 cumulative IPC: 3.97 (Simulation time: 00 hr 37 min 05 sec)
Heartbeat CPU 0 instructions: 520000004 cycles: 130887625 heartbeat IPC: 3.978 cumulative IPC: 3.97 (Simulation time: 00 hr 37 min 50 sec)
Heartbeat CPU 0 instructions: 530000000 cycles: 133395883 heartbeat IPC: 3.987 cumulative IPC: 3.97 (Simulation time: 00 hr 38 min 35 sec)
Heartbeat CPU 0 instructions: 540000001 cycles: 135898916 heartbeat IPC: 3.995 cumulative IPC: 3.971 (Simulation time: 00 hr 39 min 20 sec)
Heartbeat CPU 0 instructions: 550000002 cycles: 138403832 heartbeat IPC: 3.992 cumulative IPC: 3.971 (Simulation time: 00 hr 40 min 03 sec)
Heartbeat CPU 0 instructions: 560000003 cycles: 140911825 heartbeat IPC: 3.987 cumulative IPC: 3.972 (Simulation time: 00 hr 40 min 49 sec)
Heartbeat CPU 0 instructions: 570000004 cycles: 143417734 heartbeat IPC: 3.991 cumulative IPC: 3.972 (Simulation time: 00 hr 41 min 37 sec)
Heartbeat CPU 0 instructions: 580000000 cycles: 145926527 heartbeat IPC: 3.986 cumulative IPC: 3.972 (Simulation time: 00 hr 42 min 23 sec)
Heartbeat CPU 0 instructions: 590000002 cycles: 148433421 heartbeat IPC: 3.989 cumulative IPC: 3.973 (Simulation time: 00 hr 43 min 06 sec)
*** Reached end of trace: (0, "traces/convolution.champsimtrace")
Heartbeat CPU 0 instructions: 600000000 cycles: 150939906 heartbeat IPC: 3.99 cumulative IPC: 3.973 (Simulation time: 00 hr 43 min 51 sec)
Heartbeat CPU 0 instructions: 610000002 cycles: 172998435 heartbeat IPC: 0.4533 cumulative IPC: 3.489 (Simulation time: 00 hr 46 min 57 sec)
Heartbeat CPU 0 instructions: 620000001 cycles: 192038686 heartbeat IPC: 0.5252 cumulative IPC: 3.175 (Simulation time: 00 hr 49 min 49 sec)
Heartbeat CPU 0 instructions: 630000001 cycles: 200603983 heartbeat IPC: 1.168 cumulative IPC: 3.083 (Simulation time: 00 hr 51 min 24 sec)
Heartbeat CPU 0 instructions: 640000004 cycles: 211439605 heartbeat IPC: 0.9229 cumulative IPC: 2.966 (Simulation time: 00 hr 53 min 17 sec)
Heartbeat CPU 0 instructions: 650000001 cycles: 222188453 heartbeat IPC: 0.9303 cumulative IPC: 2.861 (Simulation time: 00 hr 55 min 05 sec)
Simulation finished CPU 0 instructions: 600000001 cycles: 209688251 cumulative IPC: 2.861 (Simulation time: 00 hr 55 min 05 sec)
Simulation complete CPU 0 instructions: 600000001 cycles: 209688251 cumulative IPC: 2.861 (Simulation time: 00 hr 55 min 05 sec)

ChampSim completed all CPUs

=== Simulation ===
CPU 0 runs traces/convolution.champsimtrace
Region of Interest Statistics

CPU 0 cumulative IPC: 2.861 instructions: 600000001 cycles: 209688251
CPU 0 Branch Prediction Accuracy: 100% MPKI: 0.002858 Average ROB Occupancy at Mispredict: 78.88
Branch type MPKI
BRANCH_DIRECT_JUMP: 0.000107
BRANCH_INDIRECT: 4.17e-05
BRANCH_CONDITIONAL: 0.00258
BRANCH_DIRECT_CALL: 0.000103
BRANCH_INDIRECT_CALL: 8.33e-06
BRANCH_RETURN: 1.83e-05

LLC TOTAL        ACCESS:    1182752 HIT:      50677 MISS:    1132075
LLC LOAD         ACCESS:       2888 HIT:       1432 MISS:       1456
LLC RFO          ACCESS:     535120 HIT:      16593 MISS:     518527
LLC PREFETCH     ACCESS:          0 HIT:          0 MISS:          0
LLC WRITE        ACCESS:     535168 HIT:      19317 MISS:     515851
LLC TRANSLATION  ACCESS:     109576 HIT:      13335 MISS:      96241
LLC PREFETCH REQUESTED:          0 ISSUED:          0 USEFUL:          0 USELESS:          0
LLC AVERAGE MISS LATENCY: 558 cycles
cpu0_DTLB TOTAL        ACCESS:  113237185 HIT:  112899897 MISS:     337288
cpu0_DTLB LOAD         ACCESS:  113237185 HIT:  112899897 MISS:     337288
cpu0_DTLB RFO          ACCESS:          0 HIT:          0 MISS:          0
cpu0_DTLB PREFETCH     ACCESS:          0 HIT:          0 MISS:          0
cpu0_DTLB WRITE        ACCESS:          0 HIT:          0 MISS:          0
cpu0_DTLB TRANSLATION  ACCESS:          0 HIT:          0 MISS:          0
cpu0_DTLB PREFETCH REQUESTED:          0 ISSUED:          0 USEFUL:          0 USELESS:          0
cpu0_DTLB AVERAGE MISS LATENCY: 635.4 cycles
cpu0_ITLB TOTAL        ACCESS:       2121 HIT:       2087 MISS:         34
cpu0_ITLB LOAD         ACCESS:       2121 HIT:       2087 MISS:         34
cpu0_ITLB RFO          ACCESS:          0 HIT:          0 MISS:          0
cpu0_ITLB PREFETCH     ACCESS:          0 HIT:          0 MISS:          0
cpu0_ITLB WRITE        ACCESS:          0 HIT:          0 MISS:          0
cpu0_ITLB TRANSLATION  ACCESS:          0 HIT:          0 MISS:          0
cpu0_ITLB PREFETCH REQUESTED:          0 ISSUED:          0 USEFUL:          0 USELESS:          0
cpu0_ITLB AVERAGE MISS LATENCY: 487 cycles
cpu0_L1D TOTAL        ACCESS:  146431405 HIT:  140267032 MISS:    6164373
cpu0_L1D LOAD         ACCESS:   74278419 HIT:   74270199 MISS:       8220
cpu0_L1D RFO          ACCESS:          0 HIT:          0 MISS:          0
cpu0_L1D PREFETCH     ACCESS:          0 HIT:          0 MISS:          0
cpu0_L1D WRITE        ACCESS:   71972439 HIT:   65960763 MISS:    6011676
cpu0_L1D TRANSLATION  ACCESS:     180547 HIT:      36070 MISS:     144477
cpu0_L1D PREFETCH REQUESTED:          0 ISSUED:          0 USEFUL:          0 USELESS:          0
cpu0_L1D AVERAGE MISS LATENCY: 82.22 cycles
cpu0_L1I TOTAL        ACCESS:       2476 HIT:       1034 MISS:       1442
cpu0_L1I LOAD         ACCESS:       2476 HIT:       1034 MISS:       1442
cpu0_L1I RFO          ACCESS:          0 HIT:          0 MISS:          0
cpu0_L1I PREFETCH     ACCESS:          0 HIT:          0 MISS:          0
cpu0_L1I WRITE        ACCESS:          0 HIT:          0 MISS:          0
cpu0_L1I TRANSLATION  ACCESS:          0 HIT:          0 MISS:          0
cpu0_L1I PREFETCH REQUESTED:          0 ISSUED:          0 USEFUL:          0 USELESS:          0
cpu0_L1I AVERAGE MISS LATENCY: 340 cycles
cpu0_L2C TOTAL        ACCESS:    1193067 HIT:     545466 MISS:     647601
cpu0_L2C LOAD         ACCESS:       3312 HIT:        424 MISS:       2888
cpu0_L2C RFO          ACCESS:     539209 HIT:       4089 MISS:     535120
cpu0_L2C PREFETCH     ACCESS:          0 HIT:          0 MISS:          0
cpu0_L2C WRITE        ACCESS:     539632 HIT:     539616 MISS:         16
cpu0_L2C TRANSLATION  ACCESS:     110914 HIT:       1337 MISS:     109577
cpu0_L2C PREFETCH REQUESTED:          0 ISSUED:          0 USEFUL:          0 USELESS:          0
cpu0_L2C AVERAGE MISS LATENCY: 996.4 cycles
cpu0_STLB TOTAL        ACCESS:     156156 HIT:         50 MISS:     156106
cpu0_STLB LOAD         ACCESS:     156156 HIT:         50 MISS:     156106
cpu0_STLB RFO          ACCESS:          0 HIT:          0 MISS:          0
cpu0_STLB PREFETCH     ACCESS:          0 HIT:          0 MISS:          0
cpu0_STLB WRITE        ACCESS:          0 HIT:          0 MISS:          0
cpu0_STLB TRANSLATION  ACCESS:          0 HIT:          0 MISS:          0
cpu0_STLB PREFETCH REQUESTED:          0 ISSUED:          0 USEFUL:          0 USELESS:          0
cpu0_STLB AVERAGE MISS LATENCY: 1550 cycles

DRAM Statistics

Channel 0 RQ ROW_BUFFER_HIT:     138380
  ROW_BUFFER_MISS:     477839
 AVG DBUS CONGESTED CYCLE: 3.977
WQ ROW_BUFFER_HIT: Channel 0 
  ROW_BUFFER_MISS:     119672
  FULL:     398838
