WARNING: physical memory size is smaller than virtual memory size.

*** ChampSim Multicore Out-of-Order Simulator ***
Warmup Instructions: 50000000
Simulation Instructions: 600000000
Number of CPUs: 1
Page size: 4096

Off-chip DRAM Size: 4 GiB Channels: 1 Width: 64-bit Data Race: 3200 MT/s
Heartbeat CPU 0 instructions: 10000000 cycles: 2500202 heartbeat IPC: 4 cumulative IPC: 4 (Simulation time: 00 hr 00 min 33 sec)
Heartbeat CPU 0 instructions: 20000000 cycles: 5000202 heartbeat IPC: 4 cumulative IPC: 4 (Simulation time: 00 hr 01 min 10 sec)
Heartbeat CPU 0 instructions: 30000000 cycles: 7500202 heartbeat IPC: 4 cumulative IPC: 4 (Simulation time: 00 hr 01 min 43 sec)
Heartbeat CPU 0 instructions: 40000000 cycles: 10000202 heartbeat IPC: 4 cumulative IPC: 4 (Simulation time: 00 hr 02 min 18 sec)
Heartbeat CPU 0 instructions: 50000000 cycles: 12500202 heartbeat IPC: 4 cumulative IPC: 4 (Simulation time: 00 hr 02 min 53 sec)
Warmup finished CPU 0 instructions: 50000000 cycles: 12500203 cumulative IPC: 4 (Simulation time: 00 hr 02 min 53 sec)
Warmup complete CPU 0 instructions: 50000000 cycles: 12500203 cumulative IPC: 4 (Simulation time: 00 hr 02 min 53 sec)
Heartbeat CPU 0 instructions: 60000002 cycles: 15772488 heartbeat IPC: 3.056 cumulative IPC: 3.056 (Simulation time: 00 hr 03 min 34 sec)
Heartbeat CPU 0 instructions: 70000002 cycles: 18478091 heartbeat IPC: 3.696 cumulative IPC: 3.346 (Simulation time: 00 hr 04 min 12 sec)
Heartbeat CPU 0 instructions: 80000003 cycles: 21181688 heartbeat IPC: 3.699 cumulative IPC: 3.456 (Simulation time: 00 hr 04 min 50 sec)
Heartbeat CPU 0 instructions: 90000004 cycles: 23885251 heartbeat IPC: 3.699 cumulative IPC: 3.513 (Simulation time: 00 hr 05 min 29 sec)
Heartbeat CPU 0 instructions: 100000003 cycles: 26592212 heartbeat IPC: 3.694 cumulative IPC: 3.548 (Simulation time: 00 hr 06 min 15 sec)
Heartbeat CPU 0 instructions: 110000000 cycles: 29295894 heartbeat IPC: 3.699 cumulative IPC: 3.572 (Simulation time: 00 hr 06 min 54 sec)
Heartbeat CPU 0 instructions: 120000000 cycles: 31999248 heartbeat IPC: 3.699 cumulative IPC: 3.59 (Simulation time: 00 hr 07 min 33 sec)
Heartbeat CPU 0 instructions: 130000000 cycles: 34702869 heartbeat IPC: 3.699 cumulative IPC: 3.603 (Simulation time: 00 hr 08 min 09 sec)
Heartbeat CPU 0 instructions: 140000001 cycles: 37406418 heartbeat IPC: 3.699 cumulative IPC: 3.614 (Simulation time: 00 hr 08 min 45 sec)
Heartbeat CPU 0 instructions: 150000003 cycles: 40110002 heartbeat IPC: 3.699 cumulative IPC: 3.622 (Simulation time: 00 hr 09 min 19 sec)
Heartbeat CPU 0 instructions: 160000003 cycles: 42815657 heartbeat IPC: 3.696 cumulative IPC: 3.629 (Simulation time: 00 hr 09 min 54 sec)
Heartbeat CPU 0 instructions: 170000001 cycles: 45519415 heartbeat IPC: 3.699 cumulative IPC: 3.634 (Simulation time: 00 hr 10 min 27 sec)
Heartbeat CPU 0 instructions: 180000001 cycles: 48222988 heartbeat IPC: 3.699 cumulative IPC: 3.639 (Simulation time: 00 hr 11 min 01 sec)
Heartbeat CPU 0 instructions: 190000002 cycles: 50928084 heartbeat IPC: 3.697 cumulative IPC: 3.643 (Simulation time: 00 hr 11 min 35 sec)
Heartbeat CPU 0 instructions: 200000001 cycles: 53631670 heartbeat IPC: 3.699 cumulative IPC: 3.647 (Simulation time: 00 hr 12 min 09 sec)
Heartbeat CPU 0 instructions: 210000000 cycles: 56338071 heartbeat IPC: 3.695 cumulative IPC: 3.65 (Simulation time: 00 hr 12 min 42 sec)
Heartbeat CPU 0 instructions: 220000001 cycles: 59041428 heartbeat IPC: 3.699 cumulative IPC: 3.653 (Simulation time: 00 hr 13 min 15 sec)
Heartbeat CPU 0 instructions: 230000002 cycles: 61745050 heartbeat IPC: 3.699 cumulative IPC: 3.655 (Simulation time: 00 hr 13 min 47 sec)
Heartbeat CPU 0 instructions: 240000004 cycles: 64448683 heartbeat IPC: 3.699 cumulative IPC: 3.657 (Simulation time: 00 hr 14 min 19 sec)
Heartbeat CPU 0 instructions: 250000000 cycles: 67154885 heartbeat IPC: 3.695 cumulative IPC: 3.659 (Simulation time: 00 hr 14 min 51 sec)
Heartbeat CPU 0 instructions: 260000000 cycles: 69858987 heartbeat IPC: 3.698 cumulative IPC: 3.661 (Simulation time: 00 hr 15 min 23 sec)
Heartbeat CPU 0 instructions: 270000002 cycles: 72562350 heartbeat IPC: 3.699 cumulative IPC: 3.663 (Simulation time: 00 hr 15 min 55 sec)
Heartbeat CPU 0 instructions: 280000003 cycles: 75265975 heartbeat IPC: 3.699 cumulative IPC: 3.664 (Simulation time: 00 hr 16 min 27 sec)
Heartbeat CPU 0 instructions: 290000003 cycles: 77969630 heartbeat IPC: 3.699 cumulative IPC: 3.666 (Simulation time: 00 hr 16 min 59 sec)
Heartbeat CPU 0 instructions: 300000000 cycles: 80675969 heartbeat IPC: 3.695 cumulative IPC: 3.667 (Simulation time: 00 hr 17 min 31 sec)
Heartbeat CPU 0 instructions: 310000002 cycles: 83379216 heartbeat IPC: 3.699 cumulative IPC: 3.668 (Simulation time: 00 hr 18 min 03 sec)
Heartbeat CPU 0 instructions: 320000004 cycles: 86082593 heartbeat IPC: 3.699 cumulative IPC: 3.669 (Simulation time: 00 hr 18 min 35 sec)
Heartbeat CPU 0 instructions: 330000000 cycles: 88786203 heartbeat IPC: 3.699 cumulative IPC: 3.67 (Simulation time: 00 hr 19 min 07 sec)
Heartbeat CPU 0 instructions: 340000002 cycles: 91490297 heartbeat IPC: 3.698 cumulative IPC: 3.671 (Simulation time: 00 hr 19 min 39 sec)
Heartbeat CPU 0 instructions: 350000002 cycles: 94193742 heartbeat IPC: 3.699 cumulative IPC: 3.672 (Simulation time: 00 hr 20 min 11 sec)
Heartbeat CPU 0 instructions: 360000001 cycles: 96899821 heartbeat IPC: 3.695 cumulative IPC: 3.673 (Simulation time: 00 hr 20 min 44 sec)
Heartbeat CPU 0 instructions: 370000004 cycles: 99604238 heartbeat IPC: 3.698 cumulative IPC: 3.674 (Simulation time: 00 hr 21 min 16 sec)
Heartbeat CPU 0 instructions: 380000000 cycles: 102307806 heartbeat IPC: 3.699 cumulative IPC: 3.675 (Simulation time: 00 hr 21 min 48 sec)
Heartbeat CPU 0 instructions: 390000004 cycles: 105011526 heartbeat IPC: 3.699 cumulative IPC: 3.675 (Simulation time: 00 hr 22 min 20 sec)
Heartbeat CPU 0 instructions: 400000000 cycles: 107716725 heartbeat IPC: 3.697 cumulative IPC: 3.676 (Simulation time: 00 hr 22 min 52 sec)
Heartbeat CPU 0 instructions: 410000000 cycles: 110421951 heartbeat IPC: 3.697 cumulative IPC: 3.676 (Simulation time: 00 hr 23 min 24 sec)
Heartbeat CPU 0 instructions: 420000001 cycles: 113125397 heartbeat IPC: 3.699 cumulative IPC: 3.677 (Simulation time: 00 hr 23 min 56 sec)
Heartbeat CPU 0 instructions: 430000003 cycles: 115829105 heartbeat IPC: 3.699 cumulative IPC: 3.678 (Simulation time: 00 hr 24 min 29 sec)
Heartbeat CPU 0 instructions: 440000003 cycles: 118532798 heartbeat IPC: 3.699 cumulative IPC: 3.678 (Simulation time: 00 hr 25 min 01 sec)
Heartbeat CPU 0 instructions: 450000004 cycles: 121239271 heartbeat IPC: 3.695 cumulative IPC: 3.679 (Simulation time: 00 hr 25 min 33 sec)
Heartbeat CPU 0 instructions: 460000001 cycles: 123942628 heartbeat IPC: 3.699 cumulative IPC: 3.679 (Simulation time: 00 hr 26 min 05 sec)
Heartbeat CPU 0 instructions: 470000002 cycles: 126646104 heartbeat IPC: 3.699 cumulative IPC: 3.68 (Simulation time: 00 hr 26 min 36 sec)
Heartbeat CPU 0 instructions: 480000001 cycles: 129349853 heartbeat IPC: 3.699 cumulative IPC: 3.68 (Simulation time: 00 hr 27 min 07 sec)
Heartbeat CPU 0 instructions: 490000000 cycles: 132054067 heartbeat IPC: 3.698 cumulative IPC: 3.68 (Simulation time: 00 hr 27 min 39 sec)
Heartbeat CPU 0 instructions: 500000002 cycles: 134759522 heartbeat IPC: 3.696 cumulative IPC: 3.681 (Simulation time: 00 hr 28 min 11 sec)
Heartbeat CPU 0 instructions: 510000003 cycles: 137462847 heartbeat IPC: 3.699 cumulative IPC: 3.681 (Simulation time: 00 hr 28 min 43 sec)
Heartbeat CPU 0 instructions: 520000004 cycles: 140166319 heartbeat IPC: 3.699 cumulative IPC: 3.681 (Simulation time: 00 hr 29 min 13 sec)
Heartbeat CPU 0 instructions: 530000000 cycles: 142869976 heartbeat IPC: 3.699 cumulative IPC: 3.682 (Simulation time: 00 hr 29 min 43 sec)
Heartbeat CPU 0 instructions: 540000000 cycles: 145575596 heartbeat IPC: 3.696 cumulative IPC: 3.682 (Simulation time: 00 hr 30 min 14 sec)
Heartbeat CPU 0 instructions: 550000003 cycles: 148278980 heartbeat IPC: 3.699 cumulative IPC: 3.682 (Simulation time: 00 hr 30 min 44 sec)
Heartbeat CPU 0 instructions: 560000003 cycles: 150984211 heartbeat IPC: 3.697 cumulative IPC: 3.683 (Simulation time: 00 hr 31 min 14 sec)
Heartbeat CPU 0 instructions: 570000004 cycles: 153687550 heartbeat IPC: 3.699 cumulative IPC: 3.683 (Simulation time: 00 hr 31 min 43 sec)
Heartbeat CPU 0 instructions: 580000000 cycles: 156391254 heartbeat IPC: 3.699 cumulative IPC: 3.683 (Simulation time: 00 hr 32 min 12 sec)
Heartbeat CPU 0 instructions: 590000002 cycles: 159094837 heartbeat IPC: 3.699 cumulative IPC: 3.684 (Simulation time: 00 hr 32 min 42 sec)
*** Reached end of trace: (0, "traces/convolution.champsimtrace")
Heartbeat CPU 0 instructions: 600000000 cycles: 161808476 heartbeat IPC: 3.685 cumulative IPC: 3.684 (Simulation time: 00 hr 33 min 11 sec)
Heartbeat CPU 0 instructions: 610000002 cycles: 190794027 heartbeat IPC: 0.345 cumulative IPC: 3.141 (Simulation time: 00 hr 36 min 11 sec)
Heartbeat CPU 0 instructions: 620000001 cycles: 217076066 heartbeat IPC: 0.3805 cumulative IPC: 2.786 (Simulation time: 00 hr 38 min 39 sec)
Heartbeat CPU 0 instructions: 630000001 cycles: 227468631 heartbeat IPC: 0.9622 cumulative IPC: 2.698 (Simulation time: 00 hr 39 min 40 sec)
Heartbeat CPU 0 instructions: 640000004 cycles: 237918450 heartbeat IPC: 0.957 cumulative IPC: 2.617 (Simulation time: 00 hr 40 min 36 sec)
Heartbeat CPU 0 instructions: 650000001 cycles: 248330380 heartbeat IPC: 0.9604 cumulative IPC: 2.544 (Simulation time: 00 hr 41 min 25 sec)
Simulation finished CPU 0 instructions: 600000001 cycles: 235830178 cumulative IPC: 2.544 (Simulation time: 00 hr 41 min 25 sec)
Simulation complete CPU 0 instructions: 600000001 cycles: 235830178 cumulative IPC: 2.544 (Simulation time: 00 hr 41 min 25 sec)

ChampSim completed all CPUs

=== Simulation ===
CPU 0 runs traces/convolution.champsimtrace
Region of Interest Statistics

CPU 0 cumulative IPC: 2.544 instructions: 600000001 cycles: 235830178
CPU 0 Branch Prediction Accuracy: 99.3% MPKI: 1.265 Average ROB Occupancy at Mispredict: 63.99
Branch type MPKI
BRANCH_DIRECT_JUMP: 0.000107
BRANCH_INDIRECT: 4.17e-05
BRANCH_CONDITIONAL: 1.26
BRANCH_DIRECT_CALL: 0.000103
BRANCH_INDIRECT_CALL: 8.33e-06
BRANCH_RETURN: 1.83e-05

LLC TOTAL        ACCESS:    1185360 HIT:     506812 MISS:     678548
LLC LOAD         ACCESS:       2889 HIT:        584 MISS:       2305
LLC RFO          ACCESS:     535120 HIT:         34 MISS:     535086
LLC PREFETCH     ACCESS:       2102 HIT:        594 MISS:       1508
LLC WRITE        ACCESS:     535170 HIT:     505112 MISS:      30058
LLC TRANSLATION  ACCESS:     110079 HIT:        488 MISS:     109591
LLC PREFETCH REQUESTED:       2102 ISSUED:       2102 USEFUL:        803 USELESS:         47
LLC AVERAGE MISS LATENCY: 1052 cycles
cpu0_DTLB TOTAL        ACCESS:  121563177 HIT:  121210495 MISS:     352682
cpu0_DTLB LOAD         ACCESS:  121563177 HIT:  121210495 MISS:     352682
cpu0_DTLB RFO          ACCESS:          0 HIT:          0 MISS:          0
cpu0_DTLB PREFETCH     ACCESS:          0 HIT:          0 MISS:          0
cpu0_DTLB WRITE        ACCESS:          0 HIT:          0 MISS:          0
cpu0_DTLB TRANSLATION  ACCESS:          0 HIT:          0 MISS:          0
cpu0_DTLB PREFETCH REQUESTED:          0 ISSUED:          0 USEFUL:          0 USELESS:          0
cpu0_DTLB AVERAGE MISS LATENCY: 752.2 cycles
cpu0_ITLB TOTAL        ACCESS:       2029 HIT:       1995 MISS:         34
cpu0_ITLB LOAD         ACCESS:       2029 HIT:       1995 MISS:         34
cpu0_ITLB RFO          ACCESS:          0 HIT:          0 MISS:          0
cpu0_ITLB PREFETCH     ACCESS:          0 HIT:          0 MISS:          0
cpu0_ITLB WRITE        ACCESS:          0 HIT:          0 MISS:          0
cpu0_ITLB TRANSLATION  ACCESS:          0 HIT:          0 MISS:          0
cpu0_ITLB PREFETCH REQUESTED:          0 ISSUED:          0 USEFUL:          0 USELESS:          0
cpu0_ITLB AVERAGE MISS LATENCY: 718.7 cycles
cpu0_L1D TOTAL        ACCESS:  162713432 HIT:  156511787 MISS:    6201645
cpu0_L1D LOAD         ACCESS:   90496731 HIT:   90490217 MISS:       6514
cpu0_L1D RFO          ACCESS:          0 HIT:          0 MISS:          0
cpu0_L1D PREFETCH     ACCESS:          0 HIT:          0 MISS:          0
cpu0_L1D WRITE        ACCESS:   72035812 HIT:   65983207 MISS:    6052605
cpu0_L1D TRANSLATION  ACCESS:     180889 HIT:      38363 MISS:     142526
cpu0_L1D PREFETCH REQUESTED:          0 ISSUED:          0 USEFUL:          0 USELESS:          0
cpu0_L1D AVERAGE MISS LATENCY: 88.87 cycles
cpu0_L1I TOTAL        ACCESS:       2351 HIT:       1024 MISS:       1327
cpu0_L1I LOAD         ACCESS:       2351 HIT:       1024 MISS:       1327
cpu0_L1I RFO          ACCESS:          0 HIT:          0 MISS:          0
cpu0_L1I PREFETCH     ACCESS:          0 HIT:          0 MISS:          0
cpu0_L1I WRITE        ACCESS:          0 HIT:          0 MISS:          0
cpu0_L1I TRANSLATION  ACCESS:          0 HIT:          0 MISS:          0
cpu0_L1I PREFETCH REQUESTED:          0 ISSUED:          0 USEFUL:          0 USELESS:          0
cpu0_L1I AVERAGE MISS LATENCY: 681.5 cycles
cpu0_L2C TOTAL        ACCESS:    1191093 HIT:     542987 MISS:     648106
cpu0_L2C LOAD         ACCESS:       3313 HIT:        424 MISS:       2889
cpu0_L2C RFO          ACCESS:     538103 HIT:       2983 MISS:     535120
cpu0_L2C PREFETCH     ACCESS:          0 HIT:          0 MISS:          0
cpu0_L2C WRITE        ACCESS:     538230 HIT:     538213 MISS:         17
cpu0_L2C TRANSLATION  ACCESS:     111447 HIT:       1367 MISS:     110080
cpu0_L2C PREFETCH REQUESTED:          0 ISSUED:          0 USEFUL:          0 USELESS:          0
cpu0_L2C AVERAGE MISS LATENCY: 1121 cycles
cpu0_STLB TOTAL        ACCESS:     156151 HIT:         46 MISS:     156105
cpu0_STLB LOAD         ACCESS:     156151 HIT:         46 MISS:     156105
cpu0_STLB RFO          ACCESS:          0 HIT:          0 MISS:          0
cpu0_STLB PREFETCH     ACCESS:          0 HIT:          0 MISS:          0
cpu0_STLB WRITE        ACCESS:          0 HIT:          0 MISS:          0
cpu0_STLB TRANSLATION  ACCESS:          0 HIT:          0 MISS:          0
cpu0_STLB PREFETCH REQUESTED:          0 ISSUED:          0 USEFUL:          0 USELESS:          0
cpu0_STLB AVERAGE MISS LATENCY: 1894 cycles

DRAM Statistics

Channel 0 RQ ROW_BUFFER_HIT:     140299
  ROW_BUFFER_MISS:     507311
 AVG DBUS CONGESTED CYCLE: 3.983
WQ ROW_BUFFER_HIT: Channel 0 
  ROW_BUFFER_MISS:      28673
  FULL:     506421
