WARNING: physical memory size is smaller than virtual memory size.

*** ChampSim Multicore Out-of-Order Simulator ***
Warmup Instructions: 50000000
Simulation Instructions: 600000000
Number of CPUs: 1
Page size: 4096

CPU 0 Tage branch predictor
Off-chip DRAM Size: 4 GiB Channels: 1 Width: 64-bit Data Race: 3200 MT/s
Heartbeat CPU 0 instructions: 10000000 cycles: 2500202 heartbeat IPC: 4 cumulative IPC: 4 (Simulation time: 00 hr 00 min 32 sec)
Heartbeat CPU 0 instructions: 20000000 cycles: 5000202 heartbeat IPC: 4 cumulative IPC: 4 (Simulation time: 00 hr 01 min 08 sec)
Heartbeat CPU 0 instructions: 30000000 cycles: 7500202 heartbeat IPC: 4 cumulative IPC: 4 (Simulation time: 00 hr 01 min 43 sec)
Heartbeat CPU 0 instructions: 40000000 cycles: 10000202 heartbeat IPC: 4 cumulative IPC: 4 (Simulation time: 00 hr 02 min 21 sec)
Heartbeat CPU 0 instructions: 50000000 cycles: 12500202 heartbeat IPC: 4 cumulative IPC: 4 (Simulation time: 00 hr 03 min 04 sec)
Warmup finished CPU 0 instructions: 50000000 cycles: 12500203 cumulative IPC: 4 (Simulation time: 00 hr 03 min 04 sec)
Warmup complete CPU 0 instructions: 50000000 cycles: 12500203 cumulative IPC: 4 (Simulation time: 00 hr 03 min 04 sec)
Heartbeat CPU 0 instructions: 60000002 cycles: 15574765 heartbeat IPC: 3.252 cumulative IPC: 3.252 (Simulation time: 00 hr 03 min 51 sec)
Heartbeat CPU 0 instructions: 70000002 cycles: 18076547 heartbeat IPC: 3.997 cumulative IPC: 3.587 (Simulation time: 00 hr 04 min 38 sec)
Heartbeat CPU 0 instructions: 80000003 cycles: 20576569 heartbeat IPC: 4 cumulative IPC: 3.715 (Simulation time: 00 hr 05 min 23 sec)
Heartbeat CPU 0 instructions: 90000004 cycles: 23076590 heartbeat IPC: 4 cumulative IPC: 3.782 (Simulation time: 00 hr 06 min 08 sec)
Heartbeat CPU 0 instructions: 100000003 cycles: 25578507 heartbeat IPC: 3.997 cumulative IPC: 3.823 (Simulation time: 00 hr 06 min 50 sec)
Heartbeat CPU 0 instructions: 110000000 cycles: 28080061 heartbeat IPC: 3.998 cumulative IPC: 3.851 (Simulation time: 00 hr 07 min 32 sec)
Heartbeat CPU 0 instructions: 120000000 cycles: 30580085 heartbeat IPC: 4 cumulative IPC: 3.872 (Simulation time: 00 hr 08 min 16 sec)
Heartbeat CPU 0 instructions: 130000000 cycles: 33080108 heartbeat IPC: 4 cumulative IPC: 3.887 (Simulation time: 00 hr 08 min 59 sec)
Heartbeat CPU 0 instructions: 140000001 cycles: 35580145 heartbeat IPC: 4 cumulative IPC: 3.899 (Simulation time: 00 hr 09 min 40 sec)
Heartbeat CPU 0 instructions: 150000003 cycles: 38080167 heartbeat IPC: 4 cumulative IPC: 3.909 (Simulation time: 00 hr 10 min 21 sec)
Heartbeat CPU 0 instructions: 160000004 cycles: 40582678 heartbeat IPC: 3.996 cumulative IPC: 3.917 (Simulation time: 00 hr 11 min 02 sec)
Heartbeat CPU 0 instructions: 170000001 cycles: 43083200 heartbeat IPC: 3.999 cumulative IPC: 3.924 (Simulation time: 00 hr 11 min 45 sec)
Heartbeat CPU 0 instructions: 180000001 cycles: 45583221 heartbeat IPC: 4 cumulative IPC: 3.93 (Simulation time: 00 hr 12 min 27 sec)
Heartbeat CPU 0 instructions: 190000002 cycles: 48084835 heartbeat IPC: 3.997 cumulative IPC: 3.934 (Simulation time: 00 hr 13 min 09 sec)
Heartbeat CPU 0 instructions: 200000001 cycles: 50584856 heartbeat IPC: 4 cumulative IPC: 3.939 (Simulation time: 00 hr 13 min 50 sec)
Heartbeat CPU 0 instructions: 210000000 cycles: 53088859 heartbeat IPC: 3.994 cumulative IPC: 3.942 (Simulation time: 00 hr 14 min 32 sec)
Heartbeat CPU 0 instructions: 220000001 cycles: 55588902 heartbeat IPC: 4 cumulative IPC: 3.945 (Simulation time: 00 hr 15 min 14 sec)
Heartbeat CPU 0 instructions: 230000002 cycles: 58088923 heartbeat IPC: 4 cumulative IPC: 3.948 (Simulation time: 00 hr 15 min 55 sec)
Heartbeat CPU 0 instructions: 240000004 cycles: 60588961 heartbeat IPC: 4 cumulative IPC: 3.951 (Simulation time: 00 hr 16 min 36 sec)
Heartbeat CPU 0 instructions: 250000000 cycles: 63091779 heartbeat IPC: 3.995 cumulative IPC: 3.953 (Simulation time: 00 hr 17 min 18 sec)
Heartbeat CPU 0 instructions: 260000000 cycles: 65592252 heartbeat IPC: 3.999 cumulative IPC: 3.955 (Simulation time: 00 hr 18 min 01 sec)
Heartbeat CPU 0 instructions: 270000002 cycles: 68092273 heartbeat IPC: 4 cumulative IPC: 3.957 (Simulation time: 00 hr 18 min 43 sec)
Heartbeat CPU 0 instructions: 280000003 cycles: 70592312 heartbeat IPC: 4 cumulative IPC: 3.959 (Simulation time: 00 hr 19 min 26 sec)
Heartbeat CPU 0 instructions: 290000000 cycles: 73092332 heartbeat IPC: 4 cumulative IPC: 3.961 (Simulation time: 00 hr 20 min 07 sec)
Heartbeat CPU 0 instructions: 300000000 cycles: 75594979 heartbeat IPC: 3.996 cumulative IPC: 3.962 (Simulation time: 00 hr 20 min 49 sec)
Heartbeat CPU 0 instructions: 310000002 cycles: 78095016 heartbeat IPC: 4 cumulative IPC: 3.964 (Simulation time: 00 hr 21 min 31 sec)
Heartbeat CPU 0 instructions: 320000004 cycles: 80595038 heartbeat IPC: 4 cumulative IPC: 3.965 (Simulation time: 00 hr 22 min 14 sec)
Heartbeat CPU 0 instructions: 330000000 cycles: 83095059 heartbeat IPC: 4 cumulative IPC: 3.966 (Simulation time: 00 hr 22 min 57 sec)
Heartbeat CPU 0 instructions: 340000002 cycles: 85595524 heartbeat IPC: 3.999 cumulative IPC: 3.967 (Simulation time: 00 hr 23 min 39 sec)
Heartbeat CPU 0 instructions: 350000002 cycles: 88095546 heartbeat IPC: 4 cumulative IPC: 3.968 (Simulation time: 00 hr 24 min 22 sec)
Heartbeat CPU 0 instructions: 360000000 cycles: 90598359 heartbeat IPC: 3.996 cumulative IPC: 3.969 (Simulation time: 00 hr 25 min 04 sec)
Heartbeat CPU 0 instructions: 370000004 cycles: 93098403 heartbeat IPC: 4 cumulative IPC: 3.97 (Simulation time: 00 hr 25 min 45 sec)
Heartbeat CPU 0 instructions: 380000000 cycles: 95598423 heartbeat IPC: 4 cumulative IPC: 3.971 (Simulation time: 00 hr 26 min 26 sec)
Heartbeat CPU 0 instructions: 390000000 cycles: 98098445 heartbeat IPC: 4 cumulative IPC: 3.972 (Simulation time: 00 hr 27 min 12 sec)
Heartbeat CPU 0 instructions: 400000000 cycles: 100600957 heartbeat IPC: 3.996 cumulative IPC: 3.973 (Simulation time: 00 hr 27 min 54 sec)
Heartbeat CPU 0 instructions: 410000000 cycles: 103101429 heartbeat IPC: 3.999 cumulative IPC: 3.973 (Simulation time: 00 hr 28 min 35 sec)
Heartbeat CPU 0 instructions: 420000001 cycles: 105601451 heartbeat IPC: 4 cumulative IPC: 3.974 (Simulation time: 00 hr 29 min 17 sec)
Heartbeat CPU 0 instructions: 430000003 cycles: 108101472 heartbeat IPC: 4 cumulative IPC: 3.975 (Simulation time: 00 hr 29 min 58 sec)
Heartbeat CPU 0 instructions: 440000003 cycles: 110601494 heartbeat IPC: 4 cumulative IPC: 3.975 (Simulation time: 00 hr 30 min 39 sec)
Heartbeat CPU 0 instructions: 450000000 cycles: 113104086 heartbeat IPC: 3.996 cumulative IPC: 3.976 (Simulation time: 00 hr 31 min 20 sec)
Heartbeat CPU 0 instructions: 460000002 cycles: 115604107 heartbeat IPC: 4 cumulative IPC: 3.977 (Simulation time: 00 hr 32 min 01 sec)
Heartbeat CPU 0 instructions: 470000002 cycles: 118104128 heartbeat IPC: 4 cumulative IPC: 3.977 (Simulation time: 00 hr 32 min 42 sec)
Heartbeat CPU 0 instructions: 480000002 cycles: 120604150 heartbeat IPC: 4 cumulative IPC: 3.978 (Simulation time: 00 hr 33 min 24 sec)
Heartbeat CPU 0 instructions: 490000000 cycles: 123104619 heartbeat IPC: 3.999 cumulative IPC: 3.978 (Simulation time: 00 hr 34 min 05 sec)
Heartbeat CPU 0 instructions: 500000002 cycles: 125606672 heartbeat IPC: 3.997 cumulative IPC: 3.979 (Simulation time: 00 hr 34 min 46 sec)
Heartbeat CPU 0 instructions: 510000003 cycles: 128106694 heartbeat IPC: 4 cumulative IPC: 3.979 (Simulation time: 00 hr 35 min 28 sec)
Heartbeat CPU 0 instructions: 520000004 cycles: 130606715 heartbeat IPC: 4 cumulative IPC: 3.979 (Simulation time: 00 hr 36 min 09 sec)
Heartbeat CPU 0 instructions: 530000000 cycles: 133106758 heartbeat IPC: 4 cumulative IPC: 3.98 (Simulation time: 00 hr 36 min 55 sec)
Heartbeat CPU 0 instructions: 540000001 cycles: 135609150 heartbeat IPC: 3.996 cumulative IPC: 3.98 (Simulation time: 00 hr 37 min 43 sec)
Heartbeat CPU 0 instructions: 550000002 cycles: 138109170 heartbeat IPC: 4 cumulative IPC: 3.981 (Simulation time: 00 hr 38 min 26 sec)
Heartbeat CPU 0 instructions: 560000003 cycles: 140610396 heartbeat IPC: 3.998 cumulative IPC: 3.981 (Simulation time: 00 hr 39 min 12 sec)
Heartbeat CPU 0 instructions: 570000004 cycles: 143110418 heartbeat IPC: 4 cumulative IPC: 3.981 (Simulation time: 00 hr 39 min 57 sec)
Heartbeat CPU 0 instructions: 580000000 cycles: 145610440 heartbeat IPC: 4 cumulative IPC: 3.982 (Simulation time: 00 hr 40 min 43 sec)
Heartbeat CPU 0 instructions: 590000002 cycles: 148110477 heartbeat IPC: 4 cumulative IPC: 3.982 (Simulation time: 00 hr 41 min 24 sec)
*** Reached end of trace: (0, "traces/convolution.champsimtrace")
Heartbeat CPU 0 instructions: 600000000 cycles: 150619698 heartbeat IPC: 3.985 cumulative IPC: 3.982 (Simulation time: 00 hr 42 min 09 sec)
Heartbeat CPU 0 instructions: 610000002 cycles: 174207660 heartbeat IPC: 0.4239 cumulative IPC: 3.463 (Simulation time: 00 hr 45 min 30 sec)
Heartbeat CPU 0 instructions: 620000001 cycles: 195202312 heartbeat IPC: 0.4763 cumulative IPC: 3.12 (Simulation time: 00 hr 48 min 45 sec)
Heartbeat CPU 0 instructions: 630000001 cycles: 206353124 heartbeat IPC: 0.8968 cumulative IPC: 2.992 (Simulation time: 00 hr 50 min 41 sec)
Heartbeat CPU 0 instructions: 640000004 cycles: 216845024 heartbeat IPC: 0.9531 cumulative IPC: 2.887 (Simulation time: 00 hr 52 min 29 sec)
Heartbeat CPU 0 instructions: 650000001 cycles: 227284089 heartbeat IPC: 0.9579 cumulative IPC: 2.794 (Simulation time: 00 hr 54 min 15 sec)
Simulation finished CPU 0 instructions: 600000001 cycles: 214783887 cumulative IPC: 2.794 (Simulation time: 00 hr 54 min 15 sec)
Simulation complete CPU 0 instructions: 600000001 cycles: 214783887 cumulative IPC: 2.794 (Simulation time: 00 hr 54 min 15 sec)

ChampSim completed all CPUs

=== Simulation ===
CPU 0 runs traces/convolution.champsimtrace
Region of Interest Statistics

CPU 0 cumulative IPC: 2.794 instructions: 600000001 cycles: 214783887
CPU 0 Branch Prediction Accuracy: 100% MPKI: 0.002858 Average ROB Occupancy at Mispredict: 79.33
Branch type MPKI
BRANCH_DIRECT_JUMP: 0.000107
BRANCH_INDIRECT: 4.17e-05
BRANCH_CONDITIONAL: 0.00258
BRANCH_DIRECT_CALL: 0.000103
BRANCH_INDIRECT_CALL: 8.33e-06
BRANCH_RETURN: 1.83e-05

LLC TOTAL        ACCESS:    1185285 HIT:     536859 MISS:     648426
LLC LOAD         ACCESS:       2886 HIT:        576 MISS:       2310
LLC RFO          ACCESS:     535121 HIT:         27 MISS:     535094
LLC PREFETCH     ACCESS:       2126 HIT:        552 MISS:       1574
LLC WRITE        ACCESS:     535169 HIT:     535147 MISS:         22
LLC TRANSLATION  ACCESS:     109983 HIT:        557 MISS:     109426
LLC PREFETCH REQUESTED:       2126 ISSUED:       2126 USEFUL:        805 USELESS:         42
LLC AVERAGE MISS LATENCY: 989.6 cycles
cpu0_DTLB TOTAL        ACCESS:  113111726 HIT:  112758245 MISS:     353481
cpu0_DTLB LOAD         ACCESS:  113111726 HIT:  112758245 MISS:     353481
cpu0_DTLB RFO          ACCESS:          0 HIT:          0 MISS:          0
cpu0_DTLB PREFETCH     ACCESS:          0 HIT:          0 MISS:          0
cpu0_DTLB WRITE        ACCESS:          0 HIT:          0 MISS:          0
cpu0_DTLB TRANSLATION  ACCESS:          0 HIT:          0 MISS:          0
cpu0_DTLB PREFETCH REQUESTED:          0 ISSUED:          0 USEFUL:          0 USELESS:          0
cpu0_DTLB AVERAGE MISS LATENCY: 639.5 cycles
cpu0_ITLB TOTAL        ACCESS:       2128 HIT:       2094 MISS:         34
cpu0_ITLB LOAD         ACCESS:       2128 HIT:       2094 MISS:         34
cpu0_ITLB RFO          ACCESS:          0 HIT:          0 MISS:          0
cpu0_ITLB PREFETCH     ACCESS:          0 HIT:          0 MISS:          0
cpu0_ITLB WRITE        ACCESS:          0 HIT:          0 MISS:          0
cpu0_ITLB TRANSLATION  ACCESS:          0 HIT:          0 MISS:          0
cpu0_ITLB PREFETCH REQUESTED:          0 ISSUED:          0 USEFUL:          0 USELESS:          0
cpu0_ITLB AVERAGE MISS LATENCY: 729 cycles
cpu0_L1D TOTAL        ACCESS:  146348293 HIT:  140156561 MISS:    6191732
cpu0_L1D LOAD         ACCESS:   74195579 HIT:   74187590 MISS:       7989
cpu0_L1D RFO          ACCESS:          0 HIT:          0 MISS:          0
cpu0_L1D PREFETCH     ACCESS:          0 HIT:          0 MISS:          0
cpu0_L1D WRITE        ACCESS:   71971891 HIT:   65930677 MISS:    6041214
cpu0_L1D TRANSLATION  ACCESS:     180823 HIT:      38294 MISS:     142529
cpu0_L1D PREFETCH REQUESTED:          0 ISSUED:          0 USEFUL:          0 USELESS:          0
cpu0_L1D AVERAGE MISS LATENCY: 80.27 cycles
cpu0_L1I TOTAL        ACCESS:       2490 HIT:       1010 MISS:       1480
cpu0_L1I LOAD         ACCESS:       2490 HIT:       1010 MISS:       1480
cpu0_L1I RFO          ACCESS:          0 HIT:          0 MISS:          0
cpu0_L1I PREFETCH     ACCESS:          0 HIT:          0 MISS:          0
cpu0_L1I WRITE        ACCESS:          0 HIT:          0 MISS:          0
cpu0_L1I TRANSLATION  ACCESS:          0 HIT:          0 MISS:          0
cpu0_L1I PREFETCH REQUESTED:          0 ISSUED:          0 USEFUL:          0 USELESS:          0
cpu0_L1I AVERAGE MISS LATENCY: 620 cycles
cpu0_L2C TOTAL        ACCESS:    1193477 HIT:     545470 MISS:     648007
cpu0_L2C LOAD         ACCESS:       3311 HIT:        425 MISS:       2886
cpu0_L2C RFO          ACCESS:     539186 HIT:       4065 MISS:     535121
cpu0_L2C PREFETCH     ACCESS:          0 HIT:          0 MISS:          0
cpu0_L2C WRITE        ACCESS:     539649 HIT:     539633 MISS:         16
cpu0_L2C TRANSLATION  ACCESS:     111331 HIT:       1347 MISS:     109984
cpu0_L2C PREFETCH REQUESTED:          0 ISSUED:          0 USEFUL:          0 USELESS:          0
cpu0_L2C AVERAGE MISS LATENCY: 1010 cycles
cpu0_STLB TOTAL        ACCESS:     156149 HIT:         43 MISS:     156106
cpu0_STLB LOAD         ACCESS:     156149 HIT:         43 MISS:     156106
cpu0_STLB RFO          ACCESS:          0 HIT:          0 MISS:          0
cpu0_STLB PREFETCH     ACCESS:          0 HIT:          0 MISS:          0
cpu0_STLB WRITE        ACCESS:          0 HIT:          0 MISS:          0
cpu0_STLB TRANSLATION  ACCESS:          0 HIT:          0 MISS:          0
cpu0_STLB PREFETCH REQUESTED:          0 ISSUED:          0 USEFUL:          0 USELESS:          0
cpu0_STLB AVERAGE MISS LATENCY: 1648 cycles

DRAM Statistics

Channel 0 RQ ROW_BUFFER_HIT:     141119
  ROW_BUFFER_MISS:     506329
 AVG DBUS CONGESTED CYCLE: 3.981
WQ ROW_BUFFER_HIT: Channel 0 
  ROW_BUFFER_MISS:     105827
  FULL:     429284
