WARNING: physical memory size is smaller than virtual memory size.

*** ChampSim Multicore Out-of-Order Simulator ***
Warmup Instructions: 50000000
Simulation Instructions: 600000000
Number of CPUs: 1
Page size: 4096

Off-chip DRAM Size: 4 GiB Channels: 1 Width: 64-bit Data Race: 3200 MT/s
Heartbeat CPU 0 instructions: 10000000 cycles: 2500202 heartbeat IPC: 4 cumulative IPC: 4 (Simulation time: 00 hr 00 min 35 sec)
Heartbeat CPU 0 instructions: 20000000 cycles: 5000202 heartbeat IPC: 4 cumulative IPC: 4 (Simulation time: 00 hr 01 min 08 sec)
Heartbeat CPU 0 instructions: 30000000 cycles: 7500202 heartbeat IPC: 4 cumulative IPC: 4 (Simulation time: 00 hr 01 min 44 sec)
Heartbeat CPU 0 instructions: 40000000 cycles: 10000202 heartbeat IPC: 4 cumulative IPC: 4 (Simulation time: 00 hr 02 min 22 sec)
Heartbeat CPU 0 instructions: 50000000 cycles: 12500202 heartbeat IPC: 4 cumulative IPC: 4 (Simulation time: 00 hr 02 min 57 sec)
Warmup finished CPU 0 instructions: 50000000 cycles: 12500203 cumulative IPC: 4 (Simulation time: 00 hr 02 min 57 sec)
Warmup complete CPU 0 instructions: 50000000 cycles: 12500203 cumulative IPC: 4 (Simulation time: 00 hr 02 min 57 sec)
Heartbeat CPU 0 instructions: 60000002 cycles: 15768237 heartbeat IPC: 3.06 cumulative IPC: 3.06 (Simulation time: 00 hr 03 min 43 sec)
Heartbeat CPU 0 instructions: 70000002 cycles: 18479941 heartbeat IPC: 3.688 cumulative IPC: 3.345 (Simulation time: 00 hr 04 min 26 sec)
Heartbeat CPU 0 instructions: 80000003 cycles: 21185306 heartbeat IPC: 3.696 cumulative IPC: 3.454 (Simulation time: 00 hr 05 min 03 sec)
Heartbeat CPU 0 instructions: 90000004 cycles: 23894707 heartbeat IPC: 3.691 cumulative IPC: 3.51 (Simulation time: 00 hr 05 min 44 sec)
Heartbeat CPU 0 instructions: 100000003 cycles: 26603371 heartbeat IPC: 3.692 cumulative IPC: 3.545 (Simulation time: 00 hr 06 min 23 sec)
Heartbeat CPU 0 instructions: 110000000 cycles: 29310484 heartbeat IPC: 3.694 cumulative IPC: 3.569 (Simulation time: 00 hr 07 min 02 sec)
Heartbeat CPU 0 instructions: 120000000 cycles: 32017087 heartbeat IPC: 3.695 cumulative IPC: 3.587 (Simulation time: 00 hr 07 min 44 sec)
Heartbeat CPU 0 instructions: 130000000 cycles: 34724729 heartbeat IPC: 3.693 cumulative IPC: 3.6 (Simulation time: 00 hr 08 min 27 sec)
Heartbeat CPU 0 instructions: 140000001 cycles: 37434907 heartbeat IPC: 3.69 cumulative IPC: 3.609 (Simulation time: 00 hr 09 min 13 sec)
Heartbeat CPU 0 instructions: 150000003 cycles: 40140725 heartbeat IPC: 3.696 cumulative IPC: 3.618 (Simulation time: 00 hr 09 min 54 sec)
Heartbeat CPU 0 instructions: 160000003 cycles: 42846233 heartbeat IPC: 3.696 cumulative IPC: 3.625 (Simulation time: 00 hr 10 min 37 sec)
Heartbeat CPU 0 instructions: 170000001 cycles: 45551030 heartbeat IPC: 3.697 cumulative IPC: 3.631 (Simulation time: 00 hr 11 min 19 sec)
Heartbeat CPU 0 instructions: 180000001 cycles: 48256538 heartbeat IPC: 3.696 cumulative IPC: 3.636 (Simulation time: 00 hr 12 min 00 sec)
Heartbeat CPU 0 instructions: 190000002 cycles: 50963140 heartbeat IPC: 3.695 cumulative IPC: 3.64 (Simulation time: 00 hr 12 min 41 sec)
Heartbeat CPU 0 instructions: 200000001 cycles: 53669413 heartbeat IPC: 3.695 cumulative IPC: 3.643 (Simulation time: 00 hr 13 min 20 sec)
Heartbeat CPU 0 instructions: 210000000 cycles: 56381097 heartbeat IPC: 3.688 cumulative IPC: 3.646 (Simulation time: 00 hr 14 min 00 sec)
Heartbeat CPU 0 instructions: 220000001 cycles: 59089324 heartbeat IPC: 3.692 cumulative IPC: 3.649 (Simulation time: 00 hr 14 min 39 sec)
Heartbeat CPU 0 instructions: 230000002 cycles: 61797930 heartbeat IPC: 3.692 cumulative IPC: 3.651 (Simulation time: 00 hr 15 min 17 sec)
Heartbeat CPU 0 instructions: 240000004 cycles: 64505209 heartbeat IPC: 3.694 cumulative IPC: 3.653 (Simulation time: 00 hr 15 min 53 sec)
Heartbeat CPU 0 instructions: 250000000 cycles: 67214539 heartbeat IPC: 3.691 cumulative IPC: 3.655 (Simulation time: 00 hr 16 min 33 sec)
Heartbeat CPU 0 instructions: 260000000 cycles: 69921776 heartbeat IPC: 3.694 cumulative IPC: 3.657 (Simulation time: 00 hr 17 min 13 sec)
Heartbeat CPU 0 instructions: 270000002 cycles: 72626587 heartbeat IPC: 3.697 cumulative IPC: 3.659 (Simulation time: 00 hr 17 min 51 sec)
Heartbeat CPU 0 instructions: 280000003 cycles: 75334473 heartbeat IPC: 3.693 cumulative IPC: 3.66 (Simulation time: 00 hr 18 min 30 sec)
Heartbeat CPU 0 instructions: 290000003 cycles: 78040060 heartbeat IPC: 3.696 cumulative IPC: 3.662 (Simulation time: 00 hr 19 min 07 sec)
Heartbeat CPU 0 instructions: 300000000 cycles: 80749305 heartbeat IPC: 3.691 cumulative IPC: 3.663 (Simulation time: 00 hr 19 min 45 sec)
Heartbeat CPU 0 instructions: 310000002 cycles: 83454351 heartbeat IPC: 3.697 cumulative IPC: 3.664 (Simulation time: 00 hr 20 min 25 sec)
Heartbeat CPU 0 instructions: 320000004 cycles: 86162547 heartbeat IPC: 3.692 cumulative IPC: 3.665 (Simulation time: 00 hr 21 min 05 sec)
Heartbeat CPU 0 instructions: 330000000 cycles: 88873118 heartbeat IPC: 3.689 cumulative IPC: 3.666 (Simulation time: 00 hr 21 min 44 sec)
Heartbeat CPU 0 instructions: 340000002 cycles: 91581043 heartbeat IPC: 3.693 cumulative IPC: 3.667 (Simulation time: 00 hr 22 min 23 sec)
Heartbeat CPU 0 instructions: 350000002 cycles: 94289209 heartbeat IPC: 3.693 cumulative IPC: 3.668 (Simulation time: 00 hr 23 min 00 sec)
Heartbeat CPU 0 instructions: 360000001 cycles: 96994699 heartbeat IPC: 3.696 cumulative IPC: 3.669 (Simulation time: 00 hr 23 min 37 sec)
Heartbeat CPU 0 instructions: 370000004 cycles: 99701392 heartbeat IPC: 3.695 cumulative IPC: 3.67 (Simulation time: 00 hr 24 min 14 sec)
Heartbeat CPU 0 instructions: 380000000 cycles: 102411129 heartbeat IPC: 3.69 cumulative IPC: 3.67 (Simulation time: 00 hr 24 min 50 sec)
Heartbeat CPU 0 instructions: 390000004 cycles: 105116837 heartbeat IPC: 3.696 cumulative IPC: 3.671 (Simulation time: 00 hr 25 min 26 sec)
Heartbeat CPU 0 instructions: 400000000 cycles: 107821637 heartbeat IPC: 3.697 cumulative IPC: 3.672 (Simulation time: 00 hr 26 min 03 sec)
Heartbeat CPU 0 instructions: 410000000 cycles: 110528074 heartbeat IPC: 3.695 cumulative IPC: 3.672 (Simulation time: 00 hr 26 min 39 sec)
Heartbeat CPU 0 instructions: 420000001 cycles: 113233583 heartbeat IPC: 3.696 cumulative IPC: 3.673 (Simulation time: 00 hr 27 min 16 sec)
Heartbeat CPU 0 instructions: 430000003 cycles: 115942351 heartbeat IPC: 3.692 cumulative IPC: 3.674 (Simulation time: 00 hr 27 min 56 sec)
Heartbeat CPU 0 instructions: 440000003 cycles: 118650028 heartbeat IPC: 3.693 cumulative IPC: 3.674 (Simulation time: 00 hr 28 min 34 sec)
Heartbeat CPU 0 instructions: 450000004 cycles: 121357987 heartbeat IPC: 3.693 cumulative IPC: 3.675 (Simulation time: 00 hr 29 min 12 sec)
Heartbeat CPU 0 instructions: 460000001 cycles: 124070407 heartbeat IPC: 3.687 cumulative IPC: 3.675 (Simulation time: 00 hr 29 min 49 sec)
Heartbeat CPU 0 instructions: 470000002 cycles: 126777249 heartbeat IPC: 3.694 cumulative IPC: 3.675 (Simulation time: 00 hr 30 min 26 sec)
Heartbeat CPU 0 instructions: 480000001 cycles: 129483920 heartbeat IPC: 3.695 cumulative IPC: 3.676 (Simulation time: 00 hr 31 min 02 sec)
Heartbeat CPU 0 instructions: 490000000 cycles: 132194628 heartbeat IPC: 3.689 cumulative IPC: 3.676 (Simulation time: 00 hr 31 min 39 sec)
Heartbeat CPU 0 instructions: 500000002 cycles: 134902170 heartbeat IPC: 3.693 cumulative IPC: 3.676 (Simulation time: 00 hr 32 min 14 sec)
Heartbeat CPU 0 instructions: 510000003 cycles: 137609375 heartbeat IPC: 3.694 cumulative IPC: 3.677 (Simulation time: 00 hr 32 min 50 sec)
Heartbeat CPU 0 instructions: 520000004 cycles: 140319639 heartbeat IPC: 3.69 cumulative IPC: 3.677 (Simulation time: 00 hr 33 min 27 sec)
Heartbeat CPU 0 instructions: 530000000 cycles: 143025088 heartbeat IPC: 3.696 cumulative IPC: 3.677 (Simulation time: 00 hr 34 min 04 sec)
Heartbeat CPU 0 instructions: 540000000 cycles: 145734318 heartbeat IPC: 3.691 cumulative IPC: 3.678 (Simulation time: 00 hr 34 min 40 sec)
Heartbeat CPU 0 instructions: 550000003 cycles: 148440499 heartbeat IPC: 3.695 cumulative IPC: 3.678 (Simulation time: 00 hr 35 min 16 sec)
Heartbeat CPU 0 instructions: 560000003 cycles: 151150326 heartbeat IPC: 3.69 cumulative IPC: 3.678 (Simulation time: 00 hr 35 min 52 sec)
Heartbeat CPU 0 instructions: 570000004 cycles: 153858564 heartbeat IPC: 3.692 cumulative IPC: 3.679 (Simulation time: 00 hr 36 min 28 sec)
Heartbeat CPU 0 instructions: 580000000 cycles: 156567844 heartbeat IPC: 3.691 cumulative IPC: 3.679 (Simulation time: 00 hr 37 min 07 sec)
Heartbeat CPU 0 instructions: 590000002 cycles: 159276823 heartbeat IPC: 3.691 cumulative IPC: 3.679 (Simulation time: 00 hr 37 min 46 sec)
*** Reached end of trace: (0, "traces/convolution.champsimtrace")
Heartbeat CPU 0 instructions: 600000000 cycles: 161988565 heartbeat IPC: 3.688 cumulative IPC: 3.679 (Simulation time: 00 hr 38 min 22 sec)
Heartbeat CPU 0 instructions: 610000002 cycles: 184172778 heartbeat IPC: 0.4508 cumulative IPC: 3.262 (Simulation time: 00 hr 41 min 15 sec)
Heartbeat CPU 0 instructions: 620000001 cycles: 203230485 heartbeat IPC: 0.5247 cumulative IPC: 2.989 (Simulation time: 00 hr 43 min 54 sec)
Heartbeat CPU 0 instructions: 630000001 cycles: 211752911 heartbeat IPC: 1.173 cumulative IPC: 2.911 (Simulation time: 00 hr 45 min 18 sec)
Heartbeat CPU 0 instructions: 640000004 cycles: 222529683 heartbeat IPC: 0.9279 cumulative IPC: 2.809 (Simulation time: 00 hr 46 min 56 sec)
Heartbeat CPU 0 instructions: 650000001 cycles: 233278771 heartbeat IPC: 0.9303 cumulative IPC: 2.718 (Simulation time: 00 hr 48 min 35 sec)
Simulation finished CPU 0 instructions: 600000001 cycles: 220778569 cumulative IPC: 2.718 (Simulation time: 00 hr 48 min 35 sec)
Simulation complete CPU 0 instructions: 600000001 cycles: 220778569 cumulative IPC: 2.718 (Simulation time: 00 hr 48 min 35 sec)

ChampSim completed all CPUs

=== Simulation ===
CPU 0 runs traces/convolution.champsimtrace
Region of Interest Statistics

CPU 0 cumulative IPC: 2.718 instructions: 600000001 cycles: 220778569
CPU 0 Branch Prediction Accuracy: 99.3% MPKI: 1.265 Average ROB Occupancy at Mispredict: 64.14
Branch type MPKI
BRANCH_DIRECT_JUMP: 0.000107
BRANCH_INDIRECT: 4.17e-05
BRANCH_CONDITIONAL: 1.26
BRANCH_DIRECT_CALL: 0.000103
BRANCH_INDIRECT_CALL: 8.33e-06
BRANCH_RETURN: 1.83e-05

LLC TOTAL        ACCESS:    1184830 HIT:      52103 MISS:    1132727
LLC LOAD         ACCESS:       2889 HIT:       1559 MISS:       1330
LLC RFO          ACCESS:     535119 HIT:      16463 MISS:     518656
LLC PREFETCH     ACCESS:       2074 HIT:       1362 MISS:        712
LLC WRITE        ACCESS:     535171 HIT:      19407 MISS:     515764
LLC TRANSLATION  ACCESS:     109577 HIT:      13312 MISS:      96265
LLC PREFETCH REQUESTED:       2074 ISSUED:       2074 USEFUL:        340 USELESS:         42
LLC AVERAGE MISS LATENCY: 551.5 cycles
cpu0_DTLB TOTAL        ACCESS:  121727323 HIT:  121390831 MISS:     336492
cpu0_DTLB LOAD         ACCESS:  121727323 HIT:  121390831 MISS:     336492
cpu0_DTLB RFO          ACCESS:          0 HIT:          0 MISS:          0
cpu0_DTLB PREFETCH     ACCESS:          0 HIT:          0 MISS:          0
cpu0_DTLB WRITE        ACCESS:          0 HIT:          0 MISS:          0
cpu0_DTLB TRANSLATION  ACCESS:          0 HIT:          0 MISS:          0
cpu0_DTLB PREFETCH REQUESTED:          0 ISSUED:          0 USEFUL:          0 USELESS:          0
cpu0_DTLB AVERAGE MISS LATENCY: 637.2 cycles
cpu0_ITLB TOTAL        ACCESS:       2019 HIT:       1986 MISS:         33
cpu0_ITLB LOAD         ACCESS:       2019 HIT:       1986 MISS:         33
cpu0_ITLB RFO          ACCESS:          0 HIT:          0 MISS:          0
cpu0_ITLB PREFETCH     ACCESS:          0 HIT:          0 MISS:          0
cpu0_ITLB WRITE        ACCESS:          0 HIT:          0 MISS:          0
cpu0_ITLB TRANSLATION  ACCESS:          0 HIT:          0 MISS:          0
cpu0_ITLB PREFETCH REQUESTED:          0 ISSUED:          0 USEFUL:          0 USELESS:          0
cpu0_ITLB AVERAGE MISS LATENCY: 481 cycles
cpu0_L1D TOTAL        ACCESS:  162820488 HIT:  156682462 MISS:    6138026
cpu0_L1D LOAD         ACCESS:   90580848 HIT:   90574254 MISS:       6594
cpu0_L1D RFO          ACCESS:          0 HIT:          0 MISS:          0
cpu0_L1D PREFETCH     ACCESS:          0 HIT:          0 MISS:          0
cpu0_L1D WRITE        ACCESS:   72059101 HIT:   66072107 MISS:    5986994
cpu0_L1D TRANSLATION  ACCESS:     180539 HIT:      36101 MISS:     144438
cpu0_L1D PREFETCH REQUESTED:          0 ISSUED:          0 USEFUL:          0 USELESS:          0
cpu0_L1D AVERAGE MISS LATENCY: 79.83 cycles
cpu0_L1I TOTAL        ACCESS:       2333 HIT:       1041 MISS:       1292
cpu0_L1I LOAD         ACCESS:       2333 HIT:       1041 MISS:       1292
cpu0_L1I RFO          ACCESS:          0 HIT:          0 MISS:          0
cpu0_L1I PREFETCH     ACCESS:          0 HIT:          0 MISS:          0
cpu0_L1I WRITE        ACCESS:          0 HIT:          0 MISS:          0
cpu0_L1I TRANSLATION  ACCESS:          0 HIT:          0 MISS:          0
cpu0_L1I PREFETCH REQUESTED:          0 ISSUED:          0 USEFUL:          0 USELESS:          0
cpu0_L1I AVERAGE MISS LATENCY: 398.5 cycles
cpu0_L2C TOTAL        ACCESS:    1190493 HIT:     542889 MISS:     647604
cpu0_L2C LOAD         ACCESS:       3313 HIT:        424 MISS:       2889
cpu0_L2C RFO          ACCESS:     538057 HIT:       2938 MISS:     535119
cpu0_L2C PREFETCH     ACCESS:          0 HIT:          0 MISS:          0
cpu0_L2C WRITE        ACCESS:     538217 HIT:     538199 MISS:         18
cpu0_L2C TRANSLATION  ACCESS:     110906 HIT:       1328 MISS:     109578
cpu0_L2C PREFETCH REQUESTED:          0 ISSUED:          0 USEFUL:          0 USELESS:          0
cpu0_L2C AVERAGE MISS LATENCY: 985.1 cycles
cpu0_STLB TOTAL        ACCESS:     156143 HIT:         38 MISS:     156105
cpu0_STLB LOAD         ACCESS:     156143 HIT:         38 MISS:     156105
cpu0_STLB RFO          ACCESS:          0 HIT:          0 MISS:          0
cpu0_STLB PREFETCH     ACCESS:          0 HIT:          0 MISS:          0
cpu0_STLB WRITE        ACCESS:          0 HIT:          0 MISS:          0
cpu0_STLB TRANSLATION  ACCESS:          0 HIT:          0 MISS:          0
cpu0_STLB PREFETCH REQUESTED:          0 ISSUED:          0 USEFUL:          0 USELESS:          0
cpu0_STLB AVERAGE MISS LATENCY: 1550 cycles

DRAM Statistics

Channel 0 RQ ROW_BUFFER_HIT:     138839
  ROW_BUFFER_MISS:     477659
 AVG DBUS CONGESTED CYCLE: 3.976
WQ ROW_BUFFER_HIT: Channel 0 
  ROW_BUFFER_MISS:     119622
  FULL:     398908
