WARNING: physical memory size is smaller than virtual memory size.

*** ChampSim Multicore Out-of-Order Simulator ***
Warmup Instructions: 50000000
Simulation Instructions: 600000000
Number of CPUs: 1
Page size: 4096

Off-chip DRAM Size: 4 GiB Channels: 1 Width: 64-bit Data Race: 3200 MT/s
Heartbeat CPU 0 instructions: 10000000 cycles: 2500202 heartbeat IPC: 4 cumulative IPC: 4 (Simulation time: 00 hr 00 min 36 sec)
Heartbeat CPU 0 instructions: 20000000 cycles: 5000202 heartbeat IPC: 4 cumulative IPC: 4 (Simulation time: 00 hr 01 min 07 sec)
Heartbeat CPU 0 instructions: 30000000 cycles: 7500202 heartbeat IPC: 4 cumulative IPC: 4 (Simulation time: 00 hr 01 min 41 sec)
Heartbeat CPU 0 instructions: 40000000 cycles: 10000202 heartbeat IPC: 4 cumulative IPC: 4 (Simulation time: 00 hr 02 min 17 sec)
Heartbeat CPU 0 instructions: 50000000 cycles: 12500202 heartbeat IPC: 4 cumulative IPC: 4 (Simulation time: 00 hr 02 min 53 sec)
Warmup finished CPU 0 instructions: 50000000 cycles: 12500203 cumulative IPC: 4 (Simulation time: 00 hr 02 min 53 sec)
Warmup complete CPU 0 instructions: 50000000 cycles: 12500203 cumulative IPC: 4 (Simulation time: 00 hr 02 min 53 sec)
Heartbeat CPU 0 instructions: 60000002 cycles: 15800363 heartbeat IPC: 3.03 cumulative IPC: 3.03 (Simulation time: 00 hr 03 min 36 sec)
Heartbeat CPU 0 instructions: 70000002 cycles: 18506839 heartbeat IPC: 3.695 cumulative IPC: 3.33 (Simulation time: 00 hr 04 min 12 sec)
Heartbeat CPU 0 instructions: 80000003 cycles: 21210436 heartbeat IPC: 3.699 cumulative IPC: 3.444 (Simulation time: 00 hr 04 min 50 sec)
Heartbeat CPU 0 instructions: 90000004 cycles: 23913999 heartbeat IPC: 3.699 cumulative IPC: 3.505 (Simulation time: 00 hr 05 min 30 sec)
Heartbeat CPU 0 instructions: 100000003 cycles: 26620585 heartbeat IPC: 3.695 cumulative IPC: 3.541 (Simulation time: 00 hr 06 min 14 sec)
Heartbeat CPU 0 instructions: 110000000 cycles: 29325386 heartbeat IPC: 3.697 cumulative IPC: 3.566 (Simulation time: 00 hr 06 min 56 sec)
Heartbeat CPU 0 instructions: 120000000 cycles: 32028740 heartbeat IPC: 3.699 cumulative IPC: 3.584 (Simulation time: 00 hr 07 min 33 sec)
Heartbeat CPU 0 instructions: 130000000 cycles: 34732361 heartbeat IPC: 3.699 cumulative IPC: 3.598 (Simulation time: 00 hr 08 min 12 sec)
Heartbeat CPU 0 instructions: 140000001 cycles: 37435910 heartbeat IPC: 3.699 cumulative IPC: 3.609 (Simulation time: 00 hr 08 min 50 sec)
Heartbeat CPU 0 instructions: 150000003 cycles: 40139494 heartbeat IPC: 3.699 cumulative IPC: 3.618 (Simulation time: 00 hr 09 min 28 sec)
Heartbeat CPU 0 instructions: 160000003 cycles: 42845311 heartbeat IPC: 3.696 cumulative IPC: 3.625 (Simulation time: 00 hr 10 min 08 sec)
Heartbeat CPU 0 instructions: 170000001 cycles: 45550238 heartbeat IPC: 3.697 cumulative IPC: 3.631 (Simulation time: 00 hr 10 min 45 sec)
Heartbeat CPU 0 instructions: 180000001 cycles: 48254326 heartbeat IPC: 3.698 cumulative IPC: 3.636 (Simulation time: 00 hr 11 min 21 sec)
Heartbeat CPU 0 instructions: 190000002 cycles: 50958363 heartbeat IPC: 3.698 cumulative IPC: 3.64 (Simulation time: 00 hr 11 min 56 sec)
Heartbeat CPU 0 instructions: 200000001 cycles: 53661949 heartbeat IPC: 3.699 cumulative IPC: 3.644 (Simulation time: 00 hr 12 min 32 sec)
Heartbeat CPU 0 instructions: 210000000 cycles: 56367511 heartbeat IPC: 3.696 cumulative IPC: 3.647 (Simulation time: 00 hr 13 min 09 sec)
Heartbeat CPU 0 instructions: 220000001 cycles: 59071209 heartbeat IPC: 3.699 cumulative IPC: 3.65 (Simulation time: 00 hr 13 min 46 sec)
Heartbeat CPU 0 instructions: 230000002 cycles: 61774831 heartbeat IPC: 3.699 cumulative IPC: 3.653 (Simulation time: 00 hr 14 min 25 sec)
Heartbeat CPU 0 instructions: 240000004 cycles: 64478464 heartbeat IPC: 3.699 cumulative IPC: 3.655 (Simulation time: 00 hr 15 min 01 sec)
Heartbeat CPU 0 instructions: 250000000 cycles: 67185466 heartbeat IPC: 3.694 cumulative IPC: 3.657 (Simulation time: 00 hr 15 min 37 sec)
Heartbeat CPU 0 instructions: 260000000 cycles: 69890926 heartbeat IPC: 3.696 cumulative IPC: 3.659 (Simulation time: 00 hr 16 min 12 sec)
Heartbeat CPU 0 instructions: 270000002 cycles: 72594289 heartbeat IPC: 3.699 cumulative IPC: 3.661 (Simulation time: 00 hr 16 min 50 sec)
Heartbeat CPU 0 instructions: 280000003 cycles: 75297939 heartbeat IPC: 3.699 cumulative IPC: 3.663 (Simulation time: 00 hr 17 min 26 sec)
Heartbeat CPU 0 instructions: 290000003 cycles: 78001594 heartbeat IPC: 3.699 cumulative IPC: 3.664 (Simulation time: 00 hr 18 min 02 sec)
Heartbeat CPU 0 instructions: 300000000 cycles: 80707717 heartbeat IPC: 3.695 cumulative IPC: 3.665 (Simulation time: 00 hr 18 min 37 sec)
Heartbeat CPU 0 instructions: 310000002 cycles: 83411284 heartbeat IPC: 3.699 cumulative IPC: 3.667 (Simulation time: 00 hr 19 min 13 sec)
Heartbeat CPU 0 instructions: 320000004 cycles: 86114661 heartbeat IPC: 3.699 cumulative IPC: 3.668 (Simulation time: 00 hr 19 min 49 sec)
Heartbeat CPU 0 instructions: 330000000 cycles: 88818271 heartbeat IPC: 3.699 cumulative IPC: 3.669 (Simulation time: 00 hr 20 min 25 sec)
Heartbeat CPU 0 instructions: 340000002 cycles: 91522632 heartbeat IPC: 3.698 cumulative IPC: 3.67 (Simulation time: 00 hr 21 min 01 sec)
Heartbeat CPU 0 instructions: 350000002 cycles: 94226077 heartbeat IPC: 3.699 cumulative IPC: 3.671 (Simulation time: 00 hr 21 min 36 sec)
Heartbeat CPU 0 instructions: 360000001 cycles: 96933129 heartbeat IPC: 3.694 cumulative IPC: 3.672 (Simulation time: 00 hr 22 min 12 sec)
Heartbeat CPU 0 instructions: 370000004 cycles: 99636979 heartbeat IPC: 3.698 cumulative IPC: 3.672 (Simulation time: 00 hr 22 min 48 sec)
Heartbeat CPU 0 instructions: 380000000 cycles: 102340547 heartbeat IPC: 3.699 cumulative IPC: 3.673 (Simulation time: 00 hr 23 min 24 sec)
Heartbeat CPU 0 instructions: 390000004 cycles: 105044267 heartbeat IPC: 3.699 cumulative IPC: 3.674 (Simulation time: 00 hr 23 min 59 sec)
Heartbeat CPU 0 instructions: 400000000 cycles: 107750676 heartbeat IPC: 3.695 cumulative IPC: 3.675 (Simulation time: 00 hr 24 min 36 sec)
Heartbeat CPU 0 instructions: 410000000 cycles: 110455702 heartbeat IPC: 3.697 cumulative IPC: 3.675 (Simulation time: 00 hr 25 min 11 sec)
Heartbeat CPU 0 instructions: 420000001 cycles: 113160001 heartbeat IPC: 3.698 cumulative IPC: 3.676 (Simulation time: 00 hr 25 min 47 sec)
Heartbeat CPU 0 instructions: 430000003 cycles: 115863858 heartbeat IPC: 3.698 cumulative IPC: 3.676 (Simulation time: 00 hr 26 min 23 sec)
Heartbeat CPU 0 instructions: 440000003 cycles: 118567551 heartbeat IPC: 3.699 cumulative IPC: 3.677 (Simulation time: 00 hr 26 min 59 sec)
Heartbeat CPU 0 instructions: 450000004 cycles: 121273516 heartbeat IPC: 3.696 cumulative IPC: 3.677 (Simulation time: 00 hr 27 min 35 sec)
Heartbeat CPU 0 instructions: 460000001 cycles: 123978016 heartbeat IPC: 3.698 cumulative IPC: 3.678 (Simulation time: 00 hr 28 min 11 sec)
Heartbeat CPU 0 instructions: 470000002 cycles: 126681513 heartbeat IPC: 3.699 cumulative IPC: 3.678 (Simulation time: 00 hr 28 min 46 sec)
Heartbeat CPU 0 instructions: 480000001 cycles: 129385262 heartbeat IPC: 3.699 cumulative IPC: 3.679 (Simulation time: 00 hr 29 min 22 sec)
Heartbeat CPU 0 instructions: 490000000 cycles: 132089304 heartbeat IPC: 3.698 cumulative IPC: 3.679 (Simulation time: 00 hr 29 min 57 sec)
Heartbeat CPU 0 instructions: 500000002 cycles: 134795579 heartbeat IPC: 3.695 cumulative IPC: 3.68 (Simulation time: 00 hr 30 min 32 sec)
Heartbeat CPU 0 instructions: 510000003 cycles: 137498904 heartbeat IPC: 3.699 cumulative IPC: 3.68 (Simulation time: 00 hr 31 min 11 sec)
Heartbeat CPU 0 instructions: 520000004 cycles: 140202376 heartbeat IPC: 3.699 cumulative IPC: 3.68 (Simulation time: 00 hr 31 min 48 sec)
Heartbeat CPU 0 instructions: 530000000 cycles: 142906033 heartbeat IPC: 3.699 cumulative IPC: 3.681 (Simulation time: 00 hr 32 min 24 sec)
Heartbeat CPU 0 instructions: 540000000 cycles: 145611269 heartbeat IPC: 3.697 cumulative IPC: 3.681 (Simulation time: 00 hr 33 min 00 sec)
Heartbeat CPU 0 instructions: 550000003 cycles: 148315241 heartbeat IPC: 3.698 cumulative IPC: 3.681 (Simulation time: 00 hr 33 min 36 sec)
Heartbeat CPU 0 instructions: 560000003 cycles: 151020558 heartbeat IPC: 3.696 cumulative IPC: 3.682 (Simulation time: 00 hr 34 min 12 sec)
Heartbeat CPU 0 instructions: 570000004 cycles: 153723897 heartbeat IPC: 3.699 cumulative IPC: 3.682 (Simulation time: 00 hr 34 min 48 sec)
Heartbeat CPU 0 instructions: 580000000 cycles: 156427601 heartbeat IPC: 3.699 cumulative IPC: 3.682 (Simulation time: 00 hr 35 min 25 sec)
Heartbeat CPU 0 instructions: 590000002 cycles: 159131205 heartbeat IPC: 3.699 cumulative IPC: 3.683 (Simulation time: 00 hr 36 min 02 sec)
*** Reached end of trace: (0, "traces/convolution.champsimtrace")
Heartbeat CPU 0 instructions: 600000000 cycles: 161844401 heartbeat IPC: 3.686 cumulative IPC: 3.683 (Simulation time: 00 hr 36 min 40 sec)
Heartbeat CPU 0 instructions: 610000002 cycles: 190093150 heartbeat IPC: 0.354 cumulative IPC: 3.153 (Simulation time: 00 hr 40 min 24 sec)
Heartbeat CPU 0 instructions: 620000001 cycles: 212460148 heartbeat IPC: 0.4471 cumulative IPC: 2.851 (Simulation time: 00 hr 43 min 34 sec)
Heartbeat CPU 0 instructions: 630000001 cycles: 223733347 heartbeat IPC: 0.8871 cumulative IPC: 2.746 (Simulation time: 00 hr 45 min 21 sec)
Heartbeat CPU 0 instructions: 640000004 cycles: 234507015 heartbeat IPC: 0.9282 cumulative IPC: 2.658 (Simulation time: 00 hr 47 min 04 sec)
Heartbeat CPU 0 instructions: 650000001 cycles: 245227550 heartbeat IPC: 0.9328 cumulative IPC: 2.578 (Simulation time: 00 hr 48 min 48 sec)
Simulation finished CPU 0 instructions: 600000001 cycles: 232727348 cumulative IPC: 2.578 (Simulation time: 00 hr 48 min 48 sec)
Simulation complete CPU 0 instructions: 600000001 cycles: 232727348 cumulative IPC: 2.578 (Simulation time: 00 hr 48 min 48 sec)

ChampSim completed all CPUs

=== Simulation ===
CPU 0 runs traces/convolution.champsimtrace
Region of Interest Statistics

CPU 0 cumulative IPC: 2.578 instructions: 600000001 cycles: 232727348
CPU 0 Branch Prediction Accuracy: 99.3% MPKI: 1.265 Average ROB Occupancy at Mispredict: 64
Branch type MPKI
BRANCH_DIRECT_JUMP: 0.000107
BRANCH_INDIRECT: 4.17e-05
BRANCH_CONDITIONAL: 1.26
BRANCH_DIRECT_CALL: 0.000103
BRANCH_INDIRECT_CALL: 8.33e-06
BRANCH_RETURN: 1.83e-05

LLC TOTAL        ACCESS:    1183319 HIT:     231859 MISS:     951460
LLC LOAD         ACCESS:       2887 HIT:          2 MISS:       2885
LLC RFO          ACCESS:     535120 HIT:         31 MISS:     535089
LLC PREFETCH     ACCESS:          0 HIT:          0 MISS:          0
LLC WRITE        ACCESS:     535171 HIT:     231346 MISS:     303825
LLC TRANSLATION  ACCESS:     110141 HIT:        480 MISS:     109661
LLC PREFETCH REQUESTED:          0 ISSUED:          0 USEFUL:          0 USELESS:          0
LLC AVERAGE MISS LATENCY: 764.7 cycles
cpu0_DTLB TOTAL        ACCESS:  121557975 HIT:  121205312 MISS:     352663
cpu0_DTLB LOAD         ACCESS:  121557975 HIT:  121205312 MISS:     352663
cpu0_DTLB RFO          ACCESS:          0 HIT:          0 MISS:          0
cpu0_DTLB PREFETCH     ACCESS:          0 HIT:          0 MISS:          0
cpu0_DTLB WRITE        ACCESS:          0 HIT:          0 MISS:          0
cpu0_DTLB TRANSLATION  ACCESS:          0 HIT:          0 MISS:          0
cpu0_DTLB PREFETCH REQUESTED:          0 ISSUED:          0 USEFUL:          0 USELESS:          0
cpu0_DTLB AVERAGE MISS LATENCY: 708.1 cycles
cpu0_ITLB TOTAL        ACCESS:       2030 HIT:       1996 MISS:         34
cpu0_ITLB LOAD         ACCESS:       2030 HIT:       1996 MISS:         34
cpu0_ITLB RFO          ACCESS:          0 HIT:          0 MISS:          0
cpu0_ITLB PREFETCH     ACCESS:          0 HIT:          0 MISS:          0
cpu0_ITLB WRITE        ACCESS:          0 HIT:          0 MISS:          0
cpu0_ITLB TRANSLATION  ACCESS:          0 HIT:          0 MISS:          0
cpu0_ITLB PREFETCH REQUESTED:          0 ISSUED:          0 USEFUL:          0 USELESS:          0
cpu0_ITLB AVERAGE MISS LATENCY: 721.9 cycles
cpu0_L1D TOTAL        ACCESS:  162707975 HIT:  156554123 MISS:    6153852
cpu0_L1D LOAD         ACCESS:   90492008 HIT:   90485841 MISS:       6167
cpu0_L1D RFO          ACCESS:          0 HIT:          0 MISS:          0
cpu0_L1D PREFETCH     ACCESS:          0 HIT:          0 MISS:          0
cpu0_L1D WRITE        ACCESS:   72035046 HIT:   66029922 MISS:    6005124
cpu0_L1D TRANSLATION  ACCESS:     180921 HIT:      38360 MISS:     142561
cpu0_L1D PREFETCH REQUESTED:          0 ISSUED:          0 USEFUL:          0 USELESS:          0
cpu0_L1D AVERAGE MISS LATENCY: 92.67 cycles
cpu0_L1I TOTAL        ACCESS:       2351 HIT:       1015 MISS:       1336
cpu0_L1I LOAD         ACCESS:       2351 HIT:       1015 MISS:       1336
cpu0_L1I RFO          ACCESS:          0 HIT:          0 MISS:          0
cpu0_L1I PREFETCH     ACCESS:          0 HIT:          0 MISS:          0
cpu0_L1I WRITE        ACCESS:          0 HIT:          0 MISS:          0
cpu0_L1I TRANSLATION  ACCESS:          0 HIT:          0 MISS:          0
cpu0_L1I PREFETCH REQUESTED:          0 ISSUED:          0 USEFUL:          0 USELESS:          0
cpu0_L1I AVERAGE MISS LATENCY: 653.1 cycles
cpu0_L2C TOTAL        ACCESS:    1191226 HIT:     543060 MISS:     648166
cpu0_L2C LOAD         ACCESS:       3313 HIT:        426 MISS:       2887
cpu0_L2C RFO          ACCESS:     538094 HIT:       2974 MISS:     535120
cpu0_L2C PREFETCH     ACCESS:          0 HIT:          0 MISS:          0
cpu0_L2C WRITE        ACCESS:     538223 HIT:     538206 MISS:         17
cpu0_L2C TRANSLATION  ACCESS:     111596 HIT:       1454 MISS:     110142
cpu0_L2C PREFETCH REQUESTED:          0 ISSUED:          0 USEFUL:          0 USELESS:          0
cpu0_L2C AVERAGE MISS LATENCY: 1144 cycles
cpu0_STLB TOTAL        ACCESS:     156162 HIT:         50 MISS:     156112
cpu0_STLB LOAD         ACCESS:     156162 HIT:         50 MISS:     156112
cpu0_STLB RFO          ACCESS:          0 HIT:          0 MISS:          0
cpu0_STLB PREFETCH     ACCESS:          0 HIT:          0 MISS:          0
cpu0_STLB WRITE        ACCESS:          0 HIT:          0 MISS:          0
cpu0_STLB TRANSLATION  ACCESS:          0 HIT:          0 MISS:          0
cpu0_STLB PREFETCH REQUESTED:          0 ISSUED:          0 USEFUL:          0 USELESS:          0
cpu0_STLB AVERAGE MISS LATENCY: 1803 cycles

DRAM Statistics

Channel 0 RQ ROW_BUFFER_HIT:     155473
  ROW_BUFFER_MISS:     492157
 AVG DBUS CONGESTED CYCLE: 3.981
WQ ROW_BUFFER_HIT: Channel 0 
  ROW_BUFFER_MISS:      46672
  FULL:     487666
