WARNING: physical memory size is smaller than virtual memory size.

*** ChampSim Multicore Out-of-Order Simulator ***
Warmup Instructions: 50000000
Simulation Instructions: 600000000
Number of CPUs: 1
Page size: 4096

Off-chip DRAM Size: 4 GiB Channels: 1 Width: 64-bit Data Race: 3200 MT/s
Heartbeat CPU 0 instructions: 10000000 cycles: 2500202 heartbeat IPC: 4 cumulative IPC: 4 (Simulation time: 00 hr 00 min 32 sec)
Heartbeat CPU 0 instructions: 20000000 cycles: 5000202 heartbeat IPC: 4 cumulative IPC: 4 (Simulation time: 00 hr 01 min 09 sec)
Heartbeat CPU 0 instructions: 30000000 cycles: 7500202 heartbeat IPC: 4 cumulative IPC: 4 (Simulation time: 00 hr 01 min 45 sec)
Heartbeat CPU 0 instructions: 40000000 cycles: 10000202 heartbeat IPC: 4 cumulative IPC: 4 (Simulation time: 00 hr 02 min 19 sec)
Heartbeat CPU 0 instructions: 50000000 cycles: 12500202 heartbeat IPC: 4 cumulative IPC: 4 (Simulation time: 00 hr 02 min 55 sec)
Warmup finished CPU 0 instructions: 50000000 cycles: 12500203 cumulative IPC: 4 (Simulation time: 00 hr 02 min 55 sec)
Warmup complete CPU 0 instructions: 50000000 cycles: 12500203 cumulative IPC: 4 (Simulation time: 00 hr 02 min 55 sec)
Heartbeat CPU 0 instructions: 60000002 cycles: 15762424 heartbeat IPC: 3.065 cumulative IPC: 3.065 (Simulation time: 00 hr 03 min 36 sec)
Heartbeat CPU 0 instructions: 70000002 cycles: 18468066 heartbeat IPC: 3.696 cumulative IPC: 3.351 (Simulation time: 00 hr 04 min 14 sec)
Heartbeat CPU 0 instructions: 80000003 cycles: 21171663 heartbeat IPC: 3.699 cumulative IPC: 3.46 (Simulation time: 00 hr 04 min 54 sec)
Heartbeat CPU 0 instructions: 90000004 cycles: 23875226 heartbeat IPC: 3.699 cumulative IPC: 3.516 (Simulation time: 00 hr 05 min 35 sec)
Heartbeat CPU 0 instructions: 100000003 cycles: 26580722 heartbeat IPC: 3.696 cumulative IPC: 3.551 (Simulation time: 00 hr 06 min 14 sec)
Heartbeat CPU 0 instructions: 110000000 cycles: 29285487 heartbeat IPC: 3.697 cumulative IPC: 3.575 (Simulation time: 00 hr 06 min 52 sec)
Heartbeat CPU 0 instructions: 120000000 cycles: 31988841 heartbeat IPC: 3.699 cumulative IPC: 3.592 (Simulation time: 00 hr 07 min 30 sec)
Heartbeat CPU 0 instructions: 130000000 cycles: 34692462 heartbeat IPC: 3.699 cumulative IPC: 3.605 (Simulation time: 00 hr 08 min 06 sec)
Heartbeat CPU 0 instructions: 140000001 cycles: 37396011 heartbeat IPC: 3.699 cumulative IPC: 3.615 (Simulation time: 00 hr 08 min 42 sec)
Heartbeat CPU 0 instructions: 150000003 cycles: 40099595 heartbeat IPC: 3.699 cumulative IPC: 3.623 (Simulation time: 00 hr 09 min 18 sec)
Heartbeat CPU 0 instructions: 160000003 cycles: 42805296 heartbeat IPC: 3.696 cumulative IPC: 3.63 (Simulation time: 00 hr 09 min 54 sec)
Heartbeat CPU 0 instructions: 170000001 cycles: 45509053 heartbeat IPC: 3.699 cumulative IPC: 3.635 (Simulation time: 00 hr 10 min 30 sec)
Heartbeat CPU 0 instructions: 180000001 cycles: 48212626 heartbeat IPC: 3.699 cumulative IPC: 3.64 (Simulation time: 00 hr 11 min 05 sec)
Heartbeat CPU 0 instructions: 190000002 cycles: 50916985 heartbeat IPC: 3.698 cumulative IPC: 3.644 (Simulation time: 00 hr 11 min 42 sec)
Heartbeat CPU 0 instructions: 200000001 cycles: 53620571 heartbeat IPC: 3.699 cumulative IPC: 3.648 (Simulation time: 00 hr 12 min 21 sec)
Heartbeat CPU 0 instructions: 210000000 cycles: 56326223 heartbeat IPC: 3.696 cumulative IPC: 3.651 (Simulation time: 00 hr 13 min 00 sec)
Heartbeat CPU 0 instructions: 220000001 cycles: 59029580 heartbeat IPC: 3.699 cumulative IPC: 3.654 (Simulation time: 00 hr 13 min 38 sec)
Heartbeat CPU 0 instructions: 230000002 cycles: 61733202 heartbeat IPC: 3.699 cumulative IPC: 3.656 (Simulation time: 00 hr 14 min 15 sec)
Heartbeat CPU 0 instructions: 240000004 cycles: 64436835 heartbeat IPC: 3.699 cumulative IPC: 3.658 (Simulation time: 00 hr 14 min 52 sec)
Heartbeat CPU 0 instructions: 250000000 cycles: 67142543 heartbeat IPC: 3.696 cumulative IPC: 3.66 (Simulation time: 00 hr 15 min 28 sec)
Heartbeat CPU 0 instructions: 260000000 cycles: 69846148 heartbeat IPC: 3.699 cumulative IPC: 3.662 (Simulation time: 00 hr 16 min 04 sec)
Heartbeat CPU 0 instructions: 270000002 cycles: 72549511 heartbeat IPC: 3.699 cumulative IPC: 3.664 (Simulation time: 00 hr 16 min 40 sec)
Heartbeat CPU 0 instructions: 280000003 cycles: 75253136 heartbeat IPC: 3.699 cumulative IPC: 3.665 (Simulation time: 00 hr 17 min 15 sec)
Heartbeat CPU 0 instructions: 290000003 cycles: 77956791 heartbeat IPC: 3.699 cumulative IPC: 3.667 (Simulation time: 00 hr 17 min 52 sec)
Heartbeat CPU 0 instructions: 300000000 cycles: 80663136 heartbeat IPC: 3.695 cumulative IPC: 3.668 (Simulation time: 00 hr 18 min 27 sec)
Heartbeat CPU 0 instructions: 310000002 cycles: 83366383 heartbeat IPC: 3.699 cumulative IPC: 3.669 (Simulation time: 00 hr 19 min 05 sec)
Heartbeat CPU 0 instructions: 320000004 cycles: 86069760 heartbeat IPC: 3.699 cumulative IPC: 3.67 (Simulation time: 00 hr 19 min 41 sec)
Heartbeat CPU 0 instructions: 330000000 cycles: 88773370 heartbeat IPC: 3.699 cumulative IPC: 3.671 (Simulation time: 00 hr 20 min 23 sec)
Heartbeat CPU 0 instructions: 340000002 cycles: 91478229 heartbeat IPC: 3.697 cumulative IPC: 3.672 (Simulation time: 00 hr 21 min 01 sec)
Heartbeat CPU 0 instructions: 350000002 cycles: 94181674 heartbeat IPC: 3.699 cumulative IPC: 3.673 (Simulation time: 00 hr 21 min 40 sec)
Heartbeat CPU 0 instructions: 360000001 cycles: 96888339 heartbeat IPC: 3.695 cumulative IPC: 3.674 (Simulation time: 00 hr 22 min 21 sec)
Heartbeat CPU 0 instructions: 370000004 cycles: 99591688 heartbeat IPC: 3.699 cumulative IPC: 3.674 (Simulation time: 00 hr 22 min 57 sec)
Heartbeat CPU 0 instructions: 380000000 cycles: 102295256 heartbeat IPC: 3.699 cumulative IPC: 3.675 (Simulation time: 00 hr 23 min 33 sec)
Heartbeat CPU 0 instructions: 390000004 cycles: 104998976 heartbeat IPC: 3.699 cumulative IPC: 3.676 (Simulation time: 00 hr 24 min 09 sec)
Heartbeat CPU 0 instructions: 400000000 cycles: 107704488 heartbeat IPC: 3.696 cumulative IPC: 3.676 (Simulation time: 00 hr 24 min 45 sec)
Heartbeat CPU 0 instructions: 410000000 cycles: 110408146 heartbeat IPC: 3.699 cumulative IPC: 3.677 (Simulation time: 00 hr 25 min 21 sec)
Heartbeat CPU 0 instructions: 420000001 cycles: 113111592 heartbeat IPC: 3.699 cumulative IPC: 3.678 (Simulation time: 00 hr 25 min 58 sec)
Heartbeat CPU 0 instructions: 430000003 cycles: 115815300 heartbeat IPC: 3.699 cumulative IPC: 3.678 (Simulation time: 00 hr 26 min 37 sec)
Heartbeat CPU 0 instructions: 440000003 cycles: 118518993 heartbeat IPC: 3.699 cumulative IPC: 3.679 (Simulation time: 00 hr 27 min 12 sec)
Heartbeat CPU 0 instructions: 450000004 cycles: 121224980 heartbeat IPC: 3.696 cumulative IPC: 3.679 (Simulation time: 00 hr 27 min 49 sec)
Heartbeat CPU 0 instructions: 460000001 cycles: 123928337 heartbeat IPC: 3.699 cumulative IPC: 3.68 (Simulation time: 00 hr 28 min 25 sec)
Heartbeat CPU 0 instructions: 470000002 cycles: 126631813 heartbeat IPC: 3.699 cumulative IPC: 3.68 (Simulation time: 00 hr 29 min 04 sec)
Heartbeat CPU 0 instructions: 480000001 cycles: 129335562 heartbeat IPC: 3.699 cumulative IPC: 3.68 (Simulation time: 00 hr 29 min 45 sec)
Heartbeat CPU 0 instructions: 490000000 cycles: 132040707 heartbeat IPC: 3.697 cumulative IPC: 3.681 (Simulation time: 00 hr 30 min 25 sec)
Heartbeat CPU 0 instructions: 500000002 cycles: 134746808 heartbeat IPC: 3.695 cumulative IPC: 3.681 (Simulation time: 00 hr 31 min 04 sec)
Heartbeat CPU 0 instructions: 510000003 cycles: 137450133 heartbeat IPC: 3.699 cumulative IPC: 3.681 (Simulation time: 00 hr 31 min 46 sec)
Heartbeat CPU 0 instructions: 520000004 cycles: 140153605 heartbeat IPC: 3.699 cumulative IPC: 3.682 (Simulation time: 00 hr 32 min 25 sec)
Heartbeat CPU 0 instructions: 530000000 cycles: 142857262 heartbeat IPC: 3.699 cumulative IPC: 3.682 (Simulation time: 00 hr 33 min 02 sec)
Heartbeat CPU 0 instructions: 540000000 cycles: 145562721 heartbeat IPC: 3.696 cumulative IPC: 3.682 (Simulation time: 00 hr 33 min 41 sec)
Heartbeat CPU 0 instructions: 550000003 cycles: 148266105 heartbeat IPC: 3.699 cumulative IPC: 3.683 (Simulation time: 00 hr 34 min 18 sec)
Heartbeat CPU 0 instructions: 560000003 cycles: 150969895 heartbeat IPC: 3.699 cumulative IPC: 3.683 (Simulation time: 00 hr 34 min 55 sec)
Heartbeat CPU 0 instructions: 570000004 cycles: 153673234 heartbeat IPC: 3.699 cumulative IPC: 3.683 (Simulation time: 00 hr 35 min 35 sec)
Heartbeat CPU 0 instructions: 580000000 cycles: 156376938 heartbeat IPC: 3.699 cumulative IPC: 3.684 (Simulation time: 00 hr 36 min 17 sec)
Heartbeat CPU 0 instructions: 590000002 cycles: 159080521 heartbeat IPC: 3.699 cumulative IPC: 3.684 (Simulation time: 00 hr 37 min 04 sec)
*** Reached end of trace: (0, "traces/convolution.champsimtrace")
Heartbeat CPU 0 instructions: 600000000 cycles: 161792051 heartbeat IPC: 3.688 cumulative IPC: 3.684 (Simulation time: 00 hr 37 min 43 sec)
Heartbeat CPU 0 instructions: 610000002 cycles: 185246952 heartbeat IPC: 0.4264 cumulative IPC: 3.242 (Simulation time: 00 hr 40 min 58 sec)
Heartbeat CPU 0 instructions: 620000001 cycles: 206166191 heartbeat IPC: 0.478 cumulative IPC: 2.943 (Simulation time: 00 hr 43 min 57 sec)
Heartbeat CPU 0 instructions: 630000001 cycles: 217295116 heartbeat IPC: 0.8986 cumulative IPC: 2.832 (Simulation time: 00 hr 45 min 41 sec)
Heartbeat CPU 0 instructions: 640000004 cycles: 227757710 heartbeat IPC: 0.9558 cumulative IPC: 2.741 (Simulation time: 00 hr 47 min 25 sec)
Heartbeat CPU 0 instructions: 650000001 cycles: 238182285 heartbeat IPC: 0.9593 cumulative IPC: 2.659 (Simulation time: 00 hr 49 min 05 sec)
Simulation finished CPU 0 instructions: 600000001 cycles: 225682083 cumulative IPC: 2.659 (Simulation time: 00 hr 49 min 05 sec)
Simulation complete CPU 0 instructions: 600000001 cycles: 225682083 cumulative IPC: 2.659 (Simulation time: 00 hr 49 min 05 sec)

ChampSim completed all CPUs

=== Simulation ===
CPU 0 runs traces/convolution.champsimtrace
Region of Interest Statistics

CPU 0 cumulative IPC: 2.659 instructions: 600000001 cycles: 225682083
CPU 0 Branch Prediction Accuracy: 99.3% MPKI: 1.265 Average ROB Occupancy at Mispredict: 63.97
Branch type MPKI
BRANCH_DIRECT_JUMP: 0.000107
BRANCH_INDIRECT: 4.17e-05
BRANCH_CONDITIONAL: 1.26
BRANCH_DIRECT_CALL: 0.000103
BRANCH_INDIRECT_CALL: 8.33e-06
BRANCH_RETURN: 1.83e-05

LLC TOTAL        ACCESS:    1186008 HIT:     536887 MISS:     649121
LLC LOAD         ACCESS:       2890 HIT:        866 MISS:       2024
LLC RFO          ACCESS:     535120 HIT:         30 MISS:     535090
LLC PREFETCH     ACCESS:       2890 HIT:        280 MISS:       2610
LLC WRITE        ACCESS:     535177 HIT:     535155 MISS:         22
LLC TRANSLATION  ACCESS:     109931 HIT:        556 MISS:     109375
LLC PREFETCH REQUESTED:       2890 ISSUED:       2890 USEFUL:       1633 USELESS:        358
LLC AVERAGE MISS LATENCY: 979.2 cycles
cpu0_DTLB TOTAL        ACCESS:  121558296 HIT:  121205301 MISS:     352995
cpu0_DTLB LOAD         ACCESS:  121558296 HIT:  121205301 MISS:     352995
cpu0_DTLB RFO          ACCESS:          0 HIT:          0 MISS:          0
cpu0_DTLB PREFETCH     ACCESS:          0 HIT:          0 MISS:          0
cpu0_DTLB WRITE        ACCESS:          0 HIT:          0 MISS:          0
cpu0_DTLB TRANSLATION  ACCESS:          0 HIT:          0 MISS:          0
cpu0_DTLB PREFETCH REQUESTED:          0 ISSUED:          0 USEFUL:          0 USELESS:          0
cpu0_DTLB AVERAGE MISS LATENCY: 638.5 cycles
cpu0_ITLB TOTAL        ACCESS:       2019 HIT:       1985 MISS:         34
cpu0_ITLB LOAD         ACCESS:       2019 HIT:       1985 MISS:         34
cpu0_ITLB RFO          ACCESS:          0 HIT:          0 MISS:          0
cpu0_ITLB PREFETCH     ACCESS:          0 HIT:          0 MISS:          0
cpu0_ITLB WRITE        ACCESS:          0 HIT:          0 MISS:          0
cpu0_ITLB TRANSLATION  ACCESS:          0 HIT:          0 MISS:          0
cpu0_ITLB PREFETCH REQUESTED:          0 ISSUED:          0 USEFUL:          0 USELESS:          0
cpu0_ITLB AVERAGE MISS LATENCY: 751.6 cycles
cpu0_L1D TOTAL        ACCESS:  162710052 HIT:  156543111 MISS:    6166941
cpu0_L1D LOAD         ACCESS:   90493462 HIT:   90487309 MISS:       6153
cpu0_L1D RFO          ACCESS:          0 HIT:          0 MISS:          0
cpu0_L1D PREFETCH     ACCESS:          0 HIT:          0 MISS:          0
cpu0_L1D WRITE        ACCESS:   72035800 HIT:   66017585 MISS:    6018215
cpu0_L1D TRANSLATION  ACCESS:     180790 HIT:      38217 MISS:     142573
cpu0_L1D PREFETCH REQUESTED:          0 ISSUED:          0 USEFUL:          0 USELESS:          0
cpu0_L1D AVERAGE MISS LATENCY: 77.94 cycles
cpu0_L1I TOTAL        ACCESS:       2333 HIT:       1020 MISS:       1313
cpu0_L1I LOAD         ACCESS:       2333 HIT:       1020 MISS:       1313
cpu0_L1I RFO          ACCESS:          0 HIT:          0 MISS:          0
cpu0_L1I PREFETCH     ACCESS:          0 HIT:          0 MISS:          0
cpu0_L1I WRITE        ACCESS:          0 HIT:          0 MISS:          0
cpu0_L1I TRANSLATION  ACCESS:          0 HIT:          0 MISS:          0
cpu0_L1I PREFETCH REQUESTED:          0 ISSUED:          0 USEFUL:          0 USELESS:          0
cpu0_L1I AVERAGE MISS LATENCY: 618.9 cycles
cpu0_L2C TOTAL        ACCESS:    1190907 HIT:     542948 MISS:     647959
cpu0_L2C LOAD         ACCESS:       3314 HIT:        424 MISS:       2890
cpu0_L2C RFO          ACCESS:     538102 HIT:       2982 MISS:     535120
cpu0_L2C PREFETCH     ACCESS:          0 HIT:          0 MISS:          0
cpu0_L2C WRITE        ACCESS:     538231 HIT:     538214 MISS:         17
cpu0_L2C TRANSLATION  ACCESS:     111260 HIT:       1328 MISS:     109932
cpu0_L2C PREFETCH REQUESTED:          0 ISSUED:          0 USEFUL:          0 USELESS:          0
cpu0_L2C AVERAGE MISS LATENCY: 999.4 cycles
cpu0_STLB TOTAL        ACCESS:     156150 HIT:         43 MISS:     156107
cpu0_STLB LOAD         ACCESS:     156150 HIT:         43 MISS:     156107
cpu0_STLB RFO          ACCESS:          0 HIT:          0 MISS:          0
cpu0_STLB PREFETCH     ACCESS:          0 HIT:          0 MISS:          0
cpu0_STLB WRITE        ACCESS:          0 HIT:          0 MISS:          0
cpu0_STLB TRANSLATION  ACCESS:          0 HIT:          0 MISS:          0
cpu0_STLB PREFETCH REQUESTED:          0 ISSUED:          0 USEFUL:          0 USELESS:          0
cpu0_STLB AVERAGE MISS LATENCY: 1642 cycles

DRAM Statistics

Channel 0 RQ ROW_BUFFER_HIT:     141322
  ROW_BUFFER_MISS:     506392
 AVG DBUS CONGESTED CYCLE: 3.978
WQ ROW_BUFFER_HIT: Channel 0 
  ROW_BUFFER_MISS:     105599
  FULL:     429517
