WARNING: physical memory size is smaller than virtual memory size.

*** ChampSim Multicore Out-of-Order Simulator ***
Warmup Instructions: 50000000
Simulation Instructions: 600000000
Number of CPUs: 1
Page size: 4096

Off-chip DRAM Size: 4 GiB Channels: 1 Width: 64-bit Data Race: 3200 MT/s
Heartbeat CPU 0 instructions: 10000000 cycles: 2500202 heartbeat IPC: 4 cumulative IPC: 4 (Simulation time: 00 hr 00 min 40 sec)
Heartbeat CPU 0 instructions: 20000000 cycles: 5000202 heartbeat IPC: 4 cumulative IPC: 4 (Simulation time: 00 hr 01 min 15 sec)
Heartbeat CPU 0 instructions: 30000000 cycles: 7500202 heartbeat IPC: 4 cumulative IPC: 4 (Simulation time: 00 hr 01 min 52 sec)
Heartbeat CPU 0 instructions: 40000000 cycles: 10000202 heartbeat IPC: 4 cumulative IPC: 4 (Simulation time: 00 hr 02 min 27 sec)
Heartbeat CPU 0 instructions: 50000000 cycles: 12500202 heartbeat IPC: 4 cumulative IPC: 4 (Simulation time: 00 hr 03 min 00 sec)
Warmup finished CPU 0 instructions: 50000000 cycles: 12500203 cumulative IPC: 4 (Simulation time: 00 hr 03 min 00 sec)
Warmup complete CPU 0 instructions: 50000000 cycles: 12500203 cumulative IPC: 4 (Simulation time: 00 hr 03 min 00 sec)
Heartbeat CPU 0 instructions: 60000002 cycles: 15767188 heartbeat IPC: 3.061 cumulative IPC: 3.061 (Simulation time: 00 hr 03 min 47 sec)
Heartbeat CPU 0 instructions: 70000002 cycles: 18473180 heartbeat IPC: 3.696 cumulative IPC: 3.348 (Simulation time: 00 hr 04 min 35 sec)
Heartbeat CPU 0 instructions: 80000003 cycles: 21176777 heartbeat IPC: 3.699 cumulative IPC: 3.458 (Simulation time: 00 hr 05 min 16 sec)
Heartbeat CPU 0 instructions: 90000004 cycles: 23880340 heartbeat IPC: 3.699 cumulative IPC: 3.515 (Simulation time: 00 hr 06 min 00 sec)
Heartbeat CPU 0 instructions: 100000003 cycles: 26586793 heartbeat IPC: 3.695 cumulative IPC: 3.549 (Simulation time: 00 hr 06 min 41 sec)
Heartbeat CPU 0 instructions: 110000000 cycles: 29291847 heartbeat IPC: 3.697 cumulative IPC: 3.573 (Simulation time: 00 hr 07 min 18 sec)
Heartbeat CPU 0 instructions: 120000000 cycles: 31995201 heartbeat IPC: 3.699 cumulative IPC: 3.591 (Simulation time: 00 hr 07 min 55 sec)
Heartbeat CPU 0 instructions: 130000000 cycles: 34698822 heartbeat IPC: 3.699 cumulative IPC: 3.604 (Simulation time: 00 hr 08 min 32 sec)
Heartbeat CPU 0 instructions: 140000001 cycles: 37402371 heartbeat IPC: 3.699 cumulative IPC: 3.614 (Simulation time: 00 hr 09 min 09 sec)
Heartbeat CPU 0 instructions: 150000003 cycles: 40105955 heartbeat IPC: 3.699 cumulative IPC: 3.622 (Simulation time: 00 hr 09 min 47 sec)
Heartbeat CPU 0 instructions: 160000003 cycles: 42812211 heartbeat IPC: 3.695 cumulative IPC: 3.629 (Simulation time: 00 hr 10 min 26 sec)
Heartbeat CPU 0 instructions: 170000001 cycles: 45516316 heartbeat IPC: 3.698 cumulative IPC: 3.635 (Simulation time: 00 hr 11 min 05 sec)
Heartbeat CPU 0 instructions: 180000001 cycles: 48219889 heartbeat IPC: 3.699 cumulative IPC: 3.639 (Simulation time: 00 hr 11 min 47 sec)
Heartbeat CPU 0 instructions: 190000002 cycles: 50924248 heartbeat IPC: 3.698 cumulative IPC: 3.644 (Simulation time: 00 hr 12 min 26 sec)
Heartbeat CPU 0 instructions: 200000001 cycles: 53627834 heartbeat IPC: 3.699 cumulative IPC: 3.647 (Simulation time: 00 hr 13 min 04 sec)
Heartbeat CPU 0 instructions: 210000000 cycles: 56334510 heartbeat IPC: 3.695 cumulative IPC: 3.65 (Simulation time: 00 hr 13 min 42 sec)
Heartbeat CPU 0 instructions: 220000001 cycles: 59038208 heartbeat IPC: 3.699 cumulative IPC: 3.653 (Simulation time: 00 hr 14 min 19 sec)
Heartbeat CPU 0 instructions: 230000002 cycles: 61741830 heartbeat IPC: 3.699 cumulative IPC: 3.655 (Simulation time: 00 hr 14 min 57 sec)
Heartbeat CPU 0 instructions: 240000004 cycles: 64445463 heartbeat IPC: 3.699 cumulative IPC: 3.658 (Simulation time: 00 hr 15 min 34 sec)
Heartbeat CPU 0 instructions: 250000000 cycles: 67150898 heartbeat IPC: 3.696 cumulative IPC: 3.66 (Simulation time: 00 hr 16 min 10 sec)
Heartbeat CPU 0 instructions: 260000000 cycles: 69856397 heartbeat IPC: 3.696 cumulative IPC: 3.661 (Simulation time: 00 hr 16 min 47 sec)
Heartbeat CPU 0 instructions: 270000002 cycles: 72559760 heartbeat IPC: 3.699 cumulative IPC: 3.663 (Simulation time: 00 hr 17 min 30 sec)
Heartbeat CPU 0 instructions: 280000003 cycles: 75263385 heartbeat IPC: 3.699 cumulative IPC: 3.665 (Simulation time: 00 hr 18 min 14 sec)
Heartbeat CPU 0 instructions: 290000003 cycles: 77967040 heartbeat IPC: 3.699 cumulative IPC: 3.666 (Simulation time: 00 hr 18 min 52 sec)
Heartbeat CPU 0 instructions: 300000000 cycles: 80673468 heartbeat IPC: 3.695 cumulative IPC: 3.667 (Simulation time: 00 hr 19 min 30 sec)
Heartbeat CPU 0 instructions: 310000002 cycles: 83377720 heartbeat IPC: 3.698 cumulative IPC: 3.668 (Simulation time: 00 hr 20 min 06 sec)
Heartbeat CPU 0 instructions: 320000004 cycles: 86081097 heartbeat IPC: 3.699 cumulative IPC: 3.669 (Simulation time: 00 hr 20 min 43 sec)
Heartbeat CPU 0 instructions: 330000000 cycles: 88784707 heartbeat IPC: 3.699 cumulative IPC: 3.67 (Simulation time: 00 hr 21 min 20 sec)
Heartbeat CPU 0 instructions: 340000002 cycles: 91489889 heartbeat IPC: 3.697 cumulative IPC: 3.671 (Simulation time: 00 hr 22 min 02 sec)
Heartbeat CPU 0 instructions: 350000002 cycles: 94193334 heartbeat IPC: 3.699 cumulative IPC: 3.672 (Simulation time: 00 hr 22 min 41 sec)
Heartbeat CPU 0 instructions: 360000001 cycles: 96899361 heartbeat IPC: 3.695 cumulative IPC: 3.673 (Simulation time: 00 hr 23 min 19 sec)
Heartbeat CPU 0 instructions: 370000004 cycles: 99603079 heartbeat IPC: 3.699 cumulative IPC: 3.674 (Simulation time: 00 hr 23 min 55 sec)
Heartbeat CPU 0 instructions: 380000000 cycles: 102306647 heartbeat IPC: 3.699 cumulative IPC: 3.675 (Simulation time: 00 hr 24 min 32 sec)
Heartbeat CPU 0 instructions: 390000004 cycles: 105010367 heartbeat IPC: 3.699 cumulative IPC: 3.675 (Simulation time: 00 hr 25 min 09 sec)
Heartbeat CPU 0 instructions: 400000000 cycles: 107715945 heartbeat IPC: 3.696 cumulative IPC: 3.676 (Simulation time: 00 hr 25 min 46 sec)
Heartbeat CPU 0 instructions: 410000000 cycles: 110421981 heartbeat IPC: 3.695 cumulative IPC: 3.676 (Simulation time: 00 hr 26 min 27 sec)
Heartbeat CPU 0 instructions: 420000001 cycles: 113125427 heartbeat IPC: 3.699 cumulative IPC: 3.677 (Simulation time: 00 hr 27 min 06 sec)
Heartbeat CPU 0 instructions: 430000003 cycles: 115829135 heartbeat IPC: 3.699 cumulative IPC: 3.678 (Simulation time: 00 hr 27 min 44 sec)
Heartbeat CPU 0 instructions: 440000003 cycles: 118532828 heartbeat IPC: 3.699 cumulative IPC: 3.678 (Simulation time: 00 hr 28 min 24 sec)
Heartbeat CPU 0 instructions: 450000004 cycles: 121238580 heartbeat IPC: 3.696 cumulative IPC: 3.679 (Simulation time: 00 hr 29 min 02 sec)
Heartbeat CPU 0 instructions: 460000001 cycles: 123942966 heartbeat IPC: 3.698 cumulative IPC: 3.679 (Simulation time: 00 hr 29 min 42 sec)
Heartbeat CPU 0 instructions: 470000002 cycles: 126646442 heartbeat IPC: 3.699 cumulative IPC: 3.679 (Simulation time: 00 hr 30 min 29 sec)
Heartbeat CPU 0 instructions: 480000001 cycles: 129350191 heartbeat IPC: 3.699 cumulative IPC: 3.68 (Simulation time: 00 hr 31 min 11 sec)
Heartbeat CPU 0 instructions: 490000000 cycles: 132054982 heartbeat IPC: 3.697 cumulative IPC: 3.68 (Simulation time: 00 hr 31 min 55 sec)
Heartbeat CPU 0 instructions: 500000002 cycles: 134760775 heartbeat IPC: 3.696 cumulative IPC: 3.681 (Simulation time: 00 hr 32 min 42 sec)
Heartbeat CPU 0 instructions: 510000003 cycles: 137464440 heartbeat IPC: 3.699 cumulative IPC: 3.681 (Simulation time: 00 hr 33 min 25 sec)
Heartbeat CPU 0 instructions: 520000004 cycles: 140167912 heartbeat IPC: 3.699 cumulative IPC: 3.681 (Simulation time: 00 hr 34 min 14 sec)
Heartbeat CPU 0 instructions: 530000000 cycles: 142871569 heartbeat IPC: 3.699 cumulative IPC: 3.682 (Simulation time: 00 hr 34 min 52 sec)
Heartbeat CPU 0 instructions: 540000000 cycles: 145577531 heartbeat IPC: 3.696 cumulative IPC: 3.682 (Simulation time: 00 hr 35 min 32 sec)
Heartbeat CPU 0 instructions: 550000003 cycles: 148281229 heartbeat IPC: 3.699 cumulative IPC: 3.682 (Simulation time: 00 hr 36 min 09 sec)
Heartbeat CPU 0 instructions: 560000003 cycles: 150985018 heartbeat IPC: 3.699 cumulative IPC: 3.683 (Simulation time: 00 hr 36 min 48 sec)
Heartbeat CPU 0 instructions: 570000004 cycles: 153688357 heartbeat IPC: 3.699 cumulative IPC: 3.683 (Simulation time: 00 hr 37 min 26 sec)
Heartbeat CPU 0 instructions: 580000000 cycles: 156392061 heartbeat IPC: 3.699 cumulative IPC: 3.683 (Simulation time: 00 hr 38 min 05 sec)
Heartbeat CPU 0 instructions: 590000002 cycles: 159095644 heartbeat IPC: 3.699 cumulative IPC: 3.684 (Simulation time: 00 hr 38 min 43 sec)
*** Reached end of trace: (0, "traces/convolution.champsimtrace")
Heartbeat CPU 0 instructions: 600000000 cycles: 161808152 heartbeat IPC: 3.687 cumulative IPC: 3.684 (Simulation time: 00 hr 39 min 22 sec)
Heartbeat CPU 0 instructions: 610000002 cycles: 185559808 heartbeat IPC: 0.421 cumulative IPC: 3.236 (Simulation time: 00 hr 42 min 42 sec)
Heartbeat CPU 0 instructions: 620000001 cycles: 206516097 heartbeat IPC: 0.4772 cumulative IPC: 2.938 (Simulation time: 00 hr 45 min 44 sec)
Heartbeat CPU 0 instructions: 630000001 cycles: 217634122 heartbeat IPC: 0.8994 cumulative IPC: 2.827 (Simulation time: 00 hr 47 min 26 sec)
Heartbeat CPU 0 instructions: 640000004 cycles: 228054802 heartbeat IPC: 0.9596 cumulative IPC: 2.737 (Simulation time: 00 hr 49 min 07 sec)
Heartbeat CPU 0 instructions: 650000001 cycles: 238442918 heartbeat IPC: 0.9626 cumulative IPC: 2.656 (Simulation time: 00 hr 50 min 50 sec)
Simulation finished CPU 0 instructions: 600000001 cycles: 225942716 cumulative IPC: 2.656 (Simulation time: 00 hr 50 min 50 sec)
Simulation complete CPU 0 instructions: 600000001 cycles: 225942716 cumulative IPC: 2.656 (Simulation time: 00 hr 50 min 50 sec)

ChampSim completed all CPUs

=== Simulation ===
CPU 0 runs traces/convolution.champsimtrace
Region of Interest Statistics

CPU 0 cumulative IPC: 2.656 instructions: 600000001 cycles: 225942716
CPU 0 Branch Prediction Accuracy: 99.3% MPKI: 1.265 Average ROB Occupancy at Mispredict: 63.99
Branch type MPKI
BRANCH_DIRECT_JUMP: 0.000107
BRANCH_INDIRECT: 4.17e-05
BRANCH_CONDITIONAL: 1.26
BRANCH_DIRECT_CALL: 0.000103
BRANCH_INDIRECT_CALL: 8.33e-06
BRANCH_RETURN: 1.83e-05

LLC TOTAL        ACCESS:    1185101 HIT:     536865 MISS:     648236
LLC LOAD         ACCESS:       2889 HIT:        584 MISS:       2305
LLC RFO          ACCESS:     535120 HIT:         28 MISS:     535092
LLC PREFETCH     ACCESS:       2107 HIT:        582 MISS:       1525
LLC WRITE        ACCESS:     535172 HIT:     535070 MISS:        102
LLC TRANSLATION  ACCESS:     109813 HIT:        601 MISS:     109212
LLC PREFETCH REQUESTED:       2107 ISSUED:       2107 USEFUL:        806 USELESS:         46
LLC AVERAGE MISS LATENCY: 980.6 cycles
cpu0_DTLB TOTAL        ACCESS:  121562400 HIT:  121209205 MISS:     353195
cpu0_DTLB LOAD         ACCESS:  121562400 HIT:  121209205 MISS:     353195
cpu0_DTLB RFO          ACCESS:          0 HIT:          0 MISS:          0
cpu0_DTLB PREFETCH     ACCESS:          0 HIT:          0 MISS:          0
cpu0_DTLB WRITE        ACCESS:          0 HIT:          0 MISS:          0
cpu0_DTLB TRANSLATION  ACCESS:          0 HIT:          0 MISS:          0
cpu0_DTLB PREFETCH REQUESTED:          0 ISSUED:          0 USEFUL:          0 USELESS:          0
cpu0_DTLB AVERAGE MISS LATENCY: 638.2 cycles
cpu0_ITLB TOTAL        ACCESS:       2031 HIT:       1997 MISS:         34
cpu0_ITLB LOAD         ACCESS:       2031 HIT:       1997 MISS:         34
cpu0_ITLB RFO          ACCESS:          0 HIT:          0 MISS:          0
cpu0_ITLB PREFETCH     ACCESS:          0 HIT:          0 MISS:          0
cpu0_ITLB WRITE        ACCESS:          0 HIT:          0 MISS:          0
cpu0_ITLB TRANSLATION  ACCESS:          0 HIT:          0 MISS:          0
cpu0_ITLB PREFETCH REQUESTED:          0 ISSUED:          0 USEFUL:          0 USELESS:          0
cpu0_ITLB AVERAGE MISS LATENCY: 689.7 cycles
cpu0_L1D TOTAL        ACCESS:  162713116 HIT:  156545291 MISS:    6167825
cpu0_L1D LOAD         ACCESS:   90495588 HIT:   90489111 MISS:       6477
cpu0_L1D RFO          ACCESS:          0 HIT:          0 MISS:          0
cpu0_L1D PREFETCH     ACCESS:          0 HIT:          0 MISS:          0
cpu0_L1D WRITE        ACCESS:   72036878 HIT:   66017950 MISS:    6018928
cpu0_L1D TRANSLATION  ACCESS:     180650 HIT:      38230 MISS:     142420
cpu0_L1D PREFETCH REQUESTED:          0 ISSUED:          0 USEFUL:          0 USELESS:          0
cpu0_L1D AVERAGE MISS LATENCY: 78.1 cycles
cpu0_L1I TOTAL        ACCESS:       2350 HIT:       1021 MISS:       1329
cpu0_L1I LOAD         ACCESS:       2350 HIT:       1021 MISS:       1329
cpu0_L1I RFO          ACCESS:          0 HIT:          0 MISS:          0
cpu0_L1I PREFETCH     ACCESS:          0 HIT:          0 MISS:          0
cpu0_L1I WRITE        ACCESS:          0 HIT:          0 MISS:          0
cpu0_L1I TRANSLATION  ACCESS:          0 HIT:          0 MISS:          0
cpu0_L1I PREFETCH REQUESTED:          0 ISSUED:          0 USEFUL:          0 USELESS:          0
cpu0_L1I AVERAGE MISS LATENCY: 644.7 cycles
cpu0_L2C TOTAL        ACCESS:    1190778 HIT:     542936 MISS:     647842
cpu0_L2C LOAD         ACCESS:       3313 HIT:        424 MISS:       2889
cpu0_L2C RFO          ACCESS:     538096 HIT:       2975 MISS:     535121
cpu0_L2C PREFETCH     ACCESS:          0 HIT:          0 MISS:          0
cpu0_L2C WRITE        ACCESS:     538221 HIT:     538203 MISS:         18
cpu0_L2C TRANSLATION  ACCESS:     111148 HIT:       1334 MISS:     109814
cpu0_L2C PREFETCH REQUESTED:          0 ISSUED:          0 USEFUL:          0 USELESS:          0
cpu0_L2C AVERAGE MISS LATENCY: 1001 cycles
cpu0_STLB TOTAL        ACCESS:     156150 HIT:         42 MISS:     156108
cpu0_STLB LOAD         ACCESS:     156150 HIT:         42 MISS:     156108
cpu0_STLB RFO          ACCESS:          0 HIT:          0 MISS:          0
cpu0_STLB PREFETCH     ACCESS:          0 HIT:          0 MISS:          0
cpu0_STLB WRITE        ACCESS:          0 HIT:          0 MISS:          0
cpu0_STLB TRANSLATION  ACCESS:          0 HIT:          0 MISS:          0
cpu0_STLB PREFETCH REQUESTED:          0 ISSUED:          0 USEFUL:          0 USELESS:          0
cpu0_STLB AVERAGE MISS LATENCY: 1643 cycles

DRAM Statistics

Channel 0 RQ ROW_BUFFER_HIT:     140922
  ROW_BUFFER_MISS:     506318
 AVG DBUS CONGESTED CYCLE: 3.978
WQ ROW_BUFFER_HIT: Channel 0 
  ROW_BUFFER_MISS:     104679
  FULL:     430492
