WARNING: physical memory size is smaller than virtual memory size.

*** ChampSim Multicore Out-of-Order Simulator ***
Warmup Instructions: 50000000
Simulation Instructions: 600000000
Number of CPUs: 1
Page size: 4096

Off-chip DRAM Size: 4 GiB Channels: 1 Width: 64-bit Data Race: 3200 MT/s
Heartbeat CPU 0 instructions: 10000000 cycles: 2500202 heartbeat IPC: 4 cumulative IPC: 4 (Simulation time: 00 hr 00 min 35 sec)
Heartbeat CPU 0 instructions: 20000000 cycles: 5000202 heartbeat IPC: 4 cumulative IPC: 4 (Simulation time: 00 hr 01 min 07 sec)
Heartbeat CPU 0 instructions: 30000000 cycles: 7500202 heartbeat IPC: 4 cumulative IPC: 4 (Simulation time: 00 hr 01 min 38 sec)
Heartbeat CPU 0 instructions: 40000000 cycles: 10000202 heartbeat IPC: 4 cumulative IPC: 4 (Simulation time: 00 hr 02 min 12 sec)
Heartbeat CPU 0 instructions: 50000000 cycles: 12500202 heartbeat IPC: 4 cumulative IPC: 4 (Simulation time: 00 hr 02 min 46 sec)
Warmup finished CPU 0 instructions: 50000000 cycles: 12500203 cumulative IPC: 4 (Simulation time: 00 hr 02 min 46 sec)
Warmup complete CPU 0 instructions: 50000000 cycles: 12500203 cumulative IPC: 4 (Simulation time: 00 hr 02 min 46 sec)
Heartbeat CPU 0 instructions: 60000002 cycles: 15733989 heartbeat IPC: 3.092 cumulative IPC: 3.092 (Simulation time: 00 hr 03 min 27 sec)
Heartbeat CPU 0 instructions: 70000002 cycles: 18394603 heartbeat IPC: 3.759 cumulative IPC: 3.393 (Simulation time: 00 hr 04 min 05 sec)
Heartbeat CPU 0 instructions: 80000003 cycles: 21048034 heartbeat IPC: 3.769 cumulative IPC: 3.51 (Simulation time: 00 hr 04 min 45 sec)
Heartbeat CPU 0 instructions: 90000004 cycles: 23703674 heartbeat IPC: 3.766 cumulative IPC: 3.57 (Simulation time: 00 hr 05 min 25 sec)
Heartbeat CPU 0 instructions: 100000003 cycles: 26360106 heartbeat IPC: 3.764 cumulative IPC: 3.608 (Simulation time: 00 hr 06 min 05 sec)
Heartbeat CPU 0 instructions: 110000000 cycles: 29022826 heartbeat IPC: 3.756 cumulative IPC: 3.631 (Simulation time: 00 hr 06 min 42 sec)
Heartbeat CPU 0 instructions: 120000000 cycles: 31681809 heartbeat IPC: 3.761 cumulative IPC: 3.649 (Simulation time: 00 hr 07 min 21 sec)
Heartbeat CPU 0 instructions: 130000000 cycles: 34336401 heartbeat IPC: 3.767 cumulative IPC: 3.664 (Simulation time: 00 hr 08 min 04 sec)
Heartbeat CPU 0 instructions: 140000001 cycles: 36994912 heartbeat IPC: 3.762 cumulative IPC: 3.674 (Simulation time: 00 hr 08 min 44 sec)
Heartbeat CPU 0 instructions: 150000003 cycles: 39651735 heartbeat IPC: 3.764 cumulative IPC: 3.683 (Simulation time: 00 hr 09 min 21 sec)
Heartbeat CPU 0 instructions: 160000003 cycles: 42310351 heartbeat IPC: 3.761 cumulative IPC: 3.69 (Simulation time: 00 hr 09 min 57 sec)
Heartbeat CPU 0 instructions: 170000001 cycles: 44965340 heartbeat IPC: 3.766 cumulative IPC: 3.696 (Simulation time: 00 hr 10 min 34 sec)
Heartbeat CPU 0 instructions: 180000001 cycles: 47619611 heartbeat IPC: 3.768 cumulative IPC: 3.702 (Simulation time: 00 hr 11 min 14 sec)
Heartbeat CPU 0 instructions: 190000002 cycles: 50273195 heartbeat IPC: 3.768 cumulative IPC: 3.706 (Simulation time: 00 hr 11 min 56 sec)
Heartbeat CPU 0 instructions: 200000001 cycles: 52928034 heartbeat IPC: 3.767 cumulative IPC: 3.71 (Simulation time: 00 hr 12 min 34 sec)
Heartbeat CPU 0 instructions: 210000000 cycles: 55585667 heartbeat IPC: 3.763 cumulative IPC: 3.714 (Simulation time: 00 hr 13 min 18 sec)
Heartbeat CPU 0 instructions: 220000001 cycles: 58239466 heartbeat IPC: 3.768 cumulative IPC: 3.717 (Simulation time: 00 hr 13 min 58 sec)
Heartbeat CPU 0 instructions: 230000002 cycles: 60895915 heartbeat IPC: 3.764 cumulative IPC: 3.719 (Simulation time: 00 hr 14 min 36 sec)
Heartbeat CPU 0 instructions: 240000004 cycles: 63553919 heartbeat IPC: 3.762 cumulative IPC: 3.722 (Simulation time: 00 hr 15 min 15 sec)
Heartbeat CPU 0 instructions: 250000000 cycles: 66212176 heartbeat IPC: 3.762 cumulative IPC: 3.724 (Simulation time: 00 hr 15 min 52 sec)
Heartbeat CPU 0 instructions: 260000000 cycles: 68867936 heartbeat IPC: 3.765 cumulative IPC: 3.726 (Simulation time: 00 hr 16 min 29 sec)
Heartbeat CPU 0 instructions: 270000002 cycles: 71521133 heartbeat IPC: 3.769 cumulative IPC: 3.727 (Simulation time: 00 hr 17 min 08 sec)
Heartbeat CPU 0 instructions: 280000003 cycles: 74178250 heartbeat IPC: 3.763 cumulative IPC: 3.729 (Simulation time: 00 hr 17 min 45 sec)
Heartbeat CPU 0 instructions: 290000002 cycles: 76831792 heartbeat IPC: 3.769 cumulative IPC: 3.731 (Simulation time: 00 hr 18 min 21 sec)
Heartbeat CPU 0 instructions: 300000000 cycles: 79489625 heartbeat IPC: 3.762 cumulative IPC: 3.732 (Simulation time: 00 hr 18 min 57 sec)
Heartbeat CPU 0 instructions: 310000002 cycles: 82145179 heartbeat IPC: 3.766 cumulative IPC: 3.733 (Simulation time: 00 hr 19 min 32 sec)
Heartbeat CPU 0 instructions: 320000004 cycles: 84799732 heartbeat IPC: 3.767 cumulative IPC: 3.734 (Simulation time: 00 hr 20 min 08 sec)
Heartbeat CPU 0 instructions: 330000000 cycles: 87453788 heartbeat IPC: 3.768 cumulative IPC: 3.736 (Simulation time: 00 hr 20 min 44 sec)
Heartbeat CPU 0 instructions: 340000002 cycles: 90106940 heartbeat IPC: 3.769 cumulative IPC: 3.737 (Simulation time: 00 hr 21 min 23 sec)
Heartbeat CPU 0 instructions: 350000002 cycles: 92765080 heartbeat IPC: 3.762 cumulative IPC: 3.738 (Simulation time: 00 hr 22 min 01 sec)
Heartbeat CPU 0 instructions: 360000001 cycles: 95423120 heartbeat IPC: 3.762 cumulative IPC: 3.738 (Simulation time: 00 hr 22 min 39 sec)
Heartbeat CPU 0 instructions: 370000004 cycles: 98076976 heartbeat IPC: 3.768 cumulative IPC: 3.739 (Simulation time: 00 hr 23 min 15 sec)
Heartbeat CPU 0 instructions: 380000000 cycles: 100731033 heartbeat IPC: 3.768 cumulative IPC: 3.74 (Simulation time: 00 hr 23 min 50 sec)
Heartbeat CPU 0 instructions: 390000003 cycles: 103384138 heartbeat IPC: 3.769 cumulative IPC: 3.741 (Simulation time: 00 hr 24 min 26 sec)
Heartbeat CPU 0 instructions: 400000000 cycles: 106041015 heartbeat IPC: 3.764 cumulative IPC: 3.742 (Simulation time: 00 hr 25 min 02 sec)
Heartbeat CPU 0 instructions: 410000000 cycles: 108697920 heartbeat IPC: 3.764 cumulative IPC: 3.742 (Simulation time: 00 hr 25 min 38 sec)
Heartbeat CPU 0 instructions: 420000001 cycles: 111358623 heartbeat IPC: 3.758 cumulative IPC: 3.743 (Simulation time: 00 hr 26 min 14 sec)
Heartbeat CPU 0 instructions: 430000003 cycles: 114012468 heartbeat IPC: 3.768 cumulative IPC: 3.743 (Simulation time: 00 hr 26 min 50 sec)
Heartbeat CPU 0 instructions: 440000003 cycles: 116671962 heartbeat IPC: 3.76 cumulative IPC: 3.744 (Simulation time: 00 hr 27 min 26 sec)
Heartbeat CPU 0 instructions: 450000004 cycles: 119331779 heartbeat IPC: 3.76 cumulative IPC: 3.744 (Simulation time: 00 hr 28 min 04 sec)
Heartbeat CPU 0 instructions: 460000001 cycles: 121989516 heartbeat IPC: 3.763 cumulative IPC: 3.745 (Simulation time: 00 hr 28 min 42 sec)
Heartbeat CPU 0 instructions: 470000002 cycles: 124644182 heartbeat IPC: 3.767 cumulative IPC: 3.745 (Simulation time: 00 hr 29 min 22 sec)
Heartbeat CPU 0 instructions: 480000001 cycles: 127300072 heartbeat IPC: 3.765 cumulative IPC: 3.746 (Simulation time: 00 hr 29 min 59 sec)
Heartbeat CPU 0 instructions: 490000000 cycles: 129958120 heartbeat IPC: 3.762 cumulative IPC: 3.746 (Simulation time: 00 hr 30 min 37 sec)
Heartbeat CPU 0 instructions: 500000002 cycles: 132615186 heartbeat IPC: 3.764 cumulative IPC: 3.746 (Simulation time: 00 hr 31 min 14 sec)
Heartbeat CPU 0 instructions: 510000003 cycles: 135271691 heartbeat IPC: 3.764 cumulative IPC: 3.747 (Simulation time: 00 hr 31 min 49 sec)
Heartbeat CPU 0 instructions: 520000004 cycles: 137927088 heartbeat IPC: 3.766 cumulative IPC: 3.747 (Simulation time: 00 hr 32 min 27 sec)
Heartbeat CPU 0 instructions: 530000000 cycles: 140586917 heartbeat IPC: 3.76 cumulative IPC: 3.747 (Simulation time: 00 hr 33 min 04 sec)
Heartbeat CPU 0 instructions: 540000000 cycles: 143244515 heartbeat IPC: 3.763 cumulative IPC: 3.748 (Simulation time: 00 hr 33 min 41 sec)
Heartbeat CPU 0 instructions: 550000003 cycles: 145898435 heartbeat IPC: 3.768 cumulative IPC: 3.748 (Simulation time: 00 hr 34 min 21 sec)
Heartbeat CPU 0 instructions: 560000003 cycles: 148553266 heartbeat IPC: 3.767 cumulative IPC: 3.749 (Simulation time: 00 hr 35 min 01 sec)
Heartbeat CPU 0 instructions: 570000004 cycles: 151212858 heartbeat IPC: 3.76 cumulative IPC: 3.749 (Simulation time: 00 hr 35 min 38 sec)
Heartbeat CPU 0 instructions: 580000000 cycles: 153868091 heartbeat IPC: 3.766 cumulative IPC: 3.749 (Simulation time: 00 hr 36 min 15 sec)
Heartbeat CPU 0 instructions: 590000002 cycles: 156522362 heartbeat IPC: 3.768 cumulative IPC: 3.749 (Simulation time: 00 hr 36 min 55 sec)
*** Reached end of trace: (0, "traces/convolution.champsimtrace")
Heartbeat CPU 0 instructions: 600000000 cycles: 159182437 heartbeat IPC: 3.759 cumulative IPC: 3.75 (Simulation time: 00 hr 37 min 32 sec)
Heartbeat CPU 0 instructions: 610000002 cycles: 180613233 heartbeat IPC: 0.4666 cumulative IPC: 3.331 (Simulation time: 00 hr 40 min 26 sec)
Heartbeat CPU 0 instructions: 620000001 cycles: 199587852 heartbeat IPC: 0.527 cumulative IPC: 3.047 (Simulation time: 00 hr 43 min 06 sec)
Heartbeat CPU 0 instructions: 630000001 cycles: 205951101 heartbeat IPC: 1.572 cumulative IPC: 2.998 (Simulation time: 00 hr 44 min 17 sec)
Heartbeat CPU 0 instructions: 640000004 cycles: 216493689 heartbeat IPC: 0.9485 cumulative IPC: 2.892 (Simulation time: 00 hr 46 min 01 sec)
Heartbeat CPU 0 instructions: 650000001 cycles: 227257777 heartbeat IPC: 0.929 cumulative IPC: 2.794 (Simulation time: 00 hr 47 min 40 sec)
Simulation finished CPU 0 instructions: 600000001 cycles: 214757575 cumulative IPC: 2.794 (Simulation time: 00 hr 47 min 40 sec)
Simulation complete CPU 0 instructions: 600000001 cycles: 214757575 cumulative IPC: 2.794 (Simulation time: 00 hr 47 min 40 sec)

ChampSim completed all CPUs

=== Simulation ===
CPU 0 runs traces/convolution.champsimtrace
Region of Interest Statistics

CPU 0 cumulative IPC: 2.794 instructions: 600000001 cycles: 214757575
CPU 0 Branch Prediction Accuracy: 99.47% MPKI: 0.9507 Average ROB Occupancy at Mispredict: 69.13
Branch type MPKI
BRANCH_DIRECT_JUMP: 0.000107
BRANCH_INDIRECT: 4.17e-05
BRANCH_CONDITIONAL: 0.95
BRANCH_DIRECT_CALL: 0.000103
BRANCH_INDIRECT_CALL: 8.33e-06
BRANCH_RETURN: 1.83e-05

LLC TOTAL        ACCESS:    1182916 HIT:      64183 MISS:    1118733
LLC LOAD         ACCESS:       2887 HIT:         67 MISS:       2820
LLC RFO          ACCESS:     535121 HIT:      30815 MISS:     504306
LLC PREFETCH     ACCESS:          0 HIT:          0 MISS:          0
LLC WRITE        ACCESS:     535175 HIT:      32857 MISS:     502318
LLC TRANSLATION  ACCESS:     109733 HIT:        444 MISS:     109289
LLC PREFETCH REQUESTED:          0 ISSUED:          0 USEFUL:          0 USELESS:          0
LLC AVERAGE MISS LATENCY: 528.6 cycles
cpu0_DTLB TOTAL        ACCESS:  120131553 HIT:  119779134 MISS:     352419
cpu0_DTLB LOAD         ACCESS:  120131553 HIT:  119779134 MISS:     352419
cpu0_DTLB RFO          ACCESS:          0 HIT:          0 MISS:          0
cpu0_DTLB PREFETCH     ACCESS:          0 HIT:          0 MISS:          0
cpu0_DTLB WRITE        ACCESS:          0 HIT:          0 MISS:          0
cpu0_DTLB TRANSLATION  ACCESS:          0 HIT:          0 MISS:          0
cpu0_DTLB PREFETCH REQUESTED:          0 ISSUED:          0 USEFUL:          0 USELESS:          0
cpu0_DTLB AVERAGE MISS LATENCY: 576.4 cycles
cpu0_ITLB TOTAL        ACCESS:       2009 HIT:       1977 MISS:         32
cpu0_ITLB LOAD         ACCESS:       2009 HIT:       1977 MISS:         32
cpu0_ITLB RFO          ACCESS:          0 HIT:          0 MISS:          0
cpu0_ITLB PREFETCH     ACCESS:          0 HIT:          0 MISS:          0
cpu0_ITLB WRITE        ACCESS:          0 HIT:          0 MISS:          0
cpu0_ITLB TRANSLATION  ACCESS:          0 HIT:          0 MISS:          0
cpu0_ITLB PREFETCH REQUESTED:          0 ISSUED:          0 USEFUL:          0 USELESS:          0
cpu0_ITLB AVERAGE MISS LATENCY: 758.6 cycles
cpu0_L1D TOTAL        ACCESS:  161219290 HIT:  155077467 MISS:    6141823
cpu0_L1D LOAD         ACCESS:   88994226 HIT:   88987968 MISS:       6258
cpu0_L1D RFO          ACCESS:          0 HIT:          0 MISS:          0
cpu0_L1D PREFETCH     ACCESS:          0 HIT:          0 MISS:          0
cpu0_L1D WRITE        ACCESS:   72044334 HIT:   66050769 MISS:    5993565
cpu0_L1D TRANSLATION  ACCESS:     180730 HIT:      38730 MISS:     142000
cpu0_L1D PREFETCH REQUESTED:          0 ISSUED:          0 USEFUL:          0 USELESS:          0
cpu0_L1D AVERAGE MISS LATENCY: 74.32 cycles
cpu0_L1I TOTAL        ACCESS:       2305 HIT:       1011 MISS:       1294
cpu0_L1I LOAD         ACCESS:       2305 HIT:       1011 MISS:       1294
cpu0_L1I RFO          ACCESS:          0 HIT:          0 MISS:          0
cpu0_L1I PREFETCH     ACCESS:          0 HIT:          0 MISS:          0
cpu0_L1I WRITE        ACCESS:          0 HIT:          0 MISS:          0
cpu0_L1I TRANSLATION  ACCESS:          0 HIT:          0 MISS:          0
cpu0_L1I PREFETCH REQUESTED:          0 ISSUED:          0 USEFUL:          0 USELESS:          0
cpu0_L1I AVERAGE MISS LATENCY: 604.7 cycles
cpu0_L2C TOTAL        ACCESS:    1190666 HIT:     542907 MISS:     647759
cpu0_L2C LOAD         ACCESS:       3312 HIT:        425 MISS:       2887
cpu0_L2C RFO          ACCESS:     538072 HIT:       2951 MISS:     535121
cpu0_L2C PREFETCH     ACCESS:          0 HIT:          0 MISS:          0
cpu0_L2C WRITE        ACCESS:     538213 HIT:     538196 MISS:         17
cpu0_L2C TRANSLATION  ACCESS:     111069 HIT:       1335 MISS:     109734
cpu0_L2C PREFETCH REQUESTED:          0 ISSUED:          0 USEFUL:          0 USELESS:          0
cpu0_L2C AVERAGE MISS LATENCY: 933.9 cycles
cpu0_STLB TOTAL        ACCESS:     156153 HIT:         44 MISS:     156109
cpu0_STLB LOAD         ACCESS:     156153 HIT:         44 MISS:     156109
cpu0_STLB RFO          ACCESS:          0 HIT:          0 MISS:          0
cpu0_STLB PREFETCH     ACCESS:          0 HIT:          0 MISS:          0
cpu0_STLB WRITE        ACCESS:          0 HIT:          0 MISS:          0
cpu0_STLB TRANSLATION  ACCESS:          0 HIT:          0 MISS:          0
cpu0_STLB PREFETCH REQUESTED:          0 ISSUED:          0 USEFUL:          0 USELESS:          0
cpu0_STLB AVERAGE MISS LATENCY: 1470 cycles

DRAM Statistics

Channel 0 RQ ROW_BUFFER_HIT:     141798
  ROW_BUFFER_MISS:     474612
 AVG DBUS CONGESTED CYCLE: 3.975
WQ ROW_BUFFER_HIT: Channel 0 
  ROW_BUFFER_MISS:     124238
  FULL:     380023
