WARNING: physical memory size is smaller than virtual memory size.

*** ChampSim Multicore Out-of-Order Simulator ***
Warmup Instructions: 50000000
Simulation Instructions: 600000000
Number of CPUs: 1
Page size: 4096

Off-chip DRAM Size: 4 GiB Channels: 1 Width: 64-bit Data Race: 3200 MT/s
Heartbeat CPU 0 instructions: 10000000 cycles: 2500202 heartbeat IPC: 4 cumulative IPC: 4 (Simulation time: 00 hr 00 min 30 sec)
Heartbeat CPU 0 instructions: 20000000 cycles: 5000202 heartbeat IPC: 4 cumulative IPC: 4 (Simulation time: 00 hr 00 min 59 sec)
Heartbeat CPU 0 instructions: 30000000 cycles: 7500202 heartbeat IPC: 4 cumulative IPC: 4 (Simulation time: 00 hr 01 min 32 sec)
Heartbeat CPU 0 instructions: 40000000 cycles: 10000202 heartbeat IPC: 4 cumulative IPC: 4 (Simulation time: 00 hr 02 min 05 sec)
Heartbeat CPU 0 instructions: 50000000 cycles: 12500202 heartbeat IPC: 4 cumulative IPC: 4 (Simulation time: 00 hr 02 min 38 sec)
Warmup finished CPU 0 instructions: 50000000 cycles: 12500203 cumulative IPC: 4 (Simulation time: 00 hr 02 min 38 sec)
Warmup complete CPU 0 instructions: 50000000 cycles: 12500203 cumulative IPC: 4 (Simulation time: 00 hr 02 min 38 sec)
Heartbeat CPU 0 instructions: 60000002 cycles: 15764863 heartbeat IPC: 3.063 cumulative IPC: 3.063 (Simulation time: 00 hr 03 min 18 sec)
Heartbeat CPU 0 instructions: 70000002 cycles: 18470023 heartbeat IPC: 3.697 cumulative IPC: 3.35 (Simulation time: 00 hr 03 min 55 sec)
Heartbeat CPU 0 instructions: 80000003 cycles: 21173620 heartbeat IPC: 3.699 cumulative IPC: 3.459 (Simulation time: 00 hr 04 min 33 sec)
Heartbeat CPU 0 instructions: 90000004 cycles: 23877183 heartbeat IPC: 3.699 cumulative IPC: 3.516 (Simulation time: 00 hr 05 min 14 sec)
Heartbeat CPU 0 instructions: 100000003 cycles: 26582708 heartbeat IPC: 3.696 cumulative IPC: 3.551 (Simulation time: 00 hr 05 min 49 sec)
Heartbeat CPU 0 instructions: 110000000 cycles: 29287464 heartbeat IPC: 3.697 cumulative IPC: 3.574 (Simulation time: 00 hr 06 min 25 sec)
Heartbeat CPU 0 instructions: 120000000 cycles: 31990818 heartbeat IPC: 3.699 cumulative IPC: 3.591 (Simulation time: 00 hr 07 min 00 sec)
Heartbeat CPU 0 instructions: 130000000 cycles: 34694439 heartbeat IPC: 3.699 cumulative IPC: 3.605 (Simulation time: 00 hr 07 min 35 sec)
Heartbeat CPU 0 instructions: 140000001 cycles: 37397988 heartbeat IPC: 3.699 cumulative IPC: 3.615 (Simulation time: 00 hr 08 min 10 sec)
Heartbeat CPU 0 instructions: 150000003 cycles: 40101572 heartbeat IPC: 3.699 cumulative IPC: 3.623 (Simulation time: 00 hr 08 min 46 sec)
Heartbeat CPU 0 instructions: 160000003 cycles: 42807293 heartbeat IPC: 3.696 cumulative IPC: 3.63 (Simulation time: 00 hr 09 min 21 sec)
Heartbeat CPU 0 instructions: 170000001 cycles: 45511051 heartbeat IPC: 3.699 cumulative IPC: 3.635 (Simulation time: 00 hr 09 min 56 sec)
Heartbeat CPU 0 instructions: 180000001 cycles: 48214624 heartbeat IPC: 3.699 cumulative IPC: 3.64 (Simulation time: 00 hr 10 min 32 sec)
Heartbeat CPU 0 instructions: 190000002 cycles: 50918983 heartbeat IPC: 3.698 cumulative IPC: 3.644 (Simulation time: 00 hr 11 min 08 sec)
Heartbeat CPU 0 instructions: 200000001 cycles: 53622569 heartbeat IPC: 3.699 cumulative IPC: 3.648 (Simulation time: 00 hr 11 min 43 sec)
Heartbeat CPU 0 instructions: 210000000 cycles: 56329654 heartbeat IPC: 3.694 cumulative IPC: 3.651 (Simulation time: 00 hr 12 min 18 sec)
Heartbeat CPU 0 instructions: 220000001 cycles: 59033011 heartbeat IPC: 3.699 cumulative IPC: 3.653 (Simulation time: 00 hr 12 min 53 sec)
Heartbeat CPU 0 instructions: 230000002 cycles: 61736633 heartbeat IPC: 3.699 cumulative IPC: 3.656 (Simulation time: 00 hr 13 min 29 sec)
Heartbeat CPU 0 instructions: 240000004 cycles: 64440266 heartbeat IPC: 3.699 cumulative IPC: 3.658 (Simulation time: 00 hr 14 min 04 sec)
Heartbeat CPU 0 instructions: 250000000 cycles: 67146226 heartbeat IPC: 3.696 cumulative IPC: 3.66 (Simulation time: 00 hr 14 min 39 sec)
Heartbeat CPU 0 instructions: 260000000 cycles: 69850597 heartbeat IPC: 3.698 cumulative IPC: 3.662 (Simulation time: 00 hr 15 min 14 sec)
Heartbeat CPU 0 instructions: 270000002 cycles: 72553960 heartbeat IPC: 3.699 cumulative IPC: 3.663 (Simulation time: 00 hr 15 min 49 sec)
Heartbeat CPU 0 instructions: 280000003 cycles: 75257585 heartbeat IPC: 3.699 cumulative IPC: 3.665 (Simulation time: 00 hr 16 min 24 sec)
Heartbeat CPU 0 instructions: 290000003 cycles: 77961240 heartbeat IPC: 3.699 cumulative IPC: 3.666 (Simulation time: 00 hr 17 min 00 sec)
Heartbeat CPU 0 instructions: 300000000 cycles: 80667539 heartbeat IPC: 3.695 cumulative IPC: 3.667 (Simulation time: 00 hr 17 min 35 sec)
Heartbeat CPU 0 instructions: 310000002 cycles: 83370786 heartbeat IPC: 3.699 cumulative IPC: 3.669 (Simulation time: 00 hr 18 min 15 sec)
Heartbeat CPU 0 instructions: 320000004 cycles: 86074163 heartbeat IPC: 3.699 cumulative IPC: 3.67 (Simulation time: 00 hr 18 min 50 sec)
Heartbeat CPU 0 instructions: 330000000 cycles: 88777773 heartbeat IPC: 3.699 cumulative IPC: 3.671 (Simulation time: 00 hr 19 min 25 sec)
Heartbeat CPU 0 instructions: 340000002 cycles: 91482947 heartbeat IPC: 3.697 cumulative IPC: 3.672 (Simulation time: 00 hr 20 min 02 sec)
Heartbeat CPU 0 instructions: 350000002 cycles: 94186392 heartbeat IPC: 3.699 cumulative IPC: 3.673 (Simulation time: 00 hr 20 min 37 sec)
Heartbeat CPU 0 instructions: 360000001 cycles: 96892298 heartbeat IPC: 3.696 cumulative IPC: 3.673 (Simulation time: 00 hr 21 min 13 sec)
Heartbeat CPU 0 instructions: 370000004 cycles: 99595647 heartbeat IPC: 3.699 cumulative IPC: 3.674 (Simulation time: 00 hr 21 min 48 sec)
Heartbeat CPU 0 instructions: 380000000 cycles: 102299215 heartbeat IPC: 3.699 cumulative IPC: 3.675 (Simulation time: 00 hr 22 min 23 sec)
Heartbeat CPU 0 instructions: 390000004 cycles: 105002935 heartbeat IPC: 3.699 cumulative IPC: 3.676 (Simulation time: 00 hr 22 min 59 sec)
Heartbeat CPU 0 instructions: 400000000 cycles: 107709540 heartbeat IPC: 3.695 cumulative IPC: 3.676 (Simulation time: 00 hr 23 min 34 sec)
Heartbeat CPU 0 instructions: 410000000 cycles: 110413198 heartbeat IPC: 3.699 cumulative IPC: 3.677 (Simulation time: 00 hr 24 min 09 sec)
Heartbeat CPU 0 instructions: 420000001 cycles: 113116644 heartbeat IPC: 3.699 cumulative IPC: 3.677 (Simulation time: 00 hr 24 min 45 sec)
Heartbeat CPU 0 instructions: 430000003 cycles: 115820352 heartbeat IPC: 3.699 cumulative IPC: 3.678 (Simulation time: 00 hr 25 min 20 sec)
Heartbeat CPU 0 instructions: 440000003 cycles: 118524045 heartbeat IPC: 3.699 cumulative IPC: 3.678 (Simulation time: 00 hr 25 min 55 sec)
Heartbeat CPU 0 instructions: 450000004 cycles: 121230013 heartbeat IPC: 3.696 cumulative IPC: 3.679 (Simulation time: 00 hr 26 min 29 sec)
Heartbeat CPU 0 instructions: 460000001 cycles: 123933370 heartbeat IPC: 3.699 cumulative IPC: 3.679 (Simulation time: 00 hr 27 min 05 sec)
Heartbeat CPU 0 instructions: 470000002 cycles: 126636846 heartbeat IPC: 3.699 cumulative IPC: 3.68 (Simulation time: 00 hr 27 min 39 sec)
Heartbeat CPU 0 instructions: 480000001 cycles: 129340595 heartbeat IPC: 3.699 cumulative IPC: 3.68 (Simulation time: 00 hr 28 min 14 sec)
Heartbeat CPU 0 instructions: 490000000 cycles: 132044637 heartbeat IPC: 3.698 cumulative IPC: 3.681 (Simulation time: 00 hr 28 min 49 sec)
Heartbeat CPU 0 instructions: 500000002 cycles: 134750810 heartbeat IPC: 3.695 cumulative IPC: 3.681 (Simulation time: 00 hr 29 min 24 sec)
Heartbeat CPU 0 instructions: 510000003 cycles: 137454135 heartbeat IPC: 3.699 cumulative IPC: 3.681 (Simulation time: 00 hr 30 min 00 sec)
Heartbeat CPU 0 instructions: 520000004 cycles: 140157607 heartbeat IPC: 3.699 cumulative IPC: 3.682 (Simulation time: 00 hr 30 min 35 sec)
Heartbeat CPU 0 instructions: 530000000 cycles: 142861264 heartbeat IPC: 3.699 cumulative IPC: 3.682 (Simulation time: 00 hr 31 min 10 sec)
Heartbeat CPU 0 instructions: 540000000 cycles: 145567081 heartbeat IPC: 3.696 cumulative IPC: 3.682 (Simulation time: 00 hr 31 min 46 sec)
Heartbeat CPU 0 instructions: 550000003 cycles: 148270465 heartbeat IPC: 3.699 cumulative IPC: 3.683 (Simulation time: 00 hr 32 min 21 sec)
Heartbeat CPU 0 instructions: 560000003 cycles: 150974255 heartbeat IPC: 3.699 cumulative IPC: 3.683 (Simulation time: 00 hr 32 min 56 sec)
Heartbeat CPU 0 instructions: 570000004 cycles: 153677594 heartbeat IPC: 3.699 cumulative IPC: 3.683 (Simulation time: 00 hr 33 min 31 sec)
Heartbeat CPU 0 instructions: 580000000 cycles: 156381298 heartbeat IPC: 3.699 cumulative IPC: 3.684 (Simulation time: 00 hr 34 min 07 sec)
Heartbeat CPU 0 instructions: 590000002 cycles: 159084881 heartbeat IPC: 3.699 cumulative IPC: 3.684 (Simulation time: 00 hr 34 min 42 sec)
*** Reached end of trace: (0, "traces/convolution.champsimtrace")
Heartbeat CPU 0 instructions: 600000000 cycles: 161798087 heartbeat IPC: 3.686 cumulative IPC: 3.684 (Simulation time: 00 hr 35 min 17 sec)
Heartbeat CPU 0 instructions: 610000002 cycles: 185778985 heartbeat IPC: 0.417 cumulative IPC: 3.232 (Simulation time: 00 hr 38 min 37 sec)
Heartbeat CPU 0 instructions: 620000001 cycles: 206746192 heartbeat IPC: 0.4769 cumulative IPC: 2.934 (Simulation time: 00 hr 41 min 37 sec)
Heartbeat CPU 0 instructions: 630000001 cycles: 217892458 heartbeat IPC: 0.8972 cumulative IPC: 2.824 (Simulation time: 00 hr 43 min 26 sec)
Heartbeat CPU 0 instructions: 640000004 cycles: 228362165 heartbeat IPC: 0.9551 cumulative IPC: 2.733 (Simulation time: 00 hr 45 min 08 sec)
Heartbeat CPU 0 instructions: 650000001 cycles: 238808964 heartbeat IPC: 0.9572 cumulative IPC: 2.651 (Simulation time: 00 hr 46 min 51 sec)
Simulation finished CPU 0 instructions: 600000001 cycles: 226308762 cumulative IPC: 2.651 (Simulation time: 00 hr 46 min 51 sec)
Simulation complete CPU 0 instructions: 600000001 cycles: 226308762 cumulative IPC: 2.651 (Simulation time: 00 hr 46 min 51 sec)

ChampSim completed all CPUs

=== Simulation ===
CPU 0 runs traces/convolution.champsimtrace
Region of Interest Statistics

CPU 0 cumulative IPC: 2.651 instructions: 600000001 cycles: 226308762
CPU 0 Branch Prediction Accuracy: 99.3% MPKI: 1.265 Average ROB Occupancy at Mispredict: 63.99
Branch type MPKI
BRANCH_DIRECT_JUMP: 0.000107
BRANCH_INDIRECT: 4.17e-05
BRANCH_CONDITIONAL: 1.26
BRANCH_DIRECT_CALL: 0.000103
BRANCH_INDIRECT_CALL: 8.33e-06
BRANCH_RETURN: 1.83e-05

LLC TOTAL        ACCESS:    1183176 HIT:     535748 MISS:     647428
LLC LOAD         ACCESS:       2887 HIT:          3 MISS:       2884
LLC RFO          ACCESS:     535121 HIT:         19 MISS:     535102
LLC PREFETCH     ACCESS:          0 HIT:          0 MISS:          0
LLC WRITE        ACCESS:     535173 HIT:     535150 MISS:         23
LLC TRANSLATION  ACCESS:     109995 HIT:        576 MISS:     109419
LLC PREFETCH REQUESTED:          0 ISSUED:          0 USEFUL:          0 USELESS:          0
LLC AVERAGE MISS LATENCY: 982 cycles
cpu0_DTLB TOTAL        ACCESS:  121560831 HIT:  121207819 MISS:     353012
cpu0_DTLB LOAD         ACCESS:  121560831 HIT:  121207819 MISS:     353012
cpu0_DTLB RFO          ACCESS:          0 HIT:          0 MISS:          0
cpu0_DTLB PREFETCH     ACCESS:          0 HIT:          0 MISS:          0
cpu0_DTLB WRITE        ACCESS:          0 HIT:          0 MISS:          0
cpu0_DTLB TRANSLATION  ACCESS:          0 HIT:          0 MISS:          0
cpu0_DTLB PREFETCH REQUESTED:          0 ISSUED:          0 USEFUL:          0 USELESS:          0
cpu0_DTLB AVERAGE MISS LATENCY: 639.7 cycles
cpu0_ITLB TOTAL        ACCESS:       2033 HIT:       1998 MISS:         35
cpu0_ITLB LOAD         ACCESS:       2033 HIT:       1998 MISS:         35
cpu0_ITLB RFO          ACCESS:          0 HIT:          0 MISS:          0
cpu0_ITLB PREFETCH     ACCESS:          0 HIT:          0 MISS:          0
cpu0_ITLB WRITE        ACCESS:          0 HIT:          0 MISS:          0
cpu0_ITLB TRANSLATION  ACCESS:          0 HIT:          0 MISS:          0
cpu0_ITLB PREFETCH REQUESTED:          0 ISSUED:          0 USEFUL:          0 USELESS:          0
cpu0_ITLB AVERAGE MISS LATENCY: 545.7 cycles
cpu0_L1D TOTAL        ACCESS:  162711848 HIT:  156544512 MISS:    6167336
cpu0_L1D LOAD         ACCESS:   90494501 HIT:   90488318 MISS:       6183
cpu0_L1D RFO          ACCESS:          0 HIT:          0 MISS:          0
cpu0_L1D PREFETCH     ACCESS:          0 HIT:          0 MISS:          0
cpu0_L1D WRITE        ACCESS:   72036510 HIT:   66017985 MISS:    6018525
cpu0_L1D TRANSLATION  ACCESS:     180837 HIT:      38209 MISS:     142628
cpu0_L1D PREFETCH REQUESTED:          0 ISSUED:          0 USEFUL:          0 USELESS:          0
cpu0_L1D AVERAGE MISS LATENCY: 78.22 cycles
cpu0_L1I TOTAL        ACCESS:       2352 HIT:       1021 MISS:       1331
cpu0_L1I LOAD         ACCESS:       2352 HIT:       1021 MISS:       1331
cpu0_L1I RFO          ACCESS:          0 HIT:          0 MISS:          0
cpu0_L1I PREFETCH     ACCESS:          0 HIT:          0 MISS:          0
cpu0_L1I WRITE        ACCESS:          0 HIT:          0 MISS:          0
cpu0_L1I TRANSLATION  ACCESS:          0 HIT:          0 MISS:          0
cpu0_L1I PREFETCH REQUESTED:          0 ISSUED:          0 USEFUL:          0 USELESS:          0
cpu0_L1I AVERAGE MISS LATENCY: 634.5 cycles
cpu0_L2C TOTAL        ACCESS:    1190988 HIT:     542966 MISS:     648022
cpu0_L2C LOAD         ACCESS:       3313 HIT:        426 MISS:       2887
cpu0_L2C RFO          ACCESS:     538097 HIT:       2976 MISS:     535121
cpu0_L2C PREFETCH     ACCESS:          0 HIT:          0 MISS:          0
cpu0_L2C WRITE        ACCESS:     538234 HIT:     538216 MISS:         18
cpu0_L2C TRANSLATION  ACCESS:     111344 HIT:       1348 MISS:     109996
cpu0_L2C PREFETCH REQUESTED:          0 ISSUED:          0 USEFUL:          0 USELESS:          0
cpu0_L2C AVERAGE MISS LATENCY: 1002 cycles
cpu0_STLB TOTAL        ACCESS:     156164 HIT:         52 MISS:     156112
cpu0_STLB LOAD         ACCESS:     156164 HIT:         52 MISS:     156112
cpu0_STLB RFO          ACCESS:          0 HIT:          0 MISS:          0
cpu0_STLB PREFETCH     ACCESS:          0 HIT:          0 MISS:          0
cpu0_STLB WRITE        ACCESS:          0 HIT:          0 MISS:          0
cpu0_STLB TRANSLATION  ACCESS:          0 HIT:          0 MISS:          0
cpu0_STLB PREFETCH REQUESTED:          0 ISSUED:          0 USEFUL:          0 USELESS:          0
cpu0_STLB AVERAGE MISS LATENCY: 1646 cycles

DRAM Statistics

Channel 0 RQ ROW_BUFFER_HIT:     140835
  ROW_BUFFER_MISS:     506565
 AVG DBUS CONGESTED CYCLE: 3.978
WQ ROW_BUFFER_HIT: Channel 0 
  ROW_BUFFER_MISS:     104990
  FULL:     430111
