WARNING: physical memory size is smaller than virtual memory size.

*** ChampSim Multicore Out-of-Order Simulator ***
Warmup Instructions: 50000000
Simulation Instructions: 600000000
Number of CPUs: 1
Page size: 4096

CPU 0 Tage branch predictor
Off-chip DRAM Size: 4 GiB Channels: 1 Width: 64-bit Data Race: 3200 MT/s
Heartbeat CPU 0 instructions: 10000000 cycles: 2500202 heartbeat IPC: 4 cumulative IPC: 4 (Simulation time: 00 hr 00 min 42 sec)
Heartbeat CPU 0 instructions: 20000000 cycles: 5000202 heartbeat IPC: 4 cumulative IPC: 4 (Simulation time: 00 hr 01 min 21 sec)
Heartbeat CPU 0 instructions: 30000000 cycles: 7500202 heartbeat IPC: 4 cumulative IPC: 4 (Simulation time: 00 hr 02 min 02 sec)
Heartbeat CPU 0 instructions: 40000000 cycles: 10000202 heartbeat IPC: 4 cumulative IPC: 4 (Simulation time: 00 hr 02 min 42 sec)
Heartbeat CPU 0 instructions: 50000000 cycles: 12500202 heartbeat IPC: 4 cumulative IPC: 4 (Simulation time: 00 hr 03 min 23 sec)
Warmup finished CPU 0 instructions: 50000000 cycles: 12500203 cumulative IPC: 4 (Simulation time: 00 hr 03 min 23 sec)
Warmup complete CPU 0 instructions: 50000000 cycles: 12500203 cumulative IPC: 4 (Simulation time: 00 hr 03 min 23 sec)
Heartbeat CPU 0 instructions: 60000002 cycles: 15581167 heartbeat IPC: 3.246 cumulative IPC: 3.246 (Simulation time: 00 hr 04 min 14 sec)
Heartbeat CPU 0 instructions: 70000002 cycles: 18082877 heartbeat IPC: 3.997 cumulative IPC: 3.583 (Simulation time: 00 hr 04 min 59 sec)
Heartbeat CPU 0 instructions: 80000003 cycles: 20582899 heartbeat IPC: 4 cumulative IPC: 3.712 (Simulation time: 00 hr 05 min 41 sec)
Heartbeat CPU 0 instructions: 90000004 cycles: 23082920 heartbeat IPC: 4 cumulative IPC: 3.78 (Simulation time: 00 hr 06 min 23 sec)
Heartbeat CPU 0 instructions: 100000003 cycles: 25586019 heartbeat IPC: 3.995 cumulative IPC: 3.821 (Simulation time: 00 hr 07 min 03 sec)
Heartbeat CPU 0 instructions: 110000000 cycles: 28087392 heartbeat IPC: 3.998 cumulative IPC: 3.849 (Simulation time: 00 hr 07 min 43 sec)
Heartbeat CPU 0 instructions: 120000000 cycles: 30587416 heartbeat IPC: 4 cumulative IPC: 3.87 (Simulation time: 00 hr 08 min 23 sec)
Heartbeat CPU 0 instructions: 130000000 cycles: 33087439 heartbeat IPC: 4 cumulative IPC: 3.886 (Simulation time: 00 hr 09 min 03 sec)
Heartbeat CPU 0 instructions: 140000001 cycles: 35587476 heartbeat IPC: 4 cumulative IPC: 3.898 (Simulation time: 00 hr 09 min 42 sec)
Heartbeat CPU 0 instructions: 150000003 cycles: 38087498 heartbeat IPC: 4 cumulative IPC: 3.908 (Simulation time: 00 hr 10 min 21 sec)
Heartbeat CPU 0 instructions: 160000004 cycles: 40590855 heartbeat IPC: 3.995 cumulative IPC: 3.916 (Simulation time: 00 hr 11 min 00 sec)
Heartbeat CPU 0 instructions: 170000001 cycles: 43091459 heartbeat IPC: 3.999 cumulative IPC: 3.923 (Simulation time: 00 hr 11 min 38 sec)
Heartbeat CPU 0 instructions: 180000001 cycles: 45591480 heartbeat IPC: 4 cumulative IPC: 3.929 (Simulation time: 00 hr 12 min 16 sec)
Heartbeat CPU 0 instructions: 190000002 cycles: 48093891 heartbeat IPC: 3.996 cumulative IPC: 3.933 (Simulation time: 00 hr 12 min 53 sec)
Heartbeat CPU 0 instructions: 200000001 cycles: 50593912 heartbeat IPC: 4 cumulative IPC: 3.938 (Simulation time: 00 hr 13 min 31 sec)
Heartbeat CPU 0 instructions: 210000000 cycles: 53097890 heartbeat IPC: 3.994 cumulative IPC: 3.941 (Simulation time: 00 hr 14 min 09 sec)
Heartbeat CPU 0 instructions: 220000001 cycles: 55597933 heartbeat IPC: 4 cumulative IPC: 3.945 (Simulation time: 00 hr 14 min 47 sec)
Heartbeat CPU 0 instructions: 230000002 cycles: 58097954 heartbeat IPC: 4 cumulative IPC: 3.948 (Simulation time: 00 hr 15 min 25 sec)
Heartbeat CPU 0 instructions: 240000004 cycles: 60597992 heartbeat IPC: 4 cumulative IPC: 3.95 (Simulation time: 00 hr 16 min 03 sec)
Heartbeat CPU 0 instructions: 250000000 cycles: 63099768 heartbeat IPC: 3.997 cumulative IPC: 3.953 (Simulation time: 00 hr 16 min 41 sec)
Heartbeat CPU 0 instructions: 260000000 cycles: 65601521 heartbeat IPC: 3.997 cumulative IPC: 3.955 (Simulation time: 00 hr 17 min 19 sec)
Heartbeat CPU 0 instructions: 270000002 cycles: 68101542 heartbeat IPC: 4 cumulative IPC: 3.957 (Simulation time: 00 hr 17 min 56 sec)
Heartbeat CPU 0 instructions: 280000003 cycles: 70601581 heartbeat IPC: 4 cumulative IPC: 3.959 (Simulation time: 00 hr 18 min 34 sec)
Heartbeat CPU 0 instructions: 290000000 cycles: 73101601 heartbeat IPC: 4 cumulative IPC: 3.96 (Simulation time: 00 hr 19 min 11 sec)
Heartbeat CPU 0 instructions: 300000000 cycles: 75604556 heartbeat IPC: 3.995 cumulative IPC: 3.962 (Simulation time: 00 hr 19 min 49 sec)
Heartbeat CPU 0 instructions: 310000002 cycles: 78104593 heartbeat IPC: 4 cumulative IPC: 3.963 (Simulation time: 00 hr 20 min 26 sec)
Heartbeat CPU 0 instructions: 320000004 cycles: 80604615 heartbeat IPC: 4 cumulative IPC: 3.965 (Simulation time: 00 hr 21 min 03 sec)
Heartbeat CPU 0 instructions: 330000000 cycles: 83104636 heartbeat IPC: 4 cumulative IPC: 3.966 (Simulation time: 00 hr 21 min 40 sec)
Heartbeat CPU 0 instructions: 340000002 cycles: 85605524 heartbeat IPC: 3.999 cumulative IPC: 3.967 (Simulation time: 00 hr 22 min 18 sec)
Heartbeat CPU 0 instructions: 350000002 cycles: 88105546 heartbeat IPC: 4 cumulative IPC: 3.968 (Simulation time: 00 hr 22 min 55 sec)
Heartbeat CPU 0 instructions: 360000000 cycles: 90607852 heartbeat IPC: 3.996 cumulative IPC: 3.969 (Simulation time: 00 hr 23 min 32 sec)
Heartbeat CPU 0 instructions: 370000004 cycles: 93108264 heartbeat IPC: 3.999 cumulative IPC: 3.97 (Simulation time: 00 hr 24 min 09 sec)
Heartbeat CPU 0 instructions: 380000000 cycles: 95608284 heartbeat IPC: 4 cumulative IPC: 3.971 (Simulation time: 00 hr 24 min 46 sec)
Heartbeat CPU 0 instructions: 390000000 cycles: 98108306 heartbeat IPC: 4 cumulative IPC: 3.972 (Simulation time: 00 hr 25 min 22 sec)
Heartbeat CPU 0 instructions: 400000000 cycles: 100610375 heartbeat IPC: 3.997 cumulative IPC: 3.972 (Simulation time: 00 hr 25 min 58 sec)
Heartbeat CPU 0 instructions: 410000000 cycles: 103111344 heartbeat IPC: 3.998 cumulative IPC: 3.973 (Simulation time: 00 hr 26 min 34 sec)
Heartbeat CPU 0 instructions: 420000001 cycles: 105611366 heartbeat IPC: 4 cumulative IPC: 3.974 (Simulation time: 00 hr 27 min 09 sec)
Heartbeat CPU 0 instructions: 430000003 cycles: 108111387 heartbeat IPC: 4 cumulative IPC: 3.974 (Simulation time: 00 hr 27 min 44 sec)
Heartbeat CPU 0 instructions: 440000003 cycles: 110611409 heartbeat IPC: 4 cumulative IPC: 3.975 (Simulation time: 00 hr 28 min 19 sec)
Heartbeat CPU 0 instructions: 450000000 cycles: 113113851 heartbeat IPC: 3.996 cumulative IPC: 3.976 (Simulation time: 00 hr 28 min 54 sec)
Heartbeat CPU 0 instructions: 460000002 cycles: 115613872 heartbeat IPC: 4 cumulative IPC: 3.976 (Simulation time: 00 hr 29 min 29 sec)
Heartbeat CPU 0 instructions: 470000002 cycles: 118113893 heartbeat IPC: 4 cumulative IPC: 3.977 (Simulation time: 00 hr 30 min 03 sec)
Heartbeat CPU 0 instructions: 480000002 cycles: 120613915 heartbeat IPC: 4 cumulative IPC: 3.977 (Simulation time: 00 hr 30 min 37 sec)
Heartbeat CPU 0 instructions: 490000000 cycles: 123115297 heartbeat IPC: 3.998 cumulative IPC: 3.978 (Simulation time: 00 hr 31 min 11 sec)
Heartbeat CPU 0 instructions: 500000002 cycles: 125617153 heartbeat IPC: 3.997 cumulative IPC: 3.978 (Simulation time: 00 hr 31 min 45 sec)
Heartbeat CPU 0 instructions: 510000003 cycles: 128117174 heartbeat IPC: 4 cumulative IPC: 3.979 (Simulation time: 00 hr 32 min 19 sec)
Heartbeat CPU 0 instructions: 520000004 cycles: 130617195 heartbeat IPC: 4 cumulative IPC: 3.979 (Simulation time: 00 hr 32 min 52 sec)
Heartbeat CPU 0 instructions: 530000000 cycles: 133117238 heartbeat IPC: 4 cumulative IPC: 3.98 (Simulation time: 00 hr 33 min 25 sec)
Heartbeat CPU 0 instructions: 540000001 cycles: 135619367 heartbeat IPC: 3.997 cumulative IPC: 3.98 (Simulation time: 00 hr 33 min 57 sec)
Heartbeat CPU 0 instructions: 550000002 cycles: 138119387 heartbeat IPC: 4 cumulative IPC: 3.98 (Simulation time: 00 hr 34 min 29 sec)
Heartbeat CPU 0 instructions: 560000003 cycles: 140619853 heartbeat IPC: 3.999 cumulative IPC: 3.981 (Simulation time: 00 hr 35 min 01 sec)
Heartbeat CPU 0 instructions: 570000004 cycles: 143119875 heartbeat IPC: 4 cumulative IPC: 3.981 (Simulation time: 00 hr 35 min 32 sec)
Heartbeat CPU 0 instructions: 580000000 cycles: 145619897 heartbeat IPC: 4 cumulative IPC: 3.981 (Simulation time: 00 hr 36 min 00 sec)
Heartbeat CPU 0 instructions: 590000002 cycles: 148119997 heartbeat IPC: 4 cumulative IPC: 3.982 (Simulation time: 00 hr 36 min 27 sec)
*** Reached end of trace: (0, "traces/convolution.champsimtrace")
Heartbeat CPU 0 instructions: 600000000 cycles: 150630101 heartbeat IPC: 3.984 cumulative IPC: 3.982 (Simulation time: 00 hr 36 min 55 sec)
Heartbeat CPU 0 instructions: 610000002 cycles: 179451533 heartbeat IPC: 0.347 cumulative IPC: 3.354 (Simulation time: 00 hr 38 min 57 sec)
Heartbeat CPU 0 instructions: 620000001 cycles: 205722364 heartbeat IPC: 0.3807 cumulative IPC: 2.95 (Simulation time: 00 hr 40 min 26 sec)
Heartbeat CPU 0 instructions: 630000001 cycles: 216089271 heartbeat IPC: 0.9646 cumulative IPC: 2.849 (Simulation time: 00 hr 41 min 04 sec)
Heartbeat CPU 0 instructions: 640000004 cycles: 226541211 heartbeat IPC: 0.9568 cumulative IPC: 2.756 (Simulation time: 00 hr 41 min 42 sec)
Heartbeat CPU 0 instructions: 650000001 cycles: 236954114 heartbeat IPC: 0.9603 cumulative IPC: 2.673 (Simulation time: 00 hr 42 min 20 sec)
Simulation finished CPU 0 instructions: 600000001 cycles: 224453912 cumulative IPC: 2.673 (Simulation time: 00 hr 42 min 20 sec)
Simulation complete CPU 0 instructions: 600000001 cycles: 224453912 cumulative IPC: 2.673 (Simulation time: 00 hr 42 min 20 sec)

ChampSim completed all CPUs

=== Simulation ===
CPU 0 runs traces/convolution.champsimtrace
Region of Interest Statistics

CPU 0 cumulative IPC: 2.673 instructions: 600000001 cycles: 224453912
CPU 0 Branch Prediction Accuracy: 100% MPKI: 0.002858 Average ROB Occupancy at Mispredict: 79
Branch type MPKI
BRANCH_DIRECT_JUMP: 0.000107
BRANCH_INDIRECT: 4.17e-05
BRANCH_CONDITIONAL: 0.00258
BRANCH_DIRECT_CALL: 0.000103
BRANCH_INDIRECT_CALL: 8.33e-06
BRANCH_RETURN: 1.83e-05

LLC TOTAL        ACCESS:    1185319 HIT:     506665 MISS:     678654
LLC LOAD         ACCESS:       2887 HIT:        558 MISS:       2329
LLC RFO          ACCESS:     535120 HIT:         31 MISS:     535089
LLC PREFETCH     ACCESS:       2115 HIT:        523 MISS:       1592
LLC WRITE        ACCESS:     535174 HIT:     505085 MISS:      30089
LLC TRANSLATION  ACCESS:     110023 HIT:        468 MISS:     109555
LLC PREFETCH REQUESTED:       2115 ISSUED:       2115 USEFUL:        796 USELESS:         45
LLC AVERAGE MISS LATENCY: 1063 cycles
cpu0_DTLB TOTAL        ACCESS:  113113728 HIT:  112760437 MISS:     353291
cpu0_DTLB LOAD         ACCESS:  113113728 HIT:  112760437 MISS:     353291
cpu0_DTLB RFO          ACCESS:          0 HIT:          0 MISS:          0
cpu0_DTLB PREFETCH     ACCESS:          0 HIT:          0 MISS:          0
cpu0_DTLB WRITE        ACCESS:          0 HIT:          0 MISS:          0
cpu0_DTLB TRANSLATION  ACCESS:          0 HIT:          0 MISS:          0
cpu0_DTLB PREFETCH REQUESTED:          0 ISSUED:          0 USEFUL:          0 USELESS:          0
cpu0_DTLB AVERAGE MISS LATENCY: 750.2 cycles
cpu0_ITLB TOTAL        ACCESS:       2119 HIT:       2085 MISS:         34
cpu0_ITLB LOAD         ACCESS:       2119 HIT:       2085 MISS:         34
cpu0_ITLB RFO          ACCESS:          0 HIT:          0 MISS:          0
cpu0_ITLB PREFETCH     ACCESS:          0 HIT:          0 MISS:          0
cpu0_ITLB WRITE        ACCESS:          0 HIT:          0 MISS:          0
cpu0_ITLB TRANSLATION  ACCESS:          0 HIT:          0 MISS:          0
cpu0_ITLB PREFETCH REQUESTED:          0 ISSUED:          0 USEFUL:          0 USELESS:          0
cpu0_ITLB AVERAGE MISS LATENCY: 673.8 cycles
cpu0_L1D TOTAL        ACCESS:  146346601 HIT:  140120079 MISS:    6226522
cpu0_L1D LOAD         ACCESS:   74194019 HIT:   74186074 MISS:       7945
cpu0_L1D RFO          ACCESS:          0 HIT:          0 MISS:          0
cpu0_L1D PREFETCH     ACCESS:          0 HIT:          0 MISS:          0
cpu0_L1D WRITE        ACCESS:   71971705 HIT:   65895629 MISS:    6076076
cpu0_L1D TRANSLATION  ACCESS:     180877 HIT:      38376 MISS:     142501
cpu0_L1D PREFETCH REQUESTED:          0 ISSUED:          0 USEFUL:          0 USELESS:          0
cpu0_L1D AVERAGE MISS LATENCY: 91.1 cycles
cpu0_L1I TOTAL        ACCESS:       2476 HIT:        988 MISS:       1488
cpu0_L1I LOAD         ACCESS:       2476 HIT:        988 MISS:       1488
cpu0_L1I RFO          ACCESS:          0 HIT:          0 MISS:          0
cpu0_L1I PREFETCH     ACCESS:          0 HIT:          0 MISS:          0
cpu0_L1I WRITE        ACCESS:          0 HIT:          0 MISS:          0
cpu0_L1I TRANSLATION  ACCESS:          0 HIT:          0 MISS:          0
cpu0_L1I PREFETCH REQUESTED:          0 ISSUED:          0 USEFUL:          0 USELESS:          0
cpu0_L1I AVERAGE MISS LATENCY: 657.6 cycles
cpu0_L2C TOTAL        ACCESS:    1193621 HIT:     545575 MISS:     648046
cpu0_L2C LOAD         ACCESS:       3312 HIT:        425 MISS:       2887
cpu0_L2C RFO          ACCESS:     539272 HIT:       4152 MISS:     535120
cpu0_L2C PREFETCH     ACCESS:          0 HIT:          0 MISS:          0
cpu0_L2C WRITE        ACCESS:     539646 HIT:     539631 MISS:         15
cpu0_L2C TRANSLATION  ACCESS:     111391 HIT:       1367 MISS:     110024
cpu0_L2C PREFETCH REQUESTED:          0 ISSUED:          0 USEFUL:          0 USELESS:          0
cpu0_L2C AVERAGE MISS LATENCY: 1132 cycles
cpu0_STLB TOTAL        ACCESS:     156168 HIT:         57 MISS:     156111
cpu0_STLB LOAD         ACCESS:     156168 HIT:         57 MISS:     156111
cpu0_STLB RFO          ACCESS:          0 HIT:          0 MISS:          0
cpu0_STLB PREFETCH     ACCESS:          0 HIT:          0 MISS:          0
cpu0_STLB WRITE        ACCESS:          0 HIT:          0 MISS:          0
cpu0_STLB TRANSLATION  ACCESS:          0 HIT:          0 MISS:          0
cpu0_STLB PREFETCH REQUESTED:          0 ISSUED:          0 USEFUL:          0 USELESS:          0
cpu0_STLB AVERAGE MISS LATENCY: 1893 cycles

DRAM Statistics

Channel 0 RQ ROW_BUFFER_HIT:     140688
  ROW_BUFFER_MISS:     506888
 AVG DBUS CONGESTED CYCLE: 3.986
WQ ROW_BUFFER_HIT: Channel 0 
  ROW_BUFFER_MISS:      28494
  FULL:     506617
