WARNING: physical memory size is smaller than virtual memory size.

*** ChampSim Multicore Out-of-Order Simulator ***
Warmup Instructions: 50000000
Simulation Instructions: 600000000
Number of CPUs: 1
Page size: 4096

Off-chip DRAM Size: 4 GiB Channels: 1 Width: 64-bit Data Race: 3200 MT/s
Heartbeat CPU 0 instructions: 10000000 cycles: 2500202 heartbeat IPC: 4 cumulative IPC: 4 (Simulation time: 00 hr 00 min 33 sec)
Heartbeat CPU 0 instructions: 20000000 cycles: 5000202 heartbeat IPC: 4 cumulative IPC: 4 (Simulation time: 00 hr 01 min 07 sec)
Heartbeat CPU 0 instructions: 30000000 cycles: 7500202 heartbeat IPC: 4 cumulative IPC: 4 (Simulation time: 00 hr 01 min 40 sec)
Heartbeat CPU 0 instructions: 40000000 cycles: 10000202 heartbeat IPC: 4 cumulative IPC: 4 (Simulation time: 00 hr 02 min 13 sec)
Heartbeat CPU 0 instructions: 50000000 cycles: 12500202 heartbeat IPC: 4 cumulative IPC: 4 (Simulation time: 00 hr 02 min 45 sec)
Warmup finished CPU 0 instructions: 50000000 cycles: 12500203 cumulative IPC: 4 (Simulation time: 00 hr 02 min 45 sec)
Warmup complete CPU 0 instructions: 50000000 cycles: 12500203 cumulative IPC: 4 (Simulation time: 00 hr 02 min 45 sec)
Heartbeat CPU 0 instructions: 60000002 cycles: 15778503 heartbeat IPC: 3.05 cumulative IPC: 3.05 (Simulation time: 00 hr 03 min 25 sec)
Heartbeat CPU 0 instructions: 70000002 cycles: 18484814 heartbeat IPC: 3.695 cumulative IPC: 3.342 (Simulation time: 00 hr 04 min 02 sec)
Heartbeat CPU 0 instructions: 80000003 cycles: 21188411 heartbeat IPC: 3.699 cumulative IPC: 3.453 (Simulation time: 00 hr 04 min 39 sec)
Heartbeat CPU 0 instructions: 90000004 cycles: 23891974 heartbeat IPC: 3.699 cumulative IPC: 3.511 (Simulation time: 00 hr 05 min 18 sec)
Heartbeat CPU 0 instructions: 100000003 cycles: 26598460 heartbeat IPC: 3.695 cumulative IPC: 3.547 (Simulation time: 00 hr 06 min 00 sec)
Heartbeat CPU 0 instructions: 110000000 cycles: 29303514 heartbeat IPC: 3.697 cumulative IPC: 3.571 (Simulation time: 00 hr 06 min 39 sec)
Heartbeat CPU 0 instructions: 120000000 cycles: 32006868 heartbeat IPC: 3.699 cumulative IPC: 3.589 (Simulation time: 00 hr 07 min 17 sec)
Heartbeat CPU 0 instructions: 130000000 cycles: 34710489 heartbeat IPC: 3.699 cumulative IPC: 3.602 (Simulation time: 00 hr 07 min 55 sec)
Heartbeat CPU 0 instructions: 140000001 cycles: 37414038 heartbeat IPC: 3.699 cumulative IPC: 3.612 (Simulation time: 00 hr 08 min 31 sec)
Heartbeat CPU 0 instructions: 150000003 cycles: 40117622 heartbeat IPC: 3.699 cumulative IPC: 3.621 (Simulation time: 00 hr 09 min 08 sec)
Heartbeat CPU 0 instructions: 160000003 cycles: 42823277 heartbeat IPC: 3.696 cumulative IPC: 3.628 (Simulation time: 00 hr 09 min 44 sec)
Heartbeat CPU 0 instructions: 170000001 cycles: 45528435 heartbeat IPC: 3.697 cumulative IPC: 3.633 (Simulation time: 00 hr 10 min 22 sec)
Heartbeat CPU 0 instructions: 180000001 cycles: 48232008 heartbeat IPC: 3.699 cumulative IPC: 3.638 (Simulation time: 00 hr 10 min 59 sec)
Heartbeat CPU 0 instructions: 190000002 cycles: 50936745 heartbeat IPC: 3.697 cumulative IPC: 3.642 (Simulation time: 00 hr 11 min 36 sec)
Heartbeat CPU 0 instructions: 200000001 cycles: 53640331 heartbeat IPC: 3.699 cumulative IPC: 3.646 (Simulation time: 00 hr 12 min 12 sec)
Heartbeat CPU 0 instructions: 210000000 cycles: 56346165 heartbeat IPC: 3.696 cumulative IPC: 3.649 (Simulation time: 00 hr 12 min 48 sec)
Heartbeat CPU 0 instructions: 220000001 cycles: 59050927 heartbeat IPC: 3.697 cumulative IPC: 3.652 (Simulation time: 00 hr 13 min 25 sec)
Heartbeat CPU 0 instructions: 230000002 cycles: 61754549 heartbeat IPC: 3.699 cumulative IPC: 3.654 (Simulation time: 00 hr 14 min 01 sec)
Heartbeat CPU 0 instructions: 240000004 cycles: 64458182 heartbeat IPC: 3.699 cumulative IPC: 3.657 (Simulation time: 00 hr 14 min 37 sec)
Heartbeat CPU 0 instructions: 250000000 cycles: 67164111 heartbeat IPC: 3.696 cumulative IPC: 3.659 (Simulation time: 00 hr 15 min 15 sec)
Heartbeat CPU 0 instructions: 260000000 cycles: 69869127 heartbeat IPC: 3.697 cumulative IPC: 3.661 (Simulation time: 00 hr 15 min 52 sec)
Heartbeat CPU 0 instructions: 270000002 cycles: 72572490 heartbeat IPC: 3.699 cumulative IPC: 3.662 (Simulation time: 00 hr 16 min 33 sec)
Heartbeat CPU 0 instructions: 280000003 cycles: 75276115 heartbeat IPC: 3.699 cumulative IPC: 3.664 (Simulation time: 00 hr 17 min 11 sec)
Heartbeat CPU 0 instructions: 290000003 cycles: 77979770 heartbeat IPC: 3.699 cumulative IPC: 3.665 (Simulation time: 00 hr 17 min 48 sec)
Heartbeat CPU 0 instructions: 300000000 cycles: 80686113 heartbeat IPC: 3.695 cumulative IPC: 3.666 (Simulation time: 00 hr 18 min 25 sec)
Heartbeat CPU 0 instructions: 310000002 cycles: 83389680 heartbeat IPC: 3.699 cumulative IPC: 3.668 (Simulation time: 00 hr 19 min 01 sec)
Heartbeat CPU 0 instructions: 320000004 cycles: 86093057 heartbeat IPC: 3.699 cumulative IPC: 3.669 (Simulation time: 00 hr 19 min 38 sec)
Heartbeat CPU 0 instructions: 330000000 cycles: 88796667 heartbeat IPC: 3.699 cumulative IPC: 3.67 (Simulation time: 00 hr 20 min 17 sec)
Heartbeat CPU 0 instructions: 340000002 cycles: 91501849 heartbeat IPC: 3.697 cumulative IPC: 3.671 (Simulation time: 00 hr 21 min 03 sec)
Heartbeat CPU 0 instructions: 350000002 cycles: 94205294 heartbeat IPC: 3.699 cumulative IPC: 3.672 (Simulation time: 00 hr 21 min 40 sec)
Heartbeat CPU 0 instructions: 360000001 cycles: 96911624 heartbeat IPC: 3.695 cumulative IPC: 3.672 (Simulation time: 00 hr 22 min 16 sec)
Heartbeat CPU 0 instructions: 370000004 cycles: 99615343 heartbeat IPC: 3.699 cumulative IPC: 3.673 (Simulation time: 00 hr 22 min 52 sec)
Heartbeat CPU 0 instructions: 380000000 cycles: 102318911 heartbeat IPC: 3.699 cumulative IPC: 3.674 (Simulation time: 00 hr 23 min 29 sec)
Heartbeat CPU 0 instructions: 390000004 cycles: 105022631 heartbeat IPC: 3.699 cumulative IPC: 3.675 (Simulation time: 00 hr 24 min 06 sec)
Heartbeat CPU 0 instructions: 400000000 cycles: 107727998 heartbeat IPC: 3.696 cumulative IPC: 3.675 (Simulation time: 00 hr 24 min 49 sec)
Heartbeat CPU 0 instructions: 410000000 cycles: 110433074 heartbeat IPC: 3.697 cumulative IPC: 3.676 (Simulation time: 00 hr 25 min 26 sec)
Heartbeat CPU 0 instructions: 420000001 cycles: 113136520 heartbeat IPC: 3.699 cumulative IPC: 3.677 (Simulation time: 00 hr 26 min 04 sec)
Heartbeat CPU 0 instructions: 430000003 cycles: 115840228 heartbeat IPC: 3.699 cumulative IPC: 3.677 (Simulation time: 00 hr 26 min 45 sec)
Heartbeat CPU 0 instructions: 440000003 cycles: 118543921 heartbeat IPC: 3.699 cumulative IPC: 3.678 (Simulation time: 00 hr 27 min 28 sec)
Heartbeat CPU 0 instructions: 450000004 cycles: 121250345 heartbeat IPC: 3.695 cumulative IPC: 3.678 (Simulation time: 00 hr 28 min 07 sec)
Heartbeat CPU 0 instructions: 460000001 cycles: 123954788 heartbeat IPC: 3.698 cumulative IPC: 3.679 (Simulation time: 00 hr 28 min 47 sec)
Heartbeat CPU 0 instructions: 470000002 cycles: 126658264 heartbeat IPC: 3.699 cumulative IPC: 3.679 (Simulation time: 00 hr 29 min 30 sec)
Heartbeat CPU 0 instructions: 480000001 cycles: 129362013 heartbeat IPC: 3.699 cumulative IPC: 3.68 (Simulation time: 00 hr 30 min 08 sec)
Heartbeat CPU 0 instructions: 490000000 cycles: 132066055 heartbeat IPC: 3.698 cumulative IPC: 3.68 (Simulation time: 00 hr 30 min 50 sec)
Heartbeat CPU 0 instructions: 500000002 cycles: 134772070 heartbeat IPC: 3.695 cumulative IPC: 3.68 (Simulation time: 00 hr 31 min 28 sec)
Heartbeat CPU 0 instructions: 510000003 cycles: 137476810 heartbeat IPC: 3.697 cumulative IPC: 3.681 (Simulation time: 00 hr 32 min 07 sec)
Heartbeat CPU 0 instructions: 520000004 cycles: 140180282 heartbeat IPC: 3.699 cumulative IPC: 3.681 (Simulation time: 00 hr 32 min 44 sec)
Heartbeat CPU 0 instructions: 530000000 cycles: 142883939 heartbeat IPC: 3.699 cumulative IPC: 3.681 (Simulation time: 00 hr 33 min 35 sec)
Heartbeat CPU 0 instructions: 540000000 cycles: 145589929 heartbeat IPC: 3.696 cumulative IPC: 3.682 (Simulation time: 00 hr 34 min 20 sec)
Heartbeat CPU 0 instructions: 550000003 cycles: 148294709 heartbeat IPC: 3.697 cumulative IPC: 3.682 (Simulation time: 00 hr 35 min 05 sec)
Heartbeat CPU 0 instructions: 560000003 cycles: 150998498 heartbeat IPC: 3.699 cumulative IPC: 3.682 (Simulation time: 00 hr 35 min 44 sec)
Heartbeat CPU 0 instructions: 570000004 cycles: 153701837 heartbeat IPC: 3.699 cumulative IPC: 3.683 (Simulation time: 00 hr 36 min 25 sec)
Heartbeat CPU 0 instructions: 580000000 cycles: 156405541 heartbeat IPC: 3.699 cumulative IPC: 3.683 (Simulation time: 00 hr 37 min 02 sec)
Heartbeat CPU 0 instructions: 590000002 cycles: 159109124 heartbeat IPC: 3.699 cumulative IPC: 3.683 (Simulation time: 00 hr 37 min 41 sec)
*** Reached end of trace: (0, "traces/convolution.champsimtrace")
Heartbeat CPU 0 instructions: 600000000 cycles: 161821590 heartbeat IPC: 3.687 cumulative IPC: 3.683 (Simulation time: 00 hr 38 min 20 sec)
Heartbeat CPU 0 instructions: 610000002 cycles: 185774909 heartbeat IPC: 0.4175 cumulative IPC: 3.232 (Simulation time: 00 hr 41 min 39 sec)
Heartbeat CPU 0 instructions: 620000001 cycles: 206758561 heartbeat IPC: 0.4766 cumulative IPC: 2.934 (Simulation time: 00 hr 44 min 44 sec)
Heartbeat CPU 0 instructions: 630000001 cycles: 217907592 heartbeat IPC: 0.8969 cumulative IPC: 2.824 (Simulation time: 00 hr 46 min 34 sec)
Heartbeat CPU 0 instructions: 640000004 cycles: 228360537 heartbeat IPC: 0.9567 cumulative IPC: 2.733 (Simulation time: 00 hr 48 min 17 sec)
Heartbeat CPU 0 instructions: 650000001 cycles: 238733546 heartbeat IPC: 0.964 cumulative IPC: 2.652 (Simulation time: 00 hr 49 min 50 sec)
Simulation finished CPU 0 instructions: 600000001 cycles: 226233344 cumulative IPC: 2.652 (Simulation time: 00 hr 49 min 50 sec)
Simulation complete CPU 0 instructions: 600000001 cycles: 226233344 cumulative IPC: 2.652 (Simulation time: 00 hr 49 min 50 sec)

ChampSim completed all CPUs

=== Simulation ===
CPU 0 runs traces/convolution.champsimtrace
Region of Interest Statistics

CPU 0 cumulative IPC: 2.652 instructions: 600000001 cycles: 226233344
CPU 0 Branch Prediction Accuracy: 99.3% MPKI: 1.265 Average ROB Occupancy at Mispredict: 63.99
Branch type MPKI
BRANCH_DIRECT_JUMP: 0.000107
BRANCH_INDIRECT: 4.17e-05
BRANCH_CONDITIONAL: 1.26
BRANCH_DIRECT_CALL: 0.000103
BRANCH_INDIRECT_CALL: 8.33e-06
BRANCH_RETURN: 1.83e-05

LLC TOTAL        ACCESS:    1182972 HIT:     535634 MISS:     647338
LLC LOAD         ACCESS:       2887 HIT:          3 MISS:       2884
LLC RFO          ACCESS:     535120 HIT:         23 MISS:     535097
LLC PREFETCH     ACCESS:          0 HIT:          0 MISS:          0
LLC WRITE        ACCESS:     535167 HIT:     535016 MISS:        151
LLC TRANSLATION  ACCESS:     109798 HIT:        592 MISS:     109206
LLC PREFETCH REQUESTED:          0 ISSUED:          0 USEFUL:          0 USELESS:          0
LLC AVERAGE MISS LATENCY: 982.4 cycles
cpu0_DTLB TOTAL        ACCESS:  121560762 HIT:  121207765 MISS:     352997
cpu0_DTLB LOAD         ACCESS:  121560762 HIT:  121207765 MISS:     352997
cpu0_DTLB RFO          ACCESS:          0 HIT:          0 MISS:          0
cpu0_DTLB PREFETCH     ACCESS:          0 HIT:          0 MISS:          0
cpu0_DTLB WRITE        ACCESS:          0 HIT:          0 MISS:          0
cpu0_DTLB TRANSLATION  ACCESS:          0 HIT:          0 MISS:          0
cpu0_DTLB PREFETCH REQUESTED:          0 ISSUED:          0 USEFUL:          0 USELESS:          0
cpu0_DTLB AVERAGE MISS LATENCY: 640.5 cycles
cpu0_ITLB TOTAL        ACCESS:       2028 HIT:       1993 MISS:         35
cpu0_ITLB LOAD         ACCESS:       2028 HIT:       1993 MISS:         35
cpu0_ITLB RFO          ACCESS:          0 HIT:          0 MISS:          0
cpu0_ITLB PREFETCH     ACCESS:          0 HIT:          0 MISS:          0
cpu0_ITLB WRITE        ACCESS:          0 HIT:          0 MISS:          0
cpu0_ITLB TRANSLATION  ACCESS:          0 HIT:          0 MISS:          0
cpu0_ITLB PREFETCH REQUESTED:          0 ISSUED:          0 USEFUL:          0 USELESS:          0
cpu0_ITLB AVERAGE MISS LATENCY: 590.7 cycles
cpu0_L1D TOTAL        ACCESS:  162711393 HIT:  156544687 MISS:    6166706
cpu0_L1D LOAD         ACCESS:   90494460 HIT:   90488197 MISS:       6263
cpu0_L1D RFO          ACCESS:          0 HIT:          0 MISS:          0
cpu0_L1D PREFETCH     ACCESS:          0 HIT:          0 MISS:          0
cpu0_L1D WRITE        ACCESS:   72036278 HIT:   66018214 MISS:    6018064
cpu0_L1D TRANSLATION  ACCESS:     180655 HIT:      38276 MISS:     142379
cpu0_L1D PREFETCH REQUESTED:          0 ISSUED:          0 USEFUL:          0 USELESS:          0
cpu0_L1D AVERAGE MISS LATENCY: 78.24 cycles
cpu0_L1I TOTAL        ACCESS:       2344 HIT:       1008 MISS:       1336
cpu0_L1I LOAD         ACCESS:       2344 HIT:       1008 MISS:       1336
cpu0_L1I RFO          ACCESS:          0 HIT:          0 MISS:          0
cpu0_L1I PREFETCH     ACCESS:          0 HIT:          0 MISS:          0
cpu0_L1I WRITE        ACCESS:          0 HIT:          0 MISS:          0
cpu0_L1I TRANSLATION  ACCESS:          0 HIT:          0 MISS:          0
cpu0_L1I PREFETCH REQUESTED:          0 ISSUED:          0 USEFUL:          0 USELESS:          0
cpu0_L1I AVERAGE MISS LATENCY: 623.7 cycles
cpu0_L2C TOTAL        ACCESS:    1190756 HIT:     542932 MISS:     647824
cpu0_L2C LOAD         ACCESS:       3313 HIT:        426 MISS:       2887
cpu0_L2C RFO          ACCESS:     538093 HIT:       2973 MISS:     535120
cpu0_L2C PREFETCH     ACCESS:          0 HIT:          0 MISS:          0
cpu0_L2C WRITE        ACCESS:     538221 HIT:     538203 MISS:         18
cpu0_L2C TRANSLATION  ACCESS:     111129 HIT:       1330 MISS:     109799
cpu0_L2C PREFETCH REQUESTED:          0 ISSUED:          0 USEFUL:          0 USELESS:          0
cpu0_L2C AVERAGE MISS LATENCY: 1003 cycles
cpu0_STLB TOTAL        ACCESS:     156151 HIT:         44 MISS:     156107
cpu0_STLB LOAD         ACCESS:     156151 HIT:         44 MISS:     156107
cpu0_STLB RFO          ACCESS:          0 HIT:          0 MISS:          0
cpu0_STLB PREFETCH     ACCESS:          0 HIT:          0 MISS:          0
cpu0_STLB WRITE        ACCESS:          0 HIT:          0 MISS:          0
cpu0_STLB TRANSLATION  ACCESS:          0 HIT:          0 MISS:          0
cpu0_STLB PREFETCH REQUESTED:          0 ISSUED:          0 USEFUL:          0 USELESS:          0
cpu0_STLB AVERAGE MISS LATENCY: 1647 cycles

DRAM Statistics

Channel 0 RQ ROW_BUFFER_HIT:     141298
  ROW_BUFFER_MISS:     505882
 AVG DBUS CONGESTED CYCLE: 3.978
WQ ROW_BUFFER_HIT: Channel 0 
  ROW_BUFFER_MISS:     105304
  FULL:     429827
