WARNING: physical memory size is smaller than virtual memory size.

*** ChampSim Multicore Out-of-Order Simulator ***
Warmup Instructions: 50000000
Simulation Instructions: 600000000
Number of CPUs: 1
Page size: 4096

CPU 0 Tage branch predictor
Off-chip DRAM Size: 4 GiB Channels: 1 Width: 64-bit Data Race: 3200 MT/s
Heartbeat CPU 0 instructions: 10000000 cycles: 2500202 heartbeat IPC: 4 cumulative IPC: 4 (Simulation time: 00 hr 00 min 26 sec)
Heartbeat CPU 0 instructions: 20000000 cycles: 5000202 heartbeat IPC: 4 cumulative IPC: 4 (Simulation time: 00 hr 00 min 55 sec)
Heartbeat CPU 0 instructions: 30000000 cycles: 7500202 heartbeat IPC: 4 cumulative IPC: 4 (Simulation time: 00 hr 01 min 26 sec)
Heartbeat CPU 0 instructions: 40000000 cycles: 10000202 heartbeat IPC: 4 cumulative IPC: 4 (Simulation time: 00 hr 01 min 59 sec)
Heartbeat CPU 0 instructions: 50000000 cycles: 12500202 heartbeat IPC: 4 cumulative IPC: 4 (Simulation time: 00 hr 02 min 32 sec)
Warmup finished CPU 0 instructions: 50000000 cycles: 12500203 cumulative IPC: 4 (Simulation time: 00 hr 02 min 32 sec)
Warmup complete CPU 0 instructions: 50000000 cycles: 12500203 cumulative IPC: 4 (Simulation time: 00 hr 02 min 32 sec)
Heartbeat CPU 0 instructions: 60000002 cycles: 15571646 heartbeat IPC: 3.256 cumulative IPC: 3.256 (Simulation time: 00 hr 03 min 16 sec)
Heartbeat CPU 0 instructions: 70000002 cycles: 18073871 heartbeat IPC: 3.996 cumulative IPC: 3.588 (Simulation time: 00 hr 03 min 59 sec)
Heartbeat CPU 0 instructions: 80000003 cycles: 20573893 heartbeat IPC: 4 cumulative IPC: 3.716 (Simulation time: 00 hr 04 min 47 sec)
Heartbeat CPU 0 instructions: 90000004 cycles: 23073914 heartbeat IPC: 4 cumulative IPC: 3.783 (Simulation time: 00 hr 05 min 30 sec)
Heartbeat CPU 0 instructions: 100000003 cycles: 25575831 heartbeat IPC: 3.997 cumulative IPC: 3.824 (Simulation time: 00 hr 06 min 16 sec)
Heartbeat CPU 0 instructions: 110000000 cycles: 28077007 heartbeat IPC: 3.998 cumulative IPC: 3.852 (Simulation time: 00 hr 07 min 04 sec)
Heartbeat CPU 0 instructions: 120000000 cycles: 30577031 heartbeat IPC: 4 cumulative IPC: 3.872 (Simulation time: 00 hr 07 min 57 sec)
Heartbeat CPU 0 instructions: 130000000 cycles: 33077054 heartbeat IPC: 4 cumulative IPC: 3.888 (Simulation time: 00 hr 08 min 42 sec)
Heartbeat CPU 0 instructions: 140000001 cycles: 35577091 heartbeat IPC: 4 cumulative IPC: 3.9 (Simulation time: 00 hr 09 min 24 sec)
Heartbeat CPU 0 instructions: 150000003 cycles: 38077113 heartbeat IPC: 4 cumulative IPC: 3.91 (Simulation time: 00 hr 10 min 06 sec)
Heartbeat CPU 0 instructions: 160000004 cycles: 40579624 heartbeat IPC: 3.996 cumulative IPC: 3.917 (Simulation time: 00 hr 10 min 49 sec)
Heartbeat CPU 0 instructions: 170000001 cycles: 43080239 heartbeat IPC: 3.999 cumulative IPC: 3.924 (Simulation time: 00 hr 11 min 30 sec)
Heartbeat CPU 0 instructions: 180000001 cycles: 45580260 heartbeat IPC: 4 cumulative IPC: 3.93 (Simulation time: 00 hr 12 min 13 sec)
Heartbeat CPU 0 instructions: 190000002 cycles: 48081825 heartbeat IPC: 3.997 cumulative IPC: 3.935 (Simulation time: 00 hr 12 min 57 sec)
Heartbeat CPU 0 instructions: 200000001 cycles: 50581846 heartbeat IPC: 4 cumulative IPC: 3.939 (Simulation time: 00 hr 13 min 39 sec)
Heartbeat CPU 0 instructions: 210000000 cycles: 53085298 heartbeat IPC: 3.994 cumulative IPC: 3.942 (Simulation time: 00 hr 14 min 22 sec)
Heartbeat CPU 0 instructions: 220000001 cycles: 55585341 heartbeat IPC: 4 cumulative IPC: 3.946 (Simulation time: 00 hr 15 min 04 sec)
Heartbeat CPU 0 instructions: 230000002 cycles: 58085362 heartbeat IPC: 4 cumulative IPC: 3.949 (Simulation time: 00 hr 15 min 45 sec)
Heartbeat CPU 0 instructions: 240000004 cycles: 60585400 heartbeat IPC: 4 cumulative IPC: 3.951 (Simulation time: 00 hr 16 min 26 sec)
Heartbeat CPU 0 instructions: 250000000 cycles: 63088812 heartbeat IPC: 3.995 cumulative IPC: 3.953 (Simulation time: 00 hr 17 min 08 sec)
Heartbeat CPU 0 instructions: 260000000 cycles: 65589319 heartbeat IPC: 3.999 cumulative IPC: 3.956 (Simulation time: 00 hr 17 min 50 sec)
Heartbeat CPU 0 instructions: 270000002 cycles: 68089340 heartbeat IPC: 4 cumulative IPC: 3.958 (Simulation time: 00 hr 18 min 31 sec)
Heartbeat CPU 0 instructions: 280000003 cycles: 70589379 heartbeat IPC: 4 cumulative IPC: 3.959 (Simulation time: 00 hr 19 min 12 sec)
Heartbeat CPU 0 instructions: 290000000 cycles: 73089399 heartbeat IPC: 4 cumulative IPC: 3.961 (Simulation time: 00 hr 19 min 54 sec)
Heartbeat CPU 0 instructions: 300000000 cycles: 75592506 heartbeat IPC: 3.995 cumulative IPC: 3.962 (Simulation time: 00 hr 20 min 37 sec)
Heartbeat CPU 0 instructions: 310000002 cycles: 78092543 heartbeat IPC: 4 cumulative IPC: 3.964 (Simulation time: 00 hr 21 min 19 sec)
Heartbeat CPU 0 instructions: 320000004 cycles: 80592565 heartbeat IPC: 4 cumulative IPC: 3.965 (Simulation time: 00 hr 22 min 03 sec)
Heartbeat CPU 0 instructions: 330000000 cycles: 83092586 heartbeat IPC: 4 cumulative IPC: 3.966 (Simulation time: 00 hr 22 min 44 sec)
Heartbeat CPU 0 instructions: 340000002 cycles: 85593828 heartbeat IPC: 3.998 cumulative IPC: 3.968 (Simulation time: 00 hr 23 min 27 sec)
Heartbeat CPU 0 instructions: 350000002 cycles: 88093850 heartbeat IPC: 4 cumulative IPC: 3.969 (Simulation time: 00 hr 24 min 09 sec)
Heartbeat CPU 0 instructions: 360000000 cycles: 90597016 heartbeat IPC: 3.995 cumulative IPC: 3.969 (Simulation time: 00 hr 24 min 52 sec)
Heartbeat CPU 0 instructions: 370000004 cycles: 93097060 heartbeat IPC: 4 cumulative IPC: 3.97 (Simulation time: 00 hr 25 min 34 sec)
Heartbeat CPU 0 instructions: 380000000 cycles: 95597080 heartbeat IPC: 4 cumulative IPC: 3.971 (Simulation time: 00 hr 26 min 17 sec)
Heartbeat CPU 0 instructions: 390000000 cycles: 98097102 heartbeat IPC: 4 cumulative IPC: 3.972 (Simulation time: 00 hr 26 min 59 sec)
Heartbeat CPU 0 instructions: 400000000 cycles: 100599612 heartbeat IPC: 3.996 cumulative IPC: 3.973 (Simulation time: 00 hr 27 min 41 sec)
Heartbeat CPU 0 instructions: 410000000 cycles: 103100084 heartbeat IPC: 3.999 cumulative IPC: 3.974 (Simulation time: 00 hr 28 min 23 sec)
Heartbeat CPU 0 instructions: 420000001 cycles: 105600106 heartbeat IPC: 4 cumulative IPC: 3.974 (Simulation time: 00 hr 29 min 05 sec)
Heartbeat CPU 0 instructions: 430000003 cycles: 108100127 heartbeat IPC: 4 cumulative IPC: 3.975 (Simulation time: 00 hr 29 min 47 sec)
Heartbeat CPU 0 instructions: 440000003 cycles: 110600149 heartbeat IPC: 4 cumulative IPC: 3.976 (Simulation time: 00 hr 30 min 29 sec)
Heartbeat CPU 0 instructions: 450000000 cycles: 113102829 heartbeat IPC: 3.996 cumulative IPC: 3.976 (Simulation time: 00 hr 31 min 11 sec)
Heartbeat CPU 0 instructions: 460000002 cycles: 115602850 heartbeat IPC: 4 cumulative IPC: 3.977 (Simulation time: 00 hr 31 min 52 sec)
Heartbeat CPU 0 instructions: 470000002 cycles: 118102871 heartbeat IPC: 4 cumulative IPC: 3.977 (Simulation time: 00 hr 32 min 34 sec)
Heartbeat CPU 0 instructions: 480000002 cycles: 120602893 heartbeat IPC: 4 cumulative IPC: 3.978 (Simulation time: 00 hr 33 min 16 sec)
Heartbeat CPU 0 instructions: 490000000 cycles: 123104431 heartbeat IPC: 3.998 cumulative IPC: 3.978 (Simulation time: 00 hr 33 min 58 sec)
Heartbeat CPU 0 instructions: 500000002 cycles: 125607184 heartbeat IPC: 3.996 cumulative IPC: 3.979 (Simulation time: 00 hr 34 min 40 sec)
Heartbeat CPU 0 instructions: 510000003 cycles: 128107205 heartbeat IPC: 4 cumulative IPC: 3.979 (Simulation time: 00 hr 35 min 22 sec)
Heartbeat CPU 0 instructions: 520000004 cycles: 130607226 heartbeat IPC: 4 cumulative IPC: 3.979 (Simulation time: 00 hr 36 min 04 sec)
Heartbeat CPU 0 instructions: 530000000 cycles: 133107269 heartbeat IPC: 4 cumulative IPC: 3.98 (Simulation time: 00 hr 36 min 46 sec)
Heartbeat CPU 0 instructions: 540000001 cycles: 135609741 heartbeat IPC: 3.996 cumulative IPC: 3.98 (Simulation time: 00 hr 37 min 27 sec)
Heartbeat CPU 0 instructions: 550000002 cycles: 138109761 heartbeat IPC: 4 cumulative IPC: 3.981 (Simulation time: 00 hr 38 min 11 sec)
Heartbeat CPU 0 instructions: 560000003 cycles: 140610227 heartbeat IPC: 3.999 cumulative IPC: 3.981 (Simulation time: 00 hr 38 min 59 sec)
Heartbeat CPU 0 instructions: 570000004 cycles: 143110249 heartbeat IPC: 4 cumulative IPC: 3.981 (Simulation time: 00 hr 39 min 44 sec)
Heartbeat CPU 0 instructions: 580000000 cycles: 145610271 heartbeat IPC: 4 cumulative IPC: 3.982 (Simulation time: 00 hr 40 min 30 sec)
Heartbeat CPU 0 instructions: 590000002 cycles: 148110308 heartbeat IPC: 4 cumulative IPC: 3.982 (Simulation time: 00 hr 41 min 14 sec)
*** Reached end of trace: (0, "traces/convolution.champsimtrace")
Heartbeat CPU 0 instructions: 600000000 cycles: 150618622 heartbeat IPC: 3.987 cumulative IPC: 3.982 (Simulation time: 00 hr 41 min 59 sec)
Heartbeat CPU 0 instructions: 610000002 cycles: 174084160 heartbeat IPC: 0.4262 cumulative IPC: 3.466 (Simulation time: 00 hr 45 min 25 sec)
Heartbeat CPU 0 instructions: 620000001 cycles: 195046983 heartbeat IPC: 0.477 cumulative IPC: 3.122 (Simulation time: 00 hr 48 min 37 sec)
Heartbeat CPU 0 instructions: 630000001 cycles: 206186616 heartbeat IPC: 0.8977 cumulative IPC: 2.995 (Simulation time: 00 hr 50 min 33 sec)
Heartbeat CPU 0 instructions: 640000004 cycles: 216637128 heartbeat IPC: 0.9569 cumulative IPC: 2.89 (Simulation time: 00 hr 52 min 23 sec)
Heartbeat CPU 0 instructions: 650000001 cycles: 227046432 heartbeat IPC: 0.9607 cumulative IPC: 2.797 (Simulation time: 00 hr 54 min 12 sec)
Simulation finished CPU 0 instructions: 600000001 cycles: 214546230 cumulative IPC: 2.797 (Simulation time: 00 hr 54 min 12 sec)
Simulation complete CPU 0 instructions: 600000001 cycles: 214546230 cumulative IPC: 2.797 (Simulation time: 00 hr 54 min 12 sec)

ChampSim completed all CPUs

=== Simulation ===
CPU 0 runs traces/convolution.champsimtrace
Region of Interest Statistics

CPU 0 cumulative IPC: 2.797 instructions: 600000001 cycles: 214546230
CPU 0 Branch Prediction Accuracy: 100% MPKI: 0.002858 Average ROB Occupancy at Mispredict: 77.6
Branch type MPKI
BRANCH_DIRECT_JUMP: 0.000107
BRANCH_INDIRECT: 4.17e-05
BRANCH_CONDITIONAL: 0.00258
BRANCH_DIRECT_CALL: 0.000103
BRANCH_INDIRECT_CALL: 8.33e-06
BRANCH_RETURN: 1.83e-05

LLC TOTAL        ACCESS:    1186063 HIT:     536816 MISS:     649247
LLC LOAD         ACCESS:       2886 HIT:        786 MISS:       2100
LLC RFO          ACCESS:     535121 HIT:         31 MISS:     535090
LLC PREFETCH     ACCESS:       2886 HIT:        277 MISS:       2609
LLC WRITE        ACCESS:     535181 HIT:     535159 MISS:         22
LLC TRANSLATION  ACCESS:     109989 HIT:        563 MISS:     109426
LLC PREFETCH REQUESTED:       2886 ISSUED:       2886 USEFUL:       1405 USELESS:        358
LLC AVERAGE MISS LATENCY: 987.4 cycles
cpu0_DTLB TOTAL        ACCESS:  113111146 HIT:  112757724 MISS:     353422
cpu0_DTLB LOAD         ACCESS:  113111146 HIT:  112757724 MISS:     353422
cpu0_DTLB RFO          ACCESS:          0 HIT:          0 MISS:          0
cpu0_DTLB PREFETCH     ACCESS:          0 HIT:          0 MISS:          0
cpu0_DTLB WRITE        ACCESS:          0 HIT:          0 MISS:          0
cpu0_DTLB TRANSLATION  ACCESS:          0 HIT:          0 MISS:          0
cpu0_DTLB PREFETCH REQUESTED:          0 ISSUED:          0 USEFUL:          0 USELESS:          0
cpu0_DTLB AVERAGE MISS LATENCY: 638.7 cycles
cpu0_ITLB TOTAL        ACCESS:       2096 HIT:       2060 MISS:         36
cpu0_ITLB LOAD         ACCESS:       2096 HIT:       2060 MISS:         36
cpu0_ITLB RFO          ACCESS:          0 HIT:          0 MISS:          0
cpu0_ITLB PREFETCH     ACCESS:          0 HIT:          0 MISS:          0
cpu0_ITLB WRITE        ACCESS:          0 HIT:          0 MISS:          0
cpu0_ITLB TRANSLATION  ACCESS:          0 HIT:          0 MISS:          0
cpu0_ITLB PREFETCH REQUESTED:          0 ISSUED:          0 USEFUL:          0 USELESS:          0
cpu0_ITLB AVERAGE MISS LATENCY: 1044 cycles
cpu0_L1D TOTAL        ACCESS:  146346738 HIT:  140155340 MISS:    6191398
cpu0_L1D LOAD         ACCESS:   74194047 HIT:   74186264 MISS:       7783
cpu0_L1D RFO          ACCESS:          0 HIT:          0 MISS:          0
cpu0_L1D PREFETCH     ACCESS:          0 HIT:          0 MISS:          0
cpu0_L1D WRITE        ACCESS:   71971874 HIT:   65930815 MISS:    6041059
cpu0_L1D TRANSLATION  ACCESS:     180817 HIT:      38261 MISS:     142556
cpu0_L1D PREFETCH REQUESTED:          0 ISSUED:          0 USEFUL:          0 USELESS:          0
cpu0_L1D AVERAGE MISS LATENCY: 80.02 cycles
cpu0_L1I TOTAL        ACCESS:       2452 HIT:        998 MISS:       1454
cpu0_L1I LOAD         ACCESS:       2452 HIT:        998 MISS:       1454
cpu0_L1I RFO          ACCESS:          0 HIT:          0 MISS:          0
cpu0_L1I PREFETCH     ACCESS:          0 HIT:          0 MISS:          0
cpu0_L1I WRITE        ACCESS:          0 HIT:          0 MISS:          0
cpu0_L1I TRANSLATION  ACCESS:          0 HIT:          0 MISS:          0
cpu0_L1I PREFETCH REQUESTED:          0 ISSUED:          0 USEFUL:          0 USELESS:          0
cpu0_L1I AVERAGE MISS LATENCY: 632.1 cycles
cpu0_L2C TOTAL        ACCESS:    1193510 HIT:     545496 MISS:     648014
cpu0_L2C LOAD         ACCESS:       3311 HIT:        425 MISS:       2886
cpu0_L2C RFO          ACCESS:     539220 HIT:       4099 MISS:     535121
cpu0_L2C PREFETCH     ACCESS:          0 HIT:          0 MISS:          0
cpu0_L2C WRITE        ACCESS:     539651 HIT:     539634 MISS:         17
cpu0_L2C TRANSLATION  ACCESS:     111328 HIT:       1338 MISS:     109990
cpu0_L2C PREFETCH REQUESTED:          0 ISSUED:          0 USEFUL:          0 USELESS:          0
cpu0_L2C AVERAGE MISS LATENCY: 1008 cycles
cpu0_STLB TOTAL        ACCESS:     156159 HIT:         53 MISS:     156106
cpu0_STLB LOAD         ACCESS:     156159 HIT:         53 MISS:     156106
cpu0_STLB RFO          ACCESS:          0 HIT:          0 MISS:          0
cpu0_STLB PREFETCH     ACCESS:          0 HIT:          0 MISS:          0
cpu0_STLB WRITE        ACCESS:          0 HIT:          0 MISS:          0
cpu0_STLB TRANSLATION  ACCESS:          0 HIT:          0 MISS:          0
cpu0_STLB PREFETCH REQUESTED:          0 ISSUED:          0 USEFUL:          0 USELESS:          0
cpu0_STLB AVERAGE MISS LATENCY: 1644 cycles

DRAM Statistics

Channel 0 RQ ROW_BUFFER_HIT:     141221
  ROW_BUFFER_MISS:     506541
 AVG DBUS CONGESTED CYCLE: 3.981
WQ ROW_BUFFER_HIT: Channel 0 
  ROW_BUFFER_MISS:     106041
  FULL:     429078
