WARNING: physical memory size is smaller than virtual memory size.

*** ChampSim Multicore Out-of-Order Simulator ***
Warmup Instructions: 50000000
Simulation Instructions: 600000000
Number of CPUs: 1
Page size: 4096

CPU 0 Tage branch predictor
Off-chip DRAM Size: 4 GiB Channels: 1 Width: 64-bit Data Race: 3200 MT/s
Heartbeat CPU 0 instructions: 10000000 cycles: 2500202 heartbeat IPC: 4 cumulative IPC: 4 (Simulation time: 00 hr 00 min 40 sec)
Heartbeat CPU 0 instructions: 20000000 cycles: 5000202 heartbeat IPC: 4 cumulative IPC: 4 (Simulation time: 00 hr 01 min 23 sec)
Heartbeat CPU 0 instructions: 30000000 cycles: 7500202 heartbeat IPC: 4 cumulative IPC: 4 (Simulation time: 00 hr 02 min 03 sec)
Heartbeat CPU 0 instructions: 40000000 cycles: 10000202 heartbeat IPC: 4 cumulative IPC: 4 (Simulation time: 00 hr 02 min 43 sec)
Heartbeat CPU 0 instructions: 50000000 cycles: 12500202 heartbeat IPC: 4 cumulative IPC: 4 (Simulation time: 00 hr 03 min 24 sec)
Warmup finished CPU 0 instructions: 50000000 cycles: 12500203 cumulative IPC: 4 (Simulation time: 00 hr 03 min 24 sec)
Warmup complete CPU 0 instructions: 50000000 cycles: 12500203 cumulative IPC: 4 (Simulation time: 00 hr 03 min 24 sec)
Heartbeat CPU 0 instructions: 60000002 cycles: 15620087 heartbeat IPC: 3.205 cumulative IPC: 3.205 (Simulation time: 00 hr 04 min 12 sec)
Heartbeat CPU 0 instructions: 70000002 cycles: 18122861 heartbeat IPC: 3.996 cumulative IPC: 3.557 (Simulation time: 00 hr 05 min 00 sec)
Heartbeat CPU 0 instructions: 80000003 cycles: 20622883 heartbeat IPC: 4 cumulative IPC: 3.693 (Simulation time: 00 hr 05 min 45 sec)
Heartbeat CPU 0 instructions: 90000004 cycles: 23122965 heartbeat IPC: 4 cumulative IPC: 3.765 (Simulation time: 00 hr 06 min 37 sec)
Heartbeat CPU 0 instructions: 100000003 cycles: 25628050 heartbeat IPC: 3.992 cumulative IPC: 3.809 (Simulation time: 00 hr 07 min 31 sec)
Heartbeat CPU 0 instructions: 110000000 cycles: 28128914 heartbeat IPC: 3.999 cumulative IPC: 3.839 (Simulation time: 00 hr 08 min 14 sec)
Heartbeat CPU 0 instructions: 120000000 cycles: 30629459 heartbeat IPC: 3.999 cumulative IPC: 3.861 (Simulation time: 00 hr 08 min 59 sec)
Heartbeat CPU 0 instructions: 130000000 cycles: 33129534 heartbeat IPC: 4 cumulative IPC: 3.878 (Simulation time: 00 hr 09 min 42 sec)
Heartbeat CPU 0 instructions: 140000001 cycles: 35629571 heartbeat IPC: 4 cumulative IPC: 3.891 (Simulation time: 00 hr 10 min 33 sec)
Heartbeat CPU 0 instructions: 150000003 cycles: 38129687 heartbeat IPC: 4 cumulative IPC: 3.902 (Simulation time: 00 hr 11 min 19 sec)
Heartbeat CPU 0 instructions: 160000003 cycles: 40631731 heartbeat IPC: 3.997 cumulative IPC: 3.91 (Simulation time: 00 hr 12 min 07 sec)
Heartbeat CPU 0 instructions: 170000001 cycles: 43131758 heartbeat IPC: 4 cumulative IPC: 3.918 (Simulation time: 00 hr 12 min 50 sec)
Heartbeat CPU 0 instructions: 180000001 cycles: 45631790 heartbeat IPC: 4 cumulative IPC: 3.924 (Simulation time: 00 hr 13 min 36 sec)
Heartbeat CPU 0 instructions: 190000002 cycles: 48133682 heartbeat IPC: 3.997 cumulative IPC: 3.929 (Simulation time: 00 hr 14 min 23 sec)
Heartbeat CPU 0 instructions: 200000002 cycles: 50633970 heartbeat IPC: 4 cumulative IPC: 3.934 (Simulation time: 00 hr 15 min 06 sec)
Heartbeat CPU 0 instructions: 210000000 cycles: 53139325 heartbeat IPC: 3.991 cumulative IPC: 3.937 (Simulation time: 00 hr 15 min 49 sec)
Heartbeat CPU 0 instructions: 220000001 cycles: 55639612 heartbeat IPC: 4 cumulative IPC: 3.941 (Simulation time: 00 hr 16 min 31 sec)
Heartbeat CPU 0 instructions: 230000002 cycles: 58139930 heartbeat IPC: 3.999 cumulative IPC: 3.944 (Simulation time: 00 hr 17 min 15 sec)
Heartbeat CPU 0 instructions: 240000004 cycles: 60639968 heartbeat IPC: 4 cumulative IPC: 3.947 (Simulation time: 00 hr 18 min 07 sec)
Heartbeat CPU 0 instructions: 250000000 cycles: 63142573 heartbeat IPC: 3.996 cumulative IPC: 3.949 (Simulation time: 00 hr 18 min 55 sec)
Heartbeat CPU 0 instructions: 260000000 cycles: 65643046 heartbeat IPC: 3.999 cumulative IPC: 3.952 (Simulation time: 00 hr 19 min 39 sec)
Heartbeat CPU 0 instructions: 270000002 cycles: 68143131 heartbeat IPC: 4 cumulative IPC: 3.954 (Simulation time: 00 hr 20 min 22 sec)
Heartbeat CPU 0 instructions: 280000003 cycles: 70643523 heartbeat IPC: 3.999 cumulative IPC: 3.956 (Simulation time: 00 hr 21 min 07 sec)
Heartbeat CPU 0 instructions: 290000000 cycles: 73144345 heartbeat IPC: 3.999 cumulative IPC: 3.958 (Simulation time: 00 hr 21 min 52 sec)
Heartbeat CPU 0 instructions: 300000000 cycles: 75648998 heartbeat IPC: 3.993 cumulative IPC: 3.959 (Simulation time: 00 hr 22 min 35 sec)
Heartbeat CPU 0 instructions: 310000002 cycles: 78150267 heartbeat IPC: 3.998 cumulative IPC: 3.96 (Simulation time: 00 hr 23 min 18 sec)
Heartbeat CPU 0 instructions: 320000004 cycles: 80650496 heartbeat IPC: 4 cumulative IPC: 3.962 (Simulation time: 00 hr 24 min 01 sec)
Heartbeat CPU 0 instructions: 330000000 cycles: 83150924 heartbeat IPC: 3.999 cumulative IPC: 3.963 (Simulation time: 00 hr 24 min 43 sec)
Heartbeat CPU 0 instructions: 340000002 cycles: 85652690 heartbeat IPC: 3.997 cumulative IPC: 3.964 (Simulation time: 00 hr 25 min 25 sec)
Heartbeat CPU 0 instructions: 350000002 cycles: 88152775 heartbeat IPC: 4 cumulative IPC: 3.965 (Simulation time: 00 hr 26 min 09 sec)
Heartbeat CPU 0 instructions: 360000000 cycles: 90658723 heartbeat IPC: 3.991 cumulative IPC: 3.966 (Simulation time: 00 hr 26 min 52 sec)
Heartbeat CPU 0 instructions: 370000004 cycles: 93158774 heartbeat IPC: 4 cumulative IPC: 3.967 (Simulation time: 00 hr 27 min 35 sec)
Heartbeat CPU 0 instructions: 380000000 cycles: 95658834 heartbeat IPC: 4 cumulative IPC: 3.968 (Simulation time: 00 hr 28 min 17 sec)
Heartbeat CPU 0 instructions: 390000000 cycles: 98158856 heartbeat IPC: 4 cumulative IPC: 3.969 (Simulation time: 00 hr 29 min 00 sec)
Heartbeat CPU 0 instructions: 400000000 cycles: 100660582 heartbeat IPC: 3.997 cumulative IPC: 3.97 (Simulation time: 00 hr 29 min 42 sec)
Heartbeat CPU 0 instructions: 410000000 cycles: 103162941 heartbeat IPC: 3.996 cumulative IPC: 3.971 (Simulation time: 00 hr 30 min 25 sec)
Heartbeat CPU 0 instructions: 420000001 cycles: 105662963 heartbeat IPC: 4 cumulative IPC: 3.972 (Simulation time: 00 hr 31 min 08 sec)
Heartbeat CPU 0 instructions: 430000003 cycles: 108162984 heartbeat IPC: 4 cumulative IPC: 3.972 (Simulation time: 00 hr 31 min 50 sec)
Heartbeat CPU 0 instructions: 440000003 cycles: 110663006 heartbeat IPC: 4 cumulative IPC: 3.973 (Simulation time: 00 hr 32 min 33 sec)
Heartbeat CPU 0 instructions: 450000000 cycles: 113167482 heartbeat IPC: 3.993 cumulative IPC: 3.973 (Simulation time: 00 hr 33 min 15 sec)
Heartbeat CPU 0 instructions: 460000001 cycles: 115668612 heartbeat IPC: 3.998 cumulative IPC: 3.974 (Simulation time: 00 hr 33 min 57 sec)
Heartbeat CPU 0 instructions: 470000002 cycles: 118168713 heartbeat IPC: 4 cumulative IPC: 3.975 (Simulation time: 00 hr 34 min 39 sec)
Heartbeat CPU 0 instructions: 480000001 cycles: 120669396 heartbeat IPC: 3.999 cumulative IPC: 3.975 (Simulation time: 00 hr 35 min 25 sec)
Heartbeat CPU 0 instructions: 490000000 cycles: 123170150 heartbeat IPC: 3.999 cumulative IPC: 3.976 (Simulation time: 00 hr 36 min 09 sec)
Heartbeat CPU 0 instructions: 500000002 cycles: 125672611 heartbeat IPC: 3.996 cumulative IPC: 3.976 (Simulation time: 00 hr 36 min 51 sec)
Heartbeat CPU 0 instructions: 510000003 cycles: 128174029 heartbeat IPC: 3.998 cumulative IPC: 3.977 (Simulation time: 00 hr 37 min 33 sec)
Heartbeat CPU 0 instructions: 520000004 cycles: 130674052 heartbeat IPC: 4 cumulative IPC: 3.977 (Simulation time: 00 hr 38 min 15 sec)
Heartbeat CPU 0 instructions: 530000000 cycles: 133174139 heartbeat IPC: 4 cumulative IPC: 3.978 (Simulation time: 00 hr 38 min 57 sec)
Heartbeat CPU 0 instructions: 540000001 cycles: 135677709 heartbeat IPC: 3.994 cumulative IPC: 3.978 (Simulation time: 00 hr 39 min 43 sec)
Heartbeat CPU 0 instructions: 550000002 cycles: 138178087 heartbeat IPC: 3.999 cumulative IPC: 3.978 (Simulation time: 00 hr 40 min 27 sec)
Heartbeat CPU 0 instructions: 560000003 cycles: 140679853 heartbeat IPC: 3.997 cumulative IPC: 3.979 (Simulation time: 00 hr 41 min 14 sec)
Heartbeat CPU 0 instructions: 570000004 cycles: 143180130 heartbeat IPC: 4 cumulative IPC: 3.979 (Simulation time: 00 hr 41 min 59 sec)
Heartbeat CPU 0 instructions: 580000000 cycles: 145680153 heartbeat IPC: 4 cumulative IPC: 3.98 (Simulation time: 00 hr 42 min 42 sec)
Heartbeat CPU 0 instructions: 590000002 cycles: 148180813 heartbeat IPC: 3.999 cumulative IPC: 3.98 (Simulation time: 00 hr 43 min 25 sec)
*** Reached end of trace: (0, "traces/convolution.champsimtrace")
Heartbeat CPU 0 instructions: 600000000 cycles: 150687211 heartbeat IPC: 3.99 cumulative IPC: 3.98 (Simulation time: 00 hr 44 min 14 sec)
Heartbeat CPU 0 instructions: 610000001 cycles: 174024394 heartbeat IPC: 0.4285 cumulative IPC: 3.467 (Simulation time: 00 hr 47 min 36 sec)
Heartbeat CPU 0 instructions: 620000001 cycles: 196154002 heartbeat IPC: 0.4519 cumulative IPC: 3.104 (Simulation time: 00 hr 51 min 02 sec)
Heartbeat CPU 0 instructions: 630000001 cycles: 207340487 heartbeat IPC: 0.8939 cumulative IPC: 2.977 (Simulation time: 00 hr 52 min 54 sec)
Heartbeat CPU 0 instructions: 640000004 cycles: 218021682 heartbeat IPC: 0.9362 cumulative IPC: 2.871 (Simulation time: 00 hr 54 min 41 sec)
Heartbeat CPU 0 instructions: 650000001 cycles: 228846567 heartbeat IPC: 0.9238 cumulative IPC: 2.773 (Simulation time: 00 hr 56 min 27 sec)
Simulation finished CPU 0 instructions: 600000001 cycles: 216346365 cumulative IPC: 2.773 (Simulation time: 00 hr 56 min 27 sec)
Simulation complete CPU 0 instructions: 600000001 cycles: 216346365 cumulative IPC: 2.773 (Simulation time: 00 hr 56 min 27 sec)

ChampSim completed all CPUs

=== Simulation ===
CPU 0 runs traces/convolution.champsimtrace
Region of Interest Statistics

CPU 0 cumulative IPC: 2.773 instructions: 600000001 cycles: 216346365
CPU 0 Branch Prediction Accuracy: 100% MPKI: 0.002858 Average ROB Occupancy at Mispredict: 76.99
Branch type MPKI
BRANCH_DIRECT_JUMP: 0.000107
BRANCH_INDIRECT: 4.17e-05
BRANCH_CONDITIONAL: 0.00258
BRANCH_DIRECT_CALL: 0.000103
BRANCH_INDIRECT_CALL: 8.33e-06
BRANCH_RETURN: 1.83e-05

LLC TOTAL        ACCESS:    1186425 HIT:     210836 MISS:     975589
LLC LOAD         ACCESS:       2887 HIT:        761 MISS:       2126
LLC RFO          ACCESS:     535120 HIT:         45 MISS:     535075
LLC PREFETCH     ACCESS:       2887 HIT:        269 MISS:       2618
LLC WRITE        ACCESS:     535166 HIT:     209344 MISS:     325822
LLC TRANSLATION  ACCESS:     110365 HIT:        417 MISS:     109948
LLC PREFETCH REQUESTED:       2887 ISSUED:       2887 USEFUL:       1432 USELESS:        372
LLC AVERAGE MISS LATENCY: 733.9 cycles
cpu0_DTLB TOTAL        ACCESS:  113104340 HIT:  112751127 MISS:     353213
cpu0_DTLB LOAD         ACCESS:  113104340 HIT:  112751127 MISS:     353213
cpu0_DTLB RFO          ACCESS:          0 HIT:          0 MISS:          0
cpu0_DTLB PREFETCH     ACCESS:          0 HIT:          0 MISS:          0
cpu0_DTLB WRITE        ACCESS:          0 HIT:          0 MISS:          0
cpu0_DTLB TRANSLATION  ACCESS:          0 HIT:          0 MISS:          0
cpu0_DTLB PREFETCH REQUESTED:          0 ISSUED:          0 USEFUL:          0 USELESS:          0
cpu0_DTLB AVERAGE MISS LATENCY: 650.6 cycles
cpu0_ITLB TOTAL        ACCESS:       2096 HIT:       2062 MISS:         34
cpu0_ITLB LOAD         ACCESS:       2096 HIT:       2062 MISS:         34
cpu0_ITLB RFO          ACCESS:          0 HIT:          0 MISS:          0
cpu0_ITLB PREFETCH     ACCESS:          0 HIT:          0 MISS:          0
cpu0_ITLB WRITE        ACCESS:          0 HIT:          0 MISS:          0
cpu0_ITLB TRANSLATION  ACCESS:          0 HIT:          0 MISS:          0
cpu0_ITLB PREFETCH REQUESTED:          0 ISSUED:          0 USEFUL:          0 USELESS:          0
cpu0_ITLB AVERAGE MISS LATENCY: 742.2 cycles
cpu0_L1D TOTAL        ACCESS:  146339847 HIT:  140153794 MISS:    6186053
cpu0_L1D LOAD         ACCESS:   74190357 HIT:   74182684 MISS:       7673
cpu0_L1D RFO          ACCESS:          0 HIT:          0 MISS:          0
cpu0_L1D PREFETCH     ACCESS:          0 HIT:          0 MISS:          0
cpu0_L1D WRITE        ACCESS:   71968441 HIT:   65932722 MISS:    6035719
cpu0_L1D TRANSLATION  ACCESS:     181049 HIT:      38388 MISS:     142661
cpu0_L1D PREFETCH REQUESTED:          0 ISSUED:          0 USEFUL:          0 USELESS:          0
cpu0_L1D AVERAGE MISS LATENCY: 92.08 cycles
cpu0_L1I TOTAL        ACCESS:       2452 HIT:       1002 MISS:       1450
cpu0_L1I LOAD         ACCESS:       2452 HIT:       1002 MISS:       1450
cpu0_L1I RFO          ACCESS:          0 HIT:          0 MISS:          0
cpu0_L1I PREFETCH     ACCESS:          0 HIT:          0 MISS:          0
cpu0_L1I WRITE        ACCESS:          0 HIT:          0 MISS:          0
cpu0_L1I TRANSLATION  ACCESS:          0 HIT:          0 MISS:          0
cpu0_L1I PREFETCH REQUESTED:          0 ISSUED:          0 USEFUL:          0 USELESS:          0
cpu0_L1I AVERAGE MISS LATENCY: 742.1 cycles
cpu0_L2C TOTAL        ACCESS:    1194154 HIT:     545766 MISS:     648388
cpu0_L2C LOAD         ACCESS:       3312 HIT:        425 MISS:       2887
cpu0_L2C RFO          ACCESS:     539305 HIT:       4185 MISS:     535120
cpu0_L2C PREFETCH     ACCESS:          0 HIT:          0 MISS:          0
cpu0_L2C WRITE        ACCESS:     539637 HIT:     539622 MISS:         15
cpu0_L2C TRANSLATION  ACCESS:     111900 HIT:       1534 MISS:     110366
cpu0_L2C PREFETCH REQUESTED:          0 ISSUED:          0 USEFUL:          0 USELESS:          0
cpu0_L2C AVERAGE MISS LATENCY: 1122 cycles
cpu0_STLB TOTAL        ACCESS:     156159 HIT:         49 MISS:     156110
cpu0_STLB LOAD         ACCESS:     156159 HIT:         49 MISS:     156110
cpu0_STLB RFO          ACCESS:          0 HIT:          0 MISS:          0
cpu0_STLB PREFETCH     ACCESS:          0 HIT:          0 MISS:          0
cpu0_STLB WRITE        ACCESS:          0 HIT:          0 MISS:          0
cpu0_STLB TRANSLATION  ACCESS:          0 HIT:          0 MISS:          0
cpu0_STLB PREFETCH REQUESTED:          0 ISSUED:          0 USEFUL:          0 USELESS:          0
cpu0_STLB AVERAGE MISS LATENCY: 1677 cycles

DRAM Statistics

Channel 0 RQ ROW_BUFFER_HIT:     157154
  ROW_BUFFER_MISS:     491133
 AVG DBUS CONGESTED CYCLE: 3.982
WQ ROW_BUFFER_HIT: Channel 0 
  ROW_BUFFER_MISS:      61459
  FULL:     473807
