WARNING: physical memory size is smaller than virtual memory size.

*** ChampSim Multicore Out-of-Order Simulator ***
Warmup Instructions: 50000000
Simulation Instructions: 600000000
Number of CPUs: 1
Page size: 4096

Off-chip DRAM Size: 4 GiB Channels: 1 Width: 64-bit Data Race: 3200 MT/s
Heartbeat CPU 0 instructions: 10000000 cycles: 2500202 heartbeat IPC: 4 cumulative IPC: 4 (Simulation time: 00 hr 00 min 35 sec)
Heartbeat CPU 0 instructions: 20000000 cycles: 5000202 heartbeat IPC: 4 cumulative IPC: 4 (Simulation time: 00 hr 01 min 11 sec)
Heartbeat CPU 0 instructions: 30000000 cycles: 7500202 heartbeat IPC: 4 cumulative IPC: 4 (Simulation time: 00 hr 01 min 45 sec)
Heartbeat CPU 0 instructions: 40000000 cycles: 10000202 heartbeat IPC: 4 cumulative IPC: 4 (Simulation time: 00 hr 02 min 20 sec)
Heartbeat CPU 0 instructions: 50000000 cycles: 12500202 heartbeat IPC: 4 cumulative IPC: 4 (Simulation time: 00 hr 02 min 55 sec)
Warmup finished CPU 0 instructions: 50000000 cycles: 12500203 cumulative IPC: 4 (Simulation time: 00 hr 02 min 55 sec)
Warmup complete CPU 0 instructions: 50000000 cycles: 12500203 cumulative IPC: 4 (Simulation time: 00 hr 02 min 55 sec)
Heartbeat CPU 0 instructions: 60000002 cycles: 15789016 heartbeat IPC: 3.041 cumulative IPC: 3.041 (Simulation time: 00 hr 03 min 35 sec)
Heartbeat CPU 0 instructions: 70000002 cycles: 18503656 heartbeat IPC: 3.684 cumulative IPC: 3.331 (Simulation time: 00 hr 04 min 12 sec)
Heartbeat CPU 0 instructions: 80000003 cycles: 21209016 heartbeat IPC: 3.696 cumulative IPC: 3.445 (Simulation time: 00 hr 04 min 55 sec)
Heartbeat CPU 0 instructions: 90000004 cycles: 23918670 heartbeat IPC: 3.691 cumulative IPC: 3.503 (Simulation time: 00 hr 05 min 31 sec)
Heartbeat CPU 0 instructions: 100000003 cycles: 26626930 heartbeat IPC: 3.692 cumulative IPC: 3.539 (Simulation time: 00 hr 06 min 07 sec)
Heartbeat CPU 0 instructions: 110000000 cycles: 29338194 heartbeat IPC: 3.688 cumulative IPC: 3.563 (Simulation time: 00 hr 06 min 46 sec)
Heartbeat CPU 0 instructions: 120000000 cycles: 32044769 heartbeat IPC: 3.695 cumulative IPC: 3.582 (Simulation time: 00 hr 07 min 26 sec)
Heartbeat CPU 0 instructions: 130000000 cycles: 34750995 heartbeat IPC: 3.695 cumulative IPC: 3.595 (Simulation time: 00 hr 08 min 05 sec)
Heartbeat CPU 0 instructions: 140000001 cycles: 37458406 heartbeat IPC: 3.694 cumulative IPC: 3.606 (Simulation time: 00 hr 08 min 46 sec)
Heartbeat CPU 0 instructions: 150000003 cycles: 40164979 heartbeat IPC: 3.695 cumulative IPC: 3.615 (Simulation time: 00 hr 09 min 25 sec)
Heartbeat CPU 0 instructions: 160000003 cycles: 42870879 heartbeat IPC: 3.696 cumulative IPC: 3.622 (Simulation time: 00 hr 10 min 01 sec)
Heartbeat CPU 0 instructions: 170000001 cycles: 45579299 heartbeat IPC: 3.692 cumulative IPC: 3.628 (Simulation time: 00 hr 10 min 37 sec)
Heartbeat CPU 0 instructions: 180000001 cycles: 48285081 heartbeat IPC: 3.696 cumulative IPC: 3.633 (Simulation time: 00 hr 11 min 13 sec)
Heartbeat CPU 0 instructions: 190000002 cycles: 50991162 heartbeat IPC: 3.695 cumulative IPC: 3.637 (Simulation time: 00 hr 11 min 50 sec)
Heartbeat CPU 0 instructions: 200000001 cycles: 53697259 heartbeat IPC: 3.695 cumulative IPC: 3.641 (Simulation time: 00 hr 12 min 26 sec)
Heartbeat CPU 0 instructions: 210000000 cycles: 56406596 heartbeat IPC: 3.691 cumulative IPC: 3.644 (Simulation time: 00 hr 13 min 02 sec)
Heartbeat CPU 0 instructions: 220000001 cycles: 59113769 heartbeat IPC: 3.694 cumulative IPC: 3.647 (Simulation time: 00 hr 13 min 47 sec)
Heartbeat CPU 0 instructions: 230000002 cycles: 61821975 heartbeat IPC: 3.692 cumulative IPC: 3.65 (Simulation time: 00 hr 14 min 26 sec)
Heartbeat CPU 0 instructions: 240000004 cycles: 64528473 heartbeat IPC: 3.695 cumulative IPC: 3.652 (Simulation time: 00 hr 15 min 04 sec)
Heartbeat CPU 0 instructions: 250000000 cycles: 67236352 heartbeat IPC: 3.693 cumulative IPC: 3.654 (Simulation time: 00 hr 15 min 42 sec)
Heartbeat CPU 0 instructions: 260000000 cycles: 69949246 heartbeat IPC: 3.686 cumulative IPC: 3.655 (Simulation time: 00 hr 16 min 18 sec)
Heartbeat CPU 0 instructions: 270000002 cycles: 72653870 heartbeat IPC: 3.697 cumulative IPC: 3.657 (Simulation time: 00 hr 16 min 54 sec)
Heartbeat CPU 0 instructions: 280000003 cycles: 75359804 heartbeat IPC: 3.696 cumulative IPC: 3.659 (Simulation time: 00 hr 17 min 30 sec)
Heartbeat CPU 0 instructions: 290000003 cycles: 78068144 heartbeat IPC: 3.692 cumulative IPC: 3.66 (Simulation time: 00 hr 18 min 07 sec)
Heartbeat CPU 0 instructions: 300000000 cycles: 80779733 heartbeat IPC: 3.688 cumulative IPC: 3.661 (Simulation time: 00 hr 18 min 44 sec)
Heartbeat CPU 0 instructions: 310000002 cycles: 83484640 heartbeat IPC: 3.697 cumulative IPC: 3.663 (Simulation time: 00 hr 19 min 21 sec)
Heartbeat CPU 0 instructions: 320000004 cycles: 86190034 heartbeat IPC: 3.696 cumulative IPC: 3.664 (Simulation time: 00 hr 19 min 57 sec)
Heartbeat CPU 0 instructions: 330000000 cycles: 88899293 heartbeat IPC: 3.691 cumulative IPC: 3.665 (Simulation time: 00 hr 20 min 33 sec)
Heartbeat CPU 0 instructions: 340000002 cycles: 91605153 heartbeat IPC: 3.696 cumulative IPC: 3.666 (Simulation time: 00 hr 21 min 09 sec)
Heartbeat CPU 0 instructions: 350000002 cycles: 94313643 heartbeat IPC: 3.692 cumulative IPC: 3.667 (Simulation time: 00 hr 21 min 45 sec)
Heartbeat CPU 0 instructions: 360000001 cycles: 97021104 heartbeat IPC: 3.693 cumulative IPC: 3.668 (Simulation time: 00 hr 22 min 21 sec)
Heartbeat CPU 0 instructions: 370000004 cycles: 99728826 heartbeat IPC: 3.693 cumulative IPC: 3.669 (Simulation time: 00 hr 22 min 58 sec)
Heartbeat CPU 0 instructions: 380000000 cycles: 102437415 heartbeat IPC: 3.692 cumulative IPC: 3.669 (Simulation time: 00 hr 23 min 34 sec)
Heartbeat CPU 0 instructions: 390000004 cycles: 105142389 heartbeat IPC: 3.697 cumulative IPC: 3.67 (Simulation time: 00 hr 24 min 11 sec)
Heartbeat CPU 0 instructions: 400000000 cycles: 107850033 heartbeat IPC: 3.693 cumulative IPC: 3.671 (Simulation time: 00 hr 24 min 48 sec)
Heartbeat CPU 0 instructions: 410000000 cycles: 110558608 heartbeat IPC: 3.692 cumulative IPC: 3.671 (Simulation time: 00 hr 25 min 25 sec)
Heartbeat CPU 0 instructions: 420000001 cycles: 113264659 heartbeat IPC: 3.695 cumulative IPC: 3.672 (Simulation time: 00 hr 26 min 02 sec)
Heartbeat CPU 0 instructions: 430000003 cycles: 115971677 heartbeat IPC: 3.694 cumulative IPC: 3.673 (Simulation time: 00 hr 26 min 39 sec)
Heartbeat CPU 0 instructions: 440000003 cycles: 118680138 heartbeat IPC: 3.692 cumulative IPC: 3.673 (Simulation time: 00 hr 27 min 15 sec)
Heartbeat CPU 0 instructions: 450000004 cycles: 121389890 heartbeat IPC: 3.69 cumulative IPC: 3.673 (Simulation time: 00 hr 27 min 51 sec)
Heartbeat CPU 0 instructions: 460000001 cycles: 124100312 heartbeat IPC: 3.689 cumulative IPC: 3.674 (Simulation time: 00 hr 28 min 27 sec)
Heartbeat CPU 0 instructions: 470000002 cycles: 126806811 heartbeat IPC: 3.695 cumulative IPC: 3.674 (Simulation time: 00 hr 29 min 03 sec)
Heartbeat CPU 0 instructions: 480000001 cycles: 129513726 heartbeat IPC: 3.694 cumulative IPC: 3.675 (Simulation time: 00 hr 29 min 39 sec)
Heartbeat CPU 0 instructions: 490000000 cycles: 132222015 heartbeat IPC: 3.692 cumulative IPC: 3.675 (Simulation time: 00 hr 30 min 15 sec)
Heartbeat CPU 0 instructions: 500000002 cycles: 134929457 heartbeat IPC: 3.694 cumulative IPC: 3.676 (Simulation time: 00 hr 30 min 51 sec)
Heartbeat CPU 0 instructions: 510000003 cycles: 137636840 heartbeat IPC: 3.694 cumulative IPC: 3.676 (Simulation time: 00 hr 31 min 30 sec)
Heartbeat CPU 0 instructions: 520000004 cycles: 140341523 heartbeat IPC: 3.697 cumulative IPC: 3.676 (Simulation time: 00 hr 32 min 08 sec)
Heartbeat CPU 0 instructions: 530000000 cycles: 143047164 heartbeat IPC: 3.696 cumulative IPC: 3.677 (Simulation time: 00 hr 32 min 46 sec)
Heartbeat CPU 0 instructions: 540000000 cycles: 145759346 heartbeat IPC: 3.687 cumulative IPC: 3.677 (Simulation time: 00 hr 33 min 24 sec)
Heartbeat CPU 0 instructions: 550000003 cycles: 148465958 heartbeat IPC: 3.695 cumulative IPC: 3.677 (Simulation time: 00 hr 34 min 00 sec)
Heartbeat CPU 0 instructions: 560000003 cycles: 151176566 heartbeat IPC: 3.689 cumulative IPC: 3.678 (Simulation time: 00 hr 34 min 37 sec)
Heartbeat CPU 0 instructions: 570000004 cycles: 153883735 heartbeat IPC: 3.694 cumulative IPC: 3.678 (Simulation time: 00 hr 35 min 14 sec)
Heartbeat CPU 0 instructions: 580000000 cycles: 156594841 heartbeat IPC: 3.689 cumulative IPC: 3.678 (Simulation time: 00 hr 35 min 53 sec)
Heartbeat CPU 0 instructions: 590000002 cycles: 159302587 heartbeat IPC: 3.693 cumulative IPC: 3.678 (Simulation time: 00 hr 36 min 32 sec)
*** Reached end of trace: (0, "traces/convolution.champsimtrace")
Heartbeat CPU 0 instructions: 600000000 cycles: 162017451 heartbeat IPC: 3.683 cumulative IPC: 3.679 (Simulation time: 00 hr 37 min 09 sec)
Heartbeat CPU 0 instructions: 610000002 cycles: 183159353 heartbeat IPC: 0.473 cumulative IPC: 3.281 (Simulation time: 00 hr 40 min 02 sec)
Heartbeat CPU 0 instructions: 620000001 cycles: 202149455 heartbeat IPC: 0.5266 cumulative IPC: 3.006 (Simulation time: 00 hr 42 min 50 sec)
Heartbeat CPU 0 instructions: 630000001 cycles: 208665438 heartbeat IPC: 1.535 cumulative IPC: 2.957 (Simulation time: 00 hr 43 min 58 sec)
Heartbeat CPU 0 instructions: 640000004 cycles: 219259516 heartbeat IPC: 0.9439 cumulative IPC: 2.854 (Simulation time: 00 hr 45 min 42 sec)
Heartbeat CPU 0 instructions: 650000001 cycles: 230035641 heartbeat IPC: 0.928 cumulative IPC: 2.758 (Simulation time: 00 hr 47 min 25 sec)
Simulation finished CPU 0 instructions: 600000001 cycles: 217535439 cumulative IPC: 2.758 (Simulation time: 00 hr 47 min 25 sec)
Simulation complete CPU 0 instructions: 600000001 cycles: 217535439 cumulative IPC: 2.758 (Simulation time: 00 hr 47 min 25 sec)

ChampSim completed all CPUs

=== Simulation ===
CPU 0 runs traces/convolution.champsimtrace
Region of Interest Statistics

CPU 0 cumulative IPC: 2.758 instructions: 600000001 cycles: 217535439
CPU 0 Branch Prediction Accuracy: 99.3% MPKI: 1.265 Average ROB Occupancy at Mispredict: 64.12
Branch type MPKI
BRANCH_DIRECT_JUMP: 0.000107
BRANCH_INDIRECT: 4.17e-05
BRANCH_CONDITIONAL: 1.26
BRANCH_DIRECT_CALL: 0.000103
BRANCH_INDIRECT_CALL: 8.33e-06
BRANCH_RETURN: 1.83e-05

LLC TOTAL        ACCESS:    1184979 HIT:      65301 MISS:    1119678
LLC LOAD         ACCESS:       2889 HIT:        934 MISS:       1955
LLC RFO          ACCESS:     535120 HIT:      29937 MISS:     505183
LLC PREFETCH     ACCESS:       2065 HIT:       2004 MISS:         61
LLC WRITE        ACCESS:     535177 HIT:      31983 MISS:     503194
LLC TRANSLATION  ACCESS:     109728 HIT:        443 MISS:     109285
LLC PREFETCH REQUESTED:       2065 ISSUED:       2065 USEFUL:         16 USELESS:         25
LLC AVERAGE MISS LATENCY: 528.4 cycles
cpu0_DTLB TOTAL        ACCESS:  121649223 HIT:  121297061 MISS:     352162
cpu0_DTLB LOAD         ACCESS:  121649223 HIT:  121297061 MISS:     352162
cpu0_DTLB RFO          ACCESS:          0 HIT:          0 MISS:          0
cpu0_DTLB PREFETCH     ACCESS:          0 HIT:          0 MISS:          0
cpu0_DTLB WRITE        ACCESS:          0 HIT:          0 MISS:          0
cpu0_DTLB TRANSLATION  ACCESS:          0 HIT:          0 MISS:          0
cpu0_DTLB PREFETCH REQUESTED:          0 ISSUED:          0 USEFUL:          0 USELESS:          0
cpu0_DTLB AVERAGE MISS LATENCY: 578.1 cycles
cpu0_ITLB TOTAL        ACCESS:       2025 HIT:       1991 MISS:         34
cpu0_ITLB LOAD         ACCESS:       2025 HIT:       1991 MISS:         34
cpu0_ITLB RFO          ACCESS:          0 HIT:          0 MISS:          0
cpu0_ITLB PREFETCH     ACCESS:          0 HIT:          0 MISS:          0
cpu0_ITLB WRITE        ACCESS:          0 HIT:          0 MISS:          0
cpu0_ITLB TRANSLATION  ACCESS:          0 HIT:          0 MISS:          0
cpu0_ITLB PREFETCH REQUESTED:          0 ISSUED:          0 USEFUL:          0 USELESS:          0
cpu0_ITLB AVERAGE MISS LATENCY: 493.8 cycles
cpu0_L1D TOTAL        ACCESS:  162758474 HIT:  156621420 MISS:    6137054
cpu0_L1D LOAD         ACCESS:   90533175 HIT:   90525742 MISS:       7433
cpu0_L1D RFO          ACCESS:          0 HIT:          0 MISS:          0
cpu0_L1D PREFETCH     ACCESS:          0 HIT:          0 MISS:          0
cpu0_L1D WRITE        ACCESS:   72044578 HIT:   66056983 MISS:    5987595
cpu0_L1D TRANSLATION  ACCESS:     180721 HIT:      38695 MISS:     142026
cpu0_L1D PREFETCH REQUESTED:          0 ISSUED:          0 USEFUL:          0 USELESS:          0
cpu0_L1D AVERAGE MISS LATENCY: 74.06 cycles
cpu0_L1I TOTAL        ACCESS:       2340 HIT:       1009 MISS:       1331
cpu0_L1I LOAD         ACCESS:       2340 HIT:       1009 MISS:       1331
cpu0_L1I RFO          ACCESS:          0 HIT:          0 MISS:          0
cpu0_L1I PREFETCH     ACCESS:          0 HIT:          0 MISS:          0
cpu0_L1I WRITE        ACCESS:          0 HIT:          0 MISS:          0
cpu0_L1I TRANSLATION  ACCESS:          0 HIT:          0 MISS:          0
cpu0_L1I PREFETCH REQUESTED:          0 ISSUED:          0 USEFUL:          0 USELESS:          0
cpu0_L1I AVERAGE MISS LATENCY: 606.1 cycles
cpu0_L2C TOTAL        ACCESS:    1190666 HIT:     542910 MISS:     647756
cpu0_L2C LOAD         ACCESS:       3313 HIT:        424 MISS:       2889
cpu0_L2C RFO          ACCESS:     538073 HIT:       2953 MISS:     535120
cpu0_L2C PREFETCH     ACCESS:          0 HIT:          0 MISS:          0
cpu0_L2C WRITE        ACCESS:     538215 HIT:     538197 MISS:         18
cpu0_L2C TRANSLATION  ACCESS:     111065 HIT:       1336 MISS:     109729
cpu0_L2C PREFETCH REQUESTED:          0 ISSUED:          0 USEFUL:          0 USELESS:          0
cpu0_L2C AVERAGE MISS LATENCY: 934.3 cycles
cpu0_STLB TOTAL        ACCESS:     156150 HIT:         45 MISS:     156105
cpu0_STLB LOAD         ACCESS:     156150 HIT:         45 MISS:     156105
cpu0_STLB RFO          ACCESS:          0 HIT:          0 MISS:          0
cpu0_STLB PREFETCH     ACCESS:          0 HIT:          0 MISS:          0
cpu0_STLB WRITE        ACCESS:          0 HIT:          0 MISS:          0
cpu0_STLB TRANSLATION  ACCESS:          0 HIT:          0 MISS:          0
cpu0_STLB PREFETCH REQUESTED:          0 ISSUED:          0 USEFUL:          0 USELESS:          0
cpu0_STLB AVERAGE MISS LATENCY: 1475 cycles

DRAM Statistics

Channel 0 RQ ROW_BUFFER_HIT:     141993
  ROW_BUFFER_MISS:     474453
 AVG DBUS CONGESTED CYCLE: 3.975
WQ ROW_BUFFER_HIT: Channel 0 
  ROW_BUFFER_MISS:     124457
  FULL:     380681
