WARNING: physical memory size is smaller than virtual memory size.

*** ChampSim Multicore Out-of-Order Simulator ***
Warmup Instructions: 50000000
Simulation Instructions: 600000000
Number of CPUs: 1
Page size: 4096

Off-chip DRAM Size: 4 GiB Channels: 1 Width: 64-bit Data Race: 3200 MT/s
Heartbeat CPU 0 instructions: 10000000 cycles: 2500202 heartbeat IPC: 4 cumulative IPC: 4 (Simulation time: 00 hr 00 min 34 sec)
Heartbeat CPU 0 instructions: 20000000 cycles: 5000202 heartbeat IPC: 4 cumulative IPC: 4 (Simulation time: 00 hr 01 min 06 sec)
Heartbeat CPU 0 instructions: 30000000 cycles: 7500202 heartbeat IPC: 4 cumulative IPC: 4 (Simulation time: 00 hr 01 min 39 sec)
Heartbeat CPU 0 instructions: 40000000 cycles: 10000202 heartbeat IPC: 4 cumulative IPC: 4 (Simulation time: 00 hr 02 min 12 sec)
Heartbeat CPU 0 instructions: 50000000 cycles: 12500202 heartbeat IPC: 4 cumulative IPC: 4 (Simulation time: 00 hr 02 min 46 sec)
Warmup finished CPU 0 instructions: 50000000 cycles: 12500203 cumulative IPC: 4 (Simulation time: 00 hr 02 min 46 sec)
Warmup complete CPU 0 instructions: 50000000 cycles: 12500203 cumulative IPC: 4 (Simulation time: 00 hr 02 min 46 sec)
Heartbeat CPU 0 instructions: 60000002 cycles: 15727552 heartbeat IPC: 3.099 cumulative IPC: 3.099 (Simulation time: 00 hr 03 min 30 sec)
Heartbeat CPU 0 instructions: 70000002 cycles: 18387359 heartbeat IPC: 3.76 cumulative IPC: 3.397 (Simulation time: 00 hr 04 min 09 sec)
Heartbeat CPU 0 instructions: 80000003 cycles: 21046632 heartbeat IPC: 3.76 cumulative IPC: 3.51 (Simulation time: 00 hr 04 min 48 sec)
Heartbeat CPU 0 instructions: 90000004 cycles: 23701603 heartbeat IPC: 3.767 cumulative IPC: 3.571 (Simulation time: 00 hr 05 min 28 sec)
Heartbeat CPU 0 instructions: 100000003 cycles: 26360608 heartbeat IPC: 3.761 cumulative IPC: 3.607 (Simulation time: 00 hr 06 min 07 sec)
Heartbeat CPU 0 instructions: 110000000 cycles: 29015899 heartbeat IPC: 3.766 cumulative IPC: 3.633 (Simulation time: 00 hr 06 min 43 sec)
Heartbeat CPU 0 instructions: 120000000 cycles: 31670084 heartbeat IPC: 3.768 cumulative IPC: 3.652 (Simulation time: 00 hr 07 min 21 sec)
Heartbeat CPU 0 instructions: 130000000 cycles: 34325690 heartbeat IPC: 3.766 cumulative IPC: 3.665 (Simulation time: 00 hr 08 min 00 sec)
Heartbeat CPU 0 instructions: 140000001 cycles: 36983179 heartbeat IPC: 3.763 cumulative IPC: 3.676 (Simulation time: 00 hr 08 min 38 sec)
Heartbeat CPU 0 instructions: 150000003 cycles: 39639756 heartbeat IPC: 3.764 cumulative IPC: 3.685 (Simulation time: 00 hr 09 min 19 sec)
Heartbeat CPU 0 instructions: 160000003 cycles: 42292856 heartbeat IPC: 3.769 cumulative IPC: 3.692 (Simulation time: 00 hr 09 min 56 sec)
Heartbeat CPU 0 instructions: 170000001 cycles: 44945971 heartbeat IPC: 3.769 cumulative IPC: 3.698 (Simulation time: 00 hr 10 min 32 sec)
Heartbeat CPU 0 instructions: 180000001 cycles: 47600951 heartbeat IPC: 3.767 cumulative IPC: 3.704 (Simulation time: 00 hr 11 min 11 sec)
Heartbeat CPU 0 instructions: 190000002 cycles: 50256559 heartbeat IPC: 3.766 cumulative IPC: 3.708 (Simulation time: 00 hr 11 min 47 sec)
Heartbeat CPU 0 instructions: 200000001 cycles: 52913052 heartbeat IPC: 3.764 cumulative IPC: 3.712 (Simulation time: 00 hr 12 min 25 sec)
Heartbeat CPU 0 instructions: 210000000 cycles: 55570612 heartbeat IPC: 3.763 cumulative IPC: 3.715 (Simulation time: 00 hr 13 min 04 sec)
Heartbeat CPU 0 instructions: 220000001 cycles: 58226982 heartbeat IPC: 3.765 cumulative IPC: 3.718 (Simulation time: 00 hr 13 min 45 sec)
Heartbeat CPU 0 instructions: 230000002 cycles: 60881216 heartbeat IPC: 3.768 cumulative IPC: 3.72 (Simulation time: 00 hr 14 min 23 sec)
Heartbeat CPU 0 instructions: 240000004 cycles: 63539513 heartbeat IPC: 3.762 cumulative IPC: 3.723 (Simulation time: 00 hr 15 min 02 sec)
Heartbeat CPU 0 instructions: 250000000 cycles: 66196609 heartbeat IPC: 3.764 cumulative IPC: 3.725 (Simulation time: 00 hr 15 min 41 sec)
Heartbeat CPU 0 instructions: 260000000 cycles: 68854830 heartbeat IPC: 3.762 cumulative IPC: 3.726 (Simulation time: 00 hr 16 min 20 sec)
Heartbeat CPU 0 instructions: 270000002 cycles: 71510910 heartbeat IPC: 3.765 cumulative IPC: 3.728 (Simulation time: 00 hr 16 min 56 sec)
Heartbeat CPU 0 instructions: 280000003 cycles: 74166860 heartbeat IPC: 3.765 cumulative IPC: 3.73 (Simulation time: 00 hr 17 min 35 sec)
Heartbeat CPU 0 instructions: 290000002 cycles: 76820226 heartbeat IPC: 3.769 cumulative IPC: 3.731 (Simulation time: 00 hr 18 min 14 sec)
Heartbeat CPU 0 instructions: 300000000 cycles: 79478317 heartbeat IPC: 3.762 cumulative IPC: 3.733 (Simulation time: 00 hr 18 min 55 sec)
Heartbeat CPU 0 instructions: 310000002 cycles: 82132619 heartbeat IPC: 3.767 cumulative IPC: 3.734 (Simulation time: 00 hr 19 min 32 sec)
Heartbeat CPU 0 instructions: 320000004 cycles: 84789462 heartbeat IPC: 3.764 cumulative IPC: 3.735 (Simulation time: 00 hr 20 min 12 sec)
Heartbeat CPU 0 instructions: 330000000 cycles: 87448958 heartbeat IPC: 3.76 cumulative IPC: 3.736 (Simulation time: 00 hr 20 min 49 sec)
Heartbeat CPU 0 instructions: 340000002 cycles: 90103442 heartbeat IPC: 3.767 cumulative IPC: 3.737 (Simulation time: 00 hr 21 min 29 sec)
Heartbeat CPU 0 instructions: 350000002 cycles: 92762135 heartbeat IPC: 3.761 cumulative IPC: 3.738 (Simulation time: 00 hr 22 min 07 sec)
Heartbeat CPU 0 instructions: 360000001 cycles: 95418662 heartbeat IPC: 3.764 cumulative IPC: 3.739 (Simulation time: 00 hr 22 min 46 sec)
Heartbeat CPU 0 instructions: 370000004 cycles: 98075618 heartbeat IPC: 3.764 cumulative IPC: 3.739 (Simulation time: 00 hr 23 min 24 sec)
Heartbeat CPU 0 instructions: 380000000 cycles: 100734808 heartbeat IPC: 3.761 cumulative IPC: 3.74 (Simulation time: 00 hr 24 min 02 sec)
Heartbeat CPU 0 instructions: 390000003 cycles: 103389739 heartbeat IPC: 3.767 cumulative IPC: 3.741 (Simulation time: 00 hr 24 min 38 sec)
Heartbeat CPU 0 instructions: 400000000 cycles: 106044156 heartbeat IPC: 3.767 cumulative IPC: 3.742 (Simulation time: 00 hr 25 min 13 sec)
Heartbeat CPU 0 instructions: 410000000 cycles: 108702169 heartbeat IPC: 3.762 cumulative IPC: 3.742 (Simulation time: 00 hr 25 min 50 sec)
Heartbeat CPU 0 instructions: 420000001 cycles: 111356466 heartbeat IPC: 3.767 cumulative IPC: 3.743 (Simulation time: 00 hr 26 min 25 sec)
Heartbeat CPU 0 instructions: 430000003 cycles: 114013194 heartbeat IPC: 3.764 cumulative IPC: 3.743 (Simulation time: 00 hr 27 min 01 sec)
Heartbeat CPU 0 instructions: 440000003 cycles: 116671127 heartbeat IPC: 3.762 cumulative IPC: 3.744 (Simulation time: 00 hr 27 min 36 sec)
Heartbeat CPU 0 instructions: 450000004 cycles: 119329055 heartbeat IPC: 3.762 cumulative IPC: 3.744 (Simulation time: 00 hr 28 min 13 sec)
Heartbeat CPU 0 instructions: 460000001 cycles: 121985779 heartbeat IPC: 3.764 cumulative IPC: 3.745 (Simulation time: 00 hr 28 min 50 sec)
Heartbeat CPU 0 instructions: 470000002 cycles: 124639678 heartbeat IPC: 3.768 cumulative IPC: 3.745 (Simulation time: 00 hr 29 min 29 sec)
Heartbeat CPU 0 instructions: 480000001 cycles: 127295861 heartbeat IPC: 3.765 cumulative IPC: 3.746 (Simulation time: 00 hr 30 min 07 sec)
Heartbeat CPU 0 instructions: 490000000 cycles: 129953817 heartbeat IPC: 3.762 cumulative IPC: 3.746 (Simulation time: 00 hr 30 min 44 sec)
Heartbeat CPU 0 instructions: 500000002 cycles: 132610168 heartbeat IPC: 3.765 cumulative IPC: 3.747 (Simulation time: 00 hr 31 min 21 sec)
Heartbeat CPU 0 instructions: 510000003 cycles: 135266459 heartbeat IPC: 3.765 cumulative IPC: 3.747 (Simulation time: 00 hr 31 min 58 sec)
Heartbeat CPU 0 instructions: 520000004 cycles: 137925658 heartbeat IPC: 3.761 cumulative IPC: 3.747 (Simulation time: 00 hr 32 min 33 sec)
Heartbeat CPU 0 instructions: 530000000 cycles: 140582351 heartbeat IPC: 3.764 cumulative IPC: 3.748 (Simulation time: 00 hr 33 min 09 sec)
Heartbeat CPU 0 instructions: 540000000 cycles: 143240114 heartbeat IPC: 3.763 cumulative IPC: 3.748 (Simulation time: 00 hr 33 min 45 sec)
Heartbeat CPU 0 instructions: 550000003 cycles: 145893559 heartbeat IPC: 3.769 cumulative IPC: 3.748 (Simulation time: 00 hr 34 min 20 sec)
Heartbeat CPU 0 instructions: 560000003 cycles: 148552247 heartbeat IPC: 3.761 cumulative IPC: 3.749 (Simulation time: 00 hr 34 min 56 sec)
Heartbeat CPU 0 instructions: 570000004 cycles: 151208784 heartbeat IPC: 3.764 cumulative IPC: 3.749 (Simulation time: 00 hr 35 min 32 sec)
Heartbeat CPU 0 instructions: 580000000 cycles: 153868324 heartbeat IPC: 3.76 cumulative IPC: 3.749 (Simulation time: 00 hr 36 min 09 sec)
Heartbeat CPU 0 instructions: 590000002 cycles: 156523557 heartbeat IPC: 3.766 cumulative IPC: 3.749 (Simulation time: 00 hr 36 min 44 sec)
*** Reached end of trace: (0, "traces/convolution.champsimtrace")
Heartbeat CPU 0 instructions: 600000000 cycles: 159180536 heartbeat IPC: 3.764 cumulative IPC: 3.75 (Simulation time: 00 hr 37 min 19 sec)
Heartbeat CPU 0 instructions: 610000002 cycles: 181374308 heartbeat IPC: 0.4506 cumulative IPC: 3.316 (Simulation time: 00 hr 40 min 23 sec)
Heartbeat CPU 0 instructions: 620000001 cycles: 200436786 heartbeat IPC: 0.5246 cumulative IPC: 3.033 (Simulation time: 00 hr 43 min 02 sec)
Heartbeat CPU 0 instructions: 630000001 cycles: 208939944 heartbeat IPC: 1.176 cumulative IPC: 2.953 (Simulation time: 00 hr 44 min 28 sec)
Heartbeat CPU 0 instructions: 640000004 cycles: 219771293 heartbeat IPC: 0.9232 cumulative IPC: 2.847 (Simulation time: 00 hr 46 min 08 sec)
Heartbeat CPU 0 instructions: 650000001 cycles: 230514385 heartbeat IPC: 0.9308 cumulative IPC: 2.752 (Simulation time: 00 hr 47 min 47 sec)
Simulation finished CPU 0 instructions: 600000001 cycles: 218014183 cumulative IPC: 2.752 (Simulation time: 00 hr 47 min 47 sec)
Simulation complete CPU 0 instructions: 600000001 cycles: 218014183 cumulative IPC: 2.752 (Simulation time: 00 hr 47 min 47 sec)

ChampSim completed all CPUs

=== Simulation ===
CPU 0 runs traces/convolution.champsimtrace
Region of Interest Statistics

CPU 0 cumulative IPC: 2.752 instructions: 600000001 cycles: 218014183
CPU 0 Branch Prediction Accuracy: 99.47% MPKI: 0.9507 Average ROB Occupancy at Mispredict: 69.14
Branch type MPKI
BRANCH_DIRECT_JUMP: 0.000107
BRANCH_INDIRECT: 4.17e-05
BRANCH_CONDITIONAL: 0.95
BRANCH_DIRECT_CALL: 0.000103
BRANCH_INDIRECT_CALL: 8.33e-06
BRANCH_RETURN: 1.83e-05

LLC TOTAL        ACCESS:    1184830 HIT:      52145 MISS:    1132685
LLC LOAD         ACCESS:       2888 HIT:       1530 MISS:       1358
LLC RFO          ACCESS:     535119 HIT:      16473 MISS:     518646
LLC PREFETCH     ACCESS:       2073 HIT:       1414 MISS:        659
LLC WRITE        ACCESS:     535165 HIT:      19410 MISS:     515755
LLC TRANSLATION  ACCESS:     109585 HIT:      13318 MISS:      96267
LLC PREFETCH REQUESTED:       2073 ISSUED:       2073 USEFUL:        322 USELESS:         44
LLC AVERAGE MISS LATENCY: 551.8 cycles
cpu0_DTLB TOTAL        ACCESS:  120212174 HIT:  119875047 MISS:     337127
cpu0_DTLB LOAD         ACCESS:  120212174 HIT:  119875047 MISS:     337127
cpu0_DTLB RFO          ACCESS:          0 HIT:          0 MISS:          0
cpu0_DTLB PREFETCH     ACCESS:          0 HIT:          0 MISS:          0
cpu0_DTLB WRITE        ACCESS:          0 HIT:          0 MISS:          0
cpu0_DTLB TRANSLATION  ACCESS:          0 HIT:          0 MISS:          0
cpu0_DTLB PREFETCH REQUESTED:          0 ISSUED:          0 USEFUL:          0 USELESS:          0
cpu0_DTLB AVERAGE MISS LATENCY: 636.4 cycles
cpu0_ITLB TOTAL        ACCESS:       2009 HIT:       1978 MISS:         31
cpu0_ITLB LOAD         ACCESS:       2009 HIT:       1978 MISS:         31
cpu0_ITLB RFO          ACCESS:          0 HIT:          0 MISS:          0
cpu0_ITLB PREFETCH     ACCESS:          0 HIT:          0 MISS:          0
cpu0_ITLB WRITE        ACCESS:          0 HIT:          0 MISS:          0
cpu0_ITLB TRANSLATION  ACCESS:          0 HIT:          0 MISS:          0
cpu0_ITLB PREFETCH REQUESTED:          0 ISSUED:          0 USEFUL:          0 USELESS:          0
cpu0_ITLB AVERAGE MISS LATENCY: 580.3 cycles
cpu0_L1D TOTAL        ACCESS:  161284460 HIT:  155141056 MISS:    6143404
cpu0_L1D LOAD         ACCESS:   89044556 HIT:   89038094 MISS:       6462
cpu0_L1D RFO          ACCESS:          0 HIT:          0 MISS:          0
cpu0_L1D PREFETCH     ACCESS:          0 HIT:          0 MISS:          0
cpu0_L1D WRITE        ACCESS:   72059350 HIT:   66066845 MISS:    5992505
cpu0_L1D TRANSLATION  ACCESS:     180554 HIT:      36117 MISS:     144437
cpu0_L1D PREFETCH REQUESTED:          0 ISSUED:          0 USEFUL:          0 USELESS:          0
cpu0_L1D AVERAGE MISS LATENCY: 80.22 cycles
cpu0_L1I TOTAL        ACCESS:       2302 HIT:       1015 MISS:       1287
cpu0_L1I LOAD         ACCESS:       2302 HIT:       1015 MISS:       1287
cpu0_L1I RFO          ACCESS:          0 HIT:          0 MISS:          0
cpu0_L1I PREFETCH     ACCESS:          0 HIT:          0 MISS:          0
cpu0_L1I WRITE        ACCESS:          0 HIT:          0 MISS:          0
cpu0_L1I TRANSLATION  ACCESS:          0 HIT:          0 MISS:          0
cpu0_L1I PREFETCH REQUESTED:          0 ISSUED:          0 USEFUL:          0 USELESS:          0
cpu0_L1I AVERAGE MISS LATENCY: 406.3 cycles
cpu0_L2C TOTAL        ACCESS:    1190502 HIT:     542891 MISS:     647611
cpu0_L2C LOAD         ACCESS:       3314 HIT:        426 MISS:       2888
cpu0_L2C RFO          ACCESS:     538064 HIT:       2945 MISS:     535119
cpu0_L2C PREFETCH     ACCESS:          0 HIT:          0 MISS:          0
cpu0_L2C WRITE        ACCESS:     538214 HIT:     538196 MISS:         18
cpu0_L2C TRANSLATION  ACCESS:     110910 HIT:       1324 MISS:     109586
cpu0_L2C PREFETCH REQUESTED:          0 ISSUED:          0 USEFUL:          0 USELESS:          0
cpu0_L2C AVERAGE MISS LATENCY: 985.6 cycles
cpu0_STLB TOTAL        ACCESS:     156148 HIT:         40 MISS:     156108
cpu0_STLB LOAD         ACCESS:     156148 HIT:         40 MISS:     156108
cpu0_STLB RFO          ACCESS:          0 HIT:          0 MISS:          0
cpu0_STLB PREFETCH     ACCESS:          0 HIT:          0 MISS:          0
cpu0_STLB WRITE        ACCESS:          0 HIT:          0 MISS:          0
cpu0_STLB TRANSLATION  ACCESS:          0 HIT:          0 MISS:          0
cpu0_STLB PREFETCH REQUESTED:          0 ISSUED:          0 USEFUL:          0 USELESS:          0
cpu0_STLB AVERAGE MISS LATENCY: 1551 cycles

DRAM Statistics

Channel 0 RQ ROW_BUFFER_HIT:     138432
  ROW_BUFFER_MISS:     478075
 AVG DBUS CONGESTED CYCLE: 3.975
WQ ROW_BUFFER_HIT: Channel 0 
  ROW_BUFFER_MISS:     119939
  FULL:     398579
