WARNING: physical memory size is smaller than virtual memory size.

*** ChampSim Multicore Out-of-Order Simulator ***
Warmup Instructions: 50000000
Simulation Instructions: 600000000
Number of CPUs: 1
Page size: 4096

Off-chip DRAM Size: 4 GiB Channels: 1 Width: 64-bit Data Race: 3200 MT/s
Heartbeat CPU 0 instructions: 10000001 cycles: 2500202 heartbeat IPC: 4 cumulative IPC: 4 (Simulation time: 00 hr 01 min 11 sec)
Heartbeat CPU 0 instructions: 20000001 cycles: 5000202 heartbeat IPC: 4 cumulative IPC: 4 (Simulation time: 00 hr 02 min 02 sec)
Heartbeat CPU 0 instructions: 30000001 cycles: 7500202 heartbeat IPC: 4 cumulative IPC: 4 (Simulation time: 00 hr 02 min 55 sec)
Heartbeat CPU 0 instructions: 40000001 cycles: 10000202 heartbeat IPC: 4 cumulative IPC: 4 (Simulation time: 00 hr 03 min 48 sec)
Heartbeat CPU 0 instructions: 50000001 cycles: 12500202 heartbeat IPC: 4 cumulative IPC: 4 (Simulation time: 00 hr 04 min 40 sec)
Warmup finished CPU 0 instructions: 50000001 cycles: 12500203 cumulative IPC: 4 (Simulation time: 00 hr 04 min 40 sec)
Warmup complete CPU 0 instructions: 50000001 cycles: 12500203 cumulative IPC: 4 (Simulation time: 00 hr 04 min 40 sec)
Heartbeat CPU 0 instructions: 60000002 cycles: 15729511 heartbeat IPC: 3.097 cumulative IPC: 3.097 (Simulation time: 00 hr 05 min 44 sec)
Heartbeat CPU 0 instructions: 70000002 cycles: 18383818 heartbeat IPC: 3.767 cumulative IPC: 3.399 (Simulation time: 00 hr 06 min 38 sec)
Heartbeat CPU 0 instructions: 80000002 cycles: 21036848 heartbeat IPC: 3.769 cumulative IPC: 3.514 (Simulation time: 00 hr 07 min 33 sec)
Heartbeat CPU 0 instructions: 90000004 cycles: 23689109 heartbeat IPC: 3.77 cumulative IPC: 3.575 (Simulation time: 00 hr 08 min 29 sec)
Heartbeat CPU 0 instructions: 100000000 cycles: 26341417 heartbeat IPC: 3.77 cumulative IPC: 3.612 (Simulation time: 00 hr 09 min 25 sec)
Heartbeat CPU 0 instructions: 110000004 cycles: 28994979 heartbeat IPC: 3.769 cumulative IPC: 3.638 (Simulation time: 00 hr 10 min 19 sec)
Heartbeat CPU 0 instructions: 120000000 cycles: 31649807 heartbeat IPC: 3.767 cumulative IPC: 3.655 (Simulation time: 00 hr 11 min 28 sec)
Heartbeat CPU 0 instructions: 130000000 cycles: 34303988 heartbeat IPC: 3.768 cumulative IPC: 3.669 (Simulation time: 00 hr 12 min 25 sec)
Heartbeat CPU 0 instructions: 140000001 cycles: 36956241 heartbeat IPC: 3.77 cumulative IPC: 3.68 (Simulation time: 00 hr 13 min 32 sec)
Heartbeat CPU 0 instructions: 150000002 cycles: 39608490 heartbeat IPC: 3.77 cumulative IPC: 3.689 (Simulation time: 00 hr 14 min 29 sec)
Heartbeat CPU 0 instructions: 160000004 cycles: 42260676 heartbeat IPC: 3.77 cumulative IPC: 3.696 (Simulation time: 00 hr 15 min 23 sec)
Heartbeat CPU 0 instructions: 170000004 cycles: 44915958 heartbeat IPC: 3.766 cumulative IPC: 3.702 (Simulation time: 00 hr 16 min 20 sec)
Heartbeat CPU 0 instructions: 180000001 cycles: 47569493 heartbeat IPC: 3.769 cumulative IPC: 3.707 (Simulation time: 00 hr 17 min 15 sec)
Heartbeat CPU 0 instructions: 190000002 cycles: 50222503 heartbeat IPC: 3.769 cumulative IPC: 3.711 (Simulation time: 00 hr 18 min 13 sec)
Heartbeat CPU 0 instructions: 200000001 cycles: 52874759 heartbeat IPC: 3.77 cumulative IPC: 3.715 (Simulation time: 00 hr 19 min 09 sec)
Heartbeat CPU 0 instructions: 210000000 cycles: 55526846 heartbeat IPC: 3.771 cumulative IPC: 3.719 (Simulation time: 00 hr 20 min 06 sec)
Heartbeat CPU 0 instructions: 220000000 cycles: 58182617 heartbeat IPC: 3.765 cumulative IPC: 3.721 (Simulation time: 00 hr 21 min 00 sec)
Heartbeat CPU 0 instructions: 230000002 cycles: 60834890 heartbeat IPC: 3.77 cumulative IPC: 3.724 (Simulation time: 00 hr 21 min 57 sec)
Heartbeat CPU 0 instructions: 240000003 cycles: 63487163 heartbeat IPC: 3.77 cumulative IPC: 3.726 (Simulation time: 00 hr 22 min 55 sec)
Heartbeat CPU 0 instructions: 250000000 cycles: 66139480 heartbeat IPC: 3.77 cumulative IPC: 3.729 (Simulation time: 00 hr 23 min 53 sec)
Heartbeat CPU 0 instructions: 260000001 cycles: 68791925 heartbeat IPC: 3.77 cumulative IPC: 3.731 (Simulation time: 00 hr 24 min 47 sec)
Heartbeat CPU 0 instructions: 270000003 cycles: 71446288 heartbeat IPC: 3.767 cumulative IPC: 3.732 (Simulation time: 00 hr 25 min 44 sec)
Heartbeat CPU 0 instructions: 280000003 cycles: 74099045 heartbeat IPC: 3.77 cumulative IPC: 3.734 (Simulation time: 00 hr 26 min 40 sec)
Heartbeat CPU 0 instructions: 290000004 cycles: 76751295 heartbeat IPC: 3.77 cumulative IPC: 3.735 (Simulation time: 00 hr 27 min 34 sec)
Heartbeat CPU 0 instructions: 300000003 cycles: 79403509 heartbeat IPC: 3.77 cumulative IPC: 3.737 (Simulation time: 00 hr 28 min 32 sec)
Heartbeat CPU 0 instructions: 310000000 cycles: 82055649 heartbeat IPC: 3.771 cumulative IPC: 3.738 (Simulation time: 00 hr 29 min 28 sec)
Heartbeat CPU 0 instructions: 320000004 cycles: 84710416 heartbeat IPC: 3.767 cumulative IPC: 3.739 (Simulation time: 00 hr 30 min 26 sec)
Heartbeat CPU 0 instructions: 330000000 cycles: 87363498 heartbeat IPC: 3.769 cumulative IPC: 3.74 (Simulation time: 00 hr 31 min 21 sec)
Heartbeat CPU 0 instructions: 340000001 cycles: 90015683 heartbeat IPC: 3.77 cumulative IPC: 3.741 (Simulation time: 00 hr 32 min 17 sec)
Heartbeat CPU 0 instructions: 350000002 cycles: 92667911 heartbeat IPC: 3.77 cumulative IPC: 3.742 (Simulation time: 00 hr 33 min 12 sec)
Heartbeat CPU 0 instructions: 360000003 cycles: 95319937 heartbeat IPC: 3.771 cumulative IPC: 3.743 (Simulation time: 00 hr 34 min 10 sec)
Heartbeat CPU 0 instructions: 370000004 cycles: 97975380 heartbeat IPC: 3.766 cumulative IPC: 3.744 (Simulation time: 00 hr 35 min 07 sec)
Heartbeat CPU 0 instructions: 380000000 cycles: 100627598 heartbeat IPC: 3.77 cumulative IPC: 3.745 (Simulation time: 00 hr 36 min 05 sec)
Heartbeat CPU 0 instructions: 390000004 cycles: 103279853 heartbeat IPC: 3.77 cumulative IPC: 3.745 (Simulation time: 00 hr 37 min 03 sec)
Heartbeat CPU 0 instructions: 400000001 cycles: 105931955 heartbeat IPC: 3.771 cumulative IPC: 3.746 (Simulation time: 00 hr 37 min 59 sec)
Heartbeat CPU 0 instructions: 410000004 cycles: 108586297 heartbeat IPC: 3.767 cumulative IPC: 3.747 (Simulation time: 00 hr 38 min 58 sec)
Heartbeat CPU 0 instructions: 420000001 cycles: 111239363 heartbeat IPC: 3.769 cumulative IPC: 3.747 (Simulation time: 00 hr 39 min 54 sec)
Heartbeat CPU 0 instructions: 430000002 cycles: 113891542 heartbeat IPC: 3.77 cumulative IPC: 3.748 (Simulation time: 00 hr 40 min 52 sec)
Heartbeat CPU 0 instructions: 440000004 cycles: 116543862 heartbeat IPC: 3.77 cumulative IPC: 3.748 (Simulation time: 00 hr 41 min 47 sec)
Heartbeat CPU 0 instructions: 450000004 cycles: 119195916 heartbeat IPC: 3.771 cumulative IPC: 3.749 (Simulation time: 00 hr 42 min 44 sec)
Heartbeat CPU 0 instructions: 460000002 cycles: 121851448 heartbeat IPC: 3.766 cumulative IPC: 3.749 (Simulation time: 00 hr 43 min 40 sec)
Heartbeat CPU 0 instructions: 470000002 cycles: 124505062 heartbeat IPC: 3.768 cumulative IPC: 3.75 (Simulation time: 00 hr 44 min 38 sec)
Heartbeat CPU 0 instructions: 480000003 cycles: 127157372 heartbeat IPC: 3.77 cumulative IPC: 3.75 (Simulation time: 00 hr 45 min 34 sec)
Heartbeat CPU 0 instructions: 490000000 cycles: 129809637 heartbeat IPC: 3.77 cumulative IPC: 3.751 (Simulation time: 00 hr 46 min 29 sec)
Heartbeat CPU 0 instructions: 500000001 cycles: 132461757 heartbeat IPC: 3.771 cumulative IPC: 3.751 (Simulation time: 00 hr 47 min 27 sec)
Heartbeat CPU 0 instructions: 510000003 cycles: 135113847 heartbeat IPC: 3.771 cumulative IPC: 3.752 (Simulation time: 00 hr 48 min 24 sec)
Heartbeat CPU 0 instructions: 520000004 cycles: 137768961 heartbeat IPC: 3.766 cumulative IPC: 3.752 (Simulation time: 00 hr 49 min 20 sec)
Heartbeat CPU 0 instructions: 530000000 cycles: 140421506 heartbeat IPC: 3.77 cumulative IPC: 3.752 (Simulation time: 00 hr 50 min 18 sec)
Heartbeat CPU 0 instructions: 540000001 cycles: 143073717 heartbeat IPC: 3.77 cumulative IPC: 3.753 (Simulation time: 00 hr 51 min 13 sec)
Heartbeat CPU 0 instructions: 550000001 cycles: 145725785 heartbeat IPC: 3.771 cumulative IPC: 3.753 (Simulation time: 00 hr 52 min 10 sec)
Heartbeat CPU 0 instructions: 560000003 cycles: 148380895 heartbeat IPC: 3.766 cumulative IPC: 3.753 (Simulation time: 00 hr 53 min 06 sec)
Heartbeat CPU 0 instructions: 570000004 cycles: 151034993 heartbeat IPC: 3.768 cumulative IPC: 3.754 (Simulation time: 00 hr 54 min 05 sec)
Heartbeat CPU 0 instructions: 580000003 cycles: 153687250 heartbeat IPC: 3.77 cumulative IPC: 3.754 (Simulation time: 00 hr 55 min 02 sec)
Heartbeat CPU 0 instructions: 590000000 cycles: 156339430 heartbeat IPC: 3.77 cumulative IPC: 3.754 (Simulation time: 00 hr 55 min 57 sec)
*** Reached end of trace: (0, "traces/convolution.champsimtrace")
Heartbeat CPU 0 instructions: 600000001 cycles: 158991413 heartbeat IPC: 3.771 cumulative IPC: 3.754 (Simulation time: 00 hr 56 min 54 sec)
Heartbeat CPU 0 instructions: 610000004 cycles: 184542620 heartbeat IPC: 0.3914 cumulative IPC: 3.255 (Simulation time: 01 hr 02 min 21 sec)
Heartbeat CPU 0 instructions: 620000002 cycles: 207557761 heartbeat IPC: 0.4345 cumulative IPC: 2.922 (Simulation time: 01 hr 07 min 17 sec)
Heartbeat CPU 0 instructions: 630000000 cycles: 217952414 heartbeat IPC: 0.962 cumulative IPC: 2.823 (Simulation time: 01 hr 09 min 47 sec)
Heartbeat CPU 0 instructions: 640000002 cycles: 228337674 heartbeat IPC: 0.9629 cumulative IPC: 2.734 (Simulation time: 01 hr 12 min 15 sec)
Heartbeat CPU 0 instructions: 650000004 cycles: 238603752 heartbeat IPC: 0.9741 cumulative IPC: 2.654 (Simulation time: 01 hr 14 min 55 sec)
Simulation finished CPU 0 instructions: 600000003 cycles: 226103550 cumulative IPC: 2.654 (Simulation time: 01 hr 14 min 55 sec)
Simulation complete CPU 0 instructions: 600000003 cycles: 226103550 cumulative IPC: 2.654 (Simulation time: 01 hr 14 min 55 sec)

ChampSim completed all CPUs

=== Simulation ===
CPU 0 runs traces/convolution.champsimtrace
Region of Interest Statistics

CPU 0 cumulative IPC: 2.654 instructions: 600000003 cycles: 226103550
CPU 0 Branch Prediction Accuracy: 99.47% MPKI: 0.9508 Average ROB Occupancy at Mispredict: 68.94
Branch type MPKI
BRANCH_DIRECT_JUMP: 0.000107
BRANCH_INDIRECT: 4e-05
BRANCH_CONDITIONAL: 0.95
BRANCH_DIRECT_CALL: 0.000103
BRANCH_INDIRECT_CALL: 8.33e-06
BRANCH_RETURN: 1.83e-05

LLC TOTAL        ACCESS:    1186223 HIT:     123711 MISS:    1062512
LLC LOAD         ACCESS:       2893 HIT:        597 MISS:       2296
LLC RFO          ACCESS:     535132 HIT:         79 MISS:     535053
LLC PREFETCH     ACCESS:       2113 HIT:        560 MISS:       1553
LLC WRITE        ACCESS:     535181 HIT:     122463 MISS:     412718
LLC TRANSLATION  ACCESS:     110904 HIT:         12 MISS:     110892
LLC PREFETCH REQUESTED:       2113 ISSUED:       2113 USEFUL:        813 USELESS:         22
LLC AVERAGE MISS LATENCY: 615.3 cycles
cpu0_DTLB TOTAL        ACCESS:  120043763 HIT:  119690149 MISS:     353614
cpu0_DTLB LOAD         ACCESS:  120043763 HIT:  119690149 MISS:     353614
cpu0_DTLB RFO          ACCESS:          0 HIT:          0 MISS:          0
cpu0_DTLB PREFETCH     ACCESS:          0 HIT:          0 MISS:          0
cpu0_DTLB WRITE        ACCESS:          0 HIT:          0 MISS:          0
cpu0_DTLB TRANSLATION  ACCESS:          0 HIT:          0 MISS:          0
cpu0_DTLB PREFETCH REQUESTED:          0 ISSUED:          0 USEFUL:          0 USELESS:          0
cpu0_DTLB AVERAGE MISS LATENCY: 673.5 cycles
cpu0_ITLB TOTAL        ACCESS:       2029 HIT:       1991 MISS:         38
cpu0_ITLB LOAD         ACCESS:       2029 HIT:       1991 MISS:         38
cpu0_ITLB RFO          ACCESS:          0 HIT:          0 MISS:          0
cpu0_ITLB PREFETCH     ACCESS:          0 HIT:          0 MISS:          0
cpu0_ITLB WRITE        ACCESS:          0 HIT:          0 MISS:          0
cpu0_ITLB TRANSLATION  ACCESS:          0 HIT:          0 MISS:          0
cpu0_ITLB PREFETCH REQUESTED:          0 ISSUED:          0 USEFUL:          0 USELESS:          0
cpu0_ITLB AVERAGE MISS LATENCY: 689.7 cycles
cpu0_L1D TOTAL        ACCESS:  161172471 HIT:  154992062 MISS:    6180409
cpu0_L1D LOAD         ACCESS:   88956084 HIT:   88949942 MISS:       6142
cpu0_L1D RFO          ACCESS:          0 HIT:          0 MISS:          0
cpu0_L1D PREFETCH     ACCESS:          0 HIT:          0 MISS:          0
cpu0_L1D WRITE        ACCESS:   72034787 HIT:   66003820 MISS:    6030967
cpu0_L1D TRANSLATION  ACCESS:     181600 HIT:      38300 MISS:     143300
cpu0_L1D PREFETCH REQUESTED:          0 ISSUED:          0 USEFUL:          0 USELESS:          0
cpu0_L1D AVERAGE MISS LATENCY: 80.51 cycles
cpu0_L1I TOTAL        ACCESS:       2327 HIT:       1001 MISS:       1326
cpu0_L1I LOAD         ACCESS:       2327 HIT:       1001 MISS:       1326
cpu0_L1I RFO          ACCESS:          0 HIT:          0 MISS:          0
cpu0_L1I PREFETCH     ACCESS:          0 HIT:          0 MISS:          0
cpu0_L1I WRITE        ACCESS:          0 HIT:          0 MISS:          0
cpu0_L1I TRANSLATION  ACCESS:          0 HIT:          0 MISS:          0
cpu0_L1I PREFETCH REQUESTED:          0 ISSUED:          0 USEFUL:          0 USELESS:          0
cpu0_L1I AVERAGE MISS LATENCY: 1092 cycles
cpu0_L2C TOTAL        ACCESS:    1191524 HIT:     542579 MISS:     648945
cpu0_L2C LOAD         ACCESS:       3320 HIT:        427 MISS:       2893
cpu0_L2C RFO          ACCESS:     537798 HIT:       2666 MISS:     535132
cpu0_L2C PREFETCH     ACCESS:          0 HIT:          0 MISS:          0
cpu0_L2C WRITE        ACCESS:     537921 HIT:     537905 MISS:         16
cpu0_L2C TRANSLATION  ACCESS:     112485 HIT:       1581 MISS:     110904
cpu0_L2C PREFETCH REQUESTED:          0 ISSUED:          0 USEFUL:          0 USELESS:          0
cpu0_L2C AVERAGE MISS LATENCY: 1026 cycles
cpu0_STLB TOTAL        ACCESS:     156154 HIT:         43 MISS:     156111
cpu0_STLB LOAD         ACCESS:     156154 HIT:         43 MISS:     156111
cpu0_STLB RFO          ACCESS:          0 HIT:          0 MISS:          0
cpu0_STLB PREFETCH     ACCESS:          0 HIT:          0 MISS:          0
cpu0_STLB WRITE        ACCESS:          0 HIT:          0 MISS:          0
cpu0_STLB TRANSLATION  ACCESS:          0 HIT:          0 MISS:          0
cpu0_STLB PREFETCH REQUESTED:          0 ISSUED:          0 USEFUL:          0 USELESS:          0
cpu0_STLB AVERAGE MISS LATENCY: 1720 cycles

DRAM Statistics

Channel 0 RQ ROW_BUFFER_HIT:     142642
  ROW_BUFFER_MISS:     506254
 AVG DBUS CONGESTED CYCLE: 3.977
WQ ROW_BUFFER_HIT: Channel 0 
  ROW_BUFFER_MISS:      90377
  FULL:     440819
