WARNING: physical memory size is smaller than virtual memory size.

*** ChampSim Multicore Out-of-Order Simulator ***
Warmup Instructions: 50000000
Simulation Instructions: 600000000
Number of CPUs: 1
Page size: 4096

CPU 0 Tage branch predictor
Off-chip DRAM Size: 4 GiB Channels: 1 Width: 64-bit Data Race: 3200 MT/s
Heartbeat CPU 0 instructions: 10000000 cycles: 2500202 heartbeat IPC: 4 cumulative IPC: 4 (Simulation time: 00 hr 00 min 40 sec)
Heartbeat CPU 0 instructions: 20000000 cycles: 5000202 heartbeat IPC: 4 cumulative IPC: 4 (Simulation time: 00 hr 01 min 17 sec)
Heartbeat CPU 0 instructions: 30000000 cycles: 7500202 heartbeat IPC: 4 cumulative IPC: 4 (Simulation time: 00 hr 02 min 03 sec)
Heartbeat CPU 0 instructions: 40000000 cycles: 10000202 heartbeat IPC: 4 cumulative IPC: 4 (Simulation time: 00 hr 02 min 42 sec)
Heartbeat CPU 0 instructions: 50000000 cycles: 12500202 heartbeat IPC: 4 cumulative IPC: 4 (Simulation time: 00 hr 03 min 24 sec)
Warmup finished CPU 0 instructions: 50000000 cycles: 12500203 cumulative IPC: 4 (Simulation time: 00 hr 03 min 24 sec)
Warmup complete CPU 0 instructions: 50000000 cycles: 12500203 cumulative IPC: 4 (Simulation time: 00 hr 03 min 24 sec)
Heartbeat CPU 0 instructions: 60000002 cycles: 15586597 heartbeat IPC: 3.24 cumulative IPC: 3.24 (Simulation time: 00 hr 04 min 11 sec)
Heartbeat CPU 0 instructions: 70000002 cycles: 18093756 heartbeat IPC: 3.989 cumulative IPC: 3.576 (Simulation time: 00 hr 04 min 56 sec)
Heartbeat CPU 0 instructions: 80000003 cycles: 20600617 heartbeat IPC: 3.989 cumulative IPC: 3.704 (Simulation time: 00 hr 05 min 41 sec)
Heartbeat CPU 0 instructions: 90000004 cycles: 23108210 heartbeat IPC: 3.988 cumulative IPC: 3.771 (Simulation time: 00 hr 06 min 26 sec)
Heartbeat CPU 0 instructions: 100000003 cycles: 25617543 heartbeat IPC: 3.985 cumulative IPC: 3.812 (Simulation time: 00 hr 07 min 16 sec)
Heartbeat CPU 0 instructions: 110000000 cycles: 28123976 heartbeat IPC: 3.99 cumulative IPC: 3.84 (Simulation time: 00 hr 08 min 05 sec)
Heartbeat CPU 0 instructions: 120000000 cycles: 30631002 heartbeat IPC: 3.989 cumulative IPC: 3.861 (Simulation time: 00 hr 08 min 54 sec)
Heartbeat CPU 0 instructions: 130000000 cycles: 33134299 heartbeat IPC: 3.995 cumulative IPC: 3.877 (Simulation time: 00 hr 09 min 44 sec)
Heartbeat CPU 0 instructions: 140000001 cycles: 35638592 heartbeat IPC: 3.993 cumulative IPC: 3.89 (Simulation time: 00 hr 10 min 29 sec)
Heartbeat CPU 0 instructions: 150000003 cycles: 38141720 heartbeat IPC: 3.995 cumulative IPC: 3.9 (Simulation time: 00 hr 11 min 24 sec)
Heartbeat CPU 0 instructions: 160000003 cycles: 40647597 heartbeat IPC: 3.991 cumulative IPC: 3.908 (Simulation time: 00 hr 12 min 12 sec)
Heartbeat CPU 0 instructions: 170000000 cycles: 43151032 heartbeat IPC: 3.995 cumulative IPC: 3.915 (Simulation time: 00 hr 12 min 58 sec)
Heartbeat CPU 0 instructions: 180000001 cycles: 45654703 heartbeat IPC: 3.994 cumulative IPC: 3.921 (Simulation time: 00 hr 13 min 48 sec)
Heartbeat CPU 0 instructions: 190000002 cycles: 48158845 heartbeat IPC: 3.993 cumulative IPC: 3.926 (Simulation time: 00 hr 14 min 38 sec)
Heartbeat CPU 0 instructions: 200000002 cycles: 50666529 heartbeat IPC: 3.988 cumulative IPC: 3.93 (Simulation time: 00 hr 15 min 22 sec)
Heartbeat CPU 0 instructions: 210000000 cycles: 53173300 heartbeat IPC: 3.989 cumulative IPC: 3.934 (Simulation time: 00 hr 16 min 06 sec)
Heartbeat CPU 0 instructions: 220000001 cycles: 55680198 heartbeat IPC: 3.989 cumulative IPC: 3.937 (Simulation time: 00 hr 16 min 55 sec)
Heartbeat CPU 0 instructions: 230000002 cycles: 58188821 heartbeat IPC: 3.986 cumulative IPC: 3.94 (Simulation time: 00 hr 17 min 39 sec)
Heartbeat CPU 0 instructions: 240000004 cycles: 60694274 heartbeat IPC: 3.991 cumulative IPC: 3.942 (Simulation time: 00 hr 18 min 26 sec)
Heartbeat CPU 0 instructions: 250000000 cycles: 63204774 heartbeat IPC: 3.983 cumulative IPC: 3.944 (Simulation time: 00 hr 19 min 18 sec)
Heartbeat CPU 0 instructions: 260000000 cycles: 65715783 heartbeat IPC: 3.982 cumulative IPC: 3.946 (Simulation time: 00 hr 20 min 12 sec)
Heartbeat CPU 0 instructions: 270000002 cycles: 68218545 heartbeat IPC: 3.996 cumulative IPC: 3.948 (Simulation time: 00 hr 21 min 03 sec)
Heartbeat CPU 0 instructions: 280000003 cycles: 70723754 heartbeat IPC: 3.992 cumulative IPC: 3.95 (Simulation time: 00 hr 21 min 47 sec)
Heartbeat CPU 0 instructions: 290000000 cycles: 73227710 heartbeat IPC: 3.994 cumulative IPC: 3.952 (Simulation time: 00 hr 22 min 30 sec)
Heartbeat CPU 0 instructions: 300000000 cycles: 75733566 heartbeat IPC: 3.991 cumulative IPC: 3.954 (Simulation time: 00 hr 23 min 13 sec)
Heartbeat CPU 0 instructions: 310000002 cycles: 78236088 heartbeat IPC: 3.996 cumulative IPC: 3.955 (Simulation time: 00 hr 23 min 55 sec)
Heartbeat CPU 0 instructions: 320000004 cycles: 80744152 heartbeat IPC: 3.987 cumulative IPC: 3.956 (Simulation time: 00 hr 24 min 37 sec)
Heartbeat CPU 0 instructions: 330000000 cycles: 83256553 heartbeat IPC: 3.98 cumulative IPC: 3.957 (Simulation time: 00 hr 25 min 19 sec)
Heartbeat CPU 0 instructions: 340000002 cycles: 85766470 heartbeat IPC: 3.984 cumulative IPC: 3.958 (Simulation time: 00 hr 26 min 05 sec)
Heartbeat CPU 0 instructions: 350000002 cycles: 88275341 heartbeat IPC: 3.986 cumulative IPC: 3.959 (Simulation time: 00 hr 26 min 49 sec)
Heartbeat CPU 0 instructions: 360000004 cycles: 90780468 heartbeat IPC: 3.992 cumulative IPC: 3.96 (Simulation time: 00 hr 27 min 36 sec)
Heartbeat CPU 0 instructions: 370000004 cycles: 93285783 heartbeat IPC: 3.992 cumulative IPC: 3.961 (Simulation time: 00 hr 28 min 19 sec)
Heartbeat CPU 0 instructions: 380000000 cycles: 95792424 heartbeat IPC: 3.989 cumulative IPC: 3.962 (Simulation time: 00 hr 29 min 02 sec)
Heartbeat CPU 0 instructions: 390000000 cycles: 98294651 heartbeat IPC: 3.996 cumulative IPC: 3.963 (Simulation time: 00 hr 29 min 45 sec)
Heartbeat CPU 0 instructions: 400000000 cycles: 100800046 heartbeat IPC: 3.991 cumulative IPC: 3.964 (Simulation time: 00 hr 30 min 28 sec)
Heartbeat CPU 0 instructions: 410000000 cycles: 103307354 heartbeat IPC: 3.988 cumulative IPC: 3.964 (Simulation time: 00 hr 31 min 12 sec)
Heartbeat CPU 0 instructions: 420000001 cycles: 105812652 heartbeat IPC: 3.992 cumulative IPC: 3.965 (Simulation time: 00 hr 31 min 56 sec)
Heartbeat CPU 0 instructions: 430000003 cycles: 108320106 heartbeat IPC: 3.988 cumulative IPC: 3.966 (Simulation time: 00 hr 32 min 39 sec)
Heartbeat CPU 0 instructions: 440000003 cycles: 110822502 heartbeat IPC: 3.996 cumulative IPC: 3.967 (Simulation time: 00 hr 33 min 22 sec)
Heartbeat CPU 0 instructions: 450000004 cycles: 113331527 heartbeat IPC: 3.986 cumulative IPC: 3.967 (Simulation time: 00 hr 34 min 05 sec)
Heartbeat CPU 0 instructions: 460000001 cycles: 115839674 heartbeat IPC: 3.987 cumulative IPC: 3.968 (Simulation time: 00 hr 34 min 48 sec)
Heartbeat CPU 0 instructions: 470000002 cycles: 118344621 heartbeat IPC: 3.992 cumulative IPC: 3.968 (Simulation time: 00 hr 35 min 31 sec)
Heartbeat CPU 0 instructions: 480000001 cycles: 120851564 heartbeat IPC: 3.989 cumulative IPC: 3.969 (Simulation time: 00 hr 36 min 15 sec)
Heartbeat CPU 0 instructions: 490000000 cycles: 123361628 heartbeat IPC: 3.984 cumulative IPC: 3.969 (Simulation time: 00 hr 36 min 57 sec)
Heartbeat CPU 0 instructions: 500000002 cycles: 125868227 heartbeat IPC: 3.989 cumulative IPC: 3.969 (Simulation time: 00 hr 37 min 40 sec)
Heartbeat CPU 0 instructions: 510000003 cycles: 128376084 heartbeat IPC: 3.987 cumulative IPC: 3.97 (Simulation time: 00 hr 38 min 25 sec)
Heartbeat CPU 0 instructions: 520000004 cycles: 130891192 heartbeat IPC: 3.976 cumulative IPC: 3.97 (Simulation time: 00 hr 39 min 14 sec)
Heartbeat CPU 0 instructions: 530000000 cycles: 133395935 heartbeat IPC: 3.992 cumulative IPC: 3.97 (Simulation time: 00 hr 40 min 00 sec)
Heartbeat CPU 0 instructions: 540000001 cycles: 135904082 heartbeat IPC: 3.987 cumulative IPC: 3.971 (Simulation time: 00 hr 40 min 48 sec)
Heartbeat CPU 0 instructions: 550000002 cycles: 138407317 heartbeat IPC: 3.995 cumulative IPC: 3.971 (Simulation time: 00 hr 41 min 34 sec)
Heartbeat CPU 0 instructions: 560000003 cycles: 140912792 heartbeat IPC: 3.991 cumulative IPC: 3.972 (Simulation time: 00 hr 42 min 18 sec)
Heartbeat CPU 0 instructions: 570000004 cycles: 143422149 heartbeat IPC: 3.985 cumulative IPC: 3.972 (Simulation time: 00 hr 43 min 01 sec)
Heartbeat CPU 0 instructions: 580000000 cycles: 145930478 heartbeat IPC: 3.987 cumulative IPC: 3.972 (Simulation time: 00 hr 43 min 48 sec)
Heartbeat CPU 0 instructions: 590000002 cycles: 148434548 heartbeat IPC: 3.993 cumulative IPC: 3.973 (Simulation time: 00 hr 44 min 33 sec)
*** Reached end of trace: (0, "traces/convolution.champsimtrace")
Heartbeat CPU 0 instructions: 600000000 cycles: 150944191 heartbeat IPC: 3.985 cumulative IPC: 3.973 (Simulation time: 00 hr 45 min 18 sec)
Heartbeat CPU 0 instructions: 610000002 cycles: 173135595 heartbeat IPC: 0.4506 cumulative IPC: 3.486 (Simulation time: 00 hr 48 min 23 sec)
Heartbeat CPU 0 instructions: 620000001 cycles: 192317246 heartbeat IPC: 0.5213 cumulative IPC: 3.17 (Simulation time: 00 hr 51 min 08 sec)
Heartbeat CPU 0 instructions: 630000001 cycles: 200884479 heartbeat IPC: 1.167 cumulative IPC: 3.079 (Simulation time: 00 hr 52 min 38 sec)
Heartbeat CPU 0 instructions: 640000004 cycles: 211685098 heartbeat IPC: 0.9259 cumulative IPC: 2.962 (Simulation time: 00 hr 54 min 26 sec)
Heartbeat CPU 0 instructions: 650000001 cycles: 222464528 heartbeat IPC: 0.9277 cumulative IPC: 2.858 (Simulation time: 00 hr 56 min 08 sec)
Simulation finished CPU 0 instructions: 600000001 cycles: 209964326 cumulative IPC: 2.858 (Simulation time: 00 hr 56 min 08 sec)
Simulation complete CPU 0 instructions: 600000001 cycles: 209964326 cumulative IPC: 2.858 (Simulation time: 00 hr 56 min 08 sec)

ChampSim completed all CPUs

=== Simulation ===
CPU 0 runs traces/convolution.champsimtrace
Region of Interest Statistics

CPU 0 cumulative IPC: 2.858 instructions: 600000001 cycles: 209964326
CPU 0 Branch Prediction Accuracy: 100% MPKI: 0.002858 Average ROB Occupancy at Mispredict: 78.79
Branch type MPKI
BRANCH_DIRECT_JUMP: 0.000107
BRANCH_INDIRECT: 4.17e-05
BRANCH_CONDITIONAL: 0.00258
BRANCH_DIRECT_CALL: 0.000103
BRANCH_INDIRECT_CALL: 8.33e-06
BRANCH_RETURN: 1.83e-05

LLC TOTAL        ACCESS:    1182929 HIT:      50009 MISS:    1132920
LLC LOAD         ACCESS:       2888 HIT:       1416 MISS:       1472
LLC RFO          ACCESS:     535119 HIT:      15915 MISS:     519204
LLC PREFETCH     ACCESS:          0 HIT:          0 MISS:          0
LLC WRITE        ACCESS:     535172 HIT:      19584 MISS:     515588
LLC TRANSLATION  ACCESS:     109750 HIT:      13094 MISS:      96656
LLC PREFETCH REQUESTED:          0 ISSUED:          0 USEFUL:          0 USELESS:          0
LLC AVERAGE MISS LATENCY: 558.9 cycles
cpu0_DTLB TOTAL        ACCESS:  113232826 HIT:  112895241 MISS:     337585
cpu0_DTLB LOAD         ACCESS:  113232826 HIT:  112895241 MISS:     337585
cpu0_DTLB RFO          ACCESS:          0 HIT:          0 MISS:          0
cpu0_DTLB PREFETCH     ACCESS:          0 HIT:          0 MISS:          0
cpu0_DTLB WRITE        ACCESS:          0 HIT:          0 MISS:          0
cpu0_DTLB TRANSLATION  ACCESS:          0 HIT:          0 MISS:          0
cpu0_DTLB PREFETCH REQUESTED:          0 ISSUED:          0 USEFUL:          0 USELESS:          0
cpu0_DTLB AVERAGE MISS LATENCY: 637.5 cycles
cpu0_ITLB TOTAL        ACCESS:       2116 HIT:       2082 MISS:         34
cpu0_ITLB LOAD         ACCESS:       2116 HIT:       2082 MISS:         34
cpu0_ITLB RFO          ACCESS:          0 HIT:          0 MISS:          0
cpu0_ITLB PREFETCH     ACCESS:          0 HIT:          0 MISS:          0
cpu0_ITLB WRITE        ACCESS:          0 HIT:          0 MISS:          0
cpu0_ITLB TRANSLATION  ACCESS:          0 HIT:          0 MISS:          0
cpu0_ITLB PREFETCH REQUESTED:          0 ISSUED:          0 USEFUL:          0 USELESS:          0
cpu0_ITLB AVERAGE MISS LATENCY: 605.9 cycles
cpu0_L1D TOTAL        ACCESS:  146430918 HIT:  140263368 MISS:    6167550
cpu0_L1D LOAD         ACCESS:   74278021 HIT:   74269861 MISS:       8160
cpu0_L1D RFO          ACCESS:          0 HIT:          0 MISS:          0
cpu0_L1D PREFETCH     ACCESS:          0 HIT:          0 MISS:          0
cpu0_L1D WRITE        ACCESS:   71972226 HIT:   65957389 MISS:    6014837
cpu0_L1D TRANSLATION  ACCESS:     180671 HIT:      36118 MISS:     144553
cpu0_L1D PREFETCH REQUESTED:          0 ISSUED:          0 USEFUL:          0 USELESS:          0
cpu0_L1D AVERAGE MISS LATENCY: 82.23 cycles
cpu0_L1I TOTAL        ACCESS:       2470 HIT:       1028 MISS:       1442
cpu0_L1I LOAD         ACCESS:       2470 HIT:       1028 MISS:       1442
cpu0_L1I RFO          ACCESS:          0 HIT:          0 MISS:          0
cpu0_L1I PREFETCH     ACCESS:          0 HIT:          0 MISS:          0
cpu0_L1I WRITE        ACCESS:          0 HIT:          0 MISS:          0
cpu0_L1I TRANSLATION  ACCESS:          0 HIT:          0 MISS:          0
cpu0_L1I PREFETCH REQUESTED:          0 ISSUED:          0 USEFUL:          0 USELESS:          0
cpu0_L1I AVERAGE MISS LATENCY: 334.7 cycles
cpu0_L2C TOTAL        ACCESS:    1193272 HIT:     545497 MISS:     647775
cpu0_L2C LOAD         ACCESS:       3313 HIT:        425 MISS:       2888
cpu0_L2C RFO          ACCESS:     539216 HIT:       4096 MISS:     535120
cpu0_L2C PREFETCH     ACCESS:          0 HIT:          0 MISS:          0
cpu0_L2C WRITE        ACCESS:     539632 HIT:     539616 MISS:         16
cpu0_L2C TRANSLATION  ACCESS:     111111 HIT:       1360 MISS:     109751
cpu0_L2C PREFETCH REQUESTED:          0 ISSUED:          0 USEFUL:          0 USELESS:          0
cpu0_L2C AVERAGE MISS LATENCY: 998.5 cycles
cpu0_STLB TOTAL        ACCESS:     156165 HIT:         55 MISS:     156110
cpu0_STLB LOAD         ACCESS:     156165 HIT:         55 MISS:     156110
cpu0_STLB RFO          ACCESS:          0 HIT:          0 MISS:          0
cpu0_STLB PREFETCH     ACCESS:          0 HIT:          0 MISS:          0
cpu0_STLB WRITE        ACCESS:          0 HIT:          0 MISS:          0
cpu0_STLB TRANSLATION  ACCESS:          0 HIT:          0 MISS:          0
cpu0_STLB PREFETCH REQUESTED:          0 ISSUED:          0 USEFUL:          0 USELESS:          0
cpu0_STLB AVERAGE MISS LATENCY: 1556 cycles

DRAM Statistics

Channel 0 RQ ROW_BUFFER_HIT:     138113
  ROW_BUFFER_MISS:     479215
 AVG DBUS CONGESTED CYCLE: 3.978
WQ ROW_BUFFER_HIT: Channel 0 
  ROW_BUFFER_MISS:     119401
  FULL:     399566
