WARNING: physical memory size is smaller than virtual memory size.

*** ChampSim Multicore Out-of-Order Simulator ***
Warmup Instructions: 50000000
Simulation Instructions: 600000000
Number of CPUs: 1
Page size: 4096

Off-chip DRAM Size: 4 GiB Channels: 1 Width: 64-bit Data Race: 3200 MT/s
Heartbeat CPU 0 instructions: 10000000 cycles: 2500202 heartbeat IPC: 4 cumulative IPC: 4 (Simulation time: 00 hr 00 min 33 sec)
Heartbeat CPU 0 instructions: 20000000 cycles: 5000202 heartbeat IPC: 4 cumulative IPC: 4 (Simulation time: 00 hr 01 min 09 sec)
Heartbeat CPU 0 instructions: 30000000 cycles: 7500202 heartbeat IPC: 4 cumulative IPC: 4 (Simulation time: 00 hr 01 min 44 sec)
Heartbeat CPU 0 instructions: 40000000 cycles: 10000202 heartbeat IPC: 4 cumulative IPC: 4 (Simulation time: 00 hr 02 min 16 sec)
Heartbeat CPU 0 instructions: 50000000 cycles: 12500202 heartbeat IPC: 4 cumulative IPC: 4 (Simulation time: 00 hr 02 min 49 sec)
Warmup finished CPU 0 instructions: 50000000 cycles: 12500203 cumulative IPC: 4 (Simulation time: 00 hr 02 min 49 sec)
Warmup complete CPU 0 instructions: 50000000 cycles: 12500203 cumulative IPC: 4 (Simulation time: 00 hr 02 min 49 sec)
Heartbeat CPU 0 instructions: 60000002 cycles: 15729550 heartbeat IPC: 3.097 cumulative IPC: 3.097 (Simulation time: 00 hr 03 min 31 sec)
Heartbeat CPU 0 instructions: 70000002 cycles: 18384730 heartbeat IPC: 3.766 cumulative IPC: 3.399 (Simulation time: 00 hr 04 min 18 sec)
Heartbeat CPU 0 instructions: 80000003 cycles: 21036952 heartbeat IPC: 3.77 cumulative IPC: 3.514 (Simulation time: 00 hr 05 min 02 sec)
Heartbeat CPU 0 instructions: 90000004 cycles: 23691764 heartbeat IPC: 3.767 cumulative IPC: 3.574 (Simulation time: 00 hr 05 min 41 sec)
Heartbeat CPU 0 instructions: 100000003 cycles: 26350978 heartbeat IPC: 3.761 cumulative IPC: 3.61 (Simulation time: 00 hr 06 min 28 sec)
Heartbeat CPU 0 instructions: 110000000 cycles: 29005960 heartbeat IPC: 3.767 cumulative IPC: 3.635 (Simulation time: 00 hr 07 min 10 sec)
Heartbeat CPU 0 instructions: 120000000 cycles: 31659601 heartbeat IPC: 3.768 cumulative IPC: 3.654 (Simulation time: 00 hr 07 min 52 sec)
Heartbeat CPU 0 instructions: 130000000 cycles: 34321845 heartbeat IPC: 3.756 cumulative IPC: 3.666 (Simulation time: 00 hr 08 min 33 sec)
Heartbeat CPU 0 instructions: 140000001 cycles: 36981084 heartbeat IPC: 3.76 cumulative IPC: 3.676 (Simulation time: 00 hr 09 min 10 sec)
Heartbeat CPU 0 instructions: 150000003 cycles: 39638867 heartbeat IPC: 3.763 cumulative IPC: 3.685 (Simulation time: 00 hr 09 min 51 sec)
Heartbeat CPU 0 instructions: 160000003 cycles: 42299305 heartbeat IPC: 3.759 cumulative IPC: 3.691 (Simulation time: 00 hr 10 min 28 sec)
Heartbeat CPU 0 instructions: 170000001 cycles: 44953266 heartbeat IPC: 3.768 cumulative IPC: 3.698 (Simulation time: 00 hr 11 min 07 sec)
Heartbeat CPU 0 instructions: 180000001 cycles: 47609775 heartbeat IPC: 3.764 cumulative IPC: 3.703 (Simulation time: 00 hr 11 min 45 sec)
Heartbeat CPU 0 instructions: 190000002 cycles: 50266339 heartbeat IPC: 3.764 cumulative IPC: 3.707 (Simulation time: 00 hr 12 min 27 sec)
Heartbeat CPU 0 instructions: 200000001 cycles: 52923455 heartbeat IPC: 3.763 cumulative IPC: 3.711 (Simulation time: 00 hr 13 min 06 sec)
Heartbeat CPU 0 instructions: 210000000 cycles: 55584825 heartbeat IPC: 3.757 cumulative IPC: 3.714 (Simulation time: 00 hr 13 min 49 sec)
Heartbeat CPU 0 instructions: 220000001 cycles: 58244148 heartbeat IPC: 3.76 cumulative IPC: 3.716 (Simulation time: 00 hr 14 min 26 sec)
Heartbeat CPU 0 instructions: 230000002 cycles: 60899493 heartbeat IPC: 3.766 cumulative IPC: 3.719 (Simulation time: 00 hr 15 min 04 sec)
Heartbeat CPU 0 instructions: 240000004 cycles: 63554196 heartbeat IPC: 3.767 cumulative IPC: 3.722 (Simulation time: 00 hr 15 min 41 sec)
Heartbeat CPU 0 instructions: 250000000 cycles: 66215523 heartbeat IPC: 3.758 cumulative IPC: 3.723 (Simulation time: 00 hr 16 min 18 sec)
Heartbeat CPU 0 instructions: 260000000 cycles: 68872441 heartbeat IPC: 3.764 cumulative IPC: 3.725 (Simulation time: 00 hr 16 min 55 sec)
Heartbeat CPU 0 instructions: 270000002 cycles: 71528773 heartbeat IPC: 3.765 cumulative IPC: 3.727 (Simulation time: 00 hr 17 min 30 sec)
Heartbeat CPU 0 instructions: 280000003 cycles: 74184860 heartbeat IPC: 3.765 cumulative IPC: 3.729 (Simulation time: 00 hr 18 min 05 sec)
Heartbeat CPU 0 instructions: 290000002 cycles: 76839621 heartbeat IPC: 3.767 cumulative IPC: 3.73 (Simulation time: 00 hr 18 min 42 sec)
Heartbeat CPU 0 instructions: 300000000 cycles: 79494239 heartbeat IPC: 3.767 cumulative IPC: 3.732 (Simulation time: 00 hr 19 min 18 sec)
Heartbeat CPU 0 instructions: 310000002 cycles: 82153641 heartbeat IPC: 3.76 cumulative IPC: 3.733 (Simulation time: 00 hr 19 min 53 sec)
Heartbeat CPU 0 instructions: 320000004 cycles: 84808918 heartbeat IPC: 3.766 cumulative IPC: 3.734 (Simulation time: 00 hr 20 min 29 sec)
Heartbeat CPU 0 instructions: 330000000 cycles: 87465843 heartbeat IPC: 3.764 cumulative IPC: 3.735 (Simulation time: 00 hr 21 min 06 sec)
Heartbeat CPU 0 instructions: 340000002 cycles: 90122082 heartbeat IPC: 3.765 cumulative IPC: 3.736 (Simulation time: 00 hr 21 min 42 sec)
Heartbeat CPU 0 instructions: 350000002 cycles: 92778237 heartbeat IPC: 3.765 cumulative IPC: 3.737 (Simulation time: 00 hr 22 min 17 sec)
Heartbeat CPU 0 instructions: 360000001 cycles: 95438219 heartbeat IPC: 3.759 cumulative IPC: 3.738 (Simulation time: 00 hr 22 min 52 sec)
Heartbeat CPU 0 instructions: 370000004 cycles: 98095090 heartbeat IPC: 3.764 cumulative IPC: 3.739 (Simulation time: 00 hr 23 min 27 sec)
Heartbeat CPU 0 instructions: 380000000 cycles: 100752455 heartbeat IPC: 3.763 cumulative IPC: 3.739 (Simulation time: 00 hr 24 min 02 sec)
Heartbeat CPU 0 instructions: 390000003 cycles: 103411637 heartbeat IPC: 3.761 cumulative IPC: 3.74 (Simulation time: 00 hr 24 min 37 sec)
Heartbeat CPU 0 instructions: 400000000 cycles: 106066226 heartbeat IPC: 3.767 cumulative IPC: 3.741 (Simulation time: 00 hr 25 min 13 sec)
Heartbeat CPU 0 instructions: 410000000 cycles: 108721758 heartbeat IPC: 3.766 cumulative IPC: 3.741 (Simulation time: 00 hr 25 min 48 sec)
Heartbeat CPU 0 instructions: 420000001 cycles: 111375450 heartbeat IPC: 3.768 cumulative IPC: 3.742 (Simulation time: 00 hr 26 min 24 sec)
Heartbeat CPU 0 instructions: 430000003 cycles: 114031716 heartbeat IPC: 3.765 cumulative IPC: 3.743 (Simulation time: 00 hr 27 min 00 sec)
Heartbeat CPU 0 instructions: 440000003 cycles: 116689224 heartbeat IPC: 3.763 cumulative IPC: 3.743 (Simulation time: 00 hr 27 min 35 sec)
Heartbeat CPU 0 instructions: 450000004 cycles: 119349651 heartbeat IPC: 3.759 cumulative IPC: 3.744 (Simulation time: 00 hr 28 min 10 sec)
Heartbeat CPU 0 instructions: 460000001 cycles: 122003585 heartbeat IPC: 3.768 cumulative IPC: 3.744 (Simulation time: 00 hr 28 min 45 sec)
Heartbeat CPU 0 instructions: 470000002 cycles: 124661821 heartbeat IPC: 3.762 cumulative IPC: 3.745 (Simulation time: 00 hr 29 min 21 sec)
Heartbeat CPU 0 instructions: 480000001 cycles: 127318360 heartbeat IPC: 3.764 cumulative IPC: 3.745 (Simulation time: 00 hr 29 min 56 sec)
Heartbeat CPU 0 instructions: 490000000 cycles: 129978175 heartbeat IPC: 3.76 cumulative IPC: 3.745 (Simulation time: 00 hr 30 min 31 sec)
Heartbeat CPU 0 instructions: 500000002 cycles: 132634327 heartbeat IPC: 3.765 cumulative IPC: 3.746 (Simulation time: 00 hr 31 min 06 sec)
Heartbeat CPU 0 instructions: 510000003 cycles: 135294399 heartbeat IPC: 3.759 cumulative IPC: 3.746 (Simulation time: 00 hr 31 min 41 sec)
Heartbeat CPU 0 instructions: 520000004 cycles: 137950860 heartbeat IPC: 3.764 cumulative IPC: 3.746 (Simulation time: 00 hr 32 min 17 sec)
Heartbeat CPU 0 instructions: 530000000 cycles: 140608942 heartbeat IPC: 3.762 cumulative IPC: 3.747 (Simulation time: 00 hr 32 min 51 sec)
Heartbeat CPU 0 instructions: 540000000 cycles: 143271889 heartbeat IPC: 3.755 cumulative IPC: 3.747 (Simulation time: 00 hr 33 min 27 sec)
Heartbeat CPU 0 instructions: 550000003 cycles: 145927097 heartbeat IPC: 3.766 cumulative IPC: 3.747 (Simulation time: 00 hr 34 min 02 sec)
Heartbeat CPU 0 instructions: 560000003 cycles: 148581278 heartbeat IPC: 3.768 cumulative IPC: 3.748 (Simulation time: 00 hr 34 min 37 sec)
Heartbeat CPU 0 instructions: 570000004 cycles: 151237315 heartbeat IPC: 3.765 cumulative IPC: 3.748 (Simulation time: 00 hr 35 min 12 sec)
Heartbeat CPU 0 instructions: 580000000 cycles: 153898195 heartbeat IPC: 3.758 cumulative IPC: 3.748 (Simulation time: 00 hr 35 min 47 sec)
Heartbeat CPU 0 instructions: 590000002 cycles: 156551545 heartbeat IPC: 3.769 cumulative IPC: 3.749 (Simulation time: 00 hr 36 min 23 sec)
*** Reached end of trace: (0, "traces/convolution.champsimtrace")
Heartbeat CPU 0 instructions: 600000000 cycles: 159216046 heartbeat IPC: 3.753 cumulative IPC: 3.749 (Simulation time: 00 hr 36 min 58 sec)
Heartbeat CPU 0 instructions: 610000001 cycles: 182157113 heartbeat IPC: 0.4359 cumulative IPC: 3.301 (Simulation time: 00 hr 39 min 54 sec)
Heartbeat CPU 0 instructions: 620000001 cycles: 203051151 heartbeat IPC: 0.4786 cumulative IPC: 2.991 (Simulation time: 00 hr 42 min 40 sec)
Heartbeat CPU 0 instructions: 630000001 cycles: 213607018 heartbeat IPC: 0.9473 cumulative IPC: 2.884 (Simulation time: 00 hr 44 min 15 sec)
Heartbeat CPU 0 instructions: 640000004 cycles: 224170664 heartbeat IPC: 0.9466 cumulative IPC: 2.787 (Simulation time: 00 hr 45 min 52 sec)
Heartbeat CPU 0 instructions: 650000001 cycles: 237767161 heartbeat IPC: 0.7355 cumulative IPC: 2.664 (Simulation time: 00 hr 47 min 56 sec)
Simulation finished CPU 0 instructions: 600000001 cycles: 225266959 cumulative IPC: 2.664 (Simulation time: 00 hr 47 min 56 sec)
Simulation complete CPU 0 instructions: 600000001 cycles: 225266959 cumulative IPC: 2.664 (Simulation time: 00 hr 47 min 56 sec)

ChampSim completed all CPUs

=== Simulation ===
CPU 0 runs traces/convolution.champsimtrace
Region of Interest Statistics

CPU 0 cumulative IPC: 2.664 instructions: 600000001 cycles: 225266959
CPU 0 Branch Prediction Accuracy: 99.47% MPKI: 0.9507 Average ROB Occupancy at Mispredict: 69.13
Branch type MPKI
BRANCH_DIRECT_JUMP: 0.000107
BRANCH_INDIRECT: 4.17e-05
BRANCH_CONDITIONAL: 0.95
BRANCH_DIRECT_CALL: 0.000103
BRANCH_INDIRECT_CALL: 8.33e-06
BRANCH_RETURN: 1.83e-05

LLC TOTAL        ACCESS:    1186871 HIT:      37998 MISS:    1148873
LLC LOAD         ACCESS:       2887 HIT:        886 MISS:       2001
LLC RFO          ACCESS:     535120 HIT:       6271 MISS:     528849
LLC PREFETCH     ACCESS:       2887 HIT:        284 MISS:       2603
LLC WRITE        ACCESS:     535168 HIT:      30517 MISS:     504651
LLC TRANSLATION  ACCESS:     110809 HIT:         40 MISS:     110769
LLC PREFETCH REQUESTED:       2887 ISSUED:       2887 USEFUL:       1658 USELESS:        114
LLC AVERAGE MISS LATENCY: 597.2 cycles
cpu0_DTLB TOTAL        ACCESS:  120044536 HIT:  119689919 MISS:     354617
cpu0_DTLB LOAD         ACCESS:  120044536 HIT:  119689919 MISS:     354617
cpu0_DTLB RFO          ACCESS:          0 HIT:          0 MISS:          0
cpu0_DTLB PREFETCH     ACCESS:          0 HIT:          0 MISS:          0
cpu0_DTLB WRITE        ACCESS:          0 HIT:          0 MISS:          0
cpu0_DTLB TRANSLATION  ACCESS:          0 HIT:          0 MISS:          0
cpu0_DTLB PREFETCH REQUESTED:          0 ISSUED:          0 USEFUL:          0 USELESS:          0
cpu0_DTLB AVERAGE MISS LATENCY: 641.2 cycles
cpu0_ITLB TOTAL        ACCESS:       2011 HIT:       1979 MISS:         32
cpu0_ITLB LOAD         ACCESS:       2011 HIT:       1979 MISS:         32
cpu0_ITLB RFO          ACCESS:          0 HIT:          0 MISS:          0
cpu0_ITLB PREFETCH     ACCESS:          0 HIT:          0 MISS:          0
cpu0_ITLB WRITE        ACCESS:          0 HIT:          0 MISS:          0
cpu0_ITLB TRANSLATION  ACCESS:          0 HIT:          0 MISS:          0
cpu0_ITLB PREFETCH REQUESTED:          0 ISSUED:          0 USEFUL:          0 USELESS:          0
cpu0_ITLB AVERAGE MISS LATENCY: 1241 cycles
cpu0_L1D TOTAL        ACCESS:  161159978 HIT:  154988351 MISS:    6171627
cpu0_L1D LOAD         ACCESS:   88940241 HIT:   88934313 MISS:       5928
cpu0_L1D RFO          ACCESS:          0 HIT:          0 MISS:          0
cpu0_L1D PREFETCH     ACCESS:          0 HIT:          0 MISS:          0
cpu0_L1D WRITE        ACCESS:   72038190 HIT:   66015620 MISS:    6022570
cpu0_L1D TRANSLATION  ACCESS:     181547 HIT:      38418 MISS:     143129
cpu0_L1D PREFETCH REQUESTED:          0 ISSUED:          0 USEFUL:          0 USELESS:          0
cpu0_L1D AVERAGE MISS LATENCY: 86.68 cycles
cpu0_L1I TOTAL        ACCESS:       2310 HIT:       1011 MISS:       1299
cpu0_L1I LOAD         ACCESS:       2310 HIT:       1011 MISS:       1299
cpu0_L1I RFO          ACCESS:          0 HIT:          0 MISS:          0
cpu0_L1I PREFETCH     ACCESS:          0 HIT:          0 MISS:          0
cpu0_L1I WRITE        ACCESS:          0 HIT:          0 MISS:          0
cpu0_L1I TRANSLATION  ACCESS:          0 HIT:          0 MISS:          0
cpu0_L1I PREFETCH REQUESTED:          0 ISSUED:          0 USEFUL:          0 USELESS:          0
cpu0_L1I AVERAGE MISS LATENCY: 792.5 cycles
cpu0_L2C TOTAL        ACCESS:    1192097 HIT:     543262 MISS:     648835
cpu0_L2C LOAD         ACCESS:       3313 HIT:        426 MISS:       2887
cpu0_L2C RFO          ACCESS:     538103 HIT:       2982 MISS:     535121
cpu0_L2C PREFETCH     ACCESS:          0 HIT:          0 MISS:          0
cpu0_L2C WRITE        ACCESS:     538227 HIT:     538210 MISS:         17
cpu0_L2C TRANSLATION  ACCESS:     112454 HIT:       1644 MISS:     110810
cpu0_L2C PREFETCH REQUESTED:          0 ISSUED:          0 USEFUL:          0 USELESS:          0
cpu0_L2C AVERAGE MISS LATENCY: 1075 cycles
cpu0_STLB TOTAL        ACCESS:     156167 HIT:         54 MISS:     156113
cpu0_STLB LOAD         ACCESS:     156167 HIT:         54 MISS:     156113
cpu0_STLB RFO          ACCESS:          0 HIT:          0 MISS:          0
cpu0_STLB PREFETCH     ACCESS:          0 HIT:          0 MISS:          0
cpu0_STLB WRITE        ACCESS:          0 HIT:          0 MISS:          0
cpu0_STLB TRANSLATION  ACCESS:          0 HIT:          0 MISS:          0
cpu0_STLB PREFETCH REQUESTED:          0 ISSUED:          0 USEFUL:          0 USELESS:          0
cpu0_STLB AVERAGE MISS LATENCY: 1672 cycles

DRAM Statistics

Channel 0 RQ ROW_BUFFER_HIT:     142815
  ROW_BUFFER_MISS:     500030
 AVG DBUS CONGESTED CYCLE: 3.977
WQ ROW_BUFFER_HIT: Channel 0 
  ROW_BUFFER_MISS:     116030
  FULL:     431600
Final OPTGen Hits: 216
Final OPTGen Access: 16970
Final OPTGEN Hit Rate: 1.27284
