WARNING: physical memory size is smaller than virtual memory size.

*** ChampSim Multicore Out-of-Order Simulator ***
Warmup Instructions: 50000000
Simulation Instructions: 600000000
Number of CPUs: 1
Page size: 4096

CPU 0 Tage branch predictor
Off-chip DRAM Size: 4 GiB Channels: 1 Width: 64-bit Data Race: 3200 MT/s
Heartbeat CPU 0 instructions: 10000000 cycles: 2500202 heartbeat IPC: 4 cumulative IPC: 4 (Simulation time: 00 hr 00 min 40 sec)
Heartbeat CPU 0 instructions: 20000000 cycles: 5000202 heartbeat IPC: 4 cumulative IPC: 4 (Simulation time: 00 hr 01 min 26 sec)
Heartbeat CPU 0 instructions: 30000000 cycles: 7500202 heartbeat IPC: 4 cumulative IPC: 4 (Simulation time: 00 hr 02 min 04 sec)
Heartbeat CPU 0 instructions: 40000000 cycles: 10000202 heartbeat IPC: 4 cumulative IPC: 4 (Simulation time: 00 hr 02 min 43 sec)
Heartbeat CPU 0 instructions: 50000000 cycles: 12500202 heartbeat IPC: 4 cumulative IPC: 4 (Simulation time: 00 hr 03 min 21 sec)
Warmup finished CPU 0 instructions: 50000000 cycles: 12500203 cumulative IPC: 4 (Simulation time: 00 hr 03 min 21 sec)
Warmup complete CPU 0 instructions: 50000000 cycles: 12500203 cumulative IPC: 4 (Simulation time: 00 hr 03 min 21 sec)
Heartbeat CPU 0 instructions: 60000002 cycles: 15586597 heartbeat IPC: 3.24 cumulative IPC: 3.24 (Simulation time: 00 hr 04 min 10 sec)
Heartbeat CPU 0 instructions: 70000002 cycles: 18093756 heartbeat IPC: 3.989 cumulative IPC: 3.576 (Simulation time: 00 hr 04 min 55 sec)
Heartbeat CPU 0 instructions: 80000003 cycles: 20600617 heartbeat IPC: 3.989 cumulative IPC: 3.704 (Simulation time: 00 hr 05 min 43 sec)
Heartbeat CPU 0 instructions: 90000004 cycles: 23108210 heartbeat IPC: 3.988 cumulative IPC: 3.771 (Simulation time: 00 hr 06 min 29 sec)
Heartbeat CPU 0 instructions: 100000003 cycles: 25617543 heartbeat IPC: 3.985 cumulative IPC: 3.812 (Simulation time: 00 hr 07 min 16 sec)
Heartbeat CPU 0 instructions: 110000000 cycles: 28125715 heartbeat IPC: 3.987 cumulative IPC: 3.84 (Simulation time: 00 hr 08 min 02 sec)
Heartbeat CPU 0 instructions: 120000000 cycles: 30631751 heartbeat IPC: 3.99 cumulative IPC: 3.861 (Simulation time: 00 hr 08 min 47 sec)
Heartbeat CPU 0 instructions: 130000000 cycles: 33138109 heartbeat IPC: 3.99 cumulative IPC: 3.876 (Simulation time: 00 hr 09 min 39 sec)
Heartbeat CPU 0 instructions: 140000001 cycles: 35645984 heartbeat IPC: 3.987 cumulative IPC: 3.888 (Simulation time: 00 hr 10 min 25 sec)
Heartbeat CPU 0 instructions: 150000003 cycles: 38154455 heartbeat IPC: 3.986 cumulative IPC: 3.898 (Simulation time: 00 hr 11 min 18 sec)
Heartbeat CPU 0 instructions: 160000003 cycles: 40660332 heartbeat IPC: 3.991 cumulative IPC: 3.906 (Simulation time: 00 hr 12 min 06 sec)
Heartbeat CPU 0 instructions: 170000000 cycles: 43163767 heartbeat IPC: 3.995 cumulative IPC: 3.913 (Simulation time: 00 hr 12 min 50 sec)
Heartbeat CPU 0 instructions: 180000001 cycles: 45667438 heartbeat IPC: 3.994 cumulative IPC: 3.92 (Simulation time: 00 hr 13 min 38 sec)
Heartbeat CPU 0 instructions: 190000002 cycles: 48171580 heartbeat IPC: 3.993 cumulative IPC: 3.925 (Simulation time: 00 hr 14 min 27 sec)
Heartbeat CPU 0 instructions: 200000002 cycles: 50679264 heartbeat IPC: 3.988 cumulative IPC: 3.929 (Simulation time: 00 hr 15 min 11 sec)
Heartbeat CPU 0 instructions: 210000000 cycles: 53186035 heartbeat IPC: 3.989 cumulative IPC: 3.933 (Simulation time: 00 hr 15 min 57 sec)
Heartbeat CPU 0 instructions: 220000001 cycles: 55692933 heartbeat IPC: 3.989 cumulative IPC: 3.936 (Simulation time: 00 hr 16 min 41 sec)
Heartbeat CPU 0 instructions: 230000002 cycles: 58201556 heartbeat IPC: 3.986 cumulative IPC: 3.939 (Simulation time: 00 hr 17 min 24 sec)
Heartbeat CPU 0 instructions: 240000004 cycles: 60707009 heartbeat IPC: 3.991 cumulative IPC: 3.941 (Simulation time: 00 hr 18 min 07 sec)
Heartbeat CPU 0 instructions: 250000000 cycles: 63217509 heartbeat IPC: 3.983 cumulative IPC: 3.943 (Simulation time: 00 hr 18 min 48 sec)
Heartbeat CPU 0 instructions: 260000000 cycles: 65728518 heartbeat IPC: 3.982 cumulative IPC: 3.945 (Simulation time: 00 hr 19 min 31 sec)
Heartbeat CPU 0 instructions: 270000002 cycles: 68231280 heartbeat IPC: 3.996 cumulative IPC: 3.948 (Simulation time: 00 hr 20 min 15 sec)
Heartbeat CPU 0 instructions: 280000003 cycles: 70736489 heartbeat IPC: 3.992 cumulative IPC: 3.949 (Simulation time: 00 hr 21 min 05 sec)
Heartbeat CPU 0 instructions: 290000000 cycles: 73238867 heartbeat IPC: 3.996 cumulative IPC: 3.951 (Simulation time: 00 hr 21 min 50 sec)
Heartbeat CPU 0 instructions: 300000000 cycles: 75745659 heartbeat IPC: 3.989 cumulative IPC: 3.953 (Simulation time: 00 hr 22 min 36 sec)
Heartbeat CPU 0 instructions: 310000002 cycles: 78250086 heartbeat IPC: 3.993 cumulative IPC: 3.954 (Simulation time: 00 hr 23 min 18 sec)
Heartbeat CPU 0 instructions: 320000004 cycles: 80758883 heartbeat IPC: 3.986 cumulative IPC: 3.956 (Simulation time: 00 hr 24 min 01 sec)
Heartbeat CPU 0 instructions: 330000000 cycles: 83266978 heartbeat IPC: 3.987 cumulative IPC: 3.957 (Simulation time: 00 hr 24 min 43 sec)
Heartbeat CPU 0 instructions: 340000002 cycles: 85777097 heartbeat IPC: 3.984 cumulative IPC: 3.958 (Simulation time: 00 hr 25 min 26 sec)
Heartbeat CPU 0 instructions: 350000002 cycles: 88285793 heartbeat IPC: 3.986 cumulative IPC: 3.959 (Simulation time: 00 hr 26 min 08 sec)
Heartbeat CPU 0 instructions: 360000004 cycles: 90793336 heartbeat IPC: 3.988 cumulative IPC: 3.959 (Simulation time: 00 hr 26 min 52 sec)
Heartbeat CPU 0 instructions: 370000004 cycles: 93296634 heartbeat IPC: 3.995 cumulative IPC: 3.961 (Simulation time: 00 hr 27 min 34 sec)
Heartbeat CPU 0 instructions: 380000000 cycles: 95803706 heartbeat IPC: 3.989 cumulative IPC: 3.961 (Simulation time: 00 hr 28 min 17 sec)
Heartbeat CPU 0 instructions: 390000000 cycles: 98307067 heartbeat IPC: 3.995 cumulative IPC: 3.962 (Simulation time: 00 hr 28 min 59 sec)
Heartbeat CPU 0 instructions: 400000000 cycles: 100812914 heartbeat IPC: 3.991 cumulative IPC: 3.963 (Simulation time: 00 hr 29 min 42 sec)
Heartbeat CPU 0 instructions: 410000000 cycles: 103321272 heartbeat IPC: 3.987 cumulative IPC: 3.964 (Simulation time: 00 hr 30 min 26 sec)
Heartbeat CPU 0 instructions: 420000001 cycles: 105824415 heartbeat IPC: 3.995 cumulative IPC: 3.965 (Simulation time: 00 hr 31 min 12 sec)
Heartbeat CPU 0 instructions: 430000003 cycles: 108330641 heartbeat IPC: 3.99 cumulative IPC: 3.965 (Simulation time: 00 hr 31 min 56 sec)
Heartbeat CPU 0 instructions: 440000003 cycles: 110834272 heartbeat IPC: 3.994 cumulative IPC: 3.966 (Simulation time: 00 hr 32 min 38 sec)
Heartbeat CPU 0 instructions: 450000000 cycles: 113343645 heartbeat IPC: 3.985 cumulative IPC: 3.967 (Simulation time: 00 hr 33 min 22 sec)
Heartbeat CPU 0 instructions: 460000001 cycles: 115848834 heartbeat IPC: 3.992 cumulative IPC: 3.967 (Simulation time: 00 hr 34 min 09 sec)
Heartbeat CPU 0 instructions: 470000002 cycles: 118354392 heartbeat IPC: 3.991 cumulative IPC: 3.968 (Simulation time: 00 hr 35 min 02 sec)
Heartbeat CPU 0 instructions: 480000001 cycles: 120858576 heartbeat IPC: 3.993 cumulative IPC: 3.968 (Simulation time: 00 hr 35 min 47 sec)
Heartbeat CPU 0 instructions: 490000000 cycles: 123365940 heartbeat IPC: 3.988 cumulative IPC: 3.969 (Simulation time: 00 hr 36 min 30 sec)
Heartbeat CPU 0 instructions: 500000002 cycles: 125872400 heartbeat IPC: 3.99 cumulative IPC: 3.969 (Simulation time: 00 hr 37 min 12 sec)
Heartbeat CPU 0 instructions: 510000003 cycles: 128379676 heartbeat IPC: 3.988 cumulative IPC: 3.97 (Simulation time: 00 hr 37 min 57 sec)
Heartbeat CPU 0 instructions: 520000004 cycles: 130893590 heartbeat IPC: 3.978 cumulative IPC: 3.97 (Simulation time: 00 hr 38 min 44 sec)
Heartbeat CPU 0 instructions: 530000000 cycles: 133401848 heartbeat IPC: 3.987 cumulative IPC: 3.97 (Simulation time: 00 hr 39 min 30 sec)
Heartbeat CPU 0 instructions: 540000001 cycles: 135904881 heartbeat IPC: 3.995 cumulative IPC: 3.971 (Simulation time: 00 hr 40 min 15 sec)
Heartbeat CPU 0 instructions: 550000002 cycles: 138409797 heartbeat IPC: 3.992 cumulative IPC: 3.971 (Simulation time: 00 hr 41 min 01 sec)
Heartbeat CPU 0 instructions: 560000003 cycles: 140917790 heartbeat IPC: 3.987 cumulative IPC: 3.971 (Simulation time: 00 hr 41 min 46 sec)
Heartbeat CPU 0 instructions: 570000004 cycles: 143423699 heartbeat IPC: 3.991 cumulative IPC: 3.972 (Simulation time: 00 hr 42 min 37 sec)
Heartbeat CPU 0 instructions: 580000000 cycles: 145932492 heartbeat IPC: 3.986 cumulative IPC: 3.972 (Simulation time: 00 hr 43 min 28 sec)
Heartbeat CPU 0 instructions: 590000002 cycles: 148439386 heartbeat IPC: 3.989 cumulative IPC: 3.972 (Simulation time: 00 hr 44 min 19 sec)
*** Reached end of trace: (0, "traces/convolution.champsimtrace")
Heartbeat CPU 0 instructions: 600000000 cycles: 150945871 heartbeat IPC: 3.99 cumulative IPC: 3.973 (Simulation time: 00 hr 45 min 05 sec)
Heartbeat CPU 0 instructions: 610000002 cycles: 173028905 heartbeat IPC: 0.4528 cumulative IPC: 3.488 (Simulation time: 00 hr 48 min 14 sec)
Heartbeat CPU 0 instructions: 620000001 cycles: 192080645 heartbeat IPC: 0.5249 cumulative IPC: 3.174 (Simulation time: 00 hr 51 min 05 sec)
Heartbeat CPU 0 instructions: 630000001 cycles: 200660945 heartbeat IPC: 1.165 cumulative IPC: 3.082 (Simulation time: 00 hr 52 min 36 sec)
Heartbeat CPU 0 instructions: 640000004 cycles: 211492265 heartbeat IPC: 0.9232 cumulative IPC: 2.965 (Simulation time: 00 hr 54 min 24 sec)
Heartbeat CPU 0 instructions: 650000001 cycles: 222266718 heartbeat IPC: 0.9281 cumulative IPC: 2.86 (Simulation time: 00 hr 56 min 13 sec)
Simulation finished CPU 0 instructions: 600000001 cycles: 209766516 cumulative IPC: 2.86 (Simulation time: 00 hr 56 min 13 sec)
Simulation complete CPU 0 instructions: 600000001 cycles: 209766516 cumulative IPC: 2.86 (Simulation time: 00 hr 56 min 13 sec)

ChampSim completed all CPUs

=== Simulation ===
CPU 0 runs traces/convolution.champsimtrace
Region of Interest Statistics

CPU 0 cumulative IPC: 2.86 instructions: 600000001 cycles: 209766516
CPU 0 Branch Prediction Accuracy: 100% MPKI: 0.002858 Average ROB Occupancy at Mispredict: 79.02
Branch type MPKI
BRANCH_DIRECT_JUMP: 0.000107
BRANCH_INDIRECT: 4.17e-05
BRANCH_CONDITIONAL: 0.00258
BRANCH_DIRECT_CALL: 0.000103
BRANCH_INDIRECT_CALL: 8.33e-06
BRANCH_RETURN: 1.83e-05

LLC TOTAL        ACCESS:    1182767 HIT:      50723 MISS:    1132044
LLC LOAD         ACCESS:       2889 HIT:       1428 MISS:       1461
LLC RFO          ACCESS:     535120 HIT:      16598 MISS:     518522
LLC PREFETCH     ACCESS:          0 HIT:          0 MISS:          0
LLC WRITE        ACCESS:     535170 HIT:      19367 MISS:     515803
LLC TRANSLATION  ACCESS:     109588 HIT:      13330 MISS:      96258
LLC PREFETCH REQUESTED:          0 ISSUED:          0 USEFUL:          0 USELESS:          0
LLC AVERAGE MISS LATENCY: 558.1 cycles
cpu0_DTLB TOTAL        ACCESS:  113237358 HIT:  112900056 MISS:     337302
cpu0_DTLB LOAD         ACCESS:  113237358 HIT:  112900056 MISS:     337302
cpu0_DTLB RFO          ACCESS:          0 HIT:          0 MISS:          0
cpu0_DTLB PREFETCH     ACCESS:          0 HIT:          0 MISS:          0
cpu0_DTLB WRITE        ACCESS:          0 HIT:          0 MISS:          0
cpu0_DTLB TRANSLATION  ACCESS:          0 HIT:          0 MISS:          0
cpu0_DTLB PREFETCH REQUESTED:          0 ISSUED:          0 USEFUL:          0 USELESS:          0
cpu0_DTLB AVERAGE MISS LATENCY: 636.1 cycles
cpu0_ITLB TOTAL        ACCESS:       2116 HIT:       2082 MISS:         34
cpu0_ITLB LOAD         ACCESS:       2116 HIT:       2082 MISS:         34
cpu0_ITLB RFO          ACCESS:          0 HIT:          0 MISS:          0
cpu0_ITLB PREFETCH     ACCESS:          0 HIT:          0 MISS:          0
cpu0_ITLB WRITE        ACCESS:          0 HIT:          0 MISS:          0
cpu0_ITLB TRANSLATION  ACCESS:          0 HIT:          0 MISS:          0
cpu0_ITLB PREFETCH REQUESTED:          0 ISSUED:          0 USEFUL:          0 USELESS:          0
cpu0_ITLB AVERAGE MISS LATENCY: 484.1 cycles
cpu0_L1D TOTAL        ACCESS:  146432333 HIT:  140268056 MISS:    6164277
cpu0_L1D LOAD         ACCESS:   74279514 HIT:   74271305 MISS:       8209
cpu0_L1D RFO          ACCESS:          0 HIT:          0 MISS:          0
cpu0_L1D PREFETCH     ACCESS:          0 HIT:          0 MISS:          0
cpu0_L1D WRITE        ACCESS:   71972262 HIT:   65960655 MISS:    6011607
cpu0_L1D TRANSLATION  ACCESS:     180557 HIT:      36096 MISS:     144461
cpu0_L1D PREFETCH REQUESTED:          0 ISSUED:          0 USEFUL:          0 USELESS:          0
cpu0_L1D AVERAGE MISS LATENCY: 82.26 cycles
cpu0_L1I TOTAL        ACCESS:       2470 HIT:       1034 MISS:       1436
cpu0_L1I LOAD         ACCESS:       2470 HIT:       1034 MISS:       1436
cpu0_L1I RFO          ACCESS:          0 HIT:          0 MISS:          0
cpu0_L1I PREFETCH     ACCESS:          0 HIT:          0 MISS:          0
cpu0_L1I WRITE        ACCESS:          0 HIT:          0 MISS:          0
cpu0_L1I TRANSLATION  ACCESS:          0 HIT:          0 MISS:          0
cpu0_L1I PREFETCH REQUESTED:          0 ISSUED:          0 USEFUL:          0 USELESS:          0
cpu0_L1I AVERAGE MISS LATENCY: 344.3 cycles
cpu0_L2C TOTAL        ACCESS:    1193064 HIT:     545450 MISS:     647614
cpu0_L2C LOAD         ACCESS:       3313 HIT:        424 MISS:       2889
cpu0_L2C RFO          ACCESS:     539205 HIT:       4085 MISS:     535120
cpu0_L2C PREFETCH     ACCESS:          0 HIT:          0 MISS:          0
cpu0_L2C WRITE        ACCESS:     539631 HIT:     539615 MISS:         16
cpu0_L2C TRANSLATION  ACCESS:     110915 HIT:       1326 MISS:     109589
cpu0_L2C PREFETCH REQUESTED:          0 ISSUED:          0 USEFUL:          0 USELESS:          0
cpu0_L2C AVERAGE MISS LATENCY: 996.6 cycles
cpu0_STLB TOTAL        ACCESS:     156161 HIT:         50 MISS:     156111
cpu0_STLB LOAD         ACCESS:     156161 HIT:         50 MISS:     156111
cpu0_STLB RFO          ACCESS:          0 HIT:          0 MISS:          0
cpu0_STLB PREFETCH     ACCESS:          0 HIT:          0 MISS:          0
cpu0_STLB WRITE        ACCESS:          0 HIT:          0 MISS:          0
cpu0_STLB TRANSLATION  ACCESS:          0 HIT:          0 MISS:          0
cpu0_STLB PREFETCH REQUESTED:          0 ISSUED:          0 USEFUL:          0 USELESS:          0
cpu0_STLB AVERAGE MISS LATENCY: 1551 cycles

DRAM Statistics

Channel 0 RQ ROW_BUFFER_HIT:     138273
  ROW_BUFFER_MISS:     477963
 AVG DBUS CONGESTED CYCLE: 3.978
WQ ROW_BUFFER_HIT: Channel 0 
  ROW_BUFFER_MISS:     119269
  FULL:     399235
