WARNING: physical memory size is smaller than virtual memory size.

*** ChampSim Multicore Out-of-Order Simulator ***
Warmup Instructions: 50000000
Simulation Instructions: 600000000
Number of CPUs: 1
Page size: 4096

Off-chip DRAM Size: 4 GiB Channels: 1 Width: 64-bit Data Race: 3200 MT/s
Heartbeat CPU 0 instructions: 10000000 cycles: 2500202 heartbeat IPC: 4 cumulative IPC: 4 (Simulation time: 00 hr 00 min 36 sec)
Heartbeat CPU 0 instructions: 20000000 cycles: 5000202 heartbeat IPC: 4 cumulative IPC: 4 (Simulation time: 00 hr 01 min 10 sec)
Heartbeat CPU 0 instructions: 30000000 cycles: 7500202 heartbeat IPC: 4 cumulative IPC: 4 (Simulation time: 00 hr 01 min 43 sec)
Heartbeat CPU 0 instructions: 40000000 cycles: 10000202 heartbeat IPC: 4 cumulative IPC: 4 (Simulation time: 00 hr 02 min 18 sec)
Heartbeat CPU 0 instructions: 50000000 cycles: 12500202 heartbeat IPC: 4 cumulative IPC: 4 (Simulation time: 00 hr 02 min 53 sec)
Warmup finished CPU 0 instructions: 50000000 cycles: 12500203 cumulative IPC: 4 (Simulation time: 00 hr 02 min 53 sec)
Warmup complete CPU 0 instructions: 50000000 cycles: 12500203 cumulative IPC: 4 (Simulation time: 00 hr 02 min 53 sec)
Heartbeat CPU 0 instructions: 60000002 cycles: 15764863 heartbeat IPC: 3.063 cumulative IPC: 3.063 (Simulation time: 00 hr 03 min 34 sec)
Heartbeat CPU 0 instructions: 70000002 cycles: 18470496 heartbeat IPC: 3.696 cumulative IPC: 3.35 (Simulation time: 00 hr 04 min 12 sec)
Heartbeat CPU 0 instructions: 80000003 cycles: 21174093 heartbeat IPC: 3.699 cumulative IPC: 3.459 (Simulation time: 00 hr 04 min 49 sec)
Heartbeat CPU 0 instructions: 90000004 cycles: 23877656 heartbeat IPC: 3.699 cumulative IPC: 3.516 (Simulation time: 00 hr 05 min 27 sec)
Heartbeat CPU 0 instructions: 100000003 cycles: 26583152 heartbeat IPC: 3.696 cumulative IPC: 3.55 (Simulation time: 00 hr 06 min 07 sec)
Heartbeat CPU 0 instructions: 110000000 cycles: 29286834 heartbeat IPC: 3.699 cumulative IPC: 3.574 (Simulation time: 00 hr 06 min 42 sec)
Heartbeat CPU 0 instructions: 120000000 cycles: 31990188 heartbeat IPC: 3.699 cumulative IPC: 3.592 (Simulation time: 00 hr 07 min 27 sec)
Heartbeat CPU 0 instructions: 130000000 cycles: 34693809 heartbeat IPC: 3.699 cumulative IPC: 3.605 (Simulation time: 00 hr 08 min 13 sec)
Heartbeat CPU 0 instructions: 140000001 cycles: 37397358 heartbeat IPC: 3.699 cumulative IPC: 3.615 (Simulation time: 00 hr 09 min 03 sec)
Heartbeat CPU 0 instructions: 150000003 cycles: 40100942 heartbeat IPC: 3.699 cumulative IPC: 3.623 (Simulation time: 00 hr 09 min 48 sec)
Heartbeat CPU 0 instructions: 160000003 cycles: 42806288 heartbeat IPC: 3.696 cumulative IPC: 3.63 (Simulation time: 00 hr 10 min 34 sec)
Heartbeat CPU 0 instructions: 170000001 cycles: 45510046 heartbeat IPC: 3.699 cumulative IPC: 3.635 (Simulation time: 00 hr 11 min 18 sec)
Heartbeat CPU 0 instructions: 180000001 cycles: 48213619 heartbeat IPC: 3.699 cumulative IPC: 3.64 (Simulation time: 00 hr 12 min 05 sec)
Heartbeat CPU 0 instructions: 190000002 cycles: 50917978 heartbeat IPC: 3.698 cumulative IPC: 3.644 (Simulation time: 00 hr 12 min 54 sec)
Heartbeat CPU 0 instructions: 200000001 cycles: 53621564 heartbeat IPC: 3.699 cumulative IPC: 3.648 (Simulation time: 00 hr 13 min 34 sec)
Heartbeat CPU 0 instructions: 210000000 cycles: 56327585 heartbeat IPC: 3.695 cumulative IPC: 3.651 (Simulation time: 00 hr 14 min 12 sec)
Heartbeat CPU 0 instructions: 220000001 cycles: 59030942 heartbeat IPC: 3.699 cumulative IPC: 3.653 (Simulation time: 00 hr 14 min 51 sec)
Heartbeat CPU 0 instructions: 230000002 cycles: 61734564 heartbeat IPC: 3.699 cumulative IPC: 3.656 (Simulation time: 00 hr 15 min 31 sec)
Heartbeat CPU 0 instructions: 240000004 cycles: 64438197 heartbeat IPC: 3.699 cumulative IPC: 3.658 (Simulation time: 00 hr 16 min 11 sec)
Heartbeat CPU 0 instructions: 250000000 cycles: 67143915 heartbeat IPC: 3.696 cumulative IPC: 3.66 (Simulation time: 00 hr 16 min 51 sec)
Heartbeat CPU 0 instructions: 260000000 cycles: 69847521 heartbeat IPC: 3.699 cumulative IPC: 3.662 (Simulation time: 00 hr 17 min 31 sec)
Heartbeat CPU 0 instructions: 270000002 cycles: 72550884 heartbeat IPC: 3.699 cumulative IPC: 3.664 (Simulation time: 00 hr 18 min 10 sec)
Heartbeat CPU 0 instructions: 280000003 cycles: 75254509 heartbeat IPC: 3.699 cumulative IPC: 3.665 (Simulation time: 00 hr 18 min 49 sec)
Heartbeat CPU 0 instructions: 290000003 cycles: 77958164 heartbeat IPC: 3.699 cumulative IPC: 3.666 (Simulation time: 00 hr 19 min 27 sec)
Heartbeat CPU 0 instructions: 300000000 cycles: 80664464 heartbeat IPC: 3.695 cumulative IPC: 3.668 (Simulation time: 00 hr 20 min 08 sec)
Heartbeat CPU 0 instructions: 310000002 cycles: 83367711 heartbeat IPC: 3.699 cumulative IPC: 3.669 (Simulation time: 00 hr 20 min 45 sec)
Heartbeat CPU 0 instructions: 320000004 cycles: 86071088 heartbeat IPC: 3.699 cumulative IPC: 3.67 (Simulation time: 00 hr 21 min 21 sec)
Heartbeat CPU 0 instructions: 330000000 cycles: 88774698 heartbeat IPC: 3.699 cumulative IPC: 3.671 (Simulation time: 00 hr 22 min 00 sec)
Heartbeat CPU 0 instructions: 340000002 cycles: 91479872 heartbeat IPC: 3.697 cumulative IPC: 3.672 (Simulation time: 00 hr 22 min 41 sec)
Heartbeat CPU 0 instructions: 350000002 cycles: 94183317 heartbeat IPC: 3.699 cumulative IPC: 3.673 (Simulation time: 00 hr 23 min 20 sec)
Heartbeat CPU 0 instructions: 360000001 cycles: 96888981 heartbeat IPC: 3.696 cumulative IPC: 3.673 (Simulation time: 00 hr 23 min 58 sec)
Heartbeat CPU 0 instructions: 370000004 cycles: 99592330 heartbeat IPC: 3.699 cumulative IPC: 3.674 (Simulation time: 00 hr 24 min 38 sec)
Heartbeat CPU 0 instructions: 380000000 cycles: 102295898 heartbeat IPC: 3.699 cumulative IPC: 3.675 (Simulation time: 00 hr 25 min 15 sec)
Heartbeat CPU 0 instructions: 390000004 cycles: 104999618 heartbeat IPC: 3.699 cumulative IPC: 3.676 (Simulation time: 00 hr 25 min 51 sec)
Heartbeat CPU 0 instructions: 400000000 cycles: 107705120 heartbeat IPC: 3.696 cumulative IPC: 3.676 (Simulation time: 00 hr 26 min 28 sec)
Heartbeat CPU 0 instructions: 410000000 cycles: 110408778 heartbeat IPC: 3.699 cumulative IPC: 3.677 (Simulation time: 00 hr 27 min 05 sec)
Heartbeat CPU 0 instructions: 420000001 cycles: 113112224 heartbeat IPC: 3.699 cumulative IPC: 3.677 (Simulation time: 00 hr 27 min 41 sec)
Heartbeat CPU 0 instructions: 430000003 cycles: 115815932 heartbeat IPC: 3.699 cumulative IPC: 3.678 (Simulation time: 00 hr 28 min 18 sec)
Heartbeat CPU 0 instructions: 440000003 cycles: 118519625 heartbeat IPC: 3.699 cumulative IPC: 3.679 (Simulation time: 00 hr 28 min 59 sec)
Heartbeat CPU 0 instructions: 450000004 cycles: 121225613 heartbeat IPC: 3.696 cumulative IPC: 3.679 (Simulation time: 00 hr 29 min 38 sec)
Heartbeat CPU 0 instructions: 460000001 cycles: 123928970 heartbeat IPC: 3.699 cumulative IPC: 3.679 (Simulation time: 00 hr 30 min 17 sec)
Heartbeat CPU 0 instructions: 470000002 cycles: 126632446 heartbeat IPC: 3.699 cumulative IPC: 3.68 (Simulation time: 00 hr 30 min 54 sec)
Heartbeat CPU 0 instructions: 480000001 cycles: 129336195 heartbeat IPC: 3.699 cumulative IPC: 3.68 (Simulation time: 00 hr 31 min 32 sec)
Heartbeat CPU 0 instructions: 490000000 cycles: 132040237 heartbeat IPC: 3.698 cumulative IPC: 3.681 (Simulation time: 00 hr 32 min 11 sec)
Heartbeat CPU 0 instructions: 500000002 cycles: 134745537 heartbeat IPC: 3.696 cumulative IPC: 3.681 (Simulation time: 00 hr 32 min 48 sec)
Heartbeat CPU 0 instructions: 510000003 cycles: 137448862 heartbeat IPC: 3.699 cumulative IPC: 3.682 (Simulation time: 00 hr 33 min 25 sec)
Heartbeat CPU 0 instructions: 520000004 cycles: 140152334 heartbeat IPC: 3.699 cumulative IPC: 3.682 (Simulation time: 00 hr 34 min 02 sec)
Heartbeat CPU 0 instructions: 530000000 cycles: 142855991 heartbeat IPC: 3.699 cumulative IPC: 3.682 (Simulation time: 00 hr 34 min 39 sec)
Heartbeat CPU 0 instructions: 540000000 cycles: 145561453 heartbeat IPC: 3.696 cumulative IPC: 3.683 (Simulation time: 00 hr 35 min 15 sec)
Heartbeat CPU 0 instructions: 550000003 cycles: 148264837 heartbeat IPC: 3.699 cumulative IPC: 3.683 (Simulation time: 00 hr 35 min 52 sec)
Heartbeat CPU 0 instructions: 560000003 cycles: 150968627 heartbeat IPC: 3.699 cumulative IPC: 3.683 (Simulation time: 00 hr 36 min 28 sec)
Heartbeat CPU 0 instructions: 570000004 cycles: 153671966 heartbeat IPC: 3.699 cumulative IPC: 3.683 (Simulation time: 00 hr 37 min 05 sec)
Heartbeat CPU 0 instructions: 580000000 cycles: 156375670 heartbeat IPC: 3.699 cumulative IPC: 3.684 (Simulation time: 00 hr 37 min 41 sec)
Heartbeat CPU 0 instructions: 590000002 cycles: 159079253 heartbeat IPC: 3.699 cumulative IPC: 3.684 (Simulation time: 00 hr 38 min 16 sec)
*** Reached end of trace: (0, "traces/convolution.champsimtrace")
Heartbeat CPU 0 instructions: 600000000 cycles: 161791961 heartbeat IPC: 3.686 cumulative IPC: 3.684 (Simulation time: 00 hr 38 min 54 sec)
Heartbeat CPU 0 instructions: 610000002 cycles: 185672174 heartbeat IPC: 0.4188 cumulative IPC: 3.234 (Simulation time: 00 hr 42 min 09 sec)
Heartbeat CPU 0 instructions: 620000001 cycles: 206592682 heartbeat IPC: 0.478 cumulative IPC: 2.937 (Simulation time: 00 hr 45 min 00 sec)
Heartbeat CPU 0 instructions: 630000001 cycles: 217732506 heartbeat IPC: 0.8977 cumulative IPC: 2.826 (Simulation time: 00 hr 46 min 42 sec)
Heartbeat CPU 0 instructions: 640000004 cycles: 228224659 heartbeat IPC: 0.9531 cumulative IPC: 2.735 (Simulation time: 00 hr 48 min 18 sec)
Heartbeat CPU 0 instructions: 650000001 cycles: 238632560 heartbeat IPC: 0.9608 cumulative IPC: 2.653 (Simulation time: 00 hr 49 min 59 sec)
Simulation finished CPU 0 instructions: 600000001 cycles: 226132358 cumulative IPC: 2.653 (Simulation time: 00 hr 49 min 59 sec)
Simulation complete CPU 0 instructions: 600000001 cycles: 226132358 cumulative IPC: 2.653 (Simulation time: 00 hr 49 min 59 sec)

ChampSim completed all CPUs

=== Simulation ===
CPU 0 runs traces/convolution.champsimtrace
Region of Interest Statistics

CPU 0 cumulative IPC: 2.653 instructions: 600000001 cycles: 226132358
CPU 0 Branch Prediction Accuracy: 99.3% MPKI: 1.265 Average ROB Occupancy at Mispredict: 63.99
Branch type MPKI
BRANCH_DIRECT_JUMP: 0.000107
BRANCH_INDIRECT: 4.17e-05
BRANCH_CONDITIONAL: 1.26
BRANCH_DIRECT_CALL: 0.000103
BRANCH_INDIRECT_CALL: 8.33e-06
BRANCH_RETURN: 1.83e-05

LLC TOTAL        ACCESS:    1183114 HIT:     535736 MISS:     647378
LLC LOAD         ACCESS:       2887 HIT:          3 MISS:       2884
LLC RFO          ACCESS:     535121 HIT:         19 MISS:     535102
LLC PREFETCH     ACCESS:          0 HIT:          0 MISS:          0
LLC WRITE        ACCESS:     535180 HIT:     535158 MISS:         22
LLC TRANSLATION  ACCESS:     109926 HIT:        556 MISS:     109370
LLC PREFETCH REQUESTED:          0 ISSUED:          0 USEFUL:          0 USELESS:          0
LLC AVERAGE MISS LATENCY: 980.6 cycles
cpu0_DTLB TOTAL        ACCESS:  121560814 HIT:  121207859 MISS:     352955
cpu0_DTLB LOAD         ACCESS:  121560814 HIT:  121207859 MISS:     352955
cpu0_DTLB RFO          ACCESS:          0 HIT:          0 MISS:          0
cpu0_DTLB PREFETCH     ACCESS:          0 HIT:          0 MISS:          0
cpu0_DTLB WRITE        ACCESS:          0 HIT:          0 MISS:          0
cpu0_DTLB TRANSLATION  ACCESS:          0 HIT:          0 MISS:          0
cpu0_DTLB PREFETCH REQUESTED:          0 ISSUED:          0 USEFUL:          0 USELESS:          0
cpu0_DTLB AVERAGE MISS LATENCY: 638.7 cycles
cpu0_ITLB TOTAL        ACCESS:       2033 HIT:       1998 MISS:         35
cpu0_ITLB LOAD         ACCESS:       2033 HIT:       1998 MISS:         35
cpu0_ITLB RFO          ACCESS:          0 HIT:          0 MISS:          0
cpu0_ITLB PREFETCH     ACCESS:          0 HIT:          0 MISS:          0
cpu0_ITLB WRITE        ACCESS:          0 HIT:          0 MISS:          0
cpu0_ITLB TRANSLATION  ACCESS:          0 HIT:          0 MISS:          0
cpu0_ITLB PREFETCH REQUESTED:          0 ISSUED:          0 USEFUL:          0 USELESS:          0
cpu0_ITLB AVERAGE MISS LATENCY: 536.3 cycles
cpu0_L1D TOTAL        ACCESS:  162712098 HIT:  156544861 MISS:    6167237
cpu0_L1D LOAD         ACCESS:   90494967 HIT:   90488746 MISS:       6221
cpu0_L1D RFO          ACCESS:          0 HIT:          0 MISS:          0
cpu0_L1D PREFETCH     ACCESS:          0 HIT:          0 MISS:          0
cpu0_L1D WRITE        ACCESS:   72036334 HIT:   66017785 MISS:    6018549
cpu0_L1D TRANSLATION  ACCESS:     180797 HIT:      38330 MISS:     142467
cpu0_L1D PREFETCH REQUESTED:          0 ISSUED:          0 USEFUL:          0 USELESS:          0
cpu0_L1D AVERAGE MISS LATENCY: 78.16 cycles
cpu0_L1I TOTAL        ACCESS:       2351 HIT:       1019 MISS:       1332
cpu0_L1I LOAD         ACCESS:       2351 HIT:       1019 MISS:       1332
cpu0_L1I RFO          ACCESS:          0 HIT:          0 MISS:          0
cpu0_L1I PREFETCH     ACCESS:          0 HIT:          0 MISS:          0
cpu0_L1I WRITE        ACCESS:          0 HIT:          0 MISS:          0
cpu0_L1I TRANSLATION  ACCESS:          0 HIT:          0 MISS:          0
cpu0_L1I PREFETCH REQUESTED:          0 ISSUED:          0 USEFUL:          0 USELESS:          0
cpu0_L1I AVERAGE MISS LATENCY: 627.3 cycles
cpu0_L2C TOTAL        ACCESS:    1190911 HIT:     542959 MISS:     647952
cpu0_L2C LOAD         ACCESS:       3313 HIT:        426 MISS:       2887
cpu0_L2C RFO          ACCESS:     538104 HIT:       2983 MISS:     535121
cpu0_L2C PREFETCH     ACCESS:          0 HIT:          0 MISS:          0
cpu0_L2C WRITE        ACCESS:     538233 HIT:     538216 MISS:         17
cpu0_L2C TRANSLATION  ACCESS:     111261 HIT:       1334 MISS:     109927
cpu0_L2C PREFETCH REQUESTED:          0 ISSUED:          0 USEFUL:          0 USELESS:          0
cpu0_L2C AVERAGE MISS LATENCY: 1001 cycles
cpu0_STLB TOTAL        ACCESS:     156160 HIT:         51 MISS:     156109
cpu0_STLB LOAD         ACCESS:     156160 HIT:         51 MISS:     156109
cpu0_STLB RFO          ACCESS:          0 HIT:          0 MISS:          0
cpu0_STLB PREFETCH     ACCESS:          0 HIT:          0 MISS:          0
cpu0_STLB WRITE        ACCESS:          0 HIT:          0 MISS:          0
cpu0_STLB TRANSLATION  ACCESS:          0 HIT:          0 MISS:          0
cpu0_STLB PREFETCH REQUESTED:          0 ISSUED:          0 USEFUL:          0 USELESS:          0
cpu0_STLB AVERAGE MISS LATENCY: 1643 cycles

DRAM Statistics

Channel 0 RQ ROW_BUFFER_HIT:     141025
  ROW_BUFFER_MISS:     506326
 AVG DBUS CONGESTED CYCLE: 3.978
WQ ROW_BUFFER_HIT: Channel 0 
  ROW_BUFFER_MISS:     105087
  FULL:     430033
