WARNING: physical memory size is smaller than virtual memory size.

*** ChampSim Multicore Out-of-Order Simulator ***
Warmup Instructions: 50000000
Simulation Instructions: 600000000
Number of CPUs: 1
Page size: 4096

Off-chip DRAM Size: 4 GiB Channels: 1 Width: 64-bit Data Race: 3200 MT/s
Heartbeat CPU 0 instructions: 10000000 cycles: 2500202 heartbeat IPC: 4 cumulative IPC: 4 (Simulation time: 00 hr 00 min 34 sec)
Heartbeat CPU 0 instructions: 20000000 cycles: 5000202 heartbeat IPC: 4 cumulative IPC: 4 (Simulation time: 00 hr 01 min 10 sec)
Heartbeat CPU 0 instructions: 30000000 cycles: 7500202 heartbeat IPC: 4 cumulative IPC: 4 (Simulation time: 00 hr 01 min 44 sec)
Heartbeat CPU 0 instructions: 40000000 cycles: 10000202 heartbeat IPC: 4 cumulative IPC: 4 (Simulation time: 00 hr 02 min 18 sec)
Heartbeat CPU 0 instructions: 50000000 cycles: 12500202 heartbeat IPC: 4 cumulative IPC: 4 (Simulation time: 00 hr 02 min 50 sec)
Warmup finished CPU 0 instructions: 50000000 cycles: 12500203 cumulative IPC: 4 (Simulation time: 00 hr 02 min 50 sec)
Warmup complete CPU 0 instructions: 50000000 cycles: 12500203 cumulative IPC: 4 (Simulation time: 00 hr 02 min 50 sec)
Heartbeat CPU 0 instructions: 60000002 cycles: 15716833 heartbeat IPC: 3.109 cumulative IPC: 3.109 (Simulation time: 00 hr 03 min 29 sec)
Heartbeat CPU 0 instructions: 70000002 cycles: 18370757 heartbeat IPC: 3.768 cumulative IPC: 3.407 (Simulation time: 00 hr 04 min 05 sec)
Heartbeat CPU 0 instructions: 80000003 cycles: 21022979 heartbeat IPC: 3.77 cumulative IPC: 3.52 (Simulation time: 00 hr 04 min 40 sec)
Heartbeat CPU 0 instructions: 90000004 cycles: 23675178 heartbeat IPC: 3.77 cumulative IPC: 3.579 (Simulation time: 00 hr 05 min 15 sec)
Heartbeat CPU 0 instructions: 100000003 cycles: 26329053 heartbeat IPC: 3.768 cumulative IPC: 3.616 (Simulation time: 00 hr 05 min 51 sec)
Heartbeat CPU 0 instructions: 110000000 cycles: 28982532 heartbeat IPC: 3.769 cumulative IPC: 3.64 (Simulation time: 00 hr 06 min 26 sec)
Heartbeat CPU 0 instructions: 120000000 cycles: 31634533 heartbeat IPC: 3.771 cumulative IPC: 3.658 (Simulation time: 00 hr 07 min 03 sec)
Heartbeat CPU 0 instructions: 130000000 cycles: 34286778 heartbeat IPC: 3.77 cumulative IPC: 3.672 (Simulation time: 00 hr 07 min 42 sec)
Heartbeat CPU 0 instructions: 140000001 cycles: 36938966 heartbeat IPC: 3.77 cumulative IPC: 3.683 (Simulation time: 00 hr 08 min 19 sec)
Heartbeat CPU 0 instructions: 150000003 cycles: 39591195 heartbeat IPC: 3.77 cumulative IPC: 3.691 (Simulation time: 00 hr 08 min 56 sec)
Heartbeat CPU 0 instructions: 160000003 cycles: 42245951 heartbeat IPC: 3.767 cumulative IPC: 3.698 (Simulation time: 00 hr 09 min 33 sec)
Heartbeat CPU 0 instructions: 170000001 cycles: 44898388 heartbeat IPC: 3.77 cumulative IPC: 3.704 (Simulation time: 00 hr 10 min 09 sec)
Heartbeat CPU 0 instructions: 180000001 cycles: 47550557 heartbeat IPC: 3.77 cumulative IPC: 3.709 (Simulation time: 00 hr 10 min 45 sec)
Heartbeat CPU 0 instructions: 190000002 cycles: 50203567 heartbeat IPC: 3.769 cumulative IPC: 3.713 (Simulation time: 00 hr 11 min 22 sec)
Heartbeat CPU 0 instructions: 200000001 cycles: 52855787 heartbeat IPC: 3.77 cumulative IPC: 3.717 (Simulation time: 00 hr 11 min 58 sec)
Heartbeat CPU 0 instructions: 210000000 cycles: 55511138 heartbeat IPC: 3.766 cumulative IPC: 3.72 (Simulation time: 00 hr 12 min 34 sec)
Heartbeat CPU 0 instructions: 220000001 cycles: 58163164 heartbeat IPC: 3.771 cumulative IPC: 3.723 (Simulation time: 00 hr 13 min 10 sec)
Heartbeat CPU 0 instructions: 230000002 cycles: 60815380 heartbeat IPC: 3.77 cumulative IPC: 3.726 (Simulation time: 00 hr 13 min 47 sec)
Heartbeat CPU 0 instructions: 240000004 cycles: 63467664 heartbeat IPC: 3.77 cumulative IPC: 3.728 (Simulation time: 00 hr 14 min 23 sec)
Heartbeat CPU 0 instructions: 250000000 cycles: 66122619 heartbeat IPC: 3.767 cumulative IPC: 3.73 (Simulation time: 00 hr 14 min 58 sec)
Heartbeat CPU 0 instructions: 260000000 cycles: 68776039 heartbeat IPC: 3.769 cumulative IPC: 3.732 (Simulation time: 00 hr 15 min 34 sec)
Heartbeat CPU 0 instructions: 270000002 cycles: 71428046 heartbeat IPC: 3.771 cumulative IPC: 3.733 (Simulation time: 00 hr 16 min 10 sec)
Heartbeat CPU 0 instructions: 280000003 cycles: 74080290 heartbeat IPC: 3.77 cumulative IPC: 3.735 (Simulation time: 00 hr 16 min 46 sec)
Heartbeat CPU 0 instructions: 290000002 cycles: 76732567 heartbeat IPC: 3.77 cumulative IPC: 3.736 (Simulation time: 00 hr 17 min 23 sec)
Heartbeat CPU 0 instructions: 300000000 cycles: 79387239 heartbeat IPC: 3.767 cumulative IPC: 3.738 (Simulation time: 00 hr 18 min 00 sec)
Heartbeat CPU 0 instructions: 310000002 cycles: 82039241 heartbeat IPC: 3.771 cumulative IPC: 3.739 (Simulation time: 00 hr 18 min 36 sec)
Heartbeat CPU 0 instructions: 320000004 cycles: 84691282 heartbeat IPC: 3.771 cumulative IPC: 3.74 (Simulation time: 00 hr 19 min 12 sec)
Heartbeat CPU 0 instructions: 330000000 cycles: 87343471 heartbeat IPC: 3.77 cumulative IPC: 3.741 (Simulation time: 00 hr 19 min 47 sec)
Heartbeat CPU 0 instructions: 340000002 cycles: 89996997 heartbeat IPC: 3.769 cumulative IPC: 3.742 (Simulation time: 00 hr 20 min 24 sec)
Heartbeat CPU 0 instructions: 350000002 cycles: 92649113 heartbeat IPC: 3.771 cumulative IPC: 3.743 (Simulation time: 00 hr 21 min 00 sec)
Heartbeat CPU 0 instructions: 360000001 cycles: 95303905 heartbeat IPC: 3.767 cumulative IPC: 3.744 (Simulation time: 00 hr 21 min 39 sec)
Heartbeat CPU 0 instructions: 370000004 cycles: 97955882 heartbeat IPC: 3.771 cumulative IPC: 3.745 (Simulation time: 00 hr 22 min 15 sec)
Heartbeat CPU 0 instructions: 380000000 cycles: 100608059 heartbeat IPC: 3.77 cumulative IPC: 3.745 (Simulation time: 00 hr 22 min 51 sec)
Heartbeat CPU 0 instructions: 390000003 cycles: 103260406 heartbeat IPC: 3.77 cumulative IPC: 3.746 (Simulation time: 00 hr 23 min 26 sec)
Heartbeat CPU 0 instructions: 400000000 cycles: 105915046 heartbeat IPC: 3.767 cumulative IPC: 3.747 (Simulation time: 00 hr 24 min 02 sec)
Heartbeat CPU 0 instructions: 410000000 cycles: 108567383 heartbeat IPC: 3.77 cumulative IPC: 3.747 (Simulation time: 00 hr 24 min 41 sec)
Heartbeat CPU 0 instructions: 420000001 cycles: 111219469 heartbeat IPC: 3.771 cumulative IPC: 3.748 (Simulation time: 00 hr 25 min 19 sec)
Heartbeat CPU 0 instructions: 430000003 cycles: 113871790 heartbeat IPC: 3.77 cumulative IPC: 3.749 (Simulation time: 00 hr 25 min 55 sec)
Heartbeat CPU 0 instructions: 440000003 cycles: 116524132 heartbeat IPC: 3.77 cumulative IPC: 3.749 (Simulation time: 00 hr 26 min 33 sec)
Heartbeat CPU 0 instructions: 450000004 cycles: 119178870 heartbeat IPC: 3.767 cumulative IPC: 3.75 (Simulation time: 00 hr 27 min 11 sec)
Heartbeat CPU 0 instructions: 460000001 cycles: 121830884 heartbeat IPC: 3.771 cumulative IPC: 3.75 (Simulation time: 00 hr 27 min 49 sec)
Heartbeat CPU 0 instructions: 470000002 cycles: 124482983 heartbeat IPC: 3.771 cumulative IPC: 3.751 (Simulation time: 00 hr 28 min 26 sec)
Heartbeat CPU 0 instructions: 480000001 cycles: 127135334 heartbeat IPC: 3.77 cumulative IPC: 3.751 (Simulation time: 00 hr 29 min 10 sec)
Heartbeat CPU 0 instructions: 490000000 cycles: 129789112 heartbeat IPC: 3.768 cumulative IPC: 3.751 (Simulation time: 00 hr 29 min 52 sec)
Heartbeat CPU 0 instructions: 500000002 cycles: 132443813 heartbeat IPC: 3.767 cumulative IPC: 3.752 (Simulation time: 00 hr 30 min 35 sec)
Heartbeat CPU 0 instructions: 510000003 cycles: 135095822 heartbeat IPC: 3.771 cumulative IPC: 3.752 (Simulation time: 00 hr 31 min 14 sec)
Heartbeat CPU 0 instructions: 520000004 cycles: 137747954 heartbeat IPC: 3.771 cumulative IPC: 3.753 (Simulation time: 00 hr 31 min 56 sec)
Heartbeat CPU 0 instructions: 530000000 cycles: 140400264 heartbeat IPC: 3.77 cumulative IPC: 3.753 (Simulation time: 00 hr 32 min 38 sec)
Heartbeat CPU 0 instructions: 540000000 cycles: 143054793 heartbeat IPC: 3.767 cumulative IPC: 3.753 (Simulation time: 00 hr 33 min 16 sec)
Heartbeat CPU 0 instructions: 550000003 cycles: 145706904 heartbeat IPC: 3.771 cumulative IPC: 3.754 (Simulation time: 00 hr 34 min 02 sec)
Heartbeat CPU 0 instructions: 560000003 cycles: 148359369 heartbeat IPC: 3.77 cumulative IPC: 3.754 (Simulation time: 00 hr 34 min 40 sec)
Heartbeat CPU 0 instructions: 570000004 cycles: 151011355 heartbeat IPC: 3.771 cumulative IPC: 3.754 (Simulation time: 00 hr 35 min 23 sec)
Heartbeat CPU 0 instructions: 580000000 cycles: 153663650 heartbeat IPC: 3.77 cumulative IPC: 3.755 (Simulation time: 00 hr 36 min 07 sec)
Heartbeat CPU 0 instructions: 590000002 cycles: 156315921 heartbeat IPC: 3.77 cumulative IPC: 3.755 (Simulation time: 00 hr 36 min 46 sec)
*** Reached end of trace: (0, "traces/convolution.champsimtrace")
Heartbeat CPU 0 instructions: 600000000 cycles: 158976981 heartbeat IPC: 3.758 cumulative IPC: 3.755 (Simulation time: 00 hr 37 min 29 sec)
Heartbeat CPU 0 instructions: 610000002 cycles: 182646869 heartbeat IPC: 0.4225 cumulative IPC: 3.291 (Simulation time: 00 hr 40 min 50 sec)
Heartbeat CPU 0 instructions: 620000001 cycles: 203598633 heartbeat IPC: 0.4773 cumulative IPC: 2.983 (Simulation time: 00 hr 44 min 06 sec)
Heartbeat CPU 0 instructions: 630000001 cycles: 214777870 heartbeat IPC: 0.8945 cumulative IPC: 2.867 (Simulation time: 00 hr 45 min 53 sec)
Heartbeat CPU 0 instructions: 640000004 cycles: 225274715 heartbeat IPC: 0.9527 cumulative IPC: 2.773 (Simulation time: 00 hr 47 min 31 sec)
Heartbeat CPU 0 instructions: 650000001 cycles: 235698764 heartbeat IPC: 0.9593 cumulative IPC: 2.688 (Simulation time: 00 hr 49 min 11 sec)
Simulation finished CPU 0 instructions: 600000001 cycles: 223198562 cumulative IPC: 2.688 (Simulation time: 00 hr 49 min 11 sec)
Simulation complete CPU 0 instructions: 600000001 cycles: 223198562 cumulative IPC: 2.688 (Simulation time: 00 hr 49 min 11 sec)

ChampSim completed all CPUs

=== Simulation ===
CPU 0 runs traces/convolution.champsimtrace
Region of Interest Statistics

CPU 0 cumulative IPC: 2.688 instructions: 600000001 cycles: 223198562
CPU 0 Branch Prediction Accuracy: 99.47% MPKI: 0.9507 Average ROB Occupancy at Mispredict: 68.95
Branch type MPKI
BRANCH_DIRECT_JUMP: 0.000107
BRANCH_INDIRECT: 4.17e-05
BRANCH_CONDITIONAL: 0.95
BRANCH_DIRECT_CALL: 0.000103
BRANCH_INDIRECT_CALL: 8.33e-06
BRANCH_RETURN: 1.83e-05

LLC TOTAL        ACCESS:    1185187 HIT:     536893 MISS:     648294
LLC LOAD         ACCESS:       2886 HIT:        582 MISS:       2304
LLC RFO          ACCESS:     535120 HIT:         27 MISS:     535093
LLC PREFETCH     ACCESS:       2079 HIT:        578 MISS:       1501
LLC WRITE        ACCESS:     535171 HIT:     535148 MISS:         23
LLC TRANSLATION  ACCESS:     109931 HIT:        558 MISS:     109373
LLC PREFETCH REQUESTED:       2079 ISSUED:       2079 USEFUL:        794 USELESS:         42
LLC AVERAGE MISS LATENCY: 982.9 cycles
cpu0_DTLB TOTAL        ACCESS:  120043760 HIT:  119690148 MISS:     353612
cpu0_DTLB LOAD         ACCESS:  120043760 HIT:  119690148 MISS:     353612
cpu0_DTLB RFO          ACCESS:          0 HIT:          0 MISS:          0
cpu0_DTLB PREFETCH     ACCESS:          0 HIT:          0 MISS:          0
cpu0_DTLB WRITE        ACCESS:          0 HIT:          0 MISS:          0
cpu0_DTLB TRANSLATION  ACCESS:          0 HIT:          0 MISS:          0
cpu0_DTLB PREFETCH REQUESTED:          0 ISSUED:          0 USEFUL:          0 USELESS:          0
cpu0_DTLB AVERAGE MISS LATENCY: 637.8 cycles
cpu0_ITLB TOTAL        ACCESS:       2023 HIT:       1991 MISS:         32
cpu0_ITLB LOAD         ACCESS:       2023 HIT:       1991 MISS:         32
cpu0_ITLB RFO          ACCESS:          0 HIT:          0 MISS:          0
cpu0_ITLB PREFETCH     ACCESS:          0 HIT:          0 MISS:          0
cpu0_ITLB WRITE        ACCESS:          0 HIT:          0 MISS:          0
cpu0_ITLB TRANSLATION  ACCESS:          0 HIT:          0 MISS:          0
cpu0_ITLB PREFETCH REQUESTED:          0 ISSUED:          0 USEFUL:          0 USELESS:          0
cpu0_ITLB AVERAGE MISS LATENCY: 764.8 cycles
cpu0_L1D TOTAL        ACCESS:  161173950 HIT:  155001271 MISS:    6172679
cpu0_L1D LOAD         ACCESS:   88957424 HIT:   88951269 MISS:       6155
cpu0_L1D RFO          ACCESS:          0 HIT:          0 MISS:          0
cpu0_L1D PREFETCH     ACCESS:          0 HIT:          0 MISS:          0
cpu0_L1D WRITE        ACCESS:   72035721 HIT:   66011758 MISS:    6023963
cpu0_L1D TRANSLATION  ACCESS:     180805 HIT:      38244 MISS:     142561
cpu0_L1D PREFETCH REQUESTED:          0 ISSUED:          0 USEFUL:          0 USELESS:          0
cpu0_L1D AVERAGE MISS LATENCY: 78.61 cycles
cpu0_L1I TOTAL        ACCESS:       2321 HIT:       1006 MISS:       1315
cpu0_L1I LOAD         ACCESS:       2321 HIT:       1006 MISS:       1315
cpu0_L1I RFO          ACCESS:          0 HIT:          0 MISS:          0
cpu0_L1I PREFETCH     ACCESS:          0 HIT:          0 MISS:          0
cpu0_L1I WRITE        ACCESS:          0 HIT:          0 MISS:          0
cpu0_L1I TRANSLATION  ACCESS:          0 HIT:          0 MISS:          0
cpu0_L1I PREFETCH REQUESTED:          0 ISSUED:          0 USEFUL:          0 USELESS:          0
cpu0_L1I AVERAGE MISS LATENCY: 695.3 cycles
cpu0_L2C TOTAL        ACCESS:    1190927 HIT:     542971 MISS:     647956
cpu0_L2C LOAD         ACCESS:       3312 HIT:        426 MISS:       2886
cpu0_L2C RFO          ACCESS:     538105 HIT:       2985 MISS:     535120
cpu0_L2C PREFETCH     ACCESS:          0 HIT:          0 MISS:          0
cpu0_L2C WRITE        ACCESS:     538237 HIT:     538219 MISS:         18
cpu0_L2C TRANSLATION  ACCESS:     111273 HIT:       1341 MISS:     109932
cpu0_L2C PREFETCH REQUESTED:          0 ISSUED:          0 USEFUL:          0 USELESS:          0
cpu0_L2C AVERAGE MISS LATENCY: 1003 cycles
cpu0_STLB TOTAL        ACCESS:     156154 HIT:         44 MISS:     156110
cpu0_STLB LOAD         ACCESS:     156154 HIT:         44 MISS:     156110
cpu0_STLB RFO          ACCESS:          0 HIT:          0 MISS:          0
cpu0_STLB PREFETCH     ACCESS:          0 HIT:          0 MISS:          0
cpu0_STLB WRITE        ACCESS:          0 HIT:          0 MISS:          0
cpu0_STLB TRANSLATION  ACCESS:          0 HIT:          0 MISS:          0
cpu0_STLB PREFETCH REQUESTED:          0 ISSUED:          0 USEFUL:          0 USELESS:          0
cpu0_STLB AVERAGE MISS LATENCY: 1644 cycles

DRAM Statistics

Channel 0 RQ ROW_BUFFER_HIT:     141162
  ROW_BUFFER_MISS:     506237
 AVG DBUS CONGESTED CYCLE: 3.978
WQ ROW_BUFFER_HIT: Channel 0 
  ROW_BUFFER_MISS:     105426
  FULL:     429695
