WARNING: physical memory size is smaller than virtual memory size.

*** ChampSim Multicore Out-of-Order Simulator ***
Warmup Instructions: 50000000
Simulation Instructions: 600000000
Number of CPUs: 1
Page size: 4096

CPU 0 Tage branch predictor
Off-chip DRAM Size: 4 GiB Channels: 1 Width: 64-bit Data Race: 3200 MT/s
Heartbeat CPU 0 instructions: 10000000 cycles: 2500202 heartbeat IPC: 4 cumulative IPC: 4 (Simulation time: 00 hr 00 min 40 sec)
Heartbeat CPU 0 instructions: 20000000 cycles: 5000202 heartbeat IPC: 4 cumulative IPC: 4 (Simulation time: 00 hr 01 min 22 sec)
Heartbeat CPU 0 instructions: 30000000 cycles: 7500202 heartbeat IPC: 4 cumulative IPC: 4 (Simulation time: 00 hr 02 min 00 sec)
Heartbeat CPU 0 instructions: 40000000 cycles: 10000202 heartbeat IPC: 4 cumulative IPC: 4 (Simulation time: 00 hr 02 min 42 sec)
Heartbeat CPU 0 instructions: 50000000 cycles: 12500202 heartbeat IPC: 4 cumulative IPC: 4 (Simulation time: 00 hr 03 min 21 sec)
Warmup finished CPU 0 instructions: 50000000 cycles: 12500203 cumulative IPC: 4 (Simulation time: 00 hr 03 min 21 sec)
Warmup complete CPU 0 instructions: 50000000 cycles: 12500203 cumulative IPC: 4 (Simulation time: 00 hr 03 min 21 sec)
Heartbeat CPU 0 instructions: 60000002 cycles: 15588133 heartbeat IPC: 3.238 cumulative IPC: 3.238 (Simulation time: 00 hr 04 min 09 sec)
Heartbeat CPU 0 instructions: 70000002 cycles: 18091679 heartbeat IPC: 3.994 cumulative IPC: 3.577 (Simulation time: 00 hr 04 min 55 sec)
Heartbeat CPU 0 instructions: 80000003 cycles: 20591701 heartbeat IPC: 4 cumulative IPC: 3.708 (Simulation time: 00 hr 05 min 40 sec)
Heartbeat CPU 0 instructions: 90000004 cycles: 23093798 heartbeat IPC: 3.997 cumulative IPC: 3.776 (Simulation time: 00 hr 06 min 25 sec)
Heartbeat CPU 0 instructions: 100000003 cycles: 25600072 heartbeat IPC: 3.99 cumulative IPC: 3.817 (Simulation time: 00 hr 07 min 13 sec)
Heartbeat CPU 0 instructions: 110000000 cycles: 28106900 heartbeat IPC: 3.989 cumulative IPC: 3.845 (Simulation time: 00 hr 08 min 02 sec)
Heartbeat CPU 0 instructions: 120000000 cycles: 30610917 heartbeat IPC: 3.994 cumulative IPC: 3.865 (Simulation time: 00 hr 08 min 50 sec)
Heartbeat CPU 0 instructions: 130000000 cycles: 33121257 heartbeat IPC: 3.984 cumulative IPC: 3.88 (Simulation time: 00 hr 09 min 40 sec)
Heartbeat CPU 0 instructions: 140000001 cycles: 35627543 heartbeat IPC: 3.99 cumulative IPC: 3.891 (Simulation time: 00 hr 10 min 29 sec)
Heartbeat CPU 0 instructions: 150000003 cycles: 38135326 heartbeat IPC: 3.988 cumulative IPC: 3.901 (Simulation time: 00 hr 11 min 15 sec)
Heartbeat CPU 0 instructions: 160000003 cycles: 40650392 heartbeat IPC: 3.976 cumulative IPC: 3.908 (Simulation time: 00 hr 12 min 04 sec)
Heartbeat CPU 0 instructions: 170000000 cycles: 43152624 heartbeat IPC: 3.996 cumulative IPC: 3.915 (Simulation time: 00 hr 12 min 53 sec)
Heartbeat CPU 0 instructions: 180000001 cycles: 45656988 heartbeat IPC: 3.993 cumulative IPC: 3.921 (Simulation time: 00 hr 13 min 37 sec)
Heartbeat CPU 0 instructions: 190000002 cycles: 48159491 heartbeat IPC: 3.996 cumulative IPC: 3.926 (Simulation time: 00 hr 14 min 20 sec)
Heartbeat CPU 0 instructions: 200000001 cycles: 50664746 heartbeat IPC: 3.992 cumulative IPC: 3.93 (Simulation time: 00 hr 15 min 02 sec)
Heartbeat CPU 0 instructions: 210000000 cycles: 53175033 heartbeat IPC: 3.984 cumulative IPC: 3.934 (Simulation time: 00 hr 15 min 48 sec)
Heartbeat CPU 0 instructions: 220000001 cycles: 55682043 heartbeat IPC: 3.989 cumulative IPC: 3.937 (Simulation time: 00 hr 16 min 31 sec)
Heartbeat CPU 0 instructions: 230000002 cycles: 58188237 heartbeat IPC: 3.99 cumulative IPC: 3.94 (Simulation time: 00 hr 17 min 14 sec)
Heartbeat CPU 0 instructions: 240000004 cycles: 60693298 heartbeat IPC: 3.992 cumulative IPC: 3.942 (Simulation time: 00 hr 18 min 00 sec)
Heartbeat CPU 0 instructions: 250000000 cycles: 63200350 heartbeat IPC: 3.989 cumulative IPC: 3.945 (Simulation time: 00 hr 18 min 43 sec)
Heartbeat CPU 0 instructions: 260000000 cycles: 65705122 heartbeat IPC: 3.992 cumulative IPC: 3.947 (Simulation time: 00 hr 19 min 26 sec)
Heartbeat CPU 0 instructions: 270000002 cycles: 68212812 heartbeat IPC: 3.988 cumulative IPC: 3.949 (Simulation time: 00 hr 20 min 07 sec)
Heartbeat CPU 0 instructions: 280000003 cycles: 70718411 heartbeat IPC: 3.991 cumulative IPC: 3.951 (Simulation time: 00 hr 20 min 49 sec)
Heartbeat CPU 0 instructions: 290000000 cycles: 73222200 heartbeat IPC: 3.994 cumulative IPC: 3.952 (Simulation time: 00 hr 21 min 31 sec)
Heartbeat CPU 0 instructions: 300000000 cycles: 75728429 heartbeat IPC: 3.99 cumulative IPC: 3.954 (Simulation time: 00 hr 22 min 14 sec)
Heartbeat CPU 0 instructions: 310000002 cycles: 78234384 heartbeat IPC: 3.99 cumulative IPC: 3.955 (Simulation time: 00 hr 22 min 57 sec)
Heartbeat CPU 0 instructions: 320000004 cycles: 80737310 heartbeat IPC: 3.995 cumulative IPC: 3.957 (Simulation time: 00 hr 23 min 40 sec)
Heartbeat CPU 0 instructions: 330000000 cycles: 83240978 heartbeat IPC: 3.994 cumulative IPC: 3.958 (Simulation time: 00 hr 24 min 23 sec)
Heartbeat CPU 0 instructions: 340000002 cycles: 85744326 heartbeat IPC: 3.995 cumulative IPC: 3.959 (Simulation time: 00 hr 25 min 05 sec)
Heartbeat CPU 0 instructions: 350000002 cycles: 88252392 heartbeat IPC: 3.987 cumulative IPC: 3.96 (Simulation time: 00 hr 25 min 47 sec)
Heartbeat CPU 0 instructions: 360000000 cycles: 90760714 heartbeat IPC: 3.987 cumulative IPC: 3.961 (Simulation time: 00 hr 26 min 30 sec)
Heartbeat CPU 0 instructions: 370000004 cycles: 93268416 heartbeat IPC: 3.988 cumulative IPC: 3.962 (Simulation time: 00 hr 27 min 16 sec)
Heartbeat CPU 0 instructions: 380000001 cycles: 95772527 heartbeat IPC: 3.993 cumulative IPC: 3.963 (Simulation time: 00 hr 28 min 02 sec)
Heartbeat CPU 0 instructions: 390000000 cycles: 98281570 heartbeat IPC: 3.986 cumulative IPC: 3.964 (Simulation time: 00 hr 28 min 44 sec)
Heartbeat CPU 0 instructions: 400000000 cycles: 100785380 heartbeat IPC: 3.994 cumulative IPC: 3.964 (Simulation time: 00 hr 29 min 28 sec)
Heartbeat CPU 0 instructions: 410000000 cycles: 103290770 heartbeat IPC: 3.991 cumulative IPC: 3.965 (Simulation time: 00 hr 30 min 10 sec)
Heartbeat CPU 0 instructions: 420000001 cycles: 105797127 heartbeat IPC: 3.99 cumulative IPC: 3.966 (Simulation time: 00 hr 30 min 53 sec)
Heartbeat CPU 0 instructions: 430000003 cycles: 108298968 heartbeat IPC: 3.997 cumulative IPC: 3.967 (Simulation time: 00 hr 31 min 36 sec)
Heartbeat CPU 0 instructions: 440000003 cycles: 110811465 heartbeat IPC: 3.98 cumulative IPC: 3.967 (Simulation time: 00 hr 32 min 18 sec)
Heartbeat CPU 0 instructions: 450000000 cycles: 113321244 heartbeat IPC: 3.984 cumulative IPC: 3.967 (Simulation time: 00 hr 33 min 01 sec)
Heartbeat CPU 0 instructions: 460000001 cycles: 115824347 heartbeat IPC: 3.995 cumulative IPC: 3.968 (Simulation time: 00 hr 33 min 44 sec)
Heartbeat CPU 0 instructions: 470000002 cycles: 118336781 heartbeat IPC: 3.98 cumulative IPC: 3.968 (Simulation time: 00 hr 34 min 28 sec)
Heartbeat CPU 0 instructions: 480000001 cycles: 120838565 heartbeat IPC: 3.997 cumulative IPC: 3.969 (Simulation time: 00 hr 35 min 11 sec)
Heartbeat CPU 0 instructions: 490000000 cycles: 123347108 heartbeat IPC: 3.986 cumulative IPC: 3.969 (Simulation time: 00 hr 35 min 53 sec)
Heartbeat CPU 0 instructions: 500000002 cycles: 125854003 heartbeat IPC: 3.989 cumulative IPC: 3.97 (Simulation time: 00 hr 36 min 35 sec)
Heartbeat CPU 0 instructions: 510000003 cycles: 128364917 heartbeat IPC: 3.983 cumulative IPC: 3.97 (Simulation time: 00 hr 37 min 17 sec)
Heartbeat CPU 0 instructions: 520000004 cycles: 130871253 heartbeat IPC: 3.99 cumulative IPC: 3.971 (Simulation time: 00 hr 37 min 59 sec)
Heartbeat CPU 0 instructions: 530000000 cycles: 133379624 heartbeat IPC: 3.987 cumulative IPC: 3.971 (Simulation time: 00 hr 38 min 41 sec)
Heartbeat CPU 0 instructions: 540000000 cycles: 135896163 heartbeat IPC: 3.974 cumulative IPC: 3.971 (Simulation time: 00 hr 39 min 23 sec)
Heartbeat CPU 0 instructions: 550000002 cycles: 138404255 heartbeat IPC: 3.987 cumulative IPC: 3.971 (Simulation time: 00 hr 40 min 05 sec)
Heartbeat CPU 0 instructions: 560000003 cycles: 140906774 heartbeat IPC: 3.996 cumulative IPC: 3.972 (Simulation time: 00 hr 40 min 47 sec)
Heartbeat CPU 0 instructions: 570000004 cycles: 143414832 heartbeat IPC: 3.987 cumulative IPC: 3.972 (Simulation time: 00 hr 41 min 30 sec)
Heartbeat CPU 0 instructions: 580000000 cycles: 145924866 heartbeat IPC: 3.984 cumulative IPC: 3.972 (Simulation time: 00 hr 42 min 14 sec)
Heartbeat CPU 0 instructions: 590000002 cycles: 148429401 heartbeat IPC: 3.993 cumulative IPC: 3.973 (Simulation time: 00 hr 43 min 00 sec)
*** Reached end of trace: (0, "traces/convolution.champsimtrace")
Heartbeat CPU 0 instructions: 600000000 cycles: 150940336 heartbeat IPC: 3.983 cumulative IPC: 3.973 (Simulation time: 00 hr 43 min 48 sec)
Heartbeat CPU 0 instructions: 610000004 cycles: 173742721 heartbeat IPC: 0.4386 cumulative IPC: 3.473 (Simulation time: 00 hr 47 min 07 sec)
Heartbeat CPU 0 instructions: 620000001 cycles: 194628042 heartbeat IPC: 0.4788 cumulative IPC: 3.13 (Simulation time: 00 hr 50 min 14 sec)
Heartbeat CPU 0 instructions: 630000001 cycles: 205189788 heartbeat IPC: 0.9468 cumulative IPC: 3.01 (Simulation time: 00 hr 52 min 00 sec)
Heartbeat CPU 0 instructions: 640000004 cycles: 215670364 heartbeat IPC: 0.9541 cumulative IPC: 2.904 (Simulation time: 00 hr 53 min 51 sec)
Heartbeat CPU 0 instructions: 650000001 cycles: 229329006 heartbeat IPC: 0.7321 cumulative IPC: 2.767 (Simulation time: 00 hr 56 min 05 sec)
Simulation finished CPU 0 instructions: 600000001 cycles: 216828804 cumulative IPC: 2.767 (Simulation time: 00 hr 56 min 05 sec)
Simulation complete CPU 0 instructions: 600000001 cycles: 216828804 cumulative IPC: 2.767 (Simulation time: 00 hr 56 min 05 sec)

ChampSim completed all CPUs

=== Simulation ===
CPU 0 runs traces/convolution.champsimtrace
Region of Interest Statistics

CPU 0 cumulative IPC: 2.767 instructions: 600000001 cycles: 216828804
CPU 0 Branch Prediction Accuracy: 100% MPKI: 0.002858 Average ROB Occupancy at Mispredict: 77.98
Branch type MPKI
BRANCH_DIRECT_JUMP: 0.000107
BRANCH_INDIRECT: 4.17e-05
BRANCH_CONDITIONAL: 0.00258
BRANCH_DIRECT_CALL: 0.000103
BRANCH_INDIRECT_CALL: 8.33e-06
BRANCH_RETURN: 1.83e-05

LLC TOTAL        ACCESS:    1186882 HIT:      38250 MISS:    1148632
LLC LOAD         ACCESS:       2887 HIT:        816 MISS:       2071
LLC RFO          ACCESS:     535120 HIT:       6499 MISS:     528621
LLC PREFETCH     ACCESS:       2887 HIT:        281 MISS:       2606
LLC WRITE        ACCESS:     535174 HIT:      30627 MISS:     504547
LLC TRANSLATION  ACCESS:     110814 HIT:         27 MISS:     110787
LLC PREFETCH REQUESTED:       2887 ISSUED:       2887 USEFUL:       1420 USELESS:        109
LLC AVERAGE MISS LATENCY: 601.6 cycles
cpu0_DTLB TOTAL        ACCESS:  113072649 HIT:  112718193 MISS:     354456
cpu0_DTLB LOAD         ACCESS:  113072649 HIT:  112718193 MISS:     354456
cpu0_DTLB RFO          ACCESS:          0 HIT:          0 MISS:          0
cpu0_DTLB PREFETCH     ACCESS:          0 HIT:          0 MISS:          0
cpu0_DTLB WRITE        ACCESS:          0 HIT:          0 MISS:          0
cpu0_DTLB TRANSLATION  ACCESS:          0 HIT:          0 MISS:          0
cpu0_DTLB PREFETCH REQUESTED:          0 ISSUED:          0 USEFUL:          0 USELESS:          0
cpu0_DTLB AVERAGE MISS LATENCY: 641.6 cycles
cpu0_ITLB TOTAL        ACCESS:       2101 HIT:       2066 MISS:         35
cpu0_ITLB LOAD         ACCESS:       2101 HIT:       2066 MISS:         35
cpu0_ITLB RFO          ACCESS:          0 HIT:          0 MISS:          0
cpu0_ITLB PREFETCH     ACCESS:          0 HIT:          0 MISS:          0
cpu0_ITLB WRITE        ACCESS:          0 HIT:          0 MISS:          0
cpu0_ITLB TRANSLATION  ACCESS:          0 HIT:          0 MISS:          0
cpu0_ITLB PREFETCH REQUESTED:          0 ISSUED:          0 USEFUL:          0 USELESS:          0
cpu0_ITLB AVERAGE MISS LATENCY: 1285 cycles
cpu0_L1D TOTAL        ACCESS:  146312833 HIT:  140117410 MISS:    6195423
cpu0_L1D LOAD         ACCESS:   74177811 HIT:   74170049 MISS:       7762
cpu0_L1D RFO          ACCESS:          0 HIT:          0 MISS:          0
cpu0_L1D PREFETCH     ACCESS:          0 HIT:          0 MISS:          0
cpu0_L1D WRITE        ACCESS:   71953446 HIT:   65908964 MISS:    6044482
cpu0_L1D TRANSLATION  ACCESS:     181576 HIT:      38397 MISS:     143179
cpu0_L1D PREFETCH REQUESTED:          0 ISSUED:          0 USEFUL:          0 USELESS:          0
cpu0_L1D AVERAGE MISS LATENCY: 88.2 cycles
cpu0_L1I TOTAL        ACCESS:       2455 HIT:       1003 MISS:       1452
cpu0_L1I LOAD         ACCESS:       2455 HIT:       1003 MISS:       1452
cpu0_L1I RFO          ACCESS:          0 HIT:          0 MISS:          0
cpu0_L1I PREFETCH     ACCESS:          0 HIT:          0 MISS:          0
cpu0_L1I WRITE        ACCESS:          0 HIT:          0 MISS:          0
cpu0_L1I TRANSLATION  ACCESS:          0 HIT:          0 MISS:          0
cpu0_L1I PREFETCH REQUESTED:          0 ISSUED:          0 USEFUL:          0 USELESS:          0
cpu0_L1I AVERAGE MISS LATENCY: 791.1 cycles
cpu0_L2C TOTAL        ACCESS:    1194722 HIT:     545885 MISS:     648837
cpu0_L2C LOAD         ACCESS:       3312 HIT:        425 MISS:       2887
cpu0_L2C RFO          ACCESS:     539274 HIT:       4154 MISS:     535120
cpu0_L2C PREFETCH     ACCESS:          0 HIT:          0 MISS:          0
cpu0_L2C WRITE        ACCESS:     539651 HIT:     539636 MISS:         15
cpu0_L2C TRANSLATION  ACCESS:     112485 HIT:       1670 MISS:     110815
cpu0_L2C PREFETCH REQUESTED:          0 ISSUED:          0 USEFUL:          0 USELESS:          0
cpu0_L2C AVERAGE MISS LATENCY: 1083 cycles
cpu0_STLB TOTAL        ACCESS:     156159 HIT:         49 MISS:     156110
cpu0_STLB LOAD         ACCESS:     156159 HIT:         49 MISS:     156110
cpu0_STLB RFO          ACCESS:          0 HIT:          0 MISS:          0
cpu0_STLB PREFETCH     ACCESS:          0 HIT:          0 MISS:          0
cpu0_STLB WRITE        ACCESS:          0 HIT:          0 MISS:          0
cpu0_STLB TRANSLATION  ACCESS:          0 HIT:          0 MISS:          0
cpu0_STLB PREFETCH REQUESTED:          0 ISSUED:          0 USEFUL:          0 USELESS:          0
cpu0_STLB AVERAGE MISS LATENCY: 1672 cycles

DRAM Statistics

Channel 0 RQ ROW_BUFFER_HIT:     142477
  ROW_BUFFER_MISS:     500151
 AVG DBUS CONGESTED CYCLE: 3.98
WQ ROW_BUFFER_HIT: Channel 0 
  ROW_BUFFER_MISS:     115529
  FULL:     431617
Final OPTGen Hits: 213
Final OPTGen Access: 16975
Final OPTGEN Hit Rate: 1.25479
