WARNING: physical memory size is smaller than virtual memory size.

*** ChampSim Multicore Out-of-Order Simulator ***
Warmup Instructions: 50000000
Simulation Instructions: 600000000
Number of CPUs: 1
Page size: 4096

Off-chip DRAM Size: 4 GiB Channels: 1 Width: 64-bit Data Race: 3200 MT/s
Heartbeat CPU 0 instructions: 10000000 cycles: 2500202 heartbeat IPC: 4 cumulative IPC: 4 (Simulation time: 00 hr 00 min 34 sec)
Heartbeat CPU 0 instructions: 20000000 cycles: 5000202 heartbeat IPC: 4 cumulative IPC: 4 (Simulation time: 00 hr 01 min 08 sec)
Heartbeat CPU 0 instructions: 30000000 cycles: 7500202 heartbeat IPC: 4 cumulative IPC: 4 (Simulation time: 00 hr 01 min 39 sec)
Heartbeat CPU 0 instructions: 40000000 cycles: 10000202 heartbeat IPC: 4 cumulative IPC: 4 (Simulation time: 00 hr 02 min 13 sec)
Heartbeat CPU 0 instructions: 50000000 cycles: 12500202 heartbeat IPC: 4 cumulative IPC: 4 (Simulation time: 00 hr 02 min 45 sec)
Warmup finished CPU 0 instructions: 50000000 cycles: 12500203 cumulative IPC: 4 (Simulation time: 00 hr 02 min 45 sec)
Warmup complete CPU 0 instructions: 50000000 cycles: 12500203 cumulative IPC: 4 (Simulation time: 00 hr 02 min 45 sec)
Heartbeat CPU 0 instructions: 60000002 cycles: 15777793 heartbeat IPC: 3.051 cumulative IPC: 3.051 (Simulation time: 00 hr 03 min 29 sec)
Heartbeat CPU 0 instructions: 70000002 cycles: 18485176 heartbeat IPC: 3.694 cumulative IPC: 3.342 (Simulation time: 00 hr 04 min 09 sec)
Heartbeat CPU 0 instructions: 80000003 cycles: 21188773 heartbeat IPC: 3.699 cumulative IPC: 3.453 (Simulation time: 00 hr 04 min 45 sec)
Heartbeat CPU 0 instructions: 90000004 cycles: 23893872 heartbeat IPC: 3.697 cumulative IPC: 3.511 (Simulation time: 00 hr 05 min 21 sec)
Heartbeat CPU 0 instructions: 100000003 cycles: 26605986 heartbeat IPC: 3.687 cumulative IPC: 3.545 (Simulation time: 00 hr 06 min 02 sec)
Heartbeat CPU 0 instructions: 110000000 cycles: 29311807 heartbeat IPC: 3.696 cumulative IPC: 3.569 (Simulation time: 00 hr 06 min 44 sec)
Heartbeat CPU 0 instructions: 120000000 cycles: 32020027 heartbeat IPC: 3.692 cumulative IPC: 3.586 (Simulation time: 00 hr 07 min 26 sec)
Heartbeat CPU 0 instructions: 130000000 cycles: 34732420 heartbeat IPC: 3.687 cumulative IPC: 3.598 (Simulation time: 00 hr 08 min 06 sec)
Heartbeat CPU 0 instructions: 140000001 cycles: 37440173 heartbeat IPC: 3.693 cumulative IPC: 3.609 (Simulation time: 00 hr 08 min 44 sec)
Heartbeat CPU 0 instructions: 150000003 cycles: 40147594 heartbeat IPC: 3.694 cumulative IPC: 3.617 (Simulation time: 00 hr 09 min 24 sec)
Heartbeat CPU 0 instructions: 160000003 cycles: 42855376 heartbeat IPC: 3.693 cumulative IPC: 3.624 (Simulation time: 00 hr 10 min 02 sec)
Heartbeat CPU 0 instructions: 170000001 cycles: 45562341 heartbeat IPC: 3.694 cumulative IPC: 3.63 (Simulation time: 00 hr 10 min 40 sec)
Heartbeat CPU 0 instructions: 180000001 cycles: 48270816 heartbeat IPC: 3.692 cumulative IPC: 3.634 (Simulation time: 00 hr 11 min 18 sec)
Heartbeat CPU 0 instructions: 190000002 cycles: 50975292 heartbeat IPC: 3.698 cumulative IPC: 3.639 (Simulation time: 00 hr 11 min 57 sec)
Heartbeat CPU 0 instructions: 200000001 cycles: 53682348 heartbeat IPC: 3.694 cumulative IPC: 3.642 (Simulation time: 00 hr 12 min 36 sec)
Heartbeat CPU 0 instructions: 210000000 cycles: 56391561 heartbeat IPC: 3.691 cumulative IPC: 3.645 (Simulation time: 00 hr 13 min 18 sec)
Heartbeat CPU 0 instructions: 220000001 cycles: 59102234 heartbeat IPC: 3.689 cumulative IPC: 3.648 (Simulation time: 00 hr 13 min 56 sec)
Heartbeat CPU 0 instructions: 230000002 cycles: 61808659 heartbeat IPC: 3.695 cumulative IPC: 3.65 (Simulation time: 00 hr 14 min 36 sec)
Heartbeat CPU 0 instructions: 240000004 cycles: 64514130 heartbeat IPC: 3.696 cumulative IPC: 3.653 (Simulation time: 00 hr 15 min 15 sec)
Heartbeat CPU 0 instructions: 250000000 cycles: 67222958 heartbeat IPC: 3.692 cumulative IPC: 3.655 (Simulation time: 00 hr 15 min 52 sec)
Heartbeat CPU 0 instructions: 260000000 cycles: 69929026 heartbeat IPC: 3.695 cumulative IPC: 3.657 (Simulation time: 00 hr 16 min 28 sec)
Heartbeat CPU 0 instructions: 270000002 cycles: 72633481 heartbeat IPC: 3.698 cumulative IPC: 3.659 (Simulation time: 00 hr 17 min 04 sec)
Heartbeat CPU 0 instructions: 280000003 cycles: 75342442 heartbeat IPC: 3.691 cumulative IPC: 3.66 (Simulation time: 00 hr 17 min 39 sec)
Heartbeat CPU 0 instructions: 290000003 cycles: 78047237 heartbeat IPC: 3.697 cumulative IPC: 3.661 (Simulation time: 00 hr 18 min 16 sec)
Heartbeat CPU 0 instructions: 300000000 cycles: 80755127 heartbeat IPC: 3.693 cumulative IPC: 3.663 (Simulation time: 00 hr 18 min 53 sec)
Heartbeat CPU 0 instructions: 310000002 cycles: 83463968 heartbeat IPC: 3.692 cumulative IPC: 3.664 (Simulation time: 00 hr 19 min 29 sec)
Heartbeat CPU 0 instructions: 320000004 cycles: 86168865 heartbeat IPC: 3.697 cumulative IPC: 3.665 (Simulation time: 00 hr 20 min 05 sec)
Heartbeat CPU 0 instructions: 330000000 cycles: 88875166 heartbeat IPC: 3.695 cumulative IPC: 3.666 (Simulation time: 00 hr 20 min 42 sec)
Heartbeat CPU 0 instructions: 340000002 cycles: 91585258 heartbeat IPC: 3.69 cumulative IPC: 3.667 (Simulation time: 00 hr 21 min 18 sec)
Heartbeat CPU 0 instructions: 350000002 cycles: 94293059 heartbeat IPC: 3.693 cumulative IPC: 3.668 (Simulation time: 00 hr 21 min 53 sec)
Heartbeat CPU 0 instructions: 360000001 cycles: 97000161 heartbeat IPC: 3.694 cumulative IPC: 3.669 (Simulation time: 00 hr 22 min 28 sec)
Heartbeat CPU 0 instructions: 370000004 cycles: 99707855 heartbeat IPC: 3.693 cumulative IPC: 3.669 (Simulation time: 00 hr 23 min 03 sec)
Heartbeat CPU 0 instructions: 380000000 cycles: 102414729 heartbeat IPC: 3.694 cumulative IPC: 3.67 (Simulation time: 00 hr 23 min 39 sec)
Heartbeat CPU 0 instructions: 390000004 cycles: 105126453 heartbeat IPC: 3.688 cumulative IPC: 3.671 (Simulation time: 00 hr 24 min 14 sec)
Heartbeat CPU 0 instructions: 400000000 cycles: 107832983 heartbeat IPC: 3.695 cumulative IPC: 3.671 (Simulation time: 00 hr 24 min 50 sec)
Heartbeat CPU 0 instructions: 410000000 cycles: 110539715 heartbeat IPC: 3.694 cumulative IPC: 3.672 (Simulation time: 00 hr 25 min 25 sec)
Heartbeat CPU 0 instructions: 420000001 cycles: 113245357 heartbeat IPC: 3.696 cumulative IPC: 3.673 (Simulation time: 00 hr 26 min 01 sec)
Heartbeat CPU 0 instructions: 430000003 cycles: 115954610 heartbeat IPC: 3.691 cumulative IPC: 3.673 (Simulation time: 00 hr 26 min 37 sec)
Heartbeat CPU 0 instructions: 440000003 cycles: 118661394 heartbeat IPC: 3.694 cumulative IPC: 3.674 (Simulation time: 00 hr 27 min 12 sec)
Heartbeat CPU 0 instructions: 450000004 cycles: 121373278 heartbeat IPC: 3.687 cumulative IPC: 3.674 (Simulation time: 00 hr 27 min 48 sec)
Heartbeat CPU 0 instructions: 460000001 cycles: 124079776 heartbeat IPC: 3.695 cumulative IPC: 3.675 (Simulation time: 00 hr 28 min 23 sec)
Heartbeat CPU 0 instructions: 470000002 cycles: 126788327 heartbeat IPC: 3.692 cumulative IPC: 3.675 (Simulation time: 00 hr 28 min 58 sec)
Heartbeat CPU 0 instructions: 480000001 cycles: 129494778 heartbeat IPC: 3.695 cumulative IPC: 3.675 (Simulation time: 00 hr 29 min 33 sec)
Heartbeat CPU 0 instructions: 490000000 cycles: 132202193 heartbeat IPC: 3.694 cumulative IPC: 3.676 (Simulation time: 00 hr 30 min 08 sec)
Heartbeat CPU 0 instructions: 500000002 cycles: 134910635 heartbeat IPC: 3.692 cumulative IPC: 3.676 (Simulation time: 00 hr 30 min 43 sec)
Heartbeat CPU 0 instructions: 510000003 cycles: 137619781 heartbeat IPC: 3.691 cumulative IPC: 3.676 (Simulation time: 00 hr 31 min 18 sec)
Heartbeat CPU 0 instructions: 520000004 cycles: 140330083 heartbeat IPC: 3.69 cumulative IPC: 3.677 (Simulation time: 00 hr 31 min 53 sec)
Heartbeat CPU 0 instructions: 530000000 cycles: 143046654 heartbeat IPC: 3.681 cumulative IPC: 3.677 (Simulation time: 00 hr 32 min 29 sec)
Heartbeat CPU 0 instructions: 540000000 cycles: 145761923 heartbeat IPC: 3.683 cumulative IPC: 3.677 (Simulation time: 00 hr 33 min 04 sec)
Heartbeat CPU 0 instructions: 550000003 cycles: 148468616 heartbeat IPC: 3.695 cumulative IPC: 3.677 (Simulation time: 00 hr 33 min 40 sec)
Heartbeat CPU 0 instructions: 560000003 cycles: 151173396 heartbeat IPC: 3.697 cumulative IPC: 3.678 (Simulation time: 00 hr 34 min 15 sec)
Heartbeat CPU 0 instructions: 570000004 cycles: 153878236 heartbeat IPC: 3.697 cumulative IPC: 3.678 (Simulation time: 00 hr 34 min 50 sec)
Heartbeat CPU 0 instructions: 580000000 cycles: 156585245 heartbeat IPC: 3.694 cumulative IPC: 3.678 (Simulation time: 00 hr 35 min 25 sec)
Heartbeat CPU 0 instructions: 590000002 cycles: 159290687 heartbeat IPC: 3.696 cumulative IPC: 3.679 (Simulation time: 00 hr 36 min 01 sec)
*** Reached end of trace: (0, "traces/convolution.champsimtrace")
Heartbeat CPU 0 instructions: 600000000 cycles: 162002938 heartbeat IPC: 3.687 cumulative IPC: 3.679 (Simulation time: 00 hr 36 min 36 sec)
Heartbeat CPU 0 instructions: 610000001 cycles: 184900328 heartbeat IPC: 0.4367 cumulative IPC: 3.248 (Simulation time: 00 hr 39 min 31 sec)
Heartbeat CPU 0 instructions: 620000001 cycles: 205750873 heartbeat IPC: 0.4796 cumulative IPC: 2.95 (Simulation time: 00 hr 42 min 14 sec)
Heartbeat CPU 0 instructions: 630000001 cycles: 216334214 heartbeat IPC: 0.9449 cumulative IPC: 2.845 (Simulation time: 00 hr 43 min 48 sec)
Heartbeat CPU 0 instructions: 640000004 cycles: 226775665 heartbeat IPC: 0.9577 cumulative IPC: 2.753 (Simulation time: 00 hr 45 min 24 sec)
Heartbeat CPU 0 instructions: 650000001 cycles: 240407389 heartbeat IPC: 0.7336 cumulative IPC: 2.633 (Simulation time: 00 hr 47 min 23 sec)
Simulation finished CPU 0 instructions: 600000001 cycles: 227907187 cumulative IPC: 2.633 (Simulation time: 00 hr 47 min 23 sec)
Simulation complete CPU 0 instructions: 600000001 cycles: 227907187 cumulative IPC: 2.633 (Simulation time: 00 hr 47 min 23 sec)

ChampSim completed all CPUs

=== Simulation ===
CPU 0 runs traces/convolution.champsimtrace
Region of Interest Statistics

CPU 0 cumulative IPC: 2.633 instructions: 600000001 cycles: 227907187
CPU 0 Branch Prediction Accuracy: 99.3% MPKI: 1.265 Average ROB Occupancy at Mispredict: 64.09
Branch type MPKI
BRANCH_DIRECT_JUMP: 0.000107
BRANCH_INDIRECT: 4.17e-05
BRANCH_CONDITIONAL: 1.26
BRANCH_DIRECT_CALL: 0.000103
BRANCH_INDIRECT_CALL: 8.33e-06
BRANCH_RETURN: 1.83e-05

LLC TOTAL        ACCESS:    1186876 HIT:      38309 MISS:    1148567
LLC LOAD         ACCESS:       2889 HIT:        893 MISS:       1996
LLC RFO          ACCESS:     535120 HIT:       6486 MISS:     528634
LLC PREFETCH     ACCESS:       2889 HIT:        284 MISS:       2605
LLC WRITE        ACCESS:     535174 HIT:      30620 MISS:     504554
LLC TRANSLATION  ACCESS:     110804 HIT:         26 MISS:     110778
LLC PREFETCH REQUESTED:       2889 ISSUED:       2889 USEFUL:       1656 USELESS:        107
LLC AVERAGE MISS LATENCY: 593.8 cycles
cpu0_DTLB TOTAL        ACCESS:  121561356 HIT:  121206957 MISS:     354399
cpu0_DTLB LOAD         ACCESS:  121561356 HIT:  121206957 MISS:     354399
cpu0_DTLB RFO          ACCESS:          0 HIT:          0 MISS:          0
cpu0_DTLB PREFETCH     ACCESS:          0 HIT:          0 MISS:          0
cpu0_DTLB WRITE        ACCESS:          0 HIT:          0 MISS:          0
cpu0_DTLB TRANSLATION  ACCESS:          0 HIT:          0 MISS:          0
cpu0_DTLB PREFETCH REQUESTED:          0 ISSUED:          0 USEFUL:          0 USELESS:          0
cpu0_DTLB AVERAGE MISS LATENCY: 640.1 cycles
cpu0_ITLB TOTAL        ACCESS:       2020 HIT:       1986 MISS:         34
cpu0_ITLB LOAD         ACCESS:       2020 HIT:       1986 MISS:         34
cpu0_ITLB RFO          ACCESS:          0 HIT:          0 MISS:          0
cpu0_ITLB PREFETCH     ACCESS:          0 HIT:          0 MISS:          0
cpu0_ITLB WRITE        ACCESS:          0 HIT:          0 MISS:          0
cpu0_ITLB TRANSLATION  ACCESS:          0 HIT:          0 MISS:          0
cpu0_ITLB PREFETCH REQUESTED:          0 ISSUED:          0 USEFUL:          0 USELESS:          0
cpu0_ITLB AVERAGE MISS LATENCY: 861.6 cycles
cpu0_L1D TOTAL        ACCESS:  162702216 HIT:  156534311 MISS:    6167905
cpu0_L1D LOAD         ACCESS:   90481816 HIT:   90475567 MISS:       6249
cpu0_L1D RFO          ACCESS:          0 HIT:          0 MISS:          0
cpu0_L1D PREFETCH     ACCESS:          0 HIT:          0 MISS:          0
cpu0_L1D WRITE        ACCESS:   72038828 HIT:   66020400 MISS:    6018428
cpu0_L1D TRANSLATION  ACCESS:     181572 HIT:      38344 MISS:     143228
cpu0_L1D PREFETCH REQUESTED:          0 ISSUED:          0 USEFUL:          0 USELESS:          0
cpu0_L1D AVERAGE MISS LATENCY: 85.68 cycles
cpu0_L1I TOTAL        ACCESS:       2335 HIT:       1018 MISS:       1317
cpu0_L1I LOAD         ACCESS:       2335 HIT:       1018 MISS:       1317
cpu0_L1I RFO          ACCESS:          0 HIT:          0 MISS:          0
cpu0_L1I PREFETCH     ACCESS:          0 HIT:          0 MISS:          0
cpu0_L1I WRITE        ACCESS:          0 HIT:          0 MISS:          0
cpu0_L1I TRANSLATION  ACCESS:          0 HIT:          0 MISS:          0
cpu0_L1I PREFETCH REQUESTED:          0 ISSUED:          0 USEFUL:          0 USELESS:          0
cpu0_L1I AVERAGE MISS LATENCY: 742.3 cycles
cpu0_L2C TOTAL        ACCESS:    1192105 HIT:     543274 MISS:     648831
cpu0_L2C LOAD         ACCESS:       3313 HIT:        424 MISS:       2889
cpu0_L2C RFO          ACCESS:     538102 HIT:       2982 MISS:     535120
cpu0_L2C PREFETCH     ACCESS:          0 HIT:          0 MISS:          0
cpu0_L2C WRITE        ACCESS:     538229 HIT:     538212 MISS:         17
cpu0_L2C TRANSLATION  ACCESS:     112461 HIT:       1656 MISS:     110805
cpu0_L2C PREFETCH REQUESTED:          0 ISSUED:          0 USEFUL:          0 USELESS:          0
cpu0_L2C AVERAGE MISS LATENCY: 1069 cycles
cpu0_STLB TOTAL        ACCESS:     156156 HIT:         47 MISS:     156109
cpu0_STLB LOAD         ACCESS:     156156 HIT:         47 MISS:     156109
cpu0_STLB RFO          ACCESS:          0 HIT:          0 MISS:          0
cpu0_STLB PREFETCH     ACCESS:          0 HIT:          0 MISS:          0
cpu0_STLB WRITE        ACCESS:          0 HIT:          0 MISS:          0
cpu0_STLB TRANSLATION  ACCESS:          0 HIT:          0 MISS:          0
cpu0_STLB PREFETCH REQUESTED:          0 ISSUED:          0 USEFUL:          0 USELESS:          0
cpu0_STLB AVERAGE MISS LATENCY: 1669 cycles

DRAM Statistics

Channel 0 RQ ROW_BUFFER_HIT:     142547
  ROW_BUFFER_MISS:     500082
 AVG DBUS CONGESTED CYCLE: 3.977
WQ ROW_BUFFER_HIT: Channel 0 
  ROW_BUFFER_MISS:     116320
  FULL:     430842
Final OPTGen Hits: 215
Final OPTGen Access: 16970
Final OPTGEN Hit Rate: 1.26695
