WARNING: physical memory size is smaller than virtual memory size.

*** ChampSim Multicore Out-of-Order Simulator ***
Warmup Instructions: 50000000
Simulation Instructions: 600000000
Number of CPUs: 1
Page size: 4096

CPU 0 Tage branch predictor
Off-chip DRAM Size: 4 GiB Channels: 1 Width: 64-bit Data Race: 3200 MT/s
Heartbeat CPU 0 instructions: 10000000 cycles: 2500202 heartbeat IPC: 4 cumulative IPC: 4 (Simulation time: 00 hr 00 min 42 sec)
Heartbeat CPU 0 instructions: 20000000 cycles: 5000202 heartbeat IPC: 4 cumulative IPC: 4 (Simulation time: 00 hr 01 min 21 sec)
Heartbeat CPU 0 instructions: 30000000 cycles: 7500202 heartbeat IPC: 4 cumulative IPC: 4 (Simulation time: 00 hr 02 min 00 sec)
Heartbeat CPU 0 instructions: 40000000 cycles: 10000202 heartbeat IPC: 4 cumulative IPC: 4 (Simulation time: 00 hr 02 min 38 sec)
Heartbeat CPU 0 instructions: 50000000 cycles: 12500202 heartbeat IPC: 4 cumulative IPC: 4 (Simulation time: 00 hr 03 min 18 sec)
Warmup finished CPU 0 instructions: 50000000 cycles: 12500203 cumulative IPC: 4 (Simulation time: 00 hr 03 min 18 sec)
Warmup complete CPU 0 instructions: 50000000 cycles: 12500203 cumulative IPC: 4 (Simulation time: 00 hr 03 min 18 sec)
Heartbeat CPU 0 instructions: 60000002 cycles: 15610150 heartbeat IPC: 3.215 cumulative IPC: 3.215 (Simulation time: 00 hr 04 min 10 sec)
Heartbeat CPU 0 instructions: 70000002 cycles: 18114104 heartbeat IPC: 3.994 cumulative IPC: 3.563 (Simulation time: 00 hr 05 min 00 sec)
Heartbeat CPU 0 instructions: 80000003 cycles: 20614199 heartbeat IPC: 4 cumulative IPC: 3.697 (Simulation time: 00 hr 05 min 43 sec)
Heartbeat CPU 0 instructions: 90000004 cycles: 23114435 heartbeat IPC: 4 cumulative IPC: 3.769 (Simulation time: 00 hr 06 min 35 sec)
Heartbeat CPU 0 instructions: 100000003 cycles: 25617472 heartbeat IPC: 3.995 cumulative IPC: 3.812 (Simulation time: 00 hr 07 min 20 sec)
Heartbeat CPU 0 instructions: 110000000 cycles: 28118020 heartbeat IPC: 3.999 cumulative IPC: 3.842 (Simulation time: 00 hr 08 min 07 sec)
Heartbeat CPU 0 instructions: 120000000 cycles: 30618044 heartbeat IPC: 4 cumulative IPC: 3.864 (Simulation time: 00 hr 08 min 55 sec)
Heartbeat CPU 0 instructions: 130000000 cycles: 33118067 heartbeat IPC: 4 cumulative IPC: 3.88 (Simulation time: 00 hr 09 min 41 sec)
Heartbeat CPU 0 instructions: 140000001 cycles: 35618177 heartbeat IPC: 4 cumulative IPC: 3.893 (Simulation time: 00 hr 10 min 25 sec)
Heartbeat CPU 0 instructions: 150000003 cycles: 38118294 heartbeat IPC: 4 cumulative IPC: 3.903 (Simulation time: 00 hr 11 min 13 sec)
Heartbeat CPU 0 instructions: 160000003 cycles: 40620866 heartbeat IPC: 3.996 cumulative IPC: 3.912 (Simulation time: 00 hr 11 min 59 sec)
Heartbeat CPU 0 instructions: 170000000 cycles: 43121841 heartbeat IPC: 3.998 cumulative IPC: 3.919 (Simulation time: 00 hr 12 min 42 sec)
Heartbeat CPU 0 instructions: 180000001 cycles: 45622611 heartbeat IPC: 3.999 cumulative IPC: 3.925 (Simulation time: 00 hr 13 min 24 sec)
Heartbeat CPU 0 instructions: 190000002 cycles: 48125169 heartbeat IPC: 3.996 cumulative IPC: 3.93 (Simulation time: 00 hr 14 min 07 sec)
Heartbeat CPU 0 instructions: 200000002 cycles: 50625680 heartbeat IPC: 3.999 cumulative IPC: 3.934 (Simulation time: 00 hr 14 min 52 sec)
Heartbeat CPU 0 instructions: 210000000 cycles: 53129280 heartbeat IPC: 3.994 cumulative IPC: 3.938 (Simulation time: 00 hr 15 min 42 sec)
Heartbeat CPU 0 instructions: 220000001 cycles: 55629793 heartbeat IPC: 3.999 cumulative IPC: 3.942 (Simulation time: 00 hr 16 min 27 sec)
Heartbeat CPU 0 instructions: 230000002 cycles: 58129876 heartbeat IPC: 4 cumulative IPC: 3.945 (Simulation time: 00 hr 17 min 10 sec)
Heartbeat CPU 0 instructions: 240000004 cycles: 60629914 heartbeat IPC: 4 cumulative IPC: 3.948 (Simulation time: 00 hr 17 min 52 sec)
Heartbeat CPU 0 instructions: 250000000 cycles: 63131978 heartbeat IPC: 3.997 cumulative IPC: 3.95 (Simulation time: 00 hr 18 min 34 sec)
Heartbeat CPU 0 instructions: 260000000 cycles: 65635261 heartbeat IPC: 3.995 cumulative IPC: 3.952 (Simulation time: 00 hr 19 min 16 sec)
Heartbeat CPU 0 instructions: 270000002 cycles: 68135283 heartbeat IPC: 4 cumulative IPC: 3.954 (Simulation time: 00 hr 19 min 59 sec)
Heartbeat CPU 0 instructions: 280000003 cycles: 70635626 heartbeat IPC: 3.999 cumulative IPC: 3.956 (Simulation time: 00 hr 20 min 41 sec)
Heartbeat CPU 0 instructions: 290000000 cycles: 73135892 heartbeat IPC: 4 cumulative IPC: 3.958 (Simulation time: 00 hr 21 min 24 sec)
Heartbeat CPU 0 instructions: 300000000 cycles: 75638826 heartbeat IPC: 3.995 cumulative IPC: 3.96 (Simulation time: 00 hr 22 min 06 sec)
Heartbeat CPU 0 instructions: 310000002 cycles: 78138863 heartbeat IPC: 4 cumulative IPC: 3.961 (Simulation time: 00 hr 22 min 48 sec)
Heartbeat CPU 0 instructions: 320000004 cycles: 80638959 heartbeat IPC: 4 cumulative IPC: 3.963 (Simulation time: 00 hr 23 min 33 sec)
Heartbeat CPU 0 instructions: 330000000 cycles: 83139523 heartbeat IPC: 3.999 cumulative IPC: 3.964 (Simulation time: 00 hr 24 min 16 sec)
Heartbeat CPU 0 instructions: 340000002 cycles: 85640382 heartbeat IPC: 3.999 cumulative IPC: 3.965 (Simulation time: 00 hr 24 min 58 sec)
Heartbeat CPU 0 instructions: 350000002 cycles: 88140809 heartbeat IPC: 3.999 cumulative IPC: 3.966 (Simulation time: 00 hr 25 min 41 sec)
Heartbeat CPU 0 instructions: 360000000 cycles: 90643415 heartbeat IPC: 3.996 cumulative IPC: 3.967 (Simulation time: 00 hr 26 min 22 sec)
Heartbeat CPU 0 instructions: 370000004 cycles: 93143875 heartbeat IPC: 3.999 cumulative IPC: 3.968 (Simulation time: 00 hr 27 min 04 sec)
Heartbeat CPU 0 instructions: 380000000 cycles: 95643969 heartbeat IPC: 4 cumulative IPC: 3.969 (Simulation time: 00 hr 27 min 47 sec)
Heartbeat CPU 0 instructions: 390000000 cycles: 98143991 heartbeat IPC: 4 cumulative IPC: 3.97 (Simulation time: 00 hr 28 min 29 sec)
Heartbeat CPU 0 instructions: 400000000 cycles: 100646761 heartbeat IPC: 3.996 cumulative IPC: 3.971 (Simulation time: 00 hr 29 min 14 sec)
Heartbeat CPU 0 instructions: 410000000 cycles: 103150356 heartbeat IPC: 3.994 cumulative IPC: 3.971 (Simulation time: 00 hr 30 min 01 sec)
Heartbeat CPU 0 instructions: 420000001 cycles: 105651364 heartbeat IPC: 3.998 cumulative IPC: 3.972 (Simulation time: 00 hr 30 min 43 sec)
Heartbeat CPU 0 instructions: 430000003 cycles: 108151386 heartbeat IPC: 4 cumulative IPC: 3.973 (Simulation time: 00 hr 31 min 25 sec)
Heartbeat CPU 0 instructions: 440000003 cycles: 110651490 heartbeat IPC: 4 cumulative IPC: 3.973 (Simulation time: 00 hr 32 min 06 sec)
Heartbeat CPU 0 instructions: 450000000 cycles: 113155195 heartbeat IPC: 3.994 cumulative IPC: 3.974 (Simulation time: 00 hr 32 min 53 sec)
Heartbeat CPU 0 instructions: 460000001 cycles: 115655585 heartbeat IPC: 3.999 cumulative IPC: 3.975 (Simulation time: 00 hr 33 min 37 sec)
Heartbeat CPU 0 instructions: 470000002 cycles: 118155752 heartbeat IPC: 4 cumulative IPC: 3.975 (Simulation time: 00 hr 34 min 20 sec)
Heartbeat CPU 0 instructions: 480000002 cycles: 120655836 heartbeat IPC: 4 cumulative IPC: 3.976 (Simulation time: 00 hr 35 min 02 sec)
Heartbeat CPU 0 instructions: 490000000 cycles: 123157510 heartbeat IPC: 3.997 cumulative IPC: 3.976 (Simulation time: 00 hr 35 min 45 sec)
Heartbeat CPU 0 instructions: 500000002 cycles: 125659374 heartbeat IPC: 3.997 cumulative IPC: 3.977 (Simulation time: 00 hr 36 min 28 sec)
Heartbeat CPU 0 instructions: 510000003 cycles: 128161068 heartbeat IPC: 3.997 cumulative IPC: 3.977 (Simulation time: 00 hr 37 min 13 sec)
Heartbeat CPU 0 instructions: 520000004 cycles: 130661090 heartbeat IPC: 4 cumulative IPC: 3.978 (Simulation time: 00 hr 37 min 57 sec)
Heartbeat CPU 0 instructions: 530000000 cycles: 133161133 heartbeat IPC: 4 cumulative IPC: 3.978 (Simulation time: 00 hr 38 min 42 sec)
Heartbeat CPU 0 instructions: 540000001 cycles: 135665507 heartbeat IPC: 3.993 cumulative IPC: 3.978 (Simulation time: 00 hr 39 min 29 sec)
Heartbeat CPU 0 instructions: 550000002 cycles: 138165527 heartbeat IPC: 4 cumulative IPC: 3.979 (Simulation time: 00 hr 40 min 10 sec)
Heartbeat CPU 0 instructions: 560000003 cycles: 140665993 heartbeat IPC: 3.999 cumulative IPC: 3.979 (Simulation time: 00 hr 40 min 56 sec)
Heartbeat CPU 0 instructions: 570000004 cycles: 143166074 heartbeat IPC: 4 cumulative IPC: 3.98 (Simulation time: 00 hr 41 min 43 sec)
Heartbeat CPU 0 instructions: 580000000 cycles: 145666642 heartbeat IPC: 3.999 cumulative IPC: 3.98 (Simulation time: 00 hr 42 min 30 sec)
Heartbeat CPU 0 instructions: 590000002 cycles: 148166688 heartbeat IPC: 4 cumulative IPC: 3.98 (Simulation time: 00 hr 43 min 13 sec)
*** Reached end of trace: (0, "traces/convolution.champsimtrace")
Heartbeat CPU 0 instructions: 600000000 cycles: 150675306 heartbeat IPC: 3.986 cumulative IPC: 3.98 (Simulation time: 00 hr 43 min 58 sec)
Heartbeat CPU 0 instructions: 610000004 cycles: 174118861 heartbeat IPC: 0.4266 cumulative IPC: 3.465 (Simulation time: 00 hr 47 min 32 sec)
Heartbeat CPU 0 instructions: 620000001 cycles: 195961954 heartbeat IPC: 0.4578 cumulative IPC: 3.107 (Simulation time: 00 hr 50 min 57 sec)
Heartbeat CPU 0 instructions: 630000001 cycles: 207807131 heartbeat IPC: 0.8442 cumulative IPC: 2.97 (Simulation time: 00 hr 52 min 55 sec)
Heartbeat CPU 0 instructions: 640000004 cycles: 218353512 heartbeat IPC: 0.9482 cumulative IPC: 2.866 (Simulation time: 00 hr 54 min 40 sec)
Heartbeat CPU 0 instructions: 650000001 cycles: 229143706 heartbeat IPC: 0.9268 cumulative IPC: 2.77 (Simulation time: 00 hr 56 min 34 sec)
Simulation finished CPU 0 instructions: 600000001 cycles: 216643504 cumulative IPC: 2.77 (Simulation time: 00 hr 56 min 34 sec)
Simulation complete CPU 0 instructions: 600000001 cycles: 216643504 cumulative IPC: 2.77 (Simulation time: 00 hr 56 min 34 sec)

ChampSim completed all CPUs

=== Simulation ===
CPU 0 runs traces/convolution.champsimtrace
Region of Interest Statistics

CPU 0 cumulative IPC: 2.77 instructions: 600000001 cycles: 216643504
CPU 0 Branch Prediction Accuracy: 100% MPKI: 0.002858 Average ROB Occupancy at Mispredict: 79.05
Branch type MPKI
BRANCH_DIRECT_JUMP: 0.000107
BRANCH_INDIRECT: 4.17e-05
BRANCH_CONDITIONAL: 0.00258
BRANCH_DIRECT_CALL: 0.000103
BRANCH_INDIRECT_CALL: 8.33e-06
BRANCH_RETURN: 1.83e-05

LLC TOTAL        ACCESS:    1185725 HIT:     219636 MISS:     966089
LLC LOAD         ACCESS:       2887 HIT:        578 MISS:       2309
LLC RFO          ACCESS:     535122 HIT:         48 MISS:     535074
LLC PREFETCH     ACCESS:       2130 HIT:        552 MISS:       1578
LLC WRITE        ACCESS:     535170 HIT:     218090 MISS:     317080
LLC TRANSLATION  ACCESS:     110416 HIT:        368 MISS:     110048
LLC PREFETCH REQUESTED:       2130 ISSUED:       2130 USEFUL:        802 USELESS:         50
LLC AVERAGE MISS LATENCY: 736.6 cycles
cpu0_DTLB TOTAL        ACCESS:  113111752 HIT:  112758671 MISS:     353081
cpu0_DTLB LOAD         ACCESS:  113111752 HIT:  112758671 MISS:     353081
cpu0_DTLB RFO          ACCESS:          0 HIT:          0 MISS:          0
cpu0_DTLB PREFETCH     ACCESS:          0 HIT:          0 MISS:          0
cpu0_DTLB WRITE        ACCESS:          0 HIT:          0 MISS:          0
cpu0_DTLB TRANSLATION  ACCESS:          0 HIT:          0 MISS:          0
cpu0_DTLB PREFETCH REQUESTED:          0 ISSUED:          0 USEFUL:          0 USELESS:          0
cpu0_DTLB AVERAGE MISS LATENCY: 651 cycles
cpu0_ITLB TOTAL        ACCESS:       2116 HIT:       2082 MISS:         34
cpu0_ITLB LOAD         ACCESS:       2116 HIT:       2082 MISS:         34
cpu0_ITLB RFO          ACCESS:          0 HIT:          0 MISS:          0
cpu0_ITLB PREFETCH     ACCESS:          0 HIT:          0 MISS:          0
cpu0_ITLB WRITE        ACCESS:          0 HIT:          0 MISS:          0
cpu0_ITLB TRANSLATION  ACCESS:          0 HIT:          0 MISS:          0
cpu0_ITLB PREFETCH REQUESTED:          0 ISSUED:          0 USEFUL:          0 USELESS:          0
cpu0_ITLB AVERAGE MISS LATENCY: 844.8 cycles
cpu0_L1D TOTAL        ACCESS:  146350909 HIT:  140162848 MISS:    6188061
cpu0_L1D LOAD         ACCESS:   74199949 HIT:   74192010 MISS:       7939
cpu0_L1D RFO          ACCESS:          0 HIT:          0 MISS:          0
cpu0_L1D PREFETCH     ACCESS:          0 HIT:          0 MISS:          0
cpu0_L1D WRITE        ACCESS:   71969857 HIT:   65932477 MISS:    6037380
cpu0_L1D TRANSLATION  ACCESS:     181103 HIT:      38361 MISS:     142742
cpu0_L1D PREFETCH REQUESTED:          0 ISSUED:          0 USEFUL:          0 USELESS:          0
cpu0_L1D AVERAGE MISS LATENCY: 91.49 cycles
cpu0_L1I TOTAL        ACCESS:       2469 HIT:        989 MISS:       1480
cpu0_L1I LOAD         ACCESS:       2469 HIT:        989 MISS:       1480
cpu0_L1I RFO          ACCESS:          0 HIT:          0 MISS:          0
cpu0_L1I PREFETCH     ACCESS:          0 HIT:          0 MISS:          0
cpu0_L1I WRITE        ACCESS:          0 HIT:          0 MISS:          0
cpu0_L1I TRANSLATION  ACCESS:          0 HIT:          0 MISS:          0
cpu0_L1I PREFETCH REQUESTED:          0 ISSUED:          0 USEFUL:          0 USELESS:          0
cpu0_L1I AVERAGE MISS LATENCY: 629.6 cycles
cpu0_L2C TOTAL        ACCESS:    1194238 HIT:     545797 MISS:     648441
cpu0_L2C LOAD         ACCESS:       3311 HIT:        424 MISS:       2887
cpu0_L2C RFO          ACCESS:     539295 HIT:       4173 MISS:     535122
cpu0_L2C PREFETCH     ACCESS:          0 HIT:          0 MISS:          0
cpu0_L2C WRITE        ACCESS:     539633 HIT:     539618 MISS:         15
cpu0_L2C TRANSLATION  ACCESS:     111999 HIT:       1582 MISS:     110417
cpu0_L2C PREFETCH REQUESTED:          0 ISSUED:          0 USEFUL:          0 USELESS:          0
cpu0_L2C AVERAGE MISS LATENCY: 1116 cycles
cpu0_STLB TOTAL        ACCESS:     156157 HIT:         48 MISS:     156109
cpu0_STLB LOAD         ACCESS:     156157 HIT:         48 MISS:     156109
cpu0_STLB RFO          ACCESS:          0 HIT:          0 MISS:          0
cpu0_STLB PREFETCH     ACCESS:          0 HIT:          0 MISS:          0
cpu0_STLB WRITE        ACCESS:          0 HIT:          0 MISS:          0
cpu0_STLB TRANSLATION  ACCESS:          0 HIT:          0 MISS:          0
cpu0_STLB PREFETCH REQUESTED:          0 ISSUED:          0 USEFUL:          0 USELESS:          0
cpu0_STLB AVERAGE MISS LATENCY: 1681 cycles

DRAM Statistics

Channel 0 RQ ROW_BUFFER_HIT:     155347
  ROW_BUFFER_MISS:     492713
 AVG DBUS CONGESTED CYCLE: 3.983
WQ ROW_BUFFER_HIT: Channel 0 
  ROW_BUFFER_MISS:      61993
  FULL:     472417
