WARNING: physical memory size is smaller than virtual memory size.

*** ChampSim Multicore Out-of-Order Simulator ***
Warmup Instructions: 50000000
Simulation Instructions: 600000000
Number of CPUs: 1
Page size: 4096

CPU 0 Tage branch predictor
Off-chip DRAM Size: 4 GiB Channels: 1 Width: 64-bit Data Race: 3200 MT/s
Heartbeat CPU 0 instructions: 10000000 cycles: 2500202 heartbeat IPC: 4 cumulative IPC: 4 (Simulation time: 00 hr 00 min 40 sec)
Heartbeat CPU 0 instructions: 20000000 cycles: 5000202 heartbeat IPC: 4 cumulative IPC: 4 (Simulation time: 00 hr 01 min 22 sec)
Heartbeat CPU 0 instructions: 30000000 cycles: 7500202 heartbeat IPC: 4 cumulative IPC: 4 (Simulation time: 00 hr 02 min 02 sec)
Heartbeat CPU 0 instructions: 40000000 cycles: 10000202 heartbeat IPC: 4 cumulative IPC: 4 (Simulation time: 00 hr 02 min 42 sec)
Heartbeat CPU 0 instructions: 50000000 cycles: 12500202 heartbeat IPC: 4 cumulative IPC: 4 (Simulation time: 00 hr 03 min 21 sec)
Warmup finished CPU 0 instructions: 50000000 cycles: 12500203 cumulative IPC: 4 (Simulation time: 00 hr 03 min 21 sec)
Warmup complete CPU 0 instructions: 50000000 cycles: 12500203 cumulative IPC: 4 (Simulation time: 00 hr 03 min 21 sec)
Heartbeat CPU 0 instructions: 60000002 cycles: 15571646 heartbeat IPC: 3.256 cumulative IPC: 3.256 (Simulation time: 00 hr 04 min 07 sec)
Heartbeat CPU 0 instructions: 70000002 cycles: 18073861 heartbeat IPC: 3.996 cumulative IPC: 3.588 (Simulation time: 00 hr 04 min 50 sec)
Heartbeat CPU 0 instructions: 80000003 cycles: 20573883 heartbeat IPC: 4 cumulative IPC: 3.716 (Simulation time: 00 hr 05 min 32 sec)
Heartbeat CPU 0 instructions: 90000004 cycles: 23073904 heartbeat IPC: 4 cumulative IPC: 3.783 (Simulation time: 00 hr 06 min 13 sec)
Heartbeat CPU 0 instructions: 100000003 cycles: 25576284 heartbeat IPC: 3.996 cumulative IPC: 3.824 (Simulation time: 00 hr 06 min 55 sec)
Heartbeat CPU 0 instructions: 110000000 cycles: 28077470 heartbeat IPC: 3.998 cumulative IPC: 3.852 (Simulation time: 00 hr 07 min 38 sec)
Heartbeat CPU 0 instructions: 120000000 cycles: 30577494 heartbeat IPC: 4 cumulative IPC: 3.872 (Simulation time: 00 hr 08 min 23 sec)
Heartbeat CPU 0 instructions: 130000000 cycles: 33077517 heartbeat IPC: 4 cumulative IPC: 3.888 (Simulation time: 00 hr 09 min 08 sec)
Heartbeat CPU 0 instructions: 140000001 cycles: 35577554 heartbeat IPC: 4 cumulative IPC: 3.9 (Simulation time: 00 hr 09 min 52 sec)
Heartbeat CPU 0 instructions: 150000003 cycles: 38077576 heartbeat IPC: 4 cumulative IPC: 3.91 (Simulation time: 00 hr 10 min 35 sec)
Heartbeat CPU 0 instructions: 160000004 cycles: 40579680 heartbeat IPC: 3.997 cumulative IPC: 3.917 (Simulation time: 00 hr 11 min 18 sec)
Heartbeat CPU 0 instructions: 170000001 cycles: 43080203 heartbeat IPC: 3.999 cumulative IPC: 3.924 (Simulation time: 00 hr 12 min 00 sec)
Heartbeat CPU 0 instructions: 180000001 cycles: 45580224 heartbeat IPC: 4 cumulative IPC: 3.93 (Simulation time: 00 hr 12 min 43 sec)
Heartbeat CPU 0 instructions: 190000002 cycles: 48081081 heartbeat IPC: 3.999 cumulative IPC: 3.935 (Simulation time: 00 hr 13 min 25 sec)
Heartbeat CPU 0 instructions: 200000001 cycles: 50581102 heartbeat IPC: 4 cumulative IPC: 3.939 (Simulation time: 00 hr 14 min 07 sec)
Heartbeat CPU 0 instructions: 210000000 cycles: 53084057 heartbeat IPC: 3.995 cumulative IPC: 3.942 (Simulation time: 00 hr 14 min 49 sec)
Heartbeat CPU 0 instructions: 220000001 cycles: 55584100 heartbeat IPC: 4 cumulative IPC: 3.946 (Simulation time: 00 hr 15 min 31 sec)
Heartbeat CPU 0 instructions: 230000002 cycles: 58084121 heartbeat IPC: 4 cumulative IPC: 3.949 (Simulation time: 00 hr 16 min 12 sec)
Heartbeat CPU 0 instructions: 240000004 cycles: 60584159 heartbeat IPC: 4 cumulative IPC: 3.951 (Simulation time: 00 hr 16 min 54 sec)
Heartbeat CPU 0 instructions: 250000000 cycles: 63086813 heartbeat IPC: 3.996 cumulative IPC: 3.954 (Simulation time: 00 hr 17 min 38 sec)
Heartbeat CPU 0 instructions: 260000000 cycles: 65587286 heartbeat IPC: 3.999 cumulative IPC: 3.956 (Simulation time: 00 hr 18 min 25 sec)
Heartbeat CPU 0 instructions: 270000002 cycles: 68087307 heartbeat IPC: 4 cumulative IPC: 3.958 (Simulation time: 00 hr 19 min 07 sec)
Heartbeat CPU 0 instructions: 280000003 cycles: 70587346 heartbeat IPC: 4 cumulative IPC: 3.96 (Simulation time: 00 hr 19 min 50 sec)
Heartbeat CPU 0 instructions: 290000000 cycles: 73087366 heartbeat IPC: 4 cumulative IPC: 3.961 (Simulation time: 00 hr 20 min 32 sec)
Heartbeat CPU 0 instructions: 300000000 cycles: 75589901 heartbeat IPC: 3.996 cumulative IPC: 3.963 (Simulation time: 00 hr 21 min 15 sec)
Heartbeat CPU 0 instructions: 310000002 cycles: 78089938 heartbeat IPC: 4 cumulative IPC: 3.964 (Simulation time: 00 hr 21 min 58 sec)
Heartbeat CPU 0 instructions: 320000004 cycles: 80589960 heartbeat IPC: 4 cumulative IPC: 3.965 (Simulation time: 00 hr 22 min 45 sec)
Heartbeat CPU 0 instructions: 330000000 cycles: 83089981 heartbeat IPC: 4 cumulative IPC: 3.967 (Simulation time: 00 hr 23 min 28 sec)
Heartbeat CPU 0 instructions: 340000002 cycles: 85591223 heartbeat IPC: 3.998 cumulative IPC: 3.968 (Simulation time: 00 hr 24 min 11 sec)
Heartbeat CPU 0 instructions: 350000002 cycles: 88091245 heartbeat IPC: 4 cumulative IPC: 3.969 (Simulation time: 00 hr 24 min 53 sec)
Heartbeat CPU 0 instructions: 360000000 cycles: 90594229 heartbeat IPC: 3.995 cumulative IPC: 3.97 (Simulation time: 00 hr 25 min 39 sec)
Heartbeat CPU 0 instructions: 370000004 cycles: 93094273 heartbeat IPC: 4 cumulative IPC: 3.971 (Simulation time: 00 hr 26 min 23 sec)
Heartbeat CPU 0 instructions: 380000000 cycles: 95594293 heartbeat IPC: 4 cumulative IPC: 3.971 (Simulation time: 00 hr 27 min 05 sec)
Heartbeat CPU 0 instructions: 390000000 cycles: 98094315 heartbeat IPC: 4 cumulative IPC: 3.972 (Simulation time: 00 hr 27 min 50 sec)
Heartbeat CPU 0 instructions: 400000000 cycles: 100596752 heartbeat IPC: 3.996 cumulative IPC: 3.973 (Simulation time: 00 hr 28 min 34 sec)
Heartbeat CPU 0 instructions: 410000000 cycles: 103097224 heartbeat IPC: 3.999 cumulative IPC: 3.974 (Simulation time: 00 hr 29 min 16 sec)
Heartbeat CPU 0 instructions: 420000001 cycles: 105597246 heartbeat IPC: 4 cumulative IPC: 3.974 (Simulation time: 00 hr 30 min 02 sec)
Heartbeat CPU 0 instructions: 430000003 cycles: 108097267 heartbeat IPC: 4 cumulative IPC: 3.975 (Simulation time: 00 hr 30 min 45 sec)
Heartbeat CPU 0 instructions: 440000003 cycles: 110597289 heartbeat IPC: 4 cumulative IPC: 3.976 (Simulation time: 00 hr 31 min 31 sec)
Heartbeat CPU 0 instructions: 450000000 cycles: 113099679 heartbeat IPC: 3.996 cumulative IPC: 3.976 (Simulation time: 00 hr 32 min 16 sec)
Heartbeat CPU 0 instructions: 460000002 cycles: 115599700 heartbeat IPC: 4 cumulative IPC: 3.977 (Simulation time: 00 hr 33 min 00 sec)
Heartbeat CPU 0 instructions: 470000002 cycles: 118099721 heartbeat IPC: 4 cumulative IPC: 3.977 (Simulation time: 00 hr 33 min 44 sec)
Heartbeat CPU 0 instructions: 480000002 cycles: 120599743 heartbeat IPC: 4 cumulative IPC: 3.978 (Simulation time: 00 hr 34 min 30 sec)
Heartbeat CPU 0 instructions: 490000000 cycles: 123100212 heartbeat IPC: 3.999 cumulative IPC: 3.978 (Simulation time: 00 hr 35 min 15 sec)
Heartbeat CPU 0 instructions: 500000002 cycles: 125603436 heartbeat IPC: 3.995 cumulative IPC: 3.979 (Simulation time: 00 hr 36 min 00 sec)
Heartbeat CPU 0 instructions: 510000003 cycles: 128103457 heartbeat IPC: 4 cumulative IPC: 3.979 (Simulation time: 00 hr 36 min 46 sec)
Heartbeat CPU 0 instructions: 520000004 cycles: 130603478 heartbeat IPC: 4 cumulative IPC: 3.98 (Simulation time: 00 hr 37 min 32 sec)
Heartbeat CPU 0 instructions: 530000000 cycles: 133103521 heartbeat IPC: 4 cumulative IPC: 3.98 (Simulation time: 00 hr 38 min 19 sec)
Heartbeat CPU 0 instructions: 540000001 cycles: 135605994 heartbeat IPC: 3.996 cumulative IPC: 3.98 (Simulation time: 00 hr 39 min 05 sec)
Heartbeat CPU 0 instructions: 550000002 cycles: 138106014 heartbeat IPC: 4 cumulative IPC: 3.981 (Simulation time: 00 hr 39 min 52 sec)
Heartbeat CPU 0 instructions: 560000003 cycles: 140606479 heartbeat IPC: 3.999 cumulative IPC: 3.981 (Simulation time: 00 hr 40 min 38 sec)
Heartbeat CPU 0 instructions: 570000004 cycles: 143106501 heartbeat IPC: 4 cumulative IPC: 3.981 (Simulation time: 00 hr 41 min 24 sec)
Heartbeat CPU 0 instructions: 580000000 cycles: 145606523 heartbeat IPC: 4 cumulative IPC: 3.982 (Simulation time: 00 hr 42 min 11 sec)
Heartbeat CPU 0 instructions: 590000002 cycles: 148106560 heartbeat IPC: 4 cumulative IPC: 3.982 (Simulation time: 00 hr 42 min 58 sec)
*** Reached end of trace: (0, "traces/convolution.champsimtrace")
Heartbeat CPU 0 instructions: 600000000 cycles: 150616247 heartbeat IPC: 3.985 cumulative IPC: 3.982 (Simulation time: 00 hr 43 min 44 sec)
Heartbeat CPU 0 instructions: 610000002 cycles: 174054327 heartbeat IPC: 0.4267 cumulative IPC: 3.466 (Simulation time: 00 hr 47 min 11 sec)
Heartbeat CPU 0 instructions: 620000001 cycles: 194987721 heartbeat IPC: 0.4777 cumulative IPC: 3.124 (Simulation time: 00 hr 50 min 19 sec)
Heartbeat CPU 0 instructions: 630000001 cycles: 206115538 heartbeat IPC: 0.8986 cumulative IPC: 2.996 (Simulation time: 00 hr 52 min 11 sec)
Heartbeat CPU 0 instructions: 640000004 cycles: 216557212 heartbeat IPC: 0.9577 cumulative IPC: 2.891 (Simulation time: 00 hr 53 min 52 sec)
Heartbeat CPU 0 instructions: 650000001 cycles: 226976383 heartbeat IPC: 0.9598 cumulative IPC: 2.798 (Simulation time: 00 hr 55 min 33 sec)
Simulation finished CPU 0 instructions: 600000001 cycles: 214476181 cumulative IPC: 2.798 (Simulation time: 00 hr 55 min 33 sec)
Simulation complete CPU 0 instructions: 600000001 cycles: 214476181 cumulative IPC: 2.798 (Simulation time: 00 hr 55 min 33 sec)

ChampSim completed all CPUs

=== Simulation ===
CPU 0 runs traces/convolution.champsimtrace
Region of Interest Statistics

CPU 0 cumulative IPC: 2.798 instructions: 600000001 cycles: 214476181
CPU 0 Branch Prediction Accuracy: 100% MPKI: 0.002858 Average ROB Occupancy at Mispredict: 77.07
Branch type MPKI
BRANCH_DIRECT_JUMP: 0.000107
BRANCH_INDIRECT: 4.17e-05
BRANCH_CONDITIONAL: 0.00258
BRANCH_DIRECT_CALL: 0.000103
BRANCH_INDIRECT_CALL: 8.33e-06
BRANCH_RETURN: 1.83e-05

LLC TOTAL        ACCESS:    1185985 HIT:     536794 MISS:     649191
LLC LOAD         ACCESS:       2887 HIT:        791 MISS:       2096
LLC RFO          ACCESS:     535120 HIT:         31 MISS:     535089
LLC PREFETCH     ACCESS:       2887 HIT:        277 MISS:       2610
LLC WRITE        ACCESS:     535173 HIT:     535150 MISS:         23
LLC TRANSLATION  ACCESS:     109918 HIT:        545 MISS:     109373
LLC PREFETCH REQUESTED:       2887 ISSUED:       2887 USEFUL:       1415 USELESS:        358
LLC AVERAGE MISS LATENCY: 986.9 cycles
cpu0_DTLB TOTAL        ACCESS:  113110366 HIT:  112756751 MISS:     353615
cpu0_DTLB LOAD         ACCESS:  113110366 HIT:  112756751 MISS:     353615
cpu0_DTLB RFO          ACCESS:          0 HIT:          0 MISS:          0
cpu0_DTLB PREFETCH     ACCESS:          0 HIT:          0 MISS:          0
cpu0_DTLB WRITE        ACCESS:          0 HIT:          0 MISS:          0
cpu0_DTLB TRANSLATION  ACCESS:          0 HIT:          0 MISS:          0
cpu0_DTLB PREFETCH REQUESTED:          0 ISSUED:          0 USEFUL:          0 USELESS:          0
cpu0_DTLB AVERAGE MISS LATENCY: 637.5 cycles
cpu0_ITLB TOTAL        ACCESS:       2098 HIT:       2062 MISS:         36
cpu0_ITLB LOAD         ACCESS:       2098 HIT:       2062 MISS:         36
cpu0_ITLB RFO          ACCESS:          0 HIT:          0 MISS:          0
cpu0_ITLB PREFETCH     ACCESS:          0 HIT:          0 MISS:          0
cpu0_ITLB WRITE        ACCESS:          0 HIT:          0 MISS:          0
cpu0_ITLB TRANSLATION  ACCESS:          0 HIT:          0 MISS:          0
cpu0_ITLB PREFETCH REQUESTED:          0 ISSUED:          0 USEFUL:          0 USELESS:          0
cpu0_ITLB AVERAGE MISS LATENCY: 902.4 cycles
cpu0_L1D TOTAL        ACCESS:  146345929 HIT:  140155188 MISS:    6190741
cpu0_L1D LOAD         ACCESS:   74193647 HIT:   74186018 MISS:       7629
cpu0_L1D RFO          ACCESS:          0 HIT:          0 MISS:          0
cpu0_L1D PREFETCH     ACCESS:          0 HIT:          0 MISS:          0
cpu0_L1D WRITE        ACCESS:   71971499 HIT:   65930899 MISS:    6040600
cpu0_L1D TRANSLATION  ACCESS:     180783 HIT:      38271 MISS:     142512
cpu0_L1D PREFETCH REQUESTED:          0 ISSUED:          0 USEFUL:          0 USELESS:          0
cpu0_L1D AVERAGE MISS LATENCY: 79.99 cycles
cpu0_L1I TOTAL        ACCESS:       2455 HIT:        999 MISS:       1456
cpu0_L1I LOAD         ACCESS:       2455 HIT:        999 MISS:       1456
cpu0_L1I RFO          ACCESS:          0 HIT:          0 MISS:          0
cpu0_L1I PREFETCH     ACCESS:          0 HIT:          0 MISS:          0
cpu0_L1I WRITE        ACCESS:          0 HIT:          0 MISS:          0
cpu0_L1I TRANSLATION  ACCESS:          0 HIT:          0 MISS:          0
cpu0_L1I PREFETCH REQUESTED:          0 ISSUED:          0 USEFUL:          0 USELESS:          0
cpu0_L1I AVERAGE MISS LATENCY: 615 cycles
cpu0_L2C TOTAL        ACCESS:    1193438 HIT:     545495 MISS:     647943
cpu0_L2C LOAD         ACCESS:       3312 HIT:        425 MISS:       2887
cpu0_L2C RFO          ACCESS:     539222 HIT:       4102 MISS:     535120
cpu0_L2C PREFETCH     ACCESS:          0 HIT:          0 MISS:          0
cpu0_L2C WRITE        ACCESS:     539650 HIT:     539633 MISS:         17
cpu0_L2C TRANSLATION  ACCESS:     111254 HIT:       1335 MISS:     109919
cpu0_L2C PREFETCH REQUESTED:          0 ISSUED:          0 USEFUL:          0 USELESS:          0
cpu0_L2C AVERAGE MISS LATENCY: 1007 cycles
cpu0_STLB TOTAL        ACCESS:     156153 HIT:         49 MISS:     156104
cpu0_STLB LOAD         ACCESS:     156153 HIT:         49 MISS:     156104
cpu0_STLB RFO          ACCESS:          0 HIT:          0 MISS:          0
cpu0_STLB PREFETCH     ACCESS:          0 HIT:          0 MISS:          0
cpu0_STLB WRITE        ACCESS:          0 HIT:          0 MISS:          0
cpu0_STLB TRANSLATION  ACCESS:          0 HIT:          0 MISS:          0
cpu0_STLB PREFETCH REQUESTED:          0 ISSUED:          0 USEFUL:          0 USELESS:          0
cpu0_STLB AVERAGE MISS LATENCY: 1643 cycles

DRAM Statistics

Channel 0 RQ ROW_BUFFER_HIT:     141337
  ROW_BUFFER_MISS:     506375
 AVG DBUS CONGESTED CYCLE: 3.981
WQ ROW_BUFFER_HIT: Channel 0 
  ROW_BUFFER_MISS:     106347
  FULL:     428766
