WARNING: physical memory size is smaller than virtual memory size.

*** ChampSim Multicore Out-of-Order Simulator ***
Warmup Instructions: 50000000
Simulation Instructions: 600000000
Number of CPUs: 1
Page size: 4096

Off-chip DRAM Size: 4 GiB Channels: 1 Width: 64-bit Data Race: 3200 MT/s
Heartbeat CPU 0 instructions: 10000000 cycles: 2500202 heartbeat IPC: 4 cumulative IPC: 4 (Simulation time: 00 hr 00 min 34 sec)
Heartbeat CPU 0 instructions: 20000000 cycles: 5000202 heartbeat IPC: 4 cumulative IPC: 4 (Simulation time: 00 hr 01 min 09 sec)
Heartbeat CPU 0 instructions: 30000000 cycles: 7500202 heartbeat IPC: 4 cumulative IPC: 4 (Simulation time: 00 hr 01 min 43 sec)
Heartbeat CPU 0 instructions: 40000000 cycles: 10000202 heartbeat IPC: 4 cumulative IPC: 4 (Simulation time: 00 hr 02 min 18 sec)
Heartbeat CPU 0 instructions: 50000000 cycles: 12500202 heartbeat IPC: 4 cumulative IPC: 4 (Simulation time: 00 hr 02 min 54 sec)
Warmup finished CPU 0 instructions: 50000000 cycles: 12500203 cumulative IPC: 4 (Simulation time: 00 hr 02 min 54 sec)
Warmup complete CPU 0 instructions: 50000000 cycles: 12500203 cumulative IPC: 4 (Simulation time: 00 hr 02 min 54 sec)
Heartbeat CPU 0 instructions: 60000002 cycles: 15795191 heartbeat IPC: 3.035 cumulative IPC: 3.035 (Simulation time: 00 hr 03 min 35 sec)
Heartbeat CPU 0 instructions: 70000002 cycles: 18501314 heartbeat IPC: 3.695 cumulative IPC: 3.333 (Simulation time: 00 hr 04 min 14 sec)
Heartbeat CPU 0 instructions: 80000003 cycles: 21204911 heartbeat IPC: 3.699 cumulative IPC: 3.446 (Simulation time: 00 hr 04 min 51 sec)
Heartbeat CPU 0 instructions: 90000004 cycles: 23908474 heartbeat IPC: 3.699 cumulative IPC: 3.506 (Simulation time: 00 hr 05 min 44 sec)
Heartbeat CPU 0 instructions: 100000003 cycles: 26616838 heartbeat IPC: 3.692 cumulative IPC: 3.542 (Simulation time: 00 hr 06 min 38 sec)
Heartbeat CPU 0 instructions: 110000000 cycles: 29320521 heartbeat IPC: 3.699 cumulative IPC: 3.567 (Simulation time: 00 hr 07 min 17 sec)
Heartbeat CPU 0 instructions: 120000000 cycles: 32023875 heartbeat IPC: 3.699 cumulative IPC: 3.585 (Simulation time: 00 hr 07 min 54 sec)
Heartbeat CPU 0 instructions: 130000000 cycles: 34727496 heartbeat IPC: 3.699 cumulative IPC: 3.599 (Simulation time: 00 hr 08 min 36 sec)
Heartbeat CPU 0 instructions: 140000001 cycles: 37431045 heartbeat IPC: 3.699 cumulative IPC: 3.61 (Simulation time: 00 hr 09 min 13 sec)
Heartbeat CPU 0 instructions: 150000003 cycles: 40134674 heartbeat IPC: 3.699 cumulative IPC: 3.619 (Simulation time: 00 hr 09 min 59 sec)
Heartbeat CPU 0 instructions: 160000003 cycles: 42839974 heartbeat IPC: 3.696 cumulative IPC: 3.626 (Simulation time: 00 hr 10 min 38 sec)
Heartbeat CPU 0 instructions: 170000001 cycles: 45543608 heartbeat IPC: 3.699 cumulative IPC: 3.632 (Simulation time: 00 hr 11 min 23 sec)
Heartbeat CPU 0 instructions: 180000001 cycles: 48247301 heartbeat IPC: 3.699 cumulative IPC: 3.637 (Simulation time: 00 hr 12 min 09 sec)
Heartbeat CPU 0 instructions: 190000002 cycles: 50951660 heartbeat IPC: 3.698 cumulative IPC: 3.641 (Simulation time: 00 hr 12 min 52 sec)
Heartbeat CPU 0 instructions: 200000001 cycles: 53655246 heartbeat IPC: 3.699 cumulative IPC: 3.645 (Simulation time: 00 hr 13 min 31 sec)
Heartbeat CPU 0 instructions: 210000000 cycles: 56362875 heartbeat IPC: 3.693 cumulative IPC: 3.648 (Simulation time: 00 hr 14 min 10 sec)
Heartbeat CPU 0 instructions: 220000001 cycles: 59067716 heartbeat IPC: 3.697 cumulative IPC: 3.651 (Simulation time: 00 hr 14 min 46 sec)
Heartbeat CPU 0 instructions: 230000002 cycles: 61771338 heartbeat IPC: 3.699 cumulative IPC: 3.653 (Simulation time: 00 hr 15 min 22 sec)
Heartbeat CPU 0 instructions: 240000004 cycles: 64474971 heartbeat IPC: 3.699 cumulative IPC: 3.656 (Simulation time: 00 hr 16 min 00 sec)
Heartbeat CPU 0 instructions: 250000000 cycles: 67182028 heartbeat IPC: 3.694 cumulative IPC: 3.658 (Simulation time: 00 hr 16 min 40 sec)
Heartbeat CPU 0 instructions: 260000000 cycles: 69887687 heartbeat IPC: 3.696 cumulative IPC: 3.659 (Simulation time: 00 hr 17 min 18 sec)
Heartbeat CPU 0 instructions: 270000002 cycles: 72591050 heartbeat IPC: 3.699 cumulative IPC: 3.661 (Simulation time: 00 hr 17 min 57 sec)
Heartbeat CPU 0 instructions: 280000003 cycles: 75294675 heartbeat IPC: 3.699 cumulative IPC: 3.663 (Simulation time: 00 hr 18 min 33 sec)
Heartbeat CPU 0 instructions: 290000003 cycles: 77998330 heartbeat IPC: 3.699 cumulative IPC: 3.664 (Simulation time: 00 hr 19 min 09 sec)
Heartbeat CPU 0 instructions: 300000000 cycles: 80704138 heartbeat IPC: 3.696 cumulative IPC: 3.665 (Simulation time: 00 hr 19 min 46 sec)
Heartbeat CPU 0 instructions: 310000002 cycles: 83408944 heartbeat IPC: 3.697 cumulative IPC: 3.667 (Simulation time: 00 hr 20 min 21 sec)
Heartbeat CPU 0 instructions: 320000004 cycles: 86112321 heartbeat IPC: 3.699 cumulative IPC: 3.668 (Simulation time: 00 hr 20 min 57 sec)
Heartbeat CPU 0 instructions: 330000000 cycles: 88816287 heartbeat IPC: 3.698 cumulative IPC: 3.669 (Simulation time: 00 hr 21 min 34 sec)
Heartbeat CPU 0 instructions: 340000002 cycles: 91520706 heartbeat IPC: 3.698 cumulative IPC: 3.67 (Simulation time: 00 hr 22 min 10 sec)
Heartbeat CPU 0 instructions: 350000002 cycles: 94224252 heartbeat IPC: 3.699 cumulative IPC: 3.671 (Simulation time: 00 hr 22 min 49 sec)
Heartbeat CPU 0 instructions: 360000001 cycles: 96931499 heartbeat IPC: 3.694 cumulative IPC: 3.672 (Simulation time: 00 hr 23 min 24 sec)
Heartbeat CPU 0 instructions: 370000004 cycles: 99634848 heartbeat IPC: 3.699 cumulative IPC: 3.672 (Simulation time: 00 hr 24 min 00 sec)
Heartbeat CPU 0 instructions: 380000000 cycles: 102338416 heartbeat IPC: 3.699 cumulative IPC: 3.673 (Simulation time: 00 hr 24 min 35 sec)
Heartbeat CPU 0 instructions: 390000004 cycles: 105042136 heartbeat IPC: 3.699 cumulative IPC: 3.674 (Simulation time: 00 hr 25 min 11 sec)
Heartbeat CPU 0 instructions: 400000000 cycles: 107747789 heartbeat IPC: 3.696 cumulative IPC: 3.675 (Simulation time: 00 hr 25 min 47 sec)
Heartbeat CPU 0 instructions: 410000000 cycles: 110452339 heartbeat IPC: 3.697 cumulative IPC: 3.675 (Simulation time: 00 hr 26 min 23 sec)
Heartbeat CPU 0 instructions: 420000001 cycles: 113155785 heartbeat IPC: 3.699 cumulative IPC: 3.676 (Simulation time: 00 hr 26 min 59 sec)
Heartbeat CPU 0 instructions: 430000003 cycles: 115859530 heartbeat IPC: 3.699 cumulative IPC: 3.676 (Simulation time: 00 hr 27 min 35 sec)
Heartbeat CPU 0 instructions: 440000003 cycles: 118563531 heartbeat IPC: 3.698 cumulative IPC: 3.677 (Simulation time: 00 hr 28 min 14 sec)
Heartbeat CPU 0 instructions: 450000004 cycles: 121270350 heartbeat IPC: 3.694 cumulative IPC: 3.677 (Simulation time: 00 hr 28 min 53 sec)
Heartbeat CPU 0 instructions: 460000001 cycles: 123973707 heartbeat IPC: 3.699 cumulative IPC: 3.678 (Simulation time: 00 hr 29 min 32 sec)
Heartbeat CPU 0 instructions: 470000002 cycles: 126677183 heartbeat IPC: 3.699 cumulative IPC: 3.678 (Simulation time: 00 hr 30 min 13 sec)
Heartbeat CPU 0 instructions: 480000001 cycles: 129380932 heartbeat IPC: 3.699 cumulative IPC: 3.679 (Simulation time: 00 hr 30 min 52 sec)
Heartbeat CPU 0 instructions: 490000000 cycles: 132084974 heartbeat IPC: 3.698 cumulative IPC: 3.679 (Simulation time: 00 hr 31 min 33 sec)
Heartbeat CPU 0 instructions: 500000002 cycles: 134790940 heartbeat IPC: 3.696 cumulative IPC: 3.68 (Simulation time: 00 hr 32 min 11 sec)
Heartbeat CPU 0 instructions: 510000003 cycles: 137494387 heartbeat IPC: 3.699 cumulative IPC: 3.68 (Simulation time: 00 hr 32 min 49 sec)
Heartbeat CPU 0 instructions: 520000004 cycles: 140198131 heartbeat IPC: 3.699 cumulative IPC: 3.681 (Simulation time: 00 hr 33 min 27 sec)
Heartbeat CPU 0 instructions: 530000000 cycles: 142901788 heartbeat IPC: 3.699 cumulative IPC: 3.681 (Simulation time: 00 hr 34 min 05 sec)
Heartbeat CPU 0 instructions: 540000000 cycles: 145608923 heartbeat IPC: 3.694 cumulative IPC: 3.681 (Simulation time: 00 hr 34 min 45 sec)
Heartbeat CPU 0 instructions: 550000003 cycles: 148312307 heartbeat IPC: 3.699 cumulative IPC: 3.682 (Simulation time: 00 hr 35 min 22 sec)
Heartbeat CPU 0 instructions: 560000003 cycles: 151016828 heartbeat IPC: 3.698 cumulative IPC: 3.682 (Simulation time: 00 hr 35 min 58 sec)
Heartbeat CPU 0 instructions: 570000004 cycles: 153720167 heartbeat IPC: 3.699 cumulative IPC: 3.682 (Simulation time: 00 hr 36 min 34 sec)
Heartbeat CPU 0 instructions: 580000000 cycles: 156423871 heartbeat IPC: 3.699 cumulative IPC: 3.683 (Simulation time: 00 hr 37 min 11 sec)
Heartbeat CPU 0 instructions: 590000002 cycles: 159127454 heartbeat IPC: 3.699 cumulative IPC: 3.683 (Simulation time: 00 hr 37 min 46 sec)
*** Reached end of trace: (0, "traces/convolution.champsimtrace")
Heartbeat CPU 0 instructions: 600000000 cycles: 161840853 heartbeat IPC: 3.685 cumulative IPC: 3.683 (Simulation time: 00 hr 38 min 31 sec)
Heartbeat CPU 0 instructions: 610000002 cycles: 186565037 heartbeat IPC: 0.4045 cumulative IPC: 3.217 (Simulation time: 00 hr 41 min 50 sec)
Heartbeat CPU 0 instructions: 620000001 cycles: 209599442 heartbeat IPC: 0.4341 cumulative IPC: 2.892 (Simulation time: 00 hr 45 min 03 sec)
Heartbeat CPU 0 instructions: 630000001 cycles: 220618384 heartbeat IPC: 0.9075 cumulative IPC: 2.787 (Simulation time: 00 hr 46 min 48 sec)
Heartbeat CPU 0 instructions: 640000004 cycles: 231075227 heartbeat IPC: 0.9563 cumulative IPC: 2.699 (Simulation time: 00 hr 48 min 32 sec)
Heartbeat CPU 0 instructions: 650000001 cycles: 241863232 heartbeat IPC: 0.927 cumulative IPC: 2.616 (Simulation time: 00 hr 50 min 16 sec)
Simulation finished CPU 0 instructions: 600000001 cycles: 229363030 cumulative IPC: 2.616 (Simulation time: 00 hr 50 min 16 sec)
Simulation complete CPU 0 instructions: 600000001 cycles: 229363030 cumulative IPC: 2.616 (Simulation time: 00 hr 50 min 16 sec)

ChampSim completed all CPUs

=== Simulation ===
CPU 0 runs traces/convolution.champsimtrace
Region of Interest Statistics

CPU 0 cumulative IPC: 2.616 instructions: 600000001 cycles: 229363030
CPU 0 Branch Prediction Accuracy: 99.3% MPKI: 1.265 Average ROB Occupancy at Mispredict: 63.99
Branch type MPKI
BRANCH_DIRECT_JUMP: 0.000107
BRANCH_INDIRECT: 4.17e-05
BRANCH_CONDITIONAL: 1.26
BRANCH_DIRECT_CALL: 0.000103
BRANCH_INDIRECT_CALL: 8.33e-06
BRANCH_RETURN: 1.83e-05

LLC TOTAL        ACCESS:    1185147 HIT:     249985 MISS:     935162
LLC LOAD         ACCESS:       2889 HIT:        630 MISS:       2259
LLC RFO          ACCESS:     535119 HIT:         40 MISS:     535079
LLC PREFETCH     ACCESS:       2119 HIT:        613 MISS:       1506
LLC WRITE        ACCESS:     535166 HIT:     248148 MISS:     287018
LLC TRANSLATION  ACCESS:     109854 HIT:        554 MISS:     109300
LLC PREFETCH REQUESTED:       2119 ISSUED:       2119 USEFUL:        806 USELESS:         48
LLC AVERAGE MISS LATENCY: 761 cycles
cpu0_DTLB TOTAL        ACCESS:  121558475 HIT:  121205831 MISS:     352644
cpu0_DTLB LOAD         ACCESS:  121558475 HIT:  121205831 MISS:     352644
cpu0_DTLB RFO          ACCESS:          0 HIT:          0 MISS:          0
cpu0_DTLB PREFETCH     ACCESS:          0 HIT:          0 MISS:          0
cpu0_DTLB WRITE        ACCESS:          0 HIT:          0 MISS:          0
cpu0_DTLB TRANSLATION  ACCESS:          0 HIT:          0 MISS:          0
cpu0_DTLB PREFETCH REQUESTED:          0 ISSUED:          0 USEFUL:          0 USELESS:          0
cpu0_DTLB AVERAGE MISS LATENCY: 672.9 cycles
cpu0_ITLB TOTAL        ACCESS:       2035 HIT:       2000 MISS:         35
cpu0_ITLB LOAD         ACCESS:       2035 HIT:       2000 MISS:         35
cpu0_ITLB RFO          ACCESS:          0 HIT:          0 MISS:          0
cpu0_ITLB PREFETCH     ACCESS:          0 HIT:          0 MISS:          0
cpu0_ITLB WRITE        ACCESS:          0 HIT:          0 MISS:          0
cpu0_ITLB TRANSLATION  ACCESS:          0 HIT:          0 MISS:          0
cpu0_ITLB PREFETCH REQUESTED:          0 ISSUED:          0 USEFUL:          0 USELESS:          0
cpu0_ITLB AVERAGE MISS LATENCY: 849 cycles
cpu0_L1D TOTAL        ACCESS:  162708686 HIT:  156555567 MISS:    6153119
cpu0_L1D LOAD         ACCESS:   90492980 HIT:   90486508 MISS:       6472
cpu0_L1D RFO          ACCESS:          0 HIT:          0 MISS:          0
cpu0_L1D PREFETCH     ACCESS:          0 HIT:          0 MISS:          0
cpu0_L1D WRITE        ACCESS:   72035002 HIT:   66030530 MISS:    6004472
cpu0_L1D TRANSLATION  ACCESS:     180704 HIT:      38529 MISS:     142175
cpu0_L1D PREFETCH REQUESTED:          0 ISSUED:          0 USEFUL:          0 USELESS:          0
cpu0_L1D AVERAGE MISS LATENCY: 90.29 cycles
cpu0_L1I TOTAL        ACCESS:       2353 HIT:       1018 MISS:       1335
cpu0_L1I LOAD         ACCESS:       2353 HIT:       1018 MISS:       1335
cpu0_L1I RFO          ACCESS:          0 HIT:          0 MISS:          0
cpu0_L1I PREFETCH     ACCESS:          0 HIT:          0 MISS:          0
cpu0_L1I WRITE        ACCESS:          0 HIT:          0 MISS:          0
cpu0_L1I TRANSLATION  ACCESS:          0 HIT:          0 MISS:          0
cpu0_L1I PREFETCH REQUESTED:          0 ISSUED:          0 USEFUL:          0 USELESS:          0
cpu0_L1I AVERAGE MISS LATENCY: 765 cycles
cpu0_L2C TOTAL        ACCESS:    1190831 HIT:     542952 MISS:     647879
cpu0_L2C LOAD         ACCESS:       3313 HIT:        424 MISS:       2889
cpu0_L2C RFO          ACCESS:     538095 HIT:       2976 MISS:     535119
cpu0_L2C PREFETCH     ACCESS:          0 HIT:          0 MISS:          0
cpu0_L2C WRITE        ACCESS:     538221 HIT:     538204 MISS:         17
cpu0_L2C TRANSLATION  ACCESS:     111202 HIT:       1348 MISS:     109854
cpu0_L2C PREFETCH REQUESTED:          0 ISSUED:          0 USEFUL:          0 USELESS:          0
cpu0_L2C AVERAGE MISS LATENCY: 1117 cycles
cpu0_STLB TOTAL        ACCESS:     156154 HIT:         48 MISS:     156106
cpu0_STLB LOAD         ACCESS:     156154 HIT:         48 MISS:     156106
cpu0_STLB RFO          ACCESS:          0 HIT:          0 MISS:          0
cpu0_STLB PREFETCH     ACCESS:          0 HIT:          0 MISS:          0
cpu0_STLB WRITE        ACCESS:          0 HIT:          0 MISS:          0
cpu0_STLB TRANSLATION  ACCESS:          0 HIT:          0 MISS:          0
cpu0_STLB PREFETCH REQUESTED:          0 ISSUED:          0 USEFUL:          0 USELESS:          0
cpu0_STLB AVERAGE MISS LATENCY: 1721 cycles

DRAM Statistics

Channel 0 RQ ROW_BUFFER_HIT:     155587
  ROW_BUFFER_MISS:     491725
 AVG DBUS CONGESTED CYCLE: 3.981
WQ ROW_BUFFER_HIT: Channel 0 
  ROW_BUFFER_MISS:      54956
  FULL:     479494
