WARNING: physical memory size is smaller than virtual memory size.

*** ChampSim Multicore Out-of-Order Simulator ***
Warmup Instructions: 50000000
Simulation Instructions: 600000000
Number of CPUs: 1
Page size: 4096

Off-chip DRAM Size: 4 GiB Channels: 1 Width: 64-bit Data Race: 3200 MT/s
Heartbeat CPU 0 instructions: 10000000 cycles: 2500202 heartbeat IPC: 4 cumulative IPC: 4 (Simulation time: 00 hr 00 min 33 sec)
Heartbeat CPU 0 instructions: 20000000 cycles: 5000202 heartbeat IPC: 4 cumulative IPC: 4 (Simulation time: 00 hr 01 min 05 sec)
Heartbeat CPU 0 instructions: 30000000 cycles: 7500202 heartbeat IPC: 4 cumulative IPC: 4 (Simulation time: 00 hr 01 min 38 sec)
Heartbeat CPU 0 instructions: 40000000 cycles: 10000202 heartbeat IPC: 4 cumulative IPC: 4 (Simulation time: 00 hr 02 min 09 sec)
Heartbeat CPU 0 instructions: 50000000 cycles: 12500202 heartbeat IPC: 4 cumulative IPC: 4 (Simulation time: 00 hr 02 min 42 sec)
Warmup finished CPU 0 instructions: 50000000 cycles: 12500203 cumulative IPC: 4 (Simulation time: 00 hr 02 min 42 sec)
Warmup complete CPU 0 instructions: 50000000 cycles: 12500203 cumulative IPC: 4 (Simulation time: 00 hr 02 min 42 sec)
Heartbeat CPU 0 instructions: 60000002 cycles: 15766563 heartbeat IPC: 3.062 cumulative IPC: 3.062 (Simulation time: 00 hr 03 min 26 sec)
Heartbeat CPU 0 instructions: 70000002 cycles: 18476919 heartbeat IPC: 3.69 cumulative IPC: 3.346 (Simulation time: 00 hr 04 min 04 sec)
Heartbeat CPU 0 instructions: 80000003 cycles: 21183947 heartbeat IPC: 3.694 cumulative IPC: 3.455 (Simulation time: 00 hr 04 min 41 sec)
Heartbeat CPU 0 instructions: 90000004 cycles: 23891071 heartbeat IPC: 3.694 cumulative IPC: 3.512 (Simulation time: 00 hr 05 min 20 sec)
Heartbeat CPU 0 instructions: 100000003 cycles: 26603933 heartbeat IPC: 3.686 cumulative IPC: 3.545 (Simulation time: 00 hr 06 min 03 sec)
Heartbeat CPU 0 instructions: 110000000 cycles: 29309256 heartbeat IPC: 3.696 cumulative IPC: 3.57 (Simulation time: 00 hr 06 min 41 sec)
Heartbeat CPU 0 instructions: 120000000 cycles: 32014153 heartbeat IPC: 3.697 cumulative IPC: 3.587 (Simulation time: 00 hr 07 min 18 sec)
Heartbeat CPU 0 instructions: 130000000 cycles: 34720830 heartbeat IPC: 3.695 cumulative IPC: 3.6 (Simulation time: 00 hr 07 min 55 sec)
Heartbeat CPU 0 instructions: 140000001 cycles: 37427516 heartbeat IPC: 3.695 cumulative IPC: 3.61 (Simulation time: 00 hr 08 min 31 sec)
Heartbeat CPU 0 instructions: 150000003 cycles: 40135291 heartbeat IPC: 3.693 cumulative IPC: 3.619 (Simulation time: 00 hr 09 min 06 sec)
Heartbeat CPU 0 instructions: 160000003 cycles: 42839749 heartbeat IPC: 3.698 cumulative IPC: 3.626 (Simulation time: 00 hr 09 min 41 sec)
Heartbeat CPU 0 instructions: 170000001 cycles: 45545336 heartbeat IPC: 3.696 cumulative IPC: 3.631 (Simulation time: 00 hr 10 min 17 sec)
Heartbeat CPU 0 instructions: 180000001 cycles: 48250501 heartbeat IPC: 3.697 cumulative IPC: 3.636 (Simulation time: 00 hr 10 min 54 sec)
Heartbeat CPU 0 instructions: 190000002 cycles: 50957120 heartbeat IPC: 3.695 cumulative IPC: 3.64 (Simulation time: 00 hr 11 min 30 sec)
Heartbeat CPU 0 instructions: 200000001 cycles: 53662899 heartbeat IPC: 3.696 cumulative IPC: 3.644 (Simulation time: 00 hr 12 min 05 sec)
Heartbeat CPU 0 instructions: 210000000 cycles: 56372440 heartbeat IPC: 3.691 cumulative IPC: 3.647 (Simulation time: 00 hr 12 min 42 sec)
Heartbeat CPU 0 instructions: 220000001 cycles: 59078118 heartbeat IPC: 3.696 cumulative IPC: 3.65 (Simulation time: 00 hr 13 min 18 sec)
Heartbeat CPU 0 instructions: 230000002 cycles: 61790394 heartbeat IPC: 3.687 cumulative IPC: 3.652 (Simulation time: 00 hr 13 min 55 sec)
Heartbeat CPU 0 instructions: 240000004 cycles: 64499339 heartbeat IPC: 3.691 cumulative IPC: 3.654 (Simulation time: 00 hr 14 min 31 sec)
Heartbeat CPU 0 instructions: 250000000 cycles: 67207434 heartbeat IPC: 3.693 cumulative IPC: 3.656 (Simulation time: 00 hr 15 min 07 sec)
Heartbeat CPU 0 instructions: 260000000 cycles: 69915472 heartbeat IPC: 3.693 cumulative IPC: 3.658 (Simulation time: 00 hr 15 min 44 sec)
Heartbeat CPU 0 instructions: 270000002 cycles: 72621128 heartbeat IPC: 3.696 cumulative IPC: 3.659 (Simulation time: 00 hr 16 min 22 sec)
Heartbeat CPU 0 instructions: 280000003 cycles: 75330463 heartbeat IPC: 3.691 cumulative IPC: 3.661 (Simulation time: 00 hr 17 min 00 sec)
Heartbeat CPU 0 instructions: 290000003 cycles: 78035767 heartbeat IPC: 3.696 cumulative IPC: 3.662 (Simulation time: 00 hr 17 min 36 sec)
Heartbeat CPU 0 instructions: 300000000 cycles: 80747653 heartbeat IPC: 3.687 cumulative IPC: 3.663 (Simulation time: 00 hr 18 min 11 sec)
Heartbeat CPU 0 instructions: 310000002 cycles: 83452337 heartbeat IPC: 3.697 cumulative IPC: 3.664 (Simulation time: 00 hr 18 min 47 sec)
Heartbeat CPU 0 instructions: 320000004 cycles: 86157359 heartbeat IPC: 3.697 cumulative IPC: 3.666 (Simulation time: 00 hr 19 min 23 sec)
Heartbeat CPU 0 instructions: 330000000 cycles: 88865679 heartbeat IPC: 3.692 cumulative IPC: 3.667 (Simulation time: 00 hr 19 min 59 sec)
Heartbeat CPU 0 instructions: 340000002 cycles: 91571039 heartbeat IPC: 3.696 cumulative IPC: 3.668 (Simulation time: 00 hr 20 min 35 sec)
Heartbeat CPU 0 instructions: 350000002 cycles: 94278751 heartbeat IPC: 3.693 cumulative IPC: 3.668 (Simulation time: 00 hr 21 min 11 sec)
Heartbeat CPU 0 instructions: 360000001 cycles: 96986768 heartbeat IPC: 3.693 cumulative IPC: 3.669 (Simulation time: 00 hr 21 min 46 sec)
Heartbeat CPU 0 instructions: 370000004 cycles: 99695030 heartbeat IPC: 3.692 cumulative IPC: 3.67 (Simulation time: 00 hr 22 min 23 sec)
Heartbeat CPU 0 instructions: 380000000 cycles: 102403095 heartbeat IPC: 3.693 cumulative IPC: 3.671 (Simulation time: 00 hr 22 min 59 sec)
Heartbeat CPU 0 instructions: 390000004 cycles: 105109453 heartbeat IPC: 3.695 cumulative IPC: 3.671 (Simulation time: 00 hr 23 min 34 sec)
Heartbeat CPU 0 instructions: 400000000 cycles: 107816022 heartbeat IPC: 3.695 cumulative IPC: 3.672 (Simulation time: 00 hr 24 min 10 sec)
Heartbeat CPU 0 instructions: 410000000 cycles: 110522715 heartbeat IPC: 3.695 cumulative IPC: 3.673 (Simulation time: 00 hr 24 min 45 sec)
Heartbeat CPU 0 instructions: 420000001 cycles: 113230908 heartbeat IPC: 3.692 cumulative IPC: 3.673 (Simulation time: 00 hr 25 min 20 sec)
Heartbeat CPU 0 instructions: 430000003 cycles: 115939780 heartbeat IPC: 3.692 cumulative IPC: 3.674 (Simulation time: 00 hr 25 min 56 sec)
Heartbeat CPU 0 instructions: 440000003 cycles: 118648668 heartbeat IPC: 3.692 cumulative IPC: 3.674 (Simulation time: 00 hr 26 min 31 sec)
Heartbeat CPU 0 instructions: 450000004 cycles: 121357508 heartbeat IPC: 3.692 cumulative IPC: 3.675 (Simulation time: 00 hr 27 min 06 sec)
Heartbeat CPU 0 instructions: 460000001 cycles: 124070384 heartbeat IPC: 3.686 cumulative IPC: 3.675 (Simulation time: 00 hr 27 min 42 sec)
Heartbeat CPU 0 instructions: 470000002 cycles: 126776380 heartbeat IPC: 3.695 cumulative IPC: 3.675 (Simulation time: 00 hr 28 min 16 sec)
Heartbeat CPU 0 instructions: 480000001 cycles: 129481197 heartbeat IPC: 3.697 cumulative IPC: 3.676 (Simulation time: 00 hr 28 min 51 sec)
Heartbeat CPU 0 instructions: 490000000 cycles: 132193626 heartbeat IPC: 3.687 cumulative IPC: 3.676 (Simulation time: 00 hr 29 min 26 sec)
Heartbeat CPU 0 instructions: 500000002 cycles: 134903058 heartbeat IPC: 3.691 cumulative IPC: 3.676 (Simulation time: 00 hr 30 min 02 sec)
Heartbeat CPU 0 instructions: 510000003 cycles: 137611519 heartbeat IPC: 3.692 cumulative IPC: 3.677 (Simulation time: 00 hr 30 min 41 sec)
Heartbeat CPU 0 instructions: 520000004 cycles: 140321479 heartbeat IPC: 3.69 cumulative IPC: 3.677 (Simulation time: 00 hr 31 min 17 sec)
Heartbeat CPU 0 instructions: 530000000 cycles: 143028116 heartbeat IPC: 3.695 cumulative IPC: 3.677 (Simulation time: 00 hr 31 min 56 sec)
Heartbeat CPU 0 instructions: 540000000 cycles: 145736335 heartbeat IPC: 3.692 cumulative IPC: 3.678 (Simulation time: 00 hr 32 min 34 sec)
Heartbeat CPU 0 instructions: 550000003 cycles: 148443062 heartbeat IPC: 3.695 cumulative IPC: 3.678 (Simulation time: 00 hr 33 min 14 sec)
Heartbeat CPU 0 instructions: 560000003 cycles: 151154777 heartbeat IPC: 3.688 cumulative IPC: 3.678 (Simulation time: 00 hr 33 min 55 sec)
Heartbeat CPU 0 instructions: 570000004 cycles: 153862688 heartbeat IPC: 3.693 cumulative IPC: 3.678 (Simulation time: 00 hr 34 min 31 sec)
Heartbeat CPU 0 instructions: 580000000 cycles: 156571367 heartbeat IPC: 3.692 cumulative IPC: 3.679 (Simulation time: 00 hr 35 min 10 sec)
Heartbeat CPU 0 instructions: 590000002 cycles: 159277304 heartbeat IPC: 3.696 cumulative IPC: 3.679 (Simulation time: 00 hr 35 min 46 sec)
*** Reached end of trace: (0, "traces/convolution.champsimtrace")
Heartbeat CPU 0 instructions: 600000000 cycles: 161984652 heartbeat IPC: 3.694 cumulative IPC: 3.679 (Simulation time: 00 hr 36 min 22 sec)
Heartbeat CPU 0 instructions: 610000002 cycles: 183796778 heartbeat IPC: 0.4585 cumulative IPC: 3.269 (Simulation time: 00 hr 39 min 25 sec)
Heartbeat CPU 0 instructions: 620000001 cycles: 202850044 heartbeat IPC: 0.5248 cumulative IPC: 2.994 (Simulation time: 00 hr 42 min 10 sec)
Heartbeat CPU 0 instructions: 630000001 cycles: 211443967 heartbeat IPC: 1.164 cumulative IPC: 2.915 (Simulation time: 00 hr 43 min 38 sec)
Heartbeat CPU 0 instructions: 640000004 cycles: 222233372 heartbeat IPC: 0.9268 cumulative IPC: 2.813 (Simulation time: 00 hr 45 min 17 sec)
Heartbeat CPU 0 instructions: 650000001 cycles: 232996477 heartbeat IPC: 0.9291 cumulative IPC: 2.721 (Simulation time: 00 hr 46 min 57 sec)
Simulation finished CPU 0 instructions: 600000001 cycles: 220496275 cumulative IPC: 2.721 (Simulation time: 00 hr 46 min 57 sec)
Simulation complete CPU 0 instructions: 600000001 cycles: 220496275 cumulative IPC: 2.721 (Simulation time: 00 hr 46 min 57 sec)

ChampSim completed all CPUs

=== Simulation ===
CPU 0 runs traces/convolution.champsimtrace
Region of Interest Statistics

CPU 0 cumulative IPC: 2.721 instructions: 600000001 cycles: 220496275
CPU 0 Branch Prediction Accuracy: 99.3% MPKI: 1.265 Average ROB Occupancy at Mispredict: 64.1
Branch type MPKI
BRANCH_DIRECT_JUMP: 0.000107
BRANCH_INDIRECT: 4.17e-05
BRANCH_CONDITIONAL: 1.26
BRANCH_DIRECT_CALL: 0.000103
BRANCH_INDIRECT_CALL: 8.33e-06
BRANCH_RETURN: 1.83e-05

LLC TOTAL        ACCESS:    1185645 HIT:      52920 MISS:    1132725
LLC LOAD         ACCESS:       2889 HIT:       2589 MISS:        300
LLC RFO          ACCESS:     535121 HIT:      15707 MISS:     519414
LLC PREFETCH     ACCESS:       2889 HIT:       2592 MISS:        297
LLC WRITE        ACCESS:     535167 HIT:      19068 MISS:     516099
LLC TRANSLATION  ACCESS:     109579 HIT:      12964 MISS:      96615
LLC PREFETCH REQUESTED:       2889 ISSUED:       2889 USEFUL:         21 USELESS:        249
LLC AVERAGE MISS LATENCY: 551.1 cycles
cpu0_DTLB TOTAL        ACCESS:  121725546 HIT:  121388631 MISS:     336915
cpu0_DTLB LOAD         ACCESS:  121725546 HIT:  121388631 MISS:     336915
cpu0_DTLB RFO          ACCESS:          0 HIT:          0 MISS:          0
cpu0_DTLB PREFETCH     ACCESS:          0 HIT:          0 MISS:          0
cpu0_DTLB WRITE        ACCESS:          0 HIT:          0 MISS:          0
cpu0_DTLB TRANSLATION  ACCESS:          0 HIT:          0 MISS:          0
cpu0_DTLB PREFETCH REQUESTED:          0 ISSUED:          0 USEFUL:          0 USELESS:          0
cpu0_DTLB AVERAGE MISS LATENCY: 637.9 cycles
cpu0_ITLB TOTAL        ACCESS:       1996 HIT:       1962 MISS:         34
cpu0_ITLB LOAD         ACCESS:       1996 HIT:       1962 MISS:         34
cpu0_ITLB RFO          ACCESS:          0 HIT:          0 MISS:          0
cpu0_ITLB PREFETCH     ACCESS:          0 HIT:          0 MISS:          0
cpu0_ITLB WRITE        ACCESS:          0 HIT:          0 MISS:          0
cpu0_ITLB TRANSLATION  ACCESS:          0 HIT:          0 MISS:          0
cpu0_ITLB PREFETCH REQUESTED:          0 ISSUED:          0 USEFUL:          0 USELESS:          0
cpu0_ITLB AVERAGE MISS LATENCY: 539 cycles
cpu0_L1D TOTAL        ACCESS:  162820143 HIT:  156682808 MISS:    6137335
cpu0_L1D LOAD         ACCESS:   90580237 HIT:   90574388 MISS:       5849
cpu0_L1D RFO          ACCESS:          0 HIT:          0 MISS:          0
cpu0_L1D PREFETCH     ACCESS:          0 HIT:          0 MISS:          0
cpu0_L1D WRITE        ACCESS:   72059352 HIT:   66072237 MISS:    5987115
cpu0_L1D TRANSLATION  ACCESS:     180554 HIT:      36183 MISS:     144371
cpu0_L1D PREFETCH REQUESTED:          0 ISSUED:          0 USEFUL:          0 USELESS:          0
cpu0_L1D AVERAGE MISS LATENCY: 79.68 cycles
cpu0_L1I TOTAL        ACCESS:       2307 HIT:       1050 MISS:       1257
cpu0_L1I LOAD         ACCESS:       2307 HIT:       1050 MISS:       1257
cpu0_L1I RFO          ACCESS:          0 HIT:          0 MISS:          0
cpu0_L1I PREFETCH     ACCESS:          0 HIT:          0 MISS:          0
cpu0_L1I WRITE        ACCESS:          0 HIT:          0 MISS:          0
cpu0_L1I TRANSLATION  ACCESS:          0 HIT:          0 MISS:          0
cpu0_L1I PREFETCH REQUESTED:          0 ISSUED:          0 USEFUL:          0 USELESS:          0
cpu0_L1I AVERAGE MISS LATENCY: 178.2 cycles
cpu0_L2C TOTAL        ACCESS:    1190503 HIT:     542895 MISS:     647608
cpu0_L2C LOAD         ACCESS:       3313 HIT:        424 MISS:       2889
cpu0_L2C RFO          ACCESS:     538069 HIT:       2948 MISS:     535121
cpu0_L2C PREFETCH     ACCESS:          0 HIT:          0 MISS:          0
cpu0_L2C WRITE        ACCESS:     538209 HIT:     538191 MISS:         18
cpu0_L2C TRANSLATION  ACCESS:     110912 HIT:       1332 MISS:     109580
cpu0_L2C PREFETCH REQUESTED:          0 ISSUED:          0 USEFUL:          0 USELESS:          0
cpu0_L2C AVERAGE MISS LATENCY: 984.2 cycles
cpu0_STLB TOTAL        ACCESS:     156159 HIT:         48 MISS:     156111
cpu0_STLB LOAD         ACCESS:     156159 HIT:         48 MISS:     156111
cpu0_STLB RFO          ACCESS:          0 HIT:          0 MISS:          0
cpu0_STLB PREFETCH     ACCESS:          0 HIT:          0 MISS:          0
cpu0_STLB WRITE        ACCESS:          0 HIT:          0 MISS:          0
cpu0_STLB TRANSLATION  ACCESS:          0 HIT:          0 MISS:          0
cpu0_STLB PREFETCH REQUESTED:          0 ISSUED:          0 USEFUL:          0 USELESS:          0
cpu0_STLB AVERAGE MISS LATENCY: 1554 cycles

DRAM Statistics

Channel 0 RQ ROW_BUFFER_HIT:     138688
  ROW_BUFFER_MISS:     477893
 AVG DBUS CONGESTED CYCLE: 3.975
WQ ROW_BUFFER_HIT: Channel 0 
  ROW_BUFFER_MISS:     120469
  FULL:     398914
