WARNING: physical memory size is smaller than virtual memory size.

*** ChampSim Multicore Out-of-Order Simulator ***
Warmup Instructions: 50000000
Simulation Instructions: 600000000
Number of CPUs: 1
Page size: 4096

CPU 0 Tage branch predictor
Off-chip DRAM Size: 4 GiB Channels: 1 Width: 64-bit Data Race: 3200 MT/s
Heartbeat CPU 0 instructions: 10000000 cycles: 2500202 heartbeat IPC: 4 cumulative IPC: 4 (Simulation time: 00 hr 00 min 40 sec)
Heartbeat CPU 0 instructions: 20000000 cycles: 5000202 heartbeat IPC: 4 cumulative IPC: 4 (Simulation time: 00 hr 01 min 22 sec)
Heartbeat CPU 0 instructions: 30000000 cycles: 7500202 heartbeat IPC: 4 cumulative IPC: 4 (Simulation time: 00 hr 02 min 02 sec)
Heartbeat CPU 0 instructions: 40000000 cycles: 10000202 heartbeat IPC: 4 cumulative IPC: 4 (Simulation time: 00 hr 02 min 40 sec)
Heartbeat CPU 0 instructions: 50000000 cycles: 12500202 heartbeat IPC: 4 cumulative IPC: 4 (Simulation time: 00 hr 03 min 18 sec)
Warmup finished CPU 0 instructions: 50000000 cycles: 12500203 cumulative IPC: 4 (Simulation time: 00 hr 03 min 18 sec)
Warmup complete CPU 0 instructions: 50000000 cycles: 12500203 cumulative IPC: 4 (Simulation time: 00 hr 03 min 18 sec)
Heartbeat CPU 0 instructions: 60000002 cycles: 15588405 heartbeat IPC: 3.238 cumulative IPC: 3.238 (Simulation time: 00 hr 04 min 05 sec)
Heartbeat CPU 0 instructions: 70000002 cycles: 18090973 heartbeat IPC: 3.996 cumulative IPC: 3.577 (Simulation time: 00 hr 04 min 50 sec)
Heartbeat CPU 0 instructions: 80000003 cycles: 20590995 heartbeat IPC: 4 cumulative IPC: 3.708 (Simulation time: 00 hr 05 min 37 sec)
Heartbeat CPU 0 instructions: 90000004 cycles: 23091016 heartbeat IPC: 4 cumulative IPC: 3.777 (Simulation time: 00 hr 06 min 22 sec)
Heartbeat CPU 0 instructions: 100000003 cycles: 25593758 heartbeat IPC: 3.996 cumulative IPC: 3.819 (Simulation time: 00 hr 07 min 04 sec)
Heartbeat CPU 0 instructions: 110000000 cycles: 28096296 heartbeat IPC: 3.996 cumulative IPC: 3.847 (Simulation time: 00 hr 07 min 48 sec)
Heartbeat CPU 0 instructions: 120000000 cycles: 30596320 heartbeat IPC: 4 cumulative IPC: 3.868 (Simulation time: 00 hr 08 min 32 sec)
Heartbeat CPU 0 instructions: 130000000 cycles: 33096343 heartbeat IPC: 4 cumulative IPC: 3.884 (Simulation time: 00 hr 09 min 20 sec)
Heartbeat CPU 0 instructions: 140000001 cycles: 35596380 heartbeat IPC: 4 cumulative IPC: 3.897 (Simulation time: 00 hr 10 min 05 sec)
Heartbeat CPU 0 instructions: 150000003 cycles: 38096402 heartbeat IPC: 4 cumulative IPC: 3.907 (Simulation time: 00 hr 10 min 49 sec)
Heartbeat CPU 0 instructions: 160000004 cycles: 40599663 heartbeat IPC: 3.995 cumulative IPC: 3.915 (Simulation time: 00 hr 11 min 36 sec)
Heartbeat CPU 0 instructions: 170000000 cycles: 43100554 heartbeat IPC: 3.999 cumulative IPC: 3.922 (Simulation time: 00 hr 12 min 21 sec)
Heartbeat CPU 0 instructions: 180000001 cycles: 45600575 heartbeat IPC: 4 cumulative IPC: 3.927 (Simulation time: 00 hr 13 min 08 sec)
Heartbeat CPU 0 instructions: 190000002 cycles: 48101432 heartbeat IPC: 3.999 cumulative IPC: 3.932 (Simulation time: 00 hr 13 min 52 sec)
Heartbeat CPU 0 instructions: 200000001 cycles: 50601453 heartbeat IPC: 4 cumulative IPC: 3.937 (Simulation time: 00 hr 14 min 38 sec)
Heartbeat CPU 0 instructions: 210000000 cycles: 53104869 heartbeat IPC: 3.995 cumulative IPC: 3.94 (Simulation time: 00 hr 15 min 24 sec)
Heartbeat CPU 0 instructions: 220000001 cycles: 55605281 heartbeat IPC: 3.999 cumulative IPC: 3.944 (Simulation time: 00 hr 16 min 11 sec)
Heartbeat CPU 0 instructions: 230000002 cycles: 58105302 heartbeat IPC: 4 cumulative IPC: 3.947 (Simulation time: 00 hr 16 min 53 sec)
Heartbeat CPU 0 instructions: 240000004 cycles: 60605340 heartbeat IPC: 4 cumulative IPC: 3.95 (Simulation time: 00 hr 17 min 39 sec)
Heartbeat CPU 0 instructions: 250000000 cycles: 63108189 heartbeat IPC: 3.995 cumulative IPC: 3.952 (Simulation time: 00 hr 18 min 25 sec)
Heartbeat CPU 0 instructions: 260000000 cycles: 65611089 heartbeat IPC: 3.995 cumulative IPC: 3.954 (Simulation time: 00 hr 19 min 12 sec)
Heartbeat CPU 0 instructions: 270000002 cycles: 68111111 heartbeat IPC: 4 cumulative IPC: 3.956 (Simulation time: 00 hr 19 min 56 sec)
Heartbeat CPU 0 instructions: 280000003 cycles: 70611150 heartbeat IPC: 4 cumulative IPC: 3.958 (Simulation time: 00 hr 20 min 47 sec)
Heartbeat CPU 0 instructions: 290000000 cycles: 73111170 heartbeat IPC: 4 cumulative IPC: 3.96 (Simulation time: 00 hr 21 min 30 sec)
Heartbeat CPU 0 instructions: 300000000 cycles: 75614620 heartbeat IPC: 3.994 cumulative IPC: 3.961 (Simulation time: 00 hr 22 min 15 sec)
Heartbeat CPU 0 instructions: 310000002 cycles: 78115024 heartbeat IPC: 3.999 cumulative IPC: 3.963 (Simulation time: 00 hr 23 min 03 sec)
Heartbeat CPU 0 instructions: 320000004 cycles: 80615045 heartbeat IPC: 4 cumulative IPC: 3.964 (Simulation time: 00 hr 23 min 52 sec)
Heartbeat CPU 0 instructions: 330000000 cycles: 83115066 heartbeat IPC: 4 cumulative IPC: 3.965 (Simulation time: 00 hr 24 min 39 sec)
Heartbeat CPU 0 instructions: 340000002 cycles: 85616620 heartbeat IPC: 3.998 cumulative IPC: 3.966 (Simulation time: 00 hr 25 min 21 sec)
Heartbeat CPU 0 instructions: 350000002 cycles: 88116642 heartbeat IPC: 4 cumulative IPC: 3.967 (Simulation time: 00 hr 26 min 04 sec)
Heartbeat CPU 0 instructions: 360000000 cycles: 90619102 heartbeat IPC: 3.996 cumulative IPC: 3.968 (Simulation time: 00 hr 26 min 51 sec)
Heartbeat CPU 0 instructions: 370000004 cycles: 93119514 heartbeat IPC: 3.999 cumulative IPC: 3.969 (Simulation time: 00 hr 27 min 36 sec)
Heartbeat CPU 0 instructions: 380000000 cycles: 95619534 heartbeat IPC: 4 cumulative IPC: 3.97 (Simulation time: 00 hr 28 min 24 sec)
Heartbeat CPU 0 instructions: 390000000 cycles: 98119556 heartbeat IPC: 4 cumulative IPC: 3.971 (Simulation time: 00 hr 29 min 08 sec)
Heartbeat CPU 0 instructions: 400000000 cycles: 100621857 heartbeat IPC: 3.996 cumulative IPC: 3.972 (Simulation time: 00 hr 29 min 53 sec)
Heartbeat CPU 0 instructions: 410000000 cycles: 103124300 heartbeat IPC: 3.996 cumulative IPC: 3.972 (Simulation time: 00 hr 30 min 38 sec)
Heartbeat CPU 0 instructions: 420000001 cycles: 105624322 heartbeat IPC: 4 cumulative IPC: 3.973 (Simulation time: 00 hr 31 min 26 sec)
Heartbeat CPU 0 instructions: 430000003 cycles: 108124343 heartbeat IPC: 4 cumulative IPC: 3.974 (Simulation time: 00 hr 32 min 14 sec)
Heartbeat CPU 0 instructions: 440000003 cycles: 110624365 heartbeat IPC: 4 cumulative IPC: 3.975 (Simulation time: 00 hr 33 min 01 sec)
Heartbeat CPU 0 instructions: 450000000 cycles: 113127346 heartbeat IPC: 3.995 cumulative IPC: 3.975 (Simulation time: 00 hr 33 min 43 sec)
Heartbeat CPU 0 instructions: 460000001 cycles: 115628149 heartbeat IPC: 3.999 cumulative IPC: 3.976 (Simulation time: 00 hr 34 min 26 sec)
Heartbeat CPU 0 instructions: 470000002 cycles: 118128170 heartbeat IPC: 4 cumulative IPC: 3.976 (Simulation time: 00 hr 35 min 06 sec)
Heartbeat CPU 0 instructions: 480000002 cycles: 120628192 heartbeat IPC: 4 cumulative IPC: 3.977 (Simulation time: 00 hr 35 min 46 sec)
Heartbeat CPU 0 instructions: 490000000 cycles: 123129751 heartbeat IPC: 3.998 cumulative IPC: 3.977 (Simulation time: 00 hr 36 min 26 sec)
Heartbeat CPU 0 instructions: 500000002 cycles: 125632344 heartbeat IPC: 3.996 cumulative IPC: 3.978 (Simulation time: 00 hr 37 min 07 sec)
Heartbeat CPU 0 instructions: 510000003 cycles: 128132734 heartbeat IPC: 3.999 cumulative IPC: 3.978 (Simulation time: 00 hr 37 min 47 sec)
Heartbeat CPU 0 instructions: 520000004 cycles: 130632755 heartbeat IPC: 4 cumulative IPC: 3.979 (Simulation time: 00 hr 38 min 26 sec)
Heartbeat CPU 0 instructions: 530000000 cycles: 133132798 heartbeat IPC: 4 cumulative IPC: 3.979 (Simulation time: 00 hr 39 min 04 sec)
Heartbeat CPU 0 instructions: 540000001 cycles: 135634746 heartbeat IPC: 3.997 cumulative IPC: 3.979 (Simulation time: 00 hr 39 min 43 sec)
Heartbeat CPU 0 instructions: 550000003 cycles: 138136198 heartbeat IPC: 3.998 cumulative IPC: 3.98 (Simulation time: 00 hr 40 min 21 sec)
Heartbeat CPU 0 instructions: 560000003 cycles: 140637742 heartbeat IPC: 3.998 cumulative IPC: 3.98 (Simulation time: 00 hr 40 min 59 sec)
Heartbeat CPU 0 instructions: 570000004 cycles: 143137764 heartbeat IPC: 4 cumulative IPC: 3.98 (Simulation time: 00 hr 41 min 36 sec)
Heartbeat CPU 0 instructions: 580000000 cycles: 145637786 heartbeat IPC: 4 cumulative IPC: 3.981 (Simulation time: 00 hr 42 min 14 sec)
Heartbeat CPU 0 instructions: 590000002 cycles: 148137823 heartbeat IPC: 4 cumulative IPC: 3.981 (Simulation time: 00 hr 42 min 51 sec)
*** Reached end of trace: (0, "traces/convolution.champsimtrace")
Heartbeat CPU 0 instructions: 600000000 cycles: 150646702 heartbeat IPC: 3.986 cumulative IPC: 3.981 (Simulation time: 00 hr 43 min 29 sec)
Heartbeat CPU 0 instructions: 610000002 cycles: 174290352 heartbeat IPC: 0.4229 cumulative IPC: 3.461 (Simulation time: 00 hr 46 min 21 sec)
Heartbeat CPU 0 instructions: 620000001 cycles: 195243331 heartbeat IPC: 0.4773 cumulative IPC: 3.119 (Simulation time: 00 hr 48 min 56 sec)
Heartbeat CPU 0 instructions: 630000001 cycles: 206370263 heartbeat IPC: 0.8987 cumulative IPC: 2.992 (Simulation time: 00 hr 50 min 30 sec)
Heartbeat CPU 0 instructions: 640000004 cycles: 216886742 heartbeat IPC: 0.9509 cumulative IPC: 2.887 (Simulation time: 00 hr 52 min 00 sec)
Heartbeat CPU 0 instructions: 650000001 cycles: 227254973 heartbeat IPC: 0.9645 cumulative IPC: 2.794 (Simulation time: 00 hr 53 min 27 sec)
Simulation finished CPU 0 instructions: 600000001 cycles: 214754771 cumulative IPC: 2.794 (Simulation time: 00 hr 53 min 27 sec)
Simulation complete CPU 0 instructions: 600000001 cycles: 214754771 cumulative IPC: 2.794 (Simulation time: 00 hr 53 min 27 sec)

ChampSim completed all CPUs

=== Simulation ===
CPU 0 runs traces/convolution.champsimtrace
Region of Interest Statistics

CPU 0 cumulative IPC: 2.794 instructions: 600000001 cycles: 214754771
CPU 0 Branch Prediction Accuracy: 100% MPKI: 0.002858 Average ROB Occupancy at Mispredict: 79.65
Branch type MPKI
BRANCH_DIRECT_JUMP: 0.000107
BRANCH_INDIRECT: 4.17e-05
BRANCH_CONDITIONAL: 0.00258
BRANCH_DIRECT_CALL: 0.000103
BRANCH_INDIRECT_CALL: 8.33e-06
BRANCH_RETURN: 1.83e-05

LLC TOTAL        ACCESS:    1183003 HIT:     535625 MISS:     647378
LLC LOAD         ACCESS:       2887 HIT:          4 MISS:       2883
LLC RFO          ACCESS:     535122 HIT:         22 MISS:     535100
LLC PREFETCH     ACCESS:          0 HIT:          0 MISS:          0
LLC WRITE        ACCESS:     535174 HIT:     535002 MISS:        172
LLC TRANSLATION  ACCESS:     109820 HIT:        597 MISS:     109223
LLC PREFETCH REQUESTED:          0 ISSUED:          0 USEFUL:          0 USELESS:          0
LLC AVERAGE MISS LATENCY: 990.7 cycles
cpu0_DTLB TOTAL        ACCESS:  113110772 HIT:  112757237 MISS:     353535
cpu0_DTLB LOAD         ACCESS:  113110772 HIT:  112757237 MISS:     353535
cpu0_DTLB RFO          ACCESS:          0 HIT:          0 MISS:          0
cpu0_DTLB PREFETCH     ACCESS:          0 HIT:          0 MISS:          0
cpu0_DTLB WRITE        ACCESS:          0 HIT:          0 MISS:          0
cpu0_DTLB TRANSLATION  ACCESS:          0 HIT:          0 MISS:          0
cpu0_DTLB PREFETCH REQUESTED:          0 ISSUED:          0 USEFUL:          0 USELESS:          0
cpu0_DTLB AVERAGE MISS LATENCY: 638 cycles
cpu0_ITLB TOTAL        ACCESS:       2132 HIT:       2098 MISS:         34
cpu0_ITLB LOAD         ACCESS:       2132 HIT:       2098 MISS:         34
cpu0_ITLB RFO          ACCESS:          0 HIT:          0 MISS:          0
cpu0_ITLB PREFETCH     ACCESS:          0 HIT:          0 MISS:          0
cpu0_ITLB WRITE        ACCESS:          0 HIT:          0 MISS:          0
cpu0_ITLB TRANSLATION  ACCESS:          0 HIT:          0 MISS:          0
cpu0_ITLB PREFETCH REQUESTED:          0 ISSUED:          0 USEFUL:          0 USELESS:          0
cpu0_ITLB AVERAGE MISS LATENCY: 702.9 cycles
cpu0_L1D TOTAL        ACCESS:  146343790 HIT:  140153285 MISS:    6190505
cpu0_L1D LOAD         ACCESS:   74191385 HIT:   74183615 MISS:       7770
cpu0_L1D RFO          ACCESS:          0 HIT:          0 MISS:          0
cpu0_L1D PREFETCH     ACCESS:          0 HIT:          0 MISS:          0
cpu0_L1D WRITE        ACCESS:   71971736 HIT:   65931394 MISS:    6040342
cpu0_L1D TRANSLATION  ACCESS:     180669 HIT:      38276 MISS:     142393
cpu0_L1D PREFETCH REQUESTED:          0 ISSUED:          0 USEFUL:          0 USELESS:          0
cpu0_L1D AVERAGE MISS LATENCY: 80.36 cycles
cpu0_L1I TOTAL        ACCESS:       2492 HIT:       1002 MISS:       1490
cpu0_L1I LOAD         ACCESS:       2492 HIT:       1002 MISS:       1490
cpu0_L1I RFO          ACCESS:          0 HIT:          0 MISS:          0
cpu0_L1I PREFETCH     ACCESS:          0 HIT:          0 MISS:          0
cpu0_L1I WRITE        ACCESS:          0 HIT:          0 MISS:          0
cpu0_L1I TRANSLATION  ACCESS:          0 HIT:          0 MISS:          0
cpu0_L1I PREFETCH REQUESTED:          0 ISSUED:          0 USEFUL:          0 USELESS:          0
cpu0_L1I AVERAGE MISS LATENCY: 620.7 cycles
cpu0_L2C TOTAL        ACCESS:    1193290 HIT:     545444 MISS:     647846
cpu0_L2C LOAD         ACCESS:       3311 HIT:        424 MISS:       2887
cpu0_L2C RFO          ACCESS:     539199 HIT:       4077 MISS:     535122
cpu0_L2C PREFETCH     ACCESS:          0 HIT:          0 MISS:          0
cpu0_L2C WRITE        ACCESS:     539638 HIT:     539622 MISS:         16
cpu0_L2C TRANSLATION  ACCESS:     111142 HIT:       1321 MISS:     109821
cpu0_L2C PREFETCH REQUESTED:          0 ISSUED:          0 USEFUL:          0 USELESS:          0
cpu0_L2C AVERAGE MISS LATENCY: 1011 cycles
cpu0_STLB TOTAL        ACCESS:     156149 HIT:         46 MISS:     156103
cpu0_STLB LOAD         ACCESS:     156149 HIT:         46 MISS:     156103
cpu0_STLB RFO          ACCESS:          0 HIT:          0 MISS:          0
cpu0_STLB PREFETCH     ACCESS:          0 HIT:          0 MISS:          0
cpu0_STLB WRITE        ACCESS:          0 HIT:          0 MISS:          0
cpu0_STLB TRANSLATION  ACCESS:          0 HIT:          0 MISS:          0
cpu0_STLB PREFETCH REQUESTED:          0 ISSUED:          0 USEFUL:          0 USELESS:          0
cpu0_STLB AVERAGE MISS LATENCY: 1644 cycles

DRAM Statistics

Channel 0 RQ ROW_BUFFER_HIT:     141277
  ROW_BUFFER_MISS:     505923
 AVG DBUS CONGESTED CYCLE: 3.981
WQ ROW_BUFFER_HIT: Channel 0 
  ROW_BUFFER_MISS:     106355
  FULL:     428856
