WARNING: physical memory size is smaller than virtual memory size.

*** ChampSim Multicore Out-of-Order Simulator ***
Warmup Instructions: 50000000
Simulation Instructions: 600000000
Number of CPUs: 1
Page size: 4096

Off-chip DRAM Size: 4 GiB Channels: 1 Width: 64-bit Data Race: 3200 MT/s
Heartbeat CPU 0 instructions: 10000000 cycles: 2500202 heartbeat IPC: 4 cumulative IPC: 4 (Simulation time: 00 hr 00 min 33 sec)
Heartbeat CPU 0 instructions: 20000000 cycles: 5000202 heartbeat IPC: 4 cumulative IPC: 4 (Simulation time: 00 hr 01 min 04 sec)
Heartbeat CPU 0 instructions: 30000000 cycles: 7500202 heartbeat IPC: 4 cumulative IPC: 4 (Simulation time: 00 hr 01 min 38 sec)
Heartbeat CPU 0 instructions: 40000000 cycles: 10000202 heartbeat IPC: 4 cumulative IPC: 4 (Simulation time: 00 hr 02 min 12 sec)
Heartbeat CPU 0 instructions: 50000000 cycles: 12500202 heartbeat IPC: 4 cumulative IPC: 4 (Simulation time: 00 hr 02 min 47 sec)
Warmup finished CPU 0 instructions: 50000000 cycles: 12500203 cumulative IPC: 4 (Simulation time: 00 hr 02 min 47 sec)
Warmup complete CPU 0 instructions: 50000000 cycles: 12500203 cumulative IPC: 4 (Simulation time: 00 hr 02 min 47 sec)
Heartbeat CPU 0 instructions: 60000002 cycles: 15816808 heartbeat IPC: 3.015 cumulative IPC: 3.015 (Simulation time: 00 hr 03 min 28 sec)
Heartbeat CPU 0 instructions: 70000002 cycles: 18523724 heartbeat IPC: 3.694 cumulative IPC: 3.32 (Simulation time: 00 hr 04 min 08 sec)
Heartbeat CPU 0 instructions: 80000003 cycles: 21227321 heartbeat IPC: 3.699 cumulative IPC: 3.438 (Simulation time: 00 hr 04 min 45 sec)
Heartbeat CPU 0 instructions: 90000004 cycles: 23934268 heartbeat IPC: 3.694 cumulative IPC: 3.498 (Simulation time: 00 hr 05 min 24 sec)
Heartbeat CPU 0 instructions: 100000003 cycles: 26646660 heartbeat IPC: 3.687 cumulative IPC: 3.534 (Simulation time: 00 hr 06 min 03 sec)
Heartbeat CPU 0 instructions: 110000000 cycles: 29355094 heartbeat IPC: 3.692 cumulative IPC: 3.56 (Simulation time: 00 hr 06 min 45 sec)
Heartbeat CPU 0 instructions: 120000000 cycles: 32060470 heartbeat IPC: 3.696 cumulative IPC: 3.579 (Simulation time: 00 hr 07 min 25 sec)
Heartbeat CPU 0 instructions: 130000000 cycles: 34766875 heartbeat IPC: 3.695 cumulative IPC: 3.593 (Simulation time: 00 hr 08 min 09 sec)
Heartbeat CPU 0 instructions: 140000001 cycles: 37473731 heartbeat IPC: 3.694 cumulative IPC: 3.604 (Simulation time: 00 hr 08 min 53 sec)
Heartbeat CPU 0 instructions: 150000003 cycles: 40181084 heartbeat IPC: 3.694 cumulative IPC: 3.613 (Simulation time: 00 hr 09 min 36 sec)
Heartbeat CPU 0 instructions: 160000003 cycles: 42889207 heartbeat IPC: 3.693 cumulative IPC: 3.62 (Simulation time: 00 hr 10 min 12 sec)
Heartbeat CPU 0 instructions: 170000001 cycles: 45599024 heartbeat IPC: 3.69 cumulative IPC: 3.626 (Simulation time: 00 hr 10 min 53 sec)
Heartbeat CPU 0 instructions: 180000001 cycles: 48306352 heartbeat IPC: 3.694 cumulative IPC: 3.631 (Simulation time: 00 hr 11 min 32 sec)
Heartbeat CPU 0 instructions: 190000002 cycles: 51011040 heartbeat IPC: 3.697 cumulative IPC: 3.635 (Simulation time: 00 hr 12 min 10 sec)
Heartbeat CPU 0 instructions: 200000001 cycles: 53718539 heartbeat IPC: 3.693 cumulative IPC: 3.639 (Simulation time: 00 hr 12 min 48 sec)
Heartbeat CPU 0 instructions: 210000000 cycles: 56429002 heartbeat IPC: 3.689 cumulative IPC: 3.642 (Simulation time: 00 hr 13 min 23 sec)
Heartbeat CPU 0 instructions: 220000001 cycles: 59138441 heartbeat IPC: 3.691 cumulative IPC: 3.645 (Simulation time: 00 hr 14 min 00 sec)
Heartbeat CPU 0 instructions: 230000002 cycles: 61846912 heartbeat IPC: 3.692 cumulative IPC: 3.648 (Simulation time: 00 hr 14 min 39 sec)
Heartbeat CPU 0 instructions: 240000004 cycles: 64553061 heartbeat IPC: 3.695 cumulative IPC: 3.65 (Simulation time: 00 hr 15 min 15 sec)
Heartbeat CPU 0 instructions: 250000000 cycles: 67263423 heartbeat IPC: 3.69 cumulative IPC: 3.652 (Simulation time: 00 hr 15 min 51 sec)
Heartbeat CPU 0 instructions: 260000000 cycles: 69968000 heartbeat IPC: 3.697 cumulative IPC: 3.654 (Simulation time: 00 hr 16 min 33 sec)
Heartbeat CPU 0 instructions: 270000002 cycles: 72674629 heartbeat IPC: 3.695 cumulative IPC: 3.656 (Simulation time: 00 hr 17 min 17 sec)
Heartbeat CPU 0 instructions: 280000003 cycles: 75381311 heartbeat IPC: 3.695 cumulative IPC: 3.658 (Simulation time: 00 hr 17 min 55 sec)
Heartbeat CPU 0 instructions: 290000003 cycles: 78088739 heartbeat IPC: 3.694 cumulative IPC: 3.659 (Simulation time: 00 hr 18 min 30 sec)
Heartbeat CPU 0 instructions: 300000000 cycles: 80796571 heartbeat IPC: 3.693 cumulative IPC: 3.661 (Simulation time: 00 hr 19 min 06 sec)
Heartbeat CPU 0 instructions: 310000002 cycles: 83503644 heartbeat IPC: 3.694 cumulative IPC: 3.662 (Simulation time: 00 hr 19 min 42 sec)
Heartbeat CPU 0 instructions: 320000004 cycles: 86207658 heartbeat IPC: 3.698 cumulative IPC: 3.663 (Simulation time: 00 hr 20 min 18 sec)
Heartbeat CPU 0 instructions: 330000000 cycles: 88916207 heartbeat IPC: 3.692 cumulative IPC: 3.664 (Simulation time: 00 hr 20 min 54 sec)
Heartbeat CPU 0 instructions: 340000002 cycles: 91621479 heartbeat IPC: 3.696 cumulative IPC: 3.665 (Simulation time: 00 hr 21 min 30 sec)
Heartbeat CPU 0 instructions: 350000002 cycles: 94331214 heartbeat IPC: 3.69 cumulative IPC: 3.666 (Simulation time: 00 hr 22 min 06 sec)
Heartbeat CPU 0 instructions: 360000001 cycles: 97041573 heartbeat IPC: 3.69 cumulative IPC: 3.667 (Simulation time: 00 hr 22 min 42 sec)
Heartbeat CPU 0 instructions: 370000004 cycles: 99751651 heartbeat IPC: 3.69 cumulative IPC: 3.668 (Simulation time: 00 hr 23 min 18 sec)
Heartbeat CPU 0 instructions: 380000000 cycles: 102456490 heartbeat IPC: 3.697 cumulative IPC: 3.668 (Simulation time: 00 hr 23 min 53 sec)
Heartbeat CPU 0 instructions: 390000004 cycles: 105164059 heartbeat IPC: 3.693 cumulative IPC: 3.669 (Simulation time: 00 hr 24 min 28 sec)
Heartbeat CPU 0 instructions: 400000000 cycles: 107873166 heartbeat IPC: 3.691 cumulative IPC: 3.67 (Simulation time: 00 hr 25 min 04 sec)
Heartbeat CPU 0 instructions: 410000000 cycles: 110580318 heartbeat IPC: 3.694 cumulative IPC: 3.67 (Simulation time: 00 hr 25 min 39 sec)
Heartbeat CPU 0 instructions: 420000001 cycles: 113285642 heartbeat IPC: 3.696 cumulative IPC: 3.671 (Simulation time: 00 hr 26 min 13 sec)
Heartbeat CPU 0 instructions: 430000003 cycles: 115993198 heartbeat IPC: 3.693 cumulative IPC: 3.672 (Simulation time: 00 hr 26 min 48 sec)
Heartbeat CPU 0 instructions: 440000003 cycles: 118701633 heartbeat IPC: 3.692 cumulative IPC: 3.672 (Simulation time: 00 hr 27 min 23 sec)
Heartbeat CPU 0 instructions: 450000004 cycles: 121410940 heartbeat IPC: 3.691 cumulative IPC: 3.673 (Simulation time: 00 hr 27 min 58 sec)
Heartbeat CPU 0 instructions: 460000001 cycles: 124123297 heartbeat IPC: 3.687 cumulative IPC: 3.673 (Simulation time: 00 hr 28 min 34 sec)
Heartbeat CPU 0 instructions: 470000002 cycles: 126828507 heartbeat IPC: 3.697 cumulative IPC: 3.674 (Simulation time: 00 hr 29 min 10 sec)
Heartbeat CPU 0 instructions: 480000001 cycles: 129536353 heartbeat IPC: 3.693 cumulative IPC: 3.674 (Simulation time: 00 hr 29 min 46 sec)
Heartbeat CPU 0 instructions: 490000000 cycles: 132243798 heartbeat IPC: 3.694 cumulative IPC: 3.675 (Simulation time: 00 hr 30 min 21 sec)
Heartbeat CPU 0 instructions: 500000002 cycles: 134951994 heartbeat IPC: 3.692 cumulative IPC: 3.675 (Simulation time: 00 hr 30 min 56 sec)
Heartbeat CPU 0 instructions: 510000003 cycles: 137660367 heartbeat IPC: 3.692 cumulative IPC: 3.675 (Simulation time: 00 hr 31 min 32 sec)
Heartbeat CPU 0 instructions: 520000004 cycles: 140367450 heartbeat IPC: 3.694 cumulative IPC: 3.676 (Simulation time: 00 hr 32 min 08 sec)
Heartbeat CPU 0 instructions: 530000000 cycles: 143076719 heartbeat IPC: 3.691 cumulative IPC: 3.676 (Simulation time: 00 hr 32 min 44 sec)
Heartbeat CPU 0 instructions: 540000000 cycles: 145786969 heartbeat IPC: 3.69 cumulative IPC: 3.676 (Simulation time: 00 hr 33 min 22 sec)
Heartbeat CPU 0 instructions: 550000003 cycles: 148493191 heartbeat IPC: 3.695 cumulative IPC: 3.677 (Simulation time: 00 hr 34 min 00 sec)
Heartbeat CPU 0 instructions: 560000003 cycles: 151198592 heartbeat IPC: 3.696 cumulative IPC: 3.677 (Simulation time: 00 hr 34 min 39 sec)
Heartbeat CPU 0 instructions: 570000004 cycles: 153907078 heartbeat IPC: 3.692 cumulative IPC: 3.677 (Simulation time: 00 hr 35 min 17 sec)
Heartbeat CPU 0 instructions: 580000000 cycles: 156614808 heartbeat IPC: 3.693 cumulative IPC: 3.678 (Simulation time: 00 hr 35 min 55 sec)
Heartbeat CPU 0 instructions: 590000002 cycles: 159319532 heartbeat IPC: 3.697 cumulative IPC: 3.678 (Simulation time: 00 hr 36 min 34 sec)
*** Reached end of trace: (0, "traces/convolution.champsimtrace")
Heartbeat CPU 0 instructions: 600000000 cycles: 162034676 heartbeat IPC: 3.683 cumulative IPC: 3.678 (Simulation time: 00 hr 37 min 13 sec)
Heartbeat CPU 0 instructions: 610000002 cycles: 185325433 heartbeat IPC: 0.4294 cumulative IPC: 3.24 (Simulation time: 00 hr 40 min 14 sec)
Heartbeat CPU 0 instructions: 620000001 cycles: 206105144 heartbeat IPC: 0.4812 cumulative IPC: 2.944 (Simulation time: 00 hr 43 min 09 sec)
Heartbeat CPU 0 instructions: 630000001 cycles: 216912526 heartbeat IPC: 0.9253 cumulative IPC: 2.837 (Simulation time: 00 hr 44 min 53 sec)
Heartbeat CPU 0 instructions: 640000004 cycles: 228170344 heartbeat IPC: 0.8883 cumulative IPC: 2.736 (Simulation time: 00 hr 46 min 36 sec)
Heartbeat CPU 0 instructions: 650000001 cycles: 240494146 heartbeat IPC: 0.8114 cumulative IPC: 2.632 (Simulation time: 00 hr 48 min 29 sec)
Simulation finished CPU 0 instructions: 600000001 cycles: 227993944 cumulative IPC: 2.632 (Simulation time: 00 hr 48 min 29 sec)
Simulation complete CPU 0 instructions: 600000001 cycles: 227993944 cumulative IPC: 2.632 (Simulation time: 00 hr 48 min 29 sec)

ChampSim completed all CPUs

=== Simulation ===
CPU 0 runs traces/convolution.champsimtrace
Region of Interest Statistics

CPU 0 cumulative IPC: 2.632 instructions: 600000001 cycles: 227993944
CPU 0 Branch Prediction Accuracy: 99.3% MPKI: 1.265 Average ROB Occupancy at Mispredict: 64.12
Branch type MPKI
BRANCH_DIRECT_JUMP: 0.000107
BRANCH_INDIRECT: 4.17e-05
BRANCH_CONDITIONAL: 1.26
BRANCH_DIRECT_CALL: 0.000103
BRANCH_INDIRECT_CALL: 8.33e-06
BRANCH_RETURN: 1.83e-05

LLC TOTAL        ACCESS:    1185776 HIT:      36238 MISS:    1149538
LLC LOAD         ACCESS:       2889 HIT:        577 MISS:       2312
LLC RFO          ACCESS:     535118 HIT:       3222 MISS:     531896
LLC PREFETCH     ACCESS:       2102 HIT:        561 MISS:       1541
LLC WRITE        ACCESS:     535180 HIT:      31653 MISS:     503527
LLC TRANSLATION  ACCESS:     110487 HIT:        225 MISS:     110262
LLC PREFETCH REQUESTED:       2102 ISSUED:       2102 USEFUL:        809 USELESS:          7
LLC AVERAGE MISS LATENCY: 597.1 cycles
cpu0_DTLB TOTAL        ACCESS:  121560327 HIT:  121206642 MISS:     353685
cpu0_DTLB LOAD         ACCESS:  121560327 HIT:  121206642 MISS:     353685
cpu0_DTLB RFO          ACCESS:          0 HIT:          0 MISS:          0
cpu0_DTLB PREFETCH     ACCESS:          0 HIT:          0 MISS:          0
cpu0_DTLB WRITE        ACCESS:          0 HIT:          0 MISS:          0
cpu0_DTLB TRANSLATION  ACCESS:          0 HIT:          0 MISS:          0
cpu0_DTLB PREFETCH REQUESTED:          0 ISSUED:          0 USEFUL:          0 USELESS:          0
cpu0_DTLB AVERAGE MISS LATENCY: 642.8 cycles
cpu0_ITLB TOTAL        ACCESS:       2029 HIT:       1994 MISS:         35
cpu0_ITLB LOAD         ACCESS:       2029 HIT:       1994 MISS:         35
cpu0_ITLB RFO          ACCESS:          0 HIT:          0 MISS:          0
cpu0_ITLB PREFETCH     ACCESS:          0 HIT:          0 MISS:          0
cpu0_ITLB WRITE        ACCESS:          0 HIT:          0 MISS:          0
cpu0_ITLB TRANSLATION  ACCESS:          0 HIT:          0 MISS:          0
cpu0_ITLB PREFETCH REQUESTED:          0 ISSUED:          0 USEFUL:          0 USELESS:          0
cpu0_ITLB AVERAGE MISS LATENCY: 796.2 cycles
cpu0_L1D TOTAL        ACCESS:  162700137 HIT:  156530916 MISS:    6169221
cpu0_L1D LOAD         ACCESS:   90480611 HIT:   90474202 MISS:       6409
cpu0_L1D RFO          ACCESS:          0 HIT:          0 MISS:          0
cpu0_L1D PREFETCH     ACCESS:          0 HIT:          0 MISS:          0
cpu0_L1D WRITE        ACCESS:   72038226 HIT:   66018288 MISS:    6019938
cpu0_L1D TRANSLATION  ACCESS:     181300 HIT:      38426 MISS:     142874
cpu0_L1D PREFETCH REQUESTED:          0 ISSUED:          0 USEFUL:          0 USELESS:          0
cpu0_L1D AVERAGE MISS LATENCY: 86.36 cycles
cpu0_L1I TOTAL        ACCESS:       2343 HIT:       1014 MISS:       1329
cpu0_L1I LOAD         ACCESS:       2343 HIT:       1014 MISS:       1329
cpu0_L1I RFO          ACCESS:          0 HIT:          0 MISS:          0
cpu0_L1I PREFETCH     ACCESS:          0 HIT:          0 MISS:          0
cpu0_L1I WRITE        ACCESS:          0 HIT:          0 MISS:          0
cpu0_L1I TRANSLATION  ACCESS:          0 HIT:          0 MISS:          0
cpu0_L1I PREFETCH REQUESTED:          0 ISSUED:          0 USEFUL:          0 USELESS:          0
cpu0_L1I AVERAGE MISS LATENCY: 780.1 cycles
cpu0_L2C TOTAL        ACCESS:    1191655 HIT:     543142 MISS:     648513
cpu0_L2C LOAD         ACCESS:       3313 HIT:        424 MISS:       2889
cpu0_L2C RFO          ACCESS:     538102 HIT:       2983 MISS:     535119
cpu0_L2C PREFETCH     ACCESS:          0 HIT:          0 MISS:          0
cpu0_L2C WRITE        ACCESS:     538229 HIT:     538212 MISS:         17
cpu0_L2C TRANSLATION  ACCESS:     112011 HIT:       1523 MISS:     110488
cpu0_L2C PREFETCH REQUESTED:          0 ISSUED:          0 USEFUL:          0 USELESS:          0
cpu0_L2C AVERAGE MISS LATENCY: 1077 cycles
cpu0_STLB TOTAL        ACCESS:     156162 HIT:         52 MISS:     156110
cpu0_STLB LOAD         ACCESS:     156162 HIT:         52 MISS:     156110
cpu0_STLB RFO          ACCESS:          0 HIT:          0 MISS:          0
cpu0_STLB PREFETCH     ACCESS:          0 HIT:          0 MISS:          0
cpu0_STLB WRITE        ACCESS:          0 HIT:          0 MISS:          0
cpu0_STLB TRANSLATION  ACCESS:          0 HIT:          0 MISS:          0
cpu0_STLB PREFETCH REQUESTED:          0 ISSUED:          0 USEFUL:          0 USELESS:          0
cpu0_STLB AVERAGE MISS LATENCY: 1669 cycles

DRAM Statistics

Channel 0 RQ ROW_BUFFER_HIT:     144053
  ROW_BUFFER_MISS:     501035
 AVG DBUS CONGESTED CYCLE: 3.977
WQ ROW_BUFFER_HIT: Channel 0 
  ROW_BUFFER_MISS:     115820
  FULL:     430693
Final OPTGen Hits: 189
Final OPTGen Access: 16943
Final OPTGEN Hit Rate: 1.11551
