WARNING: physical memory size is smaller than virtual memory size.

*** ChampSim Multicore Out-of-Order Simulator ***
Warmup Instructions: 50000000
Simulation Instructions: 600000000
Number of CPUs: 1
Page size: 4096

Off-chip DRAM Size: 4 GiB Channels: 1 Width: 64-bit Data Race: 3200 MT/s
Heartbeat CPU 0 instructions: 10000000 cycles: 2500202 heartbeat IPC: 4 cumulative IPC: 4 (Simulation time: 00 hr 00 min 32 sec)
Heartbeat CPU 0 instructions: 20000000 cycles: 5000202 heartbeat IPC: 4 cumulative IPC: 4 (Simulation time: 00 hr 01 min 07 sec)
Heartbeat CPU 0 instructions: 30000000 cycles: 7500202 heartbeat IPC: 4 cumulative IPC: 4 (Simulation time: 00 hr 01 min 41 sec)
Heartbeat CPU 0 instructions: 40000000 cycles: 10000202 heartbeat IPC: 4 cumulative IPC: 4 (Simulation time: 00 hr 02 min 16 sec)
Heartbeat CPU 0 instructions: 50000000 cycles: 12500202 heartbeat IPC: 4 cumulative IPC: 4 (Simulation time: 00 hr 02 min 55 sec)
Warmup finished CPU 0 instructions: 50000000 cycles: 12500203 cumulative IPC: 4 (Simulation time: 00 hr 02 min 55 sec)
Warmup complete CPU 0 instructions: 50000000 cycles: 12500203 cumulative IPC: 4 (Simulation time: 00 hr 02 min 55 sec)
Heartbeat CPU 0 instructions: 60000002 cycles: 15773351 heartbeat IPC: 3.055 cumulative IPC: 3.055 (Simulation time: 00 hr 03 min 41 sec)
Heartbeat CPU 0 instructions: 70000002 cycles: 18478993 heartbeat IPC: 3.696 cumulative IPC: 3.345 (Simulation time: 00 hr 04 min 23 sec)
Heartbeat CPU 0 instructions: 80000003 cycles: 21182590 heartbeat IPC: 3.699 cumulative IPC: 3.455 (Simulation time: 00 hr 05 min 10 sec)
Heartbeat CPU 0 instructions: 90000004 cycles: 23886153 heartbeat IPC: 3.699 cumulative IPC: 3.513 (Simulation time: 00 hr 05 min 48 sec)
Heartbeat CPU 0 instructions: 100000003 cycles: 26592162 heartbeat IPC: 3.695 cumulative IPC: 3.548 (Simulation time: 00 hr 06 min 30 sec)
Heartbeat CPU 0 instructions: 110000000 cycles: 29296267 heartbeat IPC: 3.698 cumulative IPC: 3.572 (Simulation time: 00 hr 07 min 11 sec)
Heartbeat CPU 0 instructions: 120000000 cycles: 31999621 heartbeat IPC: 3.699 cumulative IPC: 3.59 (Simulation time: 00 hr 07 min 49 sec)
Heartbeat CPU 0 instructions: 130000000 cycles: 34703242 heartbeat IPC: 3.699 cumulative IPC: 3.603 (Simulation time: 00 hr 08 min 29 sec)
Heartbeat CPU 0 instructions: 140000001 cycles: 37406791 heartbeat IPC: 3.699 cumulative IPC: 3.614 (Simulation time: 00 hr 09 min 08 sec)
Heartbeat CPU 0 instructions: 150000003 cycles: 40110375 heartbeat IPC: 3.699 cumulative IPC: 3.622 (Simulation time: 00 hr 09 min 49 sec)
Heartbeat CPU 0 instructions: 160000003 cycles: 42816892 heartbeat IPC: 3.695 cumulative IPC: 3.628 (Simulation time: 00 hr 10 min 29 sec)
Heartbeat CPU 0 instructions: 170000001 cycles: 45520650 heartbeat IPC: 3.699 cumulative IPC: 3.634 (Simulation time: 00 hr 11 min 07 sec)
Heartbeat CPU 0 instructions: 180000001 cycles: 48224223 heartbeat IPC: 3.699 cumulative IPC: 3.639 (Simulation time: 00 hr 11 min 43 sec)
Heartbeat CPU 0 instructions: 190000002 cycles: 50929348 heartbeat IPC: 3.697 cumulative IPC: 3.643 (Simulation time: 00 hr 12 min 18 sec)
Heartbeat CPU 0 instructions: 200000001 cycles: 53632934 heartbeat IPC: 3.699 cumulative IPC: 3.647 (Simulation time: 00 hr 12 min 53 sec)
Heartbeat CPU 0 instructions: 210000000 cycles: 56338959 heartbeat IPC: 3.695 cumulative IPC: 3.65 (Simulation time: 00 hr 13 min 27 sec)
Heartbeat CPU 0 instructions: 220000001 cycles: 59042316 heartbeat IPC: 3.699 cumulative IPC: 3.653 (Simulation time: 00 hr 14 min 01 sec)
Heartbeat CPU 0 instructions: 230000002 cycles: 61745938 heartbeat IPC: 3.699 cumulative IPC: 3.655 (Simulation time: 00 hr 14 min 35 sec)
Heartbeat CPU 0 instructions: 240000004 cycles: 64449571 heartbeat IPC: 3.699 cumulative IPC: 3.657 (Simulation time: 00 hr 15 min 09 sec)
Heartbeat CPU 0 instructions: 250000000 cycles: 67154965 heartbeat IPC: 3.696 cumulative IPC: 3.659 (Simulation time: 00 hr 15 min 43 sec)
Heartbeat CPU 0 instructions: 260000000 cycles: 69859433 heartbeat IPC: 3.698 cumulative IPC: 3.661 (Simulation time: 00 hr 16 min 16 sec)
Heartbeat CPU 0 instructions: 270000002 cycles: 72562796 heartbeat IPC: 3.699 cumulative IPC: 3.663 (Simulation time: 00 hr 16 min 49 sec)
Heartbeat CPU 0 instructions: 280000003 cycles: 75266421 heartbeat IPC: 3.699 cumulative IPC: 3.664 (Simulation time: 00 hr 17 min 22 sec)
Heartbeat CPU 0 instructions: 290000003 cycles: 77970076 heartbeat IPC: 3.699 cumulative IPC: 3.666 (Simulation time: 00 hr 17 min 54 sec)
Heartbeat CPU 0 instructions: 300000000 cycles: 80676758 heartbeat IPC: 3.695 cumulative IPC: 3.667 (Simulation time: 00 hr 18 min 26 sec)
Heartbeat CPU 0 instructions: 310000002 cycles: 83380005 heartbeat IPC: 3.699 cumulative IPC: 3.668 (Simulation time: 00 hr 18 min 59 sec)
Heartbeat CPU 0 instructions: 320000004 cycles: 86083382 heartbeat IPC: 3.699 cumulative IPC: 3.669 (Simulation time: 00 hr 19 min 31 sec)
Heartbeat CPU 0 instructions: 330000000 cycles: 88786992 heartbeat IPC: 3.699 cumulative IPC: 3.67 (Simulation time: 00 hr 20 min 03 sec)
Heartbeat CPU 0 instructions: 340000002 cycles: 91492736 heartbeat IPC: 3.696 cumulative IPC: 3.671 (Simulation time: 00 hr 20 min 35 sec)
Heartbeat CPU 0 instructions: 350000002 cycles: 94196181 heartbeat IPC: 3.699 cumulative IPC: 3.672 (Simulation time: 00 hr 21 min 07 sec)
Heartbeat CPU 0 instructions: 360000001 cycles: 96902079 heartbeat IPC: 3.696 cumulative IPC: 3.673 (Simulation time: 00 hr 21 min 39 sec)
Heartbeat CPU 0 instructions: 370000004 cycles: 99605428 heartbeat IPC: 3.699 cumulative IPC: 3.674 (Simulation time: 00 hr 22 min 11 sec)
Heartbeat CPU 0 instructions: 380000000 cycles: 102308996 heartbeat IPC: 3.699 cumulative IPC: 3.674 (Simulation time: 00 hr 22 min 44 sec)
Heartbeat CPU 0 instructions: 390000004 cycles: 105012716 heartbeat IPC: 3.699 cumulative IPC: 3.675 (Simulation time: 00 hr 23 min 16 sec)
Heartbeat CPU 0 instructions: 400000000 cycles: 107718389 heartbeat IPC: 3.696 cumulative IPC: 3.676 (Simulation time: 00 hr 23 min 48 sec)
Heartbeat CPU 0 instructions: 410000000 cycles: 110422543 heartbeat IPC: 3.698 cumulative IPC: 3.676 (Simulation time: 00 hr 24 min 20 sec)
Heartbeat CPU 0 instructions: 420000001 cycles: 113125989 heartbeat IPC: 3.699 cumulative IPC: 3.677 (Simulation time: 00 hr 24 min 52 sec)
Heartbeat CPU 0 instructions: 430000003 cycles: 115829697 heartbeat IPC: 3.699 cumulative IPC: 3.678 (Simulation time: 00 hr 25 min 24 sec)
Heartbeat CPU 0 instructions: 440000003 cycles: 118533390 heartbeat IPC: 3.699 cumulative IPC: 3.678 (Simulation time: 00 hr 25 min 56 sec)
Heartbeat CPU 0 instructions: 450000004 cycles: 121239763 heartbeat IPC: 3.695 cumulative IPC: 3.679 (Simulation time: 00 hr 26 min 28 sec)
Heartbeat CPU 0 instructions: 460000001 cycles: 123943120 heartbeat IPC: 3.699 cumulative IPC: 3.679 (Simulation time: 00 hr 26 min 59 sec)
Heartbeat CPU 0 instructions: 470000002 cycles: 126646596 heartbeat IPC: 3.699 cumulative IPC: 3.679 (Simulation time: 00 hr 27 min 31 sec)
Heartbeat CPU 0 instructions: 480000001 cycles: 129350345 heartbeat IPC: 3.699 cumulative IPC: 3.68 (Simulation time: 00 hr 28 min 03 sec)
Heartbeat CPU 0 instructions: 490000000 cycles: 132054387 heartbeat IPC: 3.698 cumulative IPC: 3.68 (Simulation time: 00 hr 28 min 35 sec)
Heartbeat CPU 0 instructions: 500000002 cycles: 134759973 heartbeat IPC: 3.696 cumulative IPC: 3.681 (Simulation time: 00 hr 29 min 08 sec)
Heartbeat CPU 0 instructions: 510000003 cycles: 137463298 heartbeat IPC: 3.699 cumulative IPC: 3.681 (Simulation time: 00 hr 29 min 39 sec)
Heartbeat CPU 0 instructions: 520000004 cycles: 140166770 heartbeat IPC: 3.699 cumulative IPC: 3.681 (Simulation time: 00 hr 30 min 11 sec)
Heartbeat CPU 0 instructions: 530000000 cycles: 142870427 heartbeat IPC: 3.699 cumulative IPC: 3.682 (Simulation time: 00 hr 30 min 42 sec)
Heartbeat CPU 0 instructions: 540000000 cycles: 145576851 heartbeat IPC: 3.695 cumulative IPC: 3.682 (Simulation time: 00 hr 31 min 13 sec)
Heartbeat CPU 0 instructions: 550000003 cycles: 148280235 heartbeat IPC: 3.699 cumulative IPC: 3.682 (Simulation time: 00 hr 31 min 44 sec)
Heartbeat CPU 0 instructions: 560000003 cycles: 150984025 heartbeat IPC: 3.699 cumulative IPC: 3.683 (Simulation time: 00 hr 32 min 15 sec)
Heartbeat CPU 0 instructions: 570000004 cycles: 153687364 heartbeat IPC: 3.699 cumulative IPC: 3.683 (Simulation time: 00 hr 32 min 46 sec)
Heartbeat CPU 0 instructions: 580000000 cycles: 156391068 heartbeat IPC: 3.699 cumulative IPC: 3.683 (Simulation time: 00 hr 33 min 17 sec)
Heartbeat CPU 0 instructions: 590000002 cycles: 159094651 heartbeat IPC: 3.699 cumulative IPC: 3.684 (Simulation time: 00 hr 33 min 48 sec)
*** Reached end of trace: (0, "traces/convolution.champsimtrace")
Heartbeat CPU 0 instructions: 600000000 cycles: 161809230 heartbeat IPC: 3.684 cumulative IPC: 3.684 (Simulation time: 00 hr 34 min 18 sec)
Heartbeat CPU 0 instructions: 610000002 cycles: 190592543 heartbeat IPC: 0.3474 cumulative IPC: 3.144 (Simulation time: 00 hr 37 min 23 sec)
Heartbeat CPU 0 instructions: 620000001 cycles: 216879670 heartbeat IPC: 0.3804 cumulative IPC: 2.789 (Simulation time: 00 hr 40 min 10 sec)
Heartbeat CPU 0 instructions: 630000001 cycles: 227252146 heartbeat IPC: 0.9641 cumulative IPC: 2.701 (Simulation time: 00 hr 41 min 22 sec)
Heartbeat CPU 0 instructions: 640000004 cycles: 237699979 heartbeat IPC: 0.9571 cumulative IPC: 2.62 (Simulation time: 00 hr 42 min 28 sec)
Heartbeat CPU 0 instructions: 650000001 cycles: 248142950 heartbeat IPC: 0.9576 cumulative IPC: 2.546 (Simulation time: 00 hr 43 min 29 sec)
Simulation finished CPU 0 instructions: 600000001 cycles: 235642748 cumulative IPC: 2.546 (Simulation time: 00 hr 43 min 29 sec)
Simulation complete CPU 0 instructions: 600000001 cycles: 235642748 cumulative IPC: 2.546 (Simulation time: 00 hr 43 min 29 sec)

ChampSim completed all CPUs

=== Simulation ===
CPU 0 runs traces/convolution.champsimtrace
Region of Interest Statistics

CPU 0 cumulative IPC: 2.546 instructions: 600000001 cycles: 235642748
CPU 0 Branch Prediction Accuracy: 99.3% MPKI: 1.265 Average ROB Occupancy at Mispredict: 63.97
Branch type MPKI
BRANCH_DIRECT_JUMP: 0.000107
BRANCH_INDIRECT: 4.17e-05
BRANCH_CONDITIONAL: 1.26
BRANCH_DIRECT_CALL: 0.000103
BRANCH_INDIRECT_CALL: 8.33e-06
BRANCH_RETURN: 1.83e-05

LLC TOTAL        ACCESS:    1186157 HIT:     505885 MISS:     680272
LLC LOAD         ACCESS:       2890 HIT:        853 MISS:       2037
LLC RFO          ACCESS:     535119 HIT:         40 MISS:     535079
LLC PREFETCH     ACCESS:       2890 HIT:        280 MISS:       2610
LLC WRITE        ACCESS:     535170 HIT:     504260 MISS:      30910
LLC TRANSLATION  ACCESS:     110088 HIT:        452 MISS:     109636
LLC PREFETCH REQUESTED:       2890 ISSUED:       2890 USEFUL:       1643 USELESS:        358
LLC AVERAGE MISS LATENCY: 1052 cycles
cpu0_DTLB TOTAL        ACCESS:  121560305 HIT:  121207597 MISS:     352708
cpu0_DTLB LOAD         ACCESS:  121560305 HIT:  121207597 MISS:     352708
cpu0_DTLB RFO          ACCESS:          0 HIT:          0 MISS:          0
cpu0_DTLB PREFETCH     ACCESS:          0 HIT:          0 MISS:          0
cpu0_DTLB WRITE        ACCESS:          0 HIT:          0 MISS:          0
cpu0_DTLB TRANSLATION  ACCESS:          0 HIT:          0 MISS:          0
cpu0_DTLB PREFETCH REQUESTED:          0 ISSUED:          0 USEFUL:          0 USELESS:          0
cpu0_DTLB AVERAGE MISS LATENCY: 751 cycles
cpu0_ITLB TOTAL        ACCESS:       2020 HIT:       1986 MISS:         34
cpu0_ITLB LOAD         ACCESS:       2020 HIT:       1986 MISS:         34
cpu0_ITLB RFO          ACCESS:          0 HIT:          0 MISS:          0
cpu0_ITLB PREFETCH     ACCESS:          0 HIT:          0 MISS:          0
cpu0_ITLB WRITE        ACCESS:          0 HIT:          0 MISS:          0
cpu0_ITLB TRANSLATION  ACCESS:          0 HIT:          0 MISS:          0
cpu0_ITLB PREFETCH REQUESTED:          0 ISSUED:          0 USEFUL:          0 USELESS:          0
cpu0_ITLB AVERAGE MISS LATENCY: 877.7 cycles
cpu0_L1D TOTAL        ACCESS:  162711759 HIT:  156509665 MISS:    6202094
cpu0_L1D LOAD         ACCESS:   90494880 HIT:   90488682 MISS:       6198
cpu0_L1D RFO          ACCESS:          0 HIT:          0 MISS:          0
cpu0_L1D PREFETCH     ACCESS:          0 HIT:          0 MISS:          0
cpu0_L1D WRITE        ACCESS:   72035945 HIT:   65982569 MISS:    6053376
cpu0_L1D TRANSLATION  ACCESS:     180934 HIT:      38414 MISS:     142520
cpu0_L1D PREFETCH REQUESTED:          0 ISSUED:          0 USEFUL:          0 USELESS:          0
cpu0_L1D AVERAGE MISS LATENCY: 88.93 cycles
cpu0_L1I TOTAL        ACCESS:       2336 HIT:       1017 MISS:       1319
cpu0_L1I LOAD         ACCESS:       2336 HIT:       1017 MISS:       1319
cpu0_L1I RFO          ACCESS:          0 HIT:          0 MISS:          0
cpu0_L1I PREFETCH     ACCESS:          0 HIT:          0 MISS:          0
cpu0_L1I WRITE        ACCESS:          0 HIT:          0 MISS:          0
cpu0_L1I TRANSLATION  ACCESS:          0 HIT:          0 MISS:          0
cpu0_L1I PREFETCH REQUESTED:          0 ISSUED:          0 USEFUL:          0 USELESS:          0
cpu0_L1I AVERAGE MISS LATENCY: 645.7 cycles
cpu0_L2C TOTAL        ACCESS:    1191107 HIT:     542992 MISS:     648115
cpu0_L2C LOAD         ACCESS:       3314 HIT:        424 MISS:       2890
cpu0_L2C RFO          ACCESS:     538103 HIT:       2984 MISS:     535119
cpu0_L2C PREFETCH     ACCESS:          0 HIT:          0 MISS:          0
cpu0_L2C WRITE        ACCESS:     538231 HIT:     538214 MISS:         17
cpu0_L2C TRANSLATION  ACCESS:     111459 HIT:       1370 MISS:     110089
cpu0_L2C PREFETCH REQUESTED:          0 ISSUED:          0 USEFUL:          0 USELESS:          0
cpu0_L2C AVERAGE MISS LATENCY: 1123 cycles
cpu0_STLB TOTAL        ACCESS:     156150 HIT:         45 MISS:     156105
cpu0_STLB LOAD         ACCESS:     156150 HIT:         45 MISS:     156105
cpu0_STLB RFO          ACCESS:          0 HIT:          0 MISS:          0
cpu0_STLB PREFETCH     ACCESS:          0 HIT:          0 MISS:          0
cpu0_STLB WRITE        ACCESS:          0 HIT:          0 MISS:          0
cpu0_STLB TRANSLATION  ACCESS:          0 HIT:          0 MISS:          0
cpu0_STLB PREFETCH REQUESTED:          0 ISSUED:          0 USEFUL:          0 USELESS:          0
cpu0_STLB AVERAGE MISS LATENCY: 1891 cycles

DRAM Statistics

Channel 0 RQ ROW_BUFFER_HIT:     140554
  ROW_BUFFER_MISS:     507411
 AVG DBUS CONGESTED CYCLE: 3.983
WQ ROW_BUFFER_HIT: Channel 0 
  ROW_BUFFER_MISS:      28076
  FULL:     507074
