WARNING: physical memory size is smaller than virtual memory size.

*** ChampSim Multicore Out-of-Order Simulator ***
Warmup Instructions: 50000000
Simulation Instructions: 600000000
Number of CPUs: 1
Page size: 4096

Off-chip DRAM Size: 4 GiB Channels: 1 Width: 64-bit Data Race: 3200 MT/s
Heartbeat CPU 0 instructions: 10000000 cycles: 2500202 heartbeat IPC: 4 cumulative IPC: 4 (Simulation time: 00 hr 00 min 34 sec)
Heartbeat CPU 0 instructions: 20000000 cycles: 5000202 heartbeat IPC: 4 cumulative IPC: 4 (Simulation time: 00 hr 01 min 08 sec)
Heartbeat CPU 0 instructions: 30000000 cycles: 7500202 heartbeat IPC: 4 cumulative IPC: 4 (Simulation time: 00 hr 01 min 42 sec)
Heartbeat CPU 0 instructions: 40000000 cycles: 10000202 heartbeat IPC: 4 cumulative IPC: 4 (Simulation time: 00 hr 02 min 14 sec)
Heartbeat CPU 0 instructions: 50000000 cycles: 12500202 heartbeat IPC: 4 cumulative IPC: 4 (Simulation time: 00 hr 02 min 48 sec)
Warmup finished CPU 0 instructions: 50000000 cycles: 12500203 cumulative IPC: 4 (Simulation time: 00 hr 02 min 48 sec)
Warmup complete CPU 0 instructions: 50000000 cycles: 12500203 cumulative IPC: 4 (Simulation time: 00 hr 02 min 48 sec)
Heartbeat CPU 0 instructions: 60000002 cycles: 15716833 heartbeat IPC: 3.109 cumulative IPC: 3.109 (Simulation time: 00 hr 03 min 30 sec)
Heartbeat CPU 0 instructions: 70000002 cycles: 18370757 heartbeat IPC: 3.768 cumulative IPC: 3.407 (Simulation time: 00 hr 04 min 06 sec)
Heartbeat CPU 0 instructions: 80000003 cycles: 21022979 heartbeat IPC: 3.77 cumulative IPC: 3.52 (Simulation time: 00 hr 04 min 44 sec)
Heartbeat CPU 0 instructions: 90000004 cycles: 23675178 heartbeat IPC: 3.77 cumulative IPC: 3.579 (Simulation time: 00 hr 05 min 20 sec)
Heartbeat CPU 0 instructions: 100000003 cycles: 26329053 heartbeat IPC: 3.768 cumulative IPC: 3.616 (Simulation time: 00 hr 05 min 58 sec)
Heartbeat CPU 0 instructions: 110000000 cycles: 28982532 heartbeat IPC: 3.769 cumulative IPC: 3.64 (Simulation time: 00 hr 06 min 36 sec)
Heartbeat CPU 0 instructions: 120000000 cycles: 31634533 heartbeat IPC: 3.771 cumulative IPC: 3.658 (Simulation time: 00 hr 07 min 12 sec)
Heartbeat CPU 0 instructions: 130000000 cycles: 34286778 heartbeat IPC: 3.77 cumulative IPC: 3.672 (Simulation time: 00 hr 07 min 48 sec)
Heartbeat CPU 0 instructions: 140000001 cycles: 36938966 heartbeat IPC: 3.77 cumulative IPC: 3.683 (Simulation time: 00 hr 08 min 26 sec)
Heartbeat CPU 0 instructions: 150000003 cycles: 39591195 heartbeat IPC: 3.77 cumulative IPC: 3.691 (Simulation time: 00 hr 09 min 03 sec)
Heartbeat CPU 0 instructions: 160000003 cycles: 42245951 heartbeat IPC: 3.767 cumulative IPC: 3.698 (Simulation time: 00 hr 09 min 44 sec)
Heartbeat CPU 0 instructions: 170000001 cycles: 44898388 heartbeat IPC: 3.77 cumulative IPC: 3.704 (Simulation time: 00 hr 10 min 24 sec)
Heartbeat CPU 0 instructions: 180000001 cycles: 47550557 heartbeat IPC: 3.77 cumulative IPC: 3.709 (Simulation time: 00 hr 11 min 01 sec)
Heartbeat CPU 0 instructions: 190000002 cycles: 50203567 heartbeat IPC: 3.769 cumulative IPC: 3.713 (Simulation time: 00 hr 11 min 42 sec)
Heartbeat CPU 0 instructions: 200000001 cycles: 52855787 heartbeat IPC: 3.77 cumulative IPC: 3.717 (Simulation time: 00 hr 12 min 19 sec)
Heartbeat CPU 0 instructions: 210000000 cycles: 55510260 heartbeat IPC: 3.767 cumulative IPC: 3.72 (Simulation time: 00 hr 12 min 58 sec)
Heartbeat CPU 0 instructions: 220000001 cycles: 58162286 heartbeat IPC: 3.771 cumulative IPC: 3.723 (Simulation time: 00 hr 13 min 35 sec)
Heartbeat CPU 0 instructions: 230000002 cycles: 60814502 heartbeat IPC: 3.77 cumulative IPC: 3.726 (Simulation time: 00 hr 14 min 15 sec)
Heartbeat CPU 0 instructions: 240000004 cycles: 63466786 heartbeat IPC: 3.77 cumulative IPC: 3.728 (Simulation time: 00 hr 14 min 52 sec)
Heartbeat CPU 0 instructions: 250000000 cycles: 66121741 heartbeat IPC: 3.767 cumulative IPC: 3.73 (Simulation time: 00 hr 15 min 31 sec)
Heartbeat CPU 0 instructions: 260000000 cycles: 68774080 heartbeat IPC: 3.77 cumulative IPC: 3.732 (Simulation time: 00 hr 16 min 09 sec)
Heartbeat CPU 0 instructions: 270000002 cycles: 71426087 heartbeat IPC: 3.771 cumulative IPC: 3.734 (Simulation time: 00 hr 16 min 49 sec)
Heartbeat CPU 0 instructions: 280000003 cycles: 74078331 heartbeat IPC: 3.77 cumulative IPC: 3.735 (Simulation time: 00 hr 17 min 27 sec)
Heartbeat CPU 0 instructions: 290000002 cycles: 76730608 heartbeat IPC: 3.77 cumulative IPC: 3.737 (Simulation time: 00 hr 18 min 05 sec)
Heartbeat CPU 0 instructions: 300000000 cycles: 79386034 heartbeat IPC: 3.766 cumulative IPC: 3.738 (Simulation time: 00 hr 18 min 43 sec)
Heartbeat CPU 0 instructions: 310000002 cycles: 82038036 heartbeat IPC: 3.771 cumulative IPC: 3.739 (Simulation time: 00 hr 19 min 23 sec)
Heartbeat CPU 0 instructions: 320000004 cycles: 84690077 heartbeat IPC: 3.771 cumulative IPC: 3.74 (Simulation time: 00 hr 19 min 59 sec)
Heartbeat CPU 0 instructions: 330000000 cycles: 87342266 heartbeat IPC: 3.77 cumulative IPC: 3.741 (Simulation time: 00 hr 20 min 36 sec)
Heartbeat CPU 0 instructions: 340000002 cycles: 89994988 heartbeat IPC: 3.77 cumulative IPC: 3.742 (Simulation time: 00 hr 21 min 17 sec)
Heartbeat CPU 0 instructions: 350000002 cycles: 92647104 heartbeat IPC: 3.771 cumulative IPC: 3.743 (Simulation time: 00 hr 21 min 52 sec)
Heartbeat CPU 0 instructions: 360000001 cycles: 95301999 heartbeat IPC: 3.767 cumulative IPC: 3.744 (Simulation time: 00 hr 22 min 29 sec)
Heartbeat CPU 0 instructions: 370000004 cycles: 97953976 heartbeat IPC: 3.771 cumulative IPC: 3.745 (Simulation time: 00 hr 23 min 08 sec)
Heartbeat CPU 0 instructions: 380000000 cycles: 100606153 heartbeat IPC: 3.77 cumulative IPC: 3.745 (Simulation time: 00 hr 23 min 44 sec)
Heartbeat CPU 0 instructions: 390000003 cycles: 103258500 heartbeat IPC: 3.77 cumulative IPC: 3.746 (Simulation time: 00 hr 24 min 23 sec)
Heartbeat CPU 0 instructions: 400000000 cycles: 105912770 heartbeat IPC: 3.768 cumulative IPC: 3.747 (Simulation time: 00 hr 24 min 59 sec)
Heartbeat CPU 0 instructions: 410000000 cycles: 108565107 heartbeat IPC: 3.77 cumulative IPC: 3.747 (Simulation time: 00 hr 25 min 38 sec)
Heartbeat CPU 0 instructions: 420000001 cycles: 111217193 heartbeat IPC: 3.771 cumulative IPC: 3.748 (Simulation time: 00 hr 26 min 14 sec)
Heartbeat CPU 0 instructions: 430000003 cycles: 113869514 heartbeat IPC: 3.77 cumulative IPC: 3.749 (Simulation time: 00 hr 26 min 50 sec)
Heartbeat CPU 0 instructions: 440000003 cycles: 116521856 heartbeat IPC: 3.77 cumulative IPC: 3.749 (Simulation time: 00 hr 27 min 27 sec)
Heartbeat CPU 0 instructions: 450000004 cycles: 119176585 heartbeat IPC: 3.767 cumulative IPC: 3.75 (Simulation time: 00 hr 28 min 04 sec)
Heartbeat CPU 0 instructions: 460000001 cycles: 121828599 heartbeat IPC: 3.771 cumulative IPC: 3.75 (Simulation time: 00 hr 28 min 40 sec)
Heartbeat CPU 0 instructions: 470000002 cycles: 124480698 heartbeat IPC: 3.771 cumulative IPC: 3.751 (Simulation time: 00 hr 29 min 17 sec)
Heartbeat CPU 0 instructions: 480000001 cycles: 127133049 heartbeat IPC: 3.77 cumulative IPC: 3.751 (Simulation time: 00 hr 29 min 58 sec)
Heartbeat CPU 0 instructions: 490000000 cycles: 129785739 heartbeat IPC: 3.77 cumulative IPC: 3.752 (Simulation time: 00 hr 30 min 38 sec)
Heartbeat CPU 0 instructions: 500000002 cycles: 132440301 heartbeat IPC: 3.767 cumulative IPC: 3.752 (Simulation time: 00 hr 31 min 15 sec)
Heartbeat CPU 0 instructions: 510000003 cycles: 135092310 heartbeat IPC: 3.771 cumulative IPC: 3.752 (Simulation time: 00 hr 31 min 53 sec)
Heartbeat CPU 0 instructions: 520000004 cycles: 137744442 heartbeat IPC: 3.771 cumulative IPC: 3.753 (Simulation time: 00 hr 32 min 30 sec)
Heartbeat CPU 0 instructions: 530000000 cycles: 140396752 heartbeat IPC: 3.77 cumulative IPC: 3.753 (Simulation time: 00 hr 33 min 06 sec)
Heartbeat CPU 0 instructions: 540000000 cycles: 143051952 heartbeat IPC: 3.766 cumulative IPC: 3.753 (Simulation time: 00 hr 33 min 43 sec)
Heartbeat CPU 0 instructions: 550000003 cycles: 145704063 heartbeat IPC: 3.771 cumulative IPC: 3.754 (Simulation time: 00 hr 34 min 20 sec)
Heartbeat CPU 0 instructions: 560000003 cycles: 148356527 heartbeat IPC: 3.77 cumulative IPC: 3.754 (Simulation time: 00 hr 34 min 58 sec)
Heartbeat CPU 0 instructions: 570000004 cycles: 151008513 heartbeat IPC: 3.771 cumulative IPC: 3.754 (Simulation time: 00 hr 35 min 34 sec)
Heartbeat CPU 0 instructions: 580000000 cycles: 153660808 heartbeat IPC: 3.77 cumulative IPC: 3.755 (Simulation time: 00 hr 36 min 10 sec)
Heartbeat CPU 0 instructions: 590000002 cycles: 156313079 heartbeat IPC: 3.77 cumulative IPC: 3.755 (Simulation time: 00 hr 36 min 46 sec)
*** Reached end of trace: (0, "traces/convolution.champsimtrace")
Heartbeat CPU 0 instructions: 600000000 cycles: 158973438 heartbeat IPC: 3.759 cumulative IPC: 3.755 (Simulation time: 00 hr 37 min 22 sec)
Heartbeat CPU 0 instructions: 610000002 cycles: 182880024 heartbeat IPC: 0.4183 cumulative IPC: 3.287 (Simulation time: 00 hr 40 min 34 sec)
Heartbeat CPU 0 instructions: 620000001 cycles: 203781850 heartbeat IPC: 0.4784 cumulative IPC: 2.98 (Simulation time: 00 hr 43 min 30 sec)
Heartbeat CPU 0 instructions: 630000001 cycles: 214932954 heartbeat IPC: 0.8968 cumulative IPC: 2.865 (Simulation time: 00 hr 45 min 13 sec)
Heartbeat CPU 0 instructions: 640000004 cycles: 225398981 heartbeat IPC: 0.9555 cumulative IPC: 2.771 (Simulation time: 00 hr 46 min 53 sec)
Heartbeat CPU 0 instructions: 650000001 cycles: 235803559 heartbeat IPC: 0.9611 cumulative IPC: 2.687 (Simulation time: 00 hr 48 min 30 sec)
Simulation finished CPU 0 instructions: 600000001 cycles: 223303357 cumulative IPC: 2.687 (Simulation time: 00 hr 48 min 30 sec)
Simulation complete CPU 0 instructions: 600000001 cycles: 223303357 cumulative IPC: 2.687 (Simulation time: 00 hr 48 min 30 sec)

ChampSim completed all CPUs

=== Simulation ===
CPU 0 runs traces/convolution.champsimtrace
Region of Interest Statistics

CPU 0 cumulative IPC: 2.687 instructions: 600000001 cycles: 223303357
CPU 0 Branch Prediction Accuracy: 99.47% MPKI: 0.9507 Average ROB Occupancy at Mispredict: 68.95
Branch type MPKI
BRANCH_DIRECT_JUMP: 0.000107
BRANCH_INDIRECT: 4.17e-05
BRANCH_CONDITIONAL: 0.95
BRANCH_DIRECT_CALL: 0.000103
BRANCH_INDIRECT_CALL: 8.33e-06
BRANCH_RETURN: 1.83e-05

LLC TOTAL        ACCESS:    1183100 HIT:     535729 MISS:     647371
LLC LOAD         ACCESS:       2887 HIT:          3 MISS:       2884
LLC RFO          ACCESS:     535120 HIT:         19 MISS:     535101
LLC PREFETCH     ACCESS:          0 HIT:          0 MISS:          0
LLC WRITE        ACCESS:     535173 HIT:     535151 MISS:         22
LLC TRANSLATION  ACCESS:     109920 HIT:        556 MISS:     109364
LLC PREFETCH REQUESTED:          0 ISSUED:          0 USEFUL:          0 USELESS:          0
LLC AVERAGE MISS LATENCY: 982.1 cycles
cpu0_DTLB TOTAL        ACCESS:  120043648 HIT:  119690140 MISS:     353508
cpu0_DTLB LOAD         ACCESS:  120043648 HIT:  119690140 MISS:     353508
cpu0_DTLB RFO          ACCESS:          0 HIT:          0 MISS:          0
cpu0_DTLB PREFETCH     ACCESS:          0 HIT:          0 MISS:          0
cpu0_DTLB WRITE        ACCESS:          0 HIT:          0 MISS:          0
cpu0_DTLB TRANSLATION  ACCESS:          0 HIT:          0 MISS:          0
cpu0_DTLB PREFETCH REQUESTED:          0 ISSUED:          0 USEFUL:          0 USELESS:          0
cpu0_DTLB AVERAGE MISS LATENCY: 637 cycles
cpu0_ITLB TOTAL        ACCESS:       2027 HIT:       1995 MISS:         32
cpu0_ITLB LOAD         ACCESS:       2027 HIT:       1995 MISS:         32
cpu0_ITLB RFO          ACCESS:          0 HIT:          0 MISS:          0
cpu0_ITLB PREFETCH     ACCESS:          0 HIT:          0 MISS:          0
cpu0_ITLB WRITE        ACCESS:          0 HIT:          0 MISS:          0
cpu0_ITLB TRANSLATION  ACCESS:          0 HIT:          0 MISS:          0
cpu0_ITLB PREFETCH REQUESTED:          0 ISSUED:          0 USEFUL:          0 USELESS:          0
cpu0_ITLB AVERAGE MISS LATENCY: 792.4 cycles
cpu0_L1D TOTAL        ACCESS:  161173610 HIT:  155001525 MISS:    6172085
cpu0_L1D LOAD         ACCESS:   88956951 HIT:   88950962 MISS:       5989
cpu0_L1D RFO          ACCESS:          0 HIT:          0 MISS:          0
cpu0_L1D PREFETCH     ACCESS:          0 HIT:          0 MISS:          0
cpu0_L1D WRITE        ACCESS:   72035871 HIT:   66012291 MISS:    6023580
cpu0_L1D TRANSLATION  ACCESS:     180788 HIT:      38272 MISS:     142516
cpu0_L1D PREFETCH REQUESTED:          0 ISSUED:          0 USEFUL:          0 USELESS:          0
cpu0_L1D AVERAGE MISS LATENCY: 78.6 cycles
cpu0_L1I TOTAL        ACCESS:       2323 HIT:       1006 MISS:       1317
cpu0_L1I LOAD         ACCESS:       2323 HIT:       1006 MISS:       1317
cpu0_L1I RFO          ACCESS:          0 HIT:          0 MISS:          0
cpu0_L1I PREFETCH     ACCESS:          0 HIT:          0 MISS:          0
cpu0_L1I WRITE        ACCESS:          0 HIT:          0 MISS:          0
cpu0_L1I TRANSLATION  ACCESS:          0 HIT:          0 MISS:          0
cpu0_L1I PREFETCH REQUESTED:          0 ISSUED:          0 USEFUL:          0 USELESS:          0
cpu0_L1I AVERAGE MISS LATENCY: 671.7 cycles
cpu0_L2C TOTAL        ACCESS:    1190904 HIT:     542959 MISS:     647945
cpu0_L2C LOAD         ACCESS:       3313 HIT:        426 MISS:       2887
cpu0_L2C RFO          ACCESS:     538102 HIT:       2982 MISS:     535120
cpu0_L2C PREFETCH     ACCESS:          0 HIT:          0 MISS:          0
cpu0_L2C WRITE        ACCESS:     538231 HIT:     538214 MISS:         17
cpu0_L2C TRANSLATION  ACCESS:     111258 HIT:       1337 MISS:     109921
cpu0_L2C PREFETCH REQUESTED:          0 ISSUED:          0 USEFUL:          0 USELESS:          0
cpu0_L2C AVERAGE MISS LATENCY: 1002 cycles
cpu0_STLB TOTAL        ACCESS:     156150 HIT:         41 MISS:     156109
cpu0_STLB LOAD         ACCESS:     156150 HIT:         41 MISS:     156109
cpu0_STLB RFO          ACCESS:          0 HIT:          0 MISS:          0
cpu0_STLB PREFETCH     ACCESS:          0 HIT:          0 MISS:          0
cpu0_STLB WRITE        ACCESS:          0 HIT:          0 MISS:          0
cpu0_STLB TRANSLATION  ACCESS:          0 HIT:          0 MISS:          0
cpu0_STLB PREFETCH REQUESTED:          0 ISSUED:          0 USEFUL:          0 USELESS:          0
cpu0_STLB AVERAGE MISS LATENCY: 1642 cycles

DRAM Statistics

Channel 0 RQ ROW_BUFFER_HIT:     140968
  ROW_BUFFER_MISS:     506374
 AVG DBUS CONGESTED CYCLE: 3.978
WQ ROW_BUFFER_HIT: Channel 0 
  ROW_BUFFER_MISS:     106060
  FULL:     429039
