WARNING: physical memory size is smaller than virtual memory size.

*** ChampSim Multicore Out-of-Order Simulator ***
Warmup Instructions: 50000000
Simulation Instructions: 600000000
Number of CPUs: 1
Page size: 4096

Off-chip DRAM Size: 4 GiB Channels: 1 Width: 64-bit Data Race: 3200 MT/s
Heartbeat CPU 0 instructions: 10000000 cycles: 2500202 heartbeat IPC: 4 cumulative IPC: 4 (Simulation time: 00 hr 00 min 34 sec)
Heartbeat CPU 0 instructions: 20000000 cycles: 5000202 heartbeat IPC: 4 cumulative IPC: 4 (Simulation time: 00 hr 01 min 06 sec)
Heartbeat CPU 0 instructions: 30000000 cycles: 7500202 heartbeat IPC: 4 cumulative IPC: 4 (Simulation time: 00 hr 01 min 38 sec)
Heartbeat CPU 0 instructions: 40000000 cycles: 10000202 heartbeat IPC: 4 cumulative IPC: 4 (Simulation time: 00 hr 02 min 13 sec)
Heartbeat CPU 0 instructions: 50000000 cycles: 12500202 heartbeat IPC: 4 cumulative IPC: 4 (Simulation time: 00 hr 02 min 46 sec)
Warmup finished CPU 0 instructions: 50000000 cycles: 12500203 cumulative IPC: 4 (Simulation time: 00 hr 02 min 46 sec)
Warmup complete CPU 0 instructions: 50000000 cycles: 12500203 cumulative IPC: 4 (Simulation time: 00 hr 02 min 46 sec)
Heartbeat CPU 0 instructions: 60000002 cycles: 15722798 heartbeat IPC: 3.103 cumulative IPC: 3.103 (Simulation time: 00 hr 03 min 29 sec)
Heartbeat CPU 0 instructions: 70000002 cycles: 18376519 heartbeat IPC: 3.768 cumulative IPC: 3.403 (Simulation time: 00 hr 04 min 15 sec)
Heartbeat CPU 0 instructions: 80000003 cycles: 21028741 heartbeat IPC: 3.77 cumulative IPC: 3.518 (Simulation time: 00 hr 04 min 55 sec)
Heartbeat CPU 0 instructions: 90000004 cycles: 23680940 heartbeat IPC: 3.77 cumulative IPC: 3.578 (Simulation time: 00 hr 05 min 35 sec)
Heartbeat CPU 0 instructions: 100000003 cycles: 26336531 heartbeat IPC: 3.766 cumulative IPC: 3.614 (Simulation time: 00 hr 06 min 18 sec)
Heartbeat CPU 0 instructions: 110000000 cycles: 28988938 heartbeat IPC: 3.77 cumulative IPC: 3.639 (Simulation time: 00 hr 06 min 56 sec)
Heartbeat CPU 0 instructions: 120000000 cycles: 31640939 heartbeat IPC: 3.771 cumulative IPC: 3.657 (Simulation time: 00 hr 07 min 38 sec)
Heartbeat CPU 0 instructions: 130000000 cycles: 34293184 heartbeat IPC: 3.77 cumulative IPC: 3.671 (Simulation time: 00 hr 08 min 15 sec)
Heartbeat CPU 0 instructions: 140000001 cycles: 36945372 heartbeat IPC: 3.77 cumulative IPC: 3.682 (Simulation time: 00 hr 08 min 55 sec)
Heartbeat CPU 0 instructions: 150000003 cycles: 39597601 heartbeat IPC: 3.77 cumulative IPC: 3.69 (Simulation time: 00 hr 09 min 30 sec)
Heartbeat CPU 0 instructions: 160000003 cycles: 42252987 heartbeat IPC: 3.766 cumulative IPC: 3.697 (Simulation time: 00 hr 10 min 06 sec)
Heartbeat CPU 0 instructions: 170000001 cycles: 44905835 heartbeat IPC: 3.77 cumulative IPC: 3.703 (Simulation time: 00 hr 10 min 40 sec)
Heartbeat CPU 0 instructions: 180000001 cycles: 47558004 heartbeat IPC: 3.77 cumulative IPC: 3.708 (Simulation time: 00 hr 11 min 14 sec)
Heartbeat CPU 0 instructions: 190000002 cycles: 50212572 heartbeat IPC: 3.767 cumulative IPC: 3.712 (Simulation time: 00 hr 11 min 48 sec)
Heartbeat CPU 0 instructions: 200000001 cycles: 52864792 heartbeat IPC: 3.77 cumulative IPC: 3.716 (Simulation time: 00 hr 12 min 22 sec)
Heartbeat CPU 0 instructions: 210000000 cycles: 55521104 heartbeat IPC: 3.765 cumulative IPC: 3.719 (Simulation time: 00 hr 12 min 55 sec)
Heartbeat CPU 0 instructions: 220000001 cycles: 58173130 heartbeat IPC: 3.771 cumulative IPC: 3.722 (Simulation time: 00 hr 13 min 29 sec)
Heartbeat CPU 0 instructions: 230000002 cycles: 60825346 heartbeat IPC: 3.77 cumulative IPC: 3.725 (Simulation time: 00 hr 14 min 04 sec)
Heartbeat CPU 0 instructions: 240000004 cycles: 63477630 heartbeat IPC: 3.77 cumulative IPC: 3.727 (Simulation time: 00 hr 14 min 38 sec)
Heartbeat CPU 0 instructions: 250000000 cycles: 66131964 heartbeat IPC: 3.767 cumulative IPC: 3.729 (Simulation time: 00 hr 15 min 11 sec)
Heartbeat CPU 0 instructions: 260000000 cycles: 68784799 heartbeat IPC: 3.77 cumulative IPC: 3.731 (Simulation time: 00 hr 15 min 43 sec)
Heartbeat CPU 0 instructions: 270000002 cycles: 71436806 heartbeat IPC: 3.771 cumulative IPC: 3.733 (Simulation time: 00 hr 16 min 15 sec)
Heartbeat CPU 0 instructions: 280000003 cycles: 74089050 heartbeat IPC: 3.77 cumulative IPC: 3.734 (Simulation time: 00 hr 16 min 46 sec)
Heartbeat CPU 0 instructions: 290000002 cycles: 76741327 heartbeat IPC: 3.77 cumulative IPC: 3.736 (Simulation time: 00 hr 17 min 18 sec)
Heartbeat CPU 0 instructions: 300000000 cycles: 79396643 heartbeat IPC: 3.766 cumulative IPC: 3.737 (Simulation time: 00 hr 17 min 49 sec)
Heartbeat CPU 0 instructions: 310000002 cycles: 82048645 heartbeat IPC: 3.771 cumulative IPC: 3.738 (Simulation time: 00 hr 18 min 21 sec)
Heartbeat CPU 0 instructions: 320000004 cycles: 84700686 heartbeat IPC: 3.771 cumulative IPC: 3.74 (Simulation time: 00 hr 18 min 53 sec)
Heartbeat CPU 0 instructions: 330000000 cycles: 87352875 heartbeat IPC: 3.77 cumulative IPC: 3.741 (Simulation time: 00 hr 19 min 25 sec)
Heartbeat CPU 0 instructions: 340000002 cycles: 90005597 heartbeat IPC: 3.77 cumulative IPC: 3.742 (Simulation time: 00 hr 19 min 57 sec)
Heartbeat CPU 0 instructions: 350000002 cycles: 92657713 heartbeat IPC: 3.771 cumulative IPC: 3.743 (Simulation time: 00 hr 20 min 28 sec)
Heartbeat CPU 0 instructions: 360000001 cycles: 95312413 heartbeat IPC: 3.767 cumulative IPC: 3.743 (Simulation time: 00 hr 21 min 00 sec)
Heartbeat CPU 0 instructions: 370000004 cycles: 97964760 heartbeat IPC: 3.77 cumulative IPC: 3.744 (Simulation time: 00 hr 21 min 32 sec)
Heartbeat CPU 0 instructions: 380000000 cycles: 100616937 heartbeat IPC: 3.77 cumulative IPC: 3.745 (Simulation time: 00 hr 22 min 04 sec)
Heartbeat CPU 0 instructions: 390000003 cycles: 103269284 heartbeat IPC: 3.77 cumulative IPC: 3.746 (Simulation time: 00 hr 22 min 36 sec)
Heartbeat CPU 0 instructions: 400000000 cycles: 105924495 heartbeat IPC: 3.766 cumulative IPC: 3.746 (Simulation time: 00 hr 23 min 08 sec)
Heartbeat CPU 0 instructions: 410000000 cycles: 108577328 heartbeat IPC: 3.77 cumulative IPC: 3.747 (Simulation time: 00 hr 23 min 41 sec)
Heartbeat CPU 0 instructions: 420000001 cycles: 111229414 heartbeat IPC: 3.771 cumulative IPC: 3.748 (Simulation time: 00 hr 24 min 13 sec)
Heartbeat CPU 0 instructions: 430000003 cycles: 113881735 heartbeat IPC: 3.77 cumulative IPC: 3.748 (Simulation time: 00 hr 24 min 45 sec)
Heartbeat CPU 0 instructions: 440000003 cycles: 116534077 heartbeat IPC: 3.77 cumulative IPC: 3.749 (Simulation time: 00 hr 25 min 18 sec)
Heartbeat CPU 0 instructions: 450000004 cycles: 119188462 heartbeat IPC: 3.767 cumulative IPC: 3.749 (Simulation time: 00 hr 25 min 50 sec)
Heartbeat CPU 0 instructions: 460000001 cycles: 121840476 heartbeat IPC: 3.771 cumulative IPC: 3.75 (Simulation time: 00 hr 26 min 22 sec)
Heartbeat CPU 0 instructions: 470000002 cycles: 124492575 heartbeat IPC: 3.771 cumulative IPC: 3.75 (Simulation time: 00 hr 26 min 55 sec)
Heartbeat CPU 0 instructions: 480000001 cycles: 127144926 heartbeat IPC: 3.77 cumulative IPC: 3.751 (Simulation time: 00 hr 27 min 27 sec)
Heartbeat CPU 0 instructions: 490000000 cycles: 129797615 heartbeat IPC: 3.77 cumulative IPC: 3.751 (Simulation time: 00 hr 27 min 59 sec)
Heartbeat CPU 0 instructions: 500000002 cycles: 132452026 heartbeat IPC: 3.767 cumulative IPC: 3.752 (Simulation time: 00 hr 28 min 31 sec)
Heartbeat CPU 0 instructions: 510000003 cycles: 135104035 heartbeat IPC: 3.771 cumulative IPC: 3.752 (Simulation time: 00 hr 29 min 02 sec)
Heartbeat CPU 0 instructions: 520000004 cycles: 137756167 heartbeat IPC: 3.771 cumulative IPC: 3.752 (Simulation time: 00 hr 29 min 34 sec)
Heartbeat CPU 0 instructions: 530000000 cycles: 140408477 heartbeat IPC: 3.77 cumulative IPC: 3.753 (Simulation time: 00 hr 30 min 04 sec)
Heartbeat CPU 0 instructions: 540000000 cycles: 143063227 heartbeat IPC: 3.767 cumulative IPC: 3.753 (Simulation time: 00 hr 30 min 35 sec)
Heartbeat CPU 0 instructions: 550000003 cycles: 145715338 heartbeat IPC: 3.771 cumulative IPC: 3.753 (Simulation time: 00 hr 31 min 05 sec)
Heartbeat CPU 0 instructions: 560000003 cycles: 148368506 heartbeat IPC: 3.769 cumulative IPC: 3.754 (Simulation time: 00 hr 31 min 35 sec)
Heartbeat CPU 0 instructions: 570000004 cycles: 151020492 heartbeat IPC: 3.771 cumulative IPC: 3.754 (Simulation time: 00 hr 32 min 05 sec)
Heartbeat CPU 0 instructions: 580000000 cycles: 153672787 heartbeat IPC: 3.77 cumulative IPC: 3.754 (Simulation time: 00 hr 32 min 35 sec)
Heartbeat CPU 0 instructions: 590000002 cycles: 156325058 heartbeat IPC: 3.77 cumulative IPC: 3.755 (Simulation time: 00 hr 33 min 04 sec)
*** Reached end of trace: (0, "traces/convolution.champsimtrace")
Heartbeat CPU 0 instructions: 600000000 cycles: 158985330 heartbeat IPC: 3.759 cumulative IPC: 3.755 (Simulation time: 00 hr 33 min 34 sec)
Heartbeat CPU 0 instructions: 610000002 cycles: 187989408 heartbeat IPC: 0.3448 cumulative IPC: 3.191 (Simulation time: 00 hr 36 min 33 sec)
Heartbeat CPU 0 instructions: 620000001 cycles: 214262477 heartbeat IPC: 0.3806 cumulative IPC: 2.825 (Simulation time: 00 hr 39 min 10 sec)
Heartbeat CPU 0 instructions: 630000001 cycles: 224649238 heartbeat IPC: 0.9628 cumulative IPC: 2.734 (Simulation time: 00 hr 40 min 15 sec)
Heartbeat CPU 0 instructions: 640000004 cycles: 235097686 heartbeat IPC: 0.9571 cumulative IPC: 2.651 (Simulation time: 00 hr 41 min 17 sec)
Heartbeat CPU 0 instructions: 650000001 cycles: 245525858 heartbeat IPC: 0.9589 cumulative IPC: 2.575 (Simulation time: 00 hr 42 min 12 sec)
Simulation finished CPU 0 instructions: 600000001 cycles: 233025656 cumulative IPC: 2.575 (Simulation time: 00 hr 42 min 12 sec)
Simulation complete CPU 0 instructions: 600000001 cycles: 233025656 cumulative IPC: 2.575 (Simulation time: 00 hr 42 min 12 sec)

ChampSim completed all CPUs

=== Simulation ===
CPU 0 runs traces/convolution.champsimtrace
Region of Interest Statistics

CPU 0 cumulative IPC: 2.575 instructions: 600000001 cycles: 233025656
CPU 0 Branch Prediction Accuracy: 99.47% MPKI: 0.9507 Average ROB Occupancy at Mispredict: 68.94
Branch type MPKI
BRANCH_DIRECT_JUMP: 0.000107
BRANCH_INDIRECT: 4.17e-05
BRANCH_CONDITIONAL: 0.95
BRANCH_DIRECT_CALL: 0.000103
BRANCH_INDIRECT_CALL: 8.33e-06
BRANCH_RETURN: 1.83e-05

LLC TOTAL        ACCESS:    1185287 HIT:     506663 MISS:     678624
LLC LOAD         ACCESS:       2886 HIT:        573 MISS:       2313
LLC RFO          ACCESS:     535121 HIT:         31 MISS:     535090
LLC PREFETCH     ACCESS:       2096 HIT:        583 MISS:       1513
LLC WRITE        ACCESS:     535172 HIT:     505021 MISS:      30151
LLC TRANSLATION  ACCESS:     110012 HIT:        455 MISS:     109557
LLC PREFETCH REQUESTED:       2096 ISSUED:       2096 USEFUL:        799 USELESS:         45
LLC AVERAGE MISS LATENCY: 1056 cycles
cpu0_DTLB TOTAL        ACCESS:  120047524 HIT:  119694375 MISS:     353149
cpu0_DTLB LOAD         ACCESS:  120047524 HIT:  119694375 MISS:     353149
cpu0_DTLB RFO          ACCESS:          0 HIT:          0 MISS:          0
cpu0_DTLB PREFETCH     ACCESS:          0 HIT:          0 MISS:          0
cpu0_DTLB WRITE        ACCESS:          0 HIT:          0 MISS:          0
cpu0_DTLB TRANSLATION  ACCESS:          0 HIT:          0 MISS:          0
cpu0_DTLB PREFETCH REQUESTED:          0 ISSUED:          0 USEFUL:          0 USELESS:          0
cpu0_DTLB AVERAGE MISS LATENCY: 751.2 cycles
cpu0_ITLB TOTAL        ACCESS:       2016 HIT:       1984 MISS:         32
cpu0_ITLB LOAD         ACCESS:       2016 HIT:       1984 MISS:         32
cpu0_ITLB RFO          ACCESS:          0 HIT:          0 MISS:          0
cpu0_ITLB PREFETCH     ACCESS:          0 HIT:          0 MISS:          0
cpu0_ITLB WRITE        ACCESS:          0 HIT:          0 MISS:          0
cpu0_ITLB TRANSLATION  ACCESS:          0 HIT:          0 MISS:          0
cpu0_ITLB PREFETCH REQUESTED:          0 ISSUED:          0 USEFUL:          0 USELESS:          0
cpu0_ITLB AVERAGE MISS LATENCY: 738.8 cycles
cpu0_L1D TOTAL        ACCESS:  161176327 HIT:  154969933 MISS:    6206394
cpu0_L1D LOAD         ACCESS:   88959514 HIT:   88953357 MISS:       6157
cpu0_L1D RFO          ACCESS:          0 HIT:          0 MISS:          0
cpu0_L1D PREFETCH     ACCESS:          0 HIT:          0 MISS:          0
cpu0_L1D WRITE        ACCESS:   72035955 HIT:   65978122 MISS:    6057833
cpu0_L1D TRANSLATION  ACCESS:     180858 HIT:      38454 MISS:     142404
cpu0_L1D PREFETCH REQUESTED:          0 ISSUED:          0 USEFUL:          0 USELESS:          0
cpu0_L1D AVERAGE MISS LATENCY: 89.53 cycles
cpu0_L1I TOTAL        ACCESS:       2315 HIT:       1012 MISS:       1303
cpu0_L1I LOAD         ACCESS:       2315 HIT:       1012 MISS:       1303
cpu0_L1I RFO          ACCESS:          0 HIT:          0 MISS:          0
cpu0_L1I PREFETCH     ACCESS:          0 HIT:          0 MISS:          0
cpu0_L1I WRITE        ACCESS:          0 HIT:          0 MISS:          0
cpu0_L1I TRANSLATION  ACCESS:          0 HIT:          0 MISS:          0
cpu0_L1I PREFETCH REQUESTED:          0 ISSUED:          0 USEFUL:          0 USELESS:          0
cpu0_L1I AVERAGE MISS LATENCY: 724.7 cycles
cpu0_L2C TOTAL        ACCESS:    1191014 HIT:     542976 MISS:     648038
cpu0_L2C LOAD         ACCESS:       3312 HIT:        426 MISS:       2886
cpu0_L2C RFO          ACCESS:     538102 HIT:       2980 MISS:     535122
cpu0_L2C PREFETCH     ACCESS:          0 HIT:          0 MISS:          0
cpu0_L2C WRITE        ACCESS:     538227 HIT:     538210 MISS:         17
cpu0_L2C TRANSLATION  ACCESS:     111373 HIT:       1360 MISS:     110013
cpu0_L2C PREFETCH REQUESTED:          0 ISSUED:          0 USEFUL:          0 USELESS:          0
cpu0_L2C AVERAGE MISS LATENCY: 1125 cycles
cpu0_STLB TOTAL        ACCESS:     156153 HIT:         45 MISS:     156108
cpu0_STLB LOAD         ACCESS:     156153 HIT:         45 MISS:     156108
cpu0_STLB RFO          ACCESS:          0 HIT:          0 MISS:          0
cpu0_STLB PREFETCH     ACCESS:          0 HIT:          0 MISS:          0
cpu0_STLB WRITE        ACCESS:          0 HIT:          0 MISS:          0
cpu0_STLB TRANSLATION  ACCESS:          0 HIT:          0 MISS:          0
cpu0_STLB PREFETCH REQUESTED:          0 ISSUED:          0 USEFUL:          0 USELESS:          0
cpu0_STLB AVERAGE MISS LATENCY: 1893 cycles

DRAM Statistics

Channel 0 RQ ROW_BUFFER_HIT:     140382
  ROW_BUFFER_MISS:     507195
 AVG DBUS CONGESTED CYCLE: 3.983
WQ ROW_BUFFER_HIT: Channel 0 
  ROW_BUFFER_MISS:      28351
  FULL:     506750
