WARNING: physical memory size is smaller than virtual memory size.

*** ChampSim Multicore Out-of-Order Simulator ***
Warmup Instructions: 50000000
Simulation Instructions: 600000000
Number of CPUs: 1
Page size: 4096

Off-chip DRAM Size: 4 GiB Channels: 1 Width: 64-bit Data Race: 3200 MT/s
Heartbeat CPU 0 instructions: 10000000 cycles: 2500202 heartbeat IPC: 4 cumulative IPC: 4 (Simulation time: 00 hr 00 min 33 sec)
Heartbeat CPU 0 instructions: 20000000 cycles: 5000202 heartbeat IPC: 4 cumulative IPC: 4 (Simulation time: 00 hr 01 min 09 sec)
Heartbeat CPU 0 instructions: 30000000 cycles: 7500202 heartbeat IPC: 4 cumulative IPC: 4 (Simulation time: 00 hr 01 min 43 sec)
Heartbeat CPU 0 instructions: 40000000 cycles: 10000202 heartbeat IPC: 4 cumulative IPC: 4 (Simulation time: 00 hr 02 min 16 sec)
Heartbeat CPU 0 instructions: 50000000 cycles: 12500202 heartbeat IPC: 4 cumulative IPC: 4 (Simulation time: 00 hr 02 min 48 sec)
Warmup finished CPU 0 instructions: 50000000 cycles: 12500203 cumulative IPC: 4 (Simulation time: 00 hr 02 min 48 sec)
Warmup complete CPU 0 instructions: 50000000 cycles: 12500203 cumulative IPC: 4 (Simulation time: 00 hr 02 min 48 sec)
Heartbeat CPU 0 instructions: 60000002 cycles: 15754892 heartbeat IPC: 3.072 cumulative IPC: 3.072 (Simulation time: 00 hr 03 min 31 sec)
Heartbeat CPU 0 instructions: 70000002 cycles: 18462813 heartbeat IPC: 3.693 cumulative IPC: 3.354 (Simulation time: 00 hr 04 min 09 sec)
Heartbeat CPU 0 instructions: 80000003 cycles: 21166410 heartbeat IPC: 3.699 cumulative IPC: 3.462 (Simulation time: 00 hr 04 min 50 sec)
Heartbeat CPU 0 instructions: 90000004 cycles: 23870878 heartbeat IPC: 3.698 cumulative IPC: 3.518 (Simulation time: 00 hr 05 min 28 sec)
Heartbeat CPU 0 instructions: 100000003 cycles: 26577083 heartbeat IPC: 3.695 cumulative IPC: 3.552 (Simulation time: 00 hr 06 min 10 sec)
Heartbeat CPU 0 instructions: 110000000 cycles: 29288431 heartbeat IPC: 3.688 cumulative IPC: 3.574 (Simulation time: 00 hr 06 min 47 sec)
Heartbeat CPU 0 instructions: 120000000 cycles: 31996321 heartbeat IPC: 3.693 cumulative IPC: 3.59 (Simulation time: 00 hr 07 min 25 sec)
Heartbeat CPU 0 instructions: 130000000 cycles: 34702799 heartbeat IPC: 3.695 cumulative IPC: 3.603 (Simulation time: 00 hr 08 min 03 sec)
Heartbeat CPU 0 instructions: 140000001 cycles: 37411663 heartbeat IPC: 3.692 cumulative IPC: 3.613 (Simulation time: 00 hr 08 min 40 sec)
Heartbeat CPU 0 instructions: 150000003 cycles: 40120596 heartbeat IPC: 3.691 cumulative IPC: 3.621 (Simulation time: 00 hr 09 min 17 sec)
Heartbeat CPU 0 instructions: 160000003 cycles: 42828146 heartbeat IPC: 3.693 cumulative IPC: 3.627 (Simulation time: 00 hr 09 min 55 sec)
Heartbeat CPU 0 instructions: 170000001 cycles: 45536954 heartbeat IPC: 3.692 cumulative IPC: 3.632 (Simulation time: 00 hr 10 min 30 sec)
Heartbeat CPU 0 instructions: 180000001 cycles: 48243448 heartbeat IPC: 3.695 cumulative IPC: 3.637 (Simulation time: 00 hr 11 min 14 sec)
Heartbeat CPU 0 instructions: 190000002 cycles: 50948524 heartbeat IPC: 3.697 cumulative IPC: 3.641 (Simulation time: 00 hr 11 min 54 sec)
Heartbeat CPU 0 instructions: 200000001 cycles: 53654637 heartbeat IPC: 3.695 cumulative IPC: 3.645 (Simulation time: 00 hr 12 min 33 sec)
Heartbeat CPU 0 instructions: 210000000 cycles: 56367264 heartbeat IPC: 3.686 cumulative IPC: 3.647 (Simulation time: 00 hr 13 min 12 sec)
Heartbeat CPU 0 instructions: 220000001 cycles: 59073168 heartbeat IPC: 3.696 cumulative IPC: 3.65 (Simulation time: 00 hr 13 min 50 sec)
Heartbeat CPU 0 instructions: 230000002 cycles: 61783249 heartbeat IPC: 3.69 cumulative IPC: 3.652 (Simulation time: 00 hr 14 min 26 sec)
Heartbeat CPU 0 instructions: 240000004 cycles: 64496047 heartbeat IPC: 3.686 cumulative IPC: 3.654 (Simulation time: 00 hr 15 min 04 sec)
Heartbeat CPU 0 instructions: 250000000 cycles: 67203453 heartbeat IPC: 3.694 cumulative IPC: 3.656 (Simulation time: 00 hr 15 min 43 sec)
Heartbeat CPU 0 instructions: 260000000 cycles: 69912900 heartbeat IPC: 3.691 cumulative IPC: 3.658 (Simulation time: 00 hr 16 min 23 sec)
Heartbeat CPU 0 instructions: 270000002 cycles: 72619396 heartbeat IPC: 3.695 cumulative IPC: 3.659 (Simulation time: 00 hr 17 min 00 sec)
Heartbeat CPU 0 instructions: 280000003 cycles: 75323559 heartbeat IPC: 3.698 cumulative IPC: 3.661 (Simulation time: 00 hr 17 min 35 sec)
Heartbeat CPU 0 instructions: 290000003 cycles: 78030282 heartbeat IPC: 3.695 cumulative IPC: 3.662 (Simulation time: 00 hr 18 min 12 sec)
Heartbeat CPU 0 instructions: 300000000 cycles: 80736630 heartbeat IPC: 3.695 cumulative IPC: 3.664 (Simulation time: 00 hr 18 min 48 sec)
Heartbeat CPU 0 instructions: 310000002 cycles: 83441225 heartbeat IPC: 3.697 cumulative IPC: 3.665 (Simulation time: 00 hr 19 min 24 sec)
Heartbeat CPU 0 instructions: 320000004 cycles: 86149472 heartbeat IPC: 3.692 cumulative IPC: 3.666 (Simulation time: 00 hr 20 min 00 sec)
Heartbeat CPU 0 instructions: 330000000 cycles: 88856468 heartbeat IPC: 3.694 cumulative IPC: 3.667 (Simulation time: 00 hr 20 min 35 sec)
Heartbeat CPU 0 instructions: 340000002 cycles: 91564849 heartbeat IPC: 3.692 cumulative IPC: 3.668 (Simulation time: 00 hr 21 min 11 sec)
Heartbeat CPU 0 instructions: 350000002 cycles: 94273654 heartbeat IPC: 3.692 cumulative IPC: 3.669 (Simulation time: 00 hr 21 min 47 sec)
Heartbeat CPU 0 instructions: 360000001 cycles: 96982806 heartbeat IPC: 3.691 cumulative IPC: 3.669 (Simulation time: 00 hr 22 min 22 sec)
Heartbeat CPU 0 instructions: 370000004 cycles: 99690592 heartbeat IPC: 3.693 cumulative IPC: 3.67 (Simulation time: 00 hr 22 min 57 sec)
Heartbeat CPU 0 instructions: 380000000 cycles: 102398297 heartbeat IPC: 3.693 cumulative IPC: 3.671 (Simulation time: 00 hr 23 min 34 sec)
Heartbeat CPU 0 instructions: 390000004 cycles: 105104422 heartbeat IPC: 3.695 cumulative IPC: 3.672 (Simulation time: 00 hr 24 min 14 sec)
Heartbeat CPU 0 instructions: 400000000 cycles: 107811482 heartbeat IPC: 3.694 cumulative IPC: 3.672 (Simulation time: 00 hr 24 min 54 sec)
Heartbeat CPU 0 instructions: 410000000 cycles: 110522680 heartbeat IPC: 3.688 cumulative IPC: 3.673 (Simulation time: 00 hr 25 min 34 sec)
Heartbeat CPU 0 instructions: 420000001 cycles: 113229284 heartbeat IPC: 3.695 cumulative IPC: 3.673 (Simulation time: 00 hr 26 min 14 sec)
Heartbeat CPU 0 instructions: 430000003 cycles: 115934296 heartbeat IPC: 3.697 cumulative IPC: 3.674 (Simulation time: 00 hr 26 min 54 sec)
Heartbeat CPU 0 instructions: 440000003 cycles: 118642710 heartbeat IPC: 3.692 cumulative IPC: 3.674 (Simulation time: 00 hr 27 min 30 sec)
Heartbeat CPU 0 instructions: 450000004 cycles: 121355324 heartbeat IPC: 3.686 cumulative IPC: 3.675 (Simulation time: 00 hr 28 min 09 sec)
Heartbeat CPU 0 instructions: 460000001 cycles: 124062700 heartbeat IPC: 3.694 cumulative IPC: 3.675 (Simulation time: 00 hr 28 min 49 sec)
Heartbeat CPU 0 instructions: 470000002 cycles: 126771676 heartbeat IPC: 3.691 cumulative IPC: 3.675 (Simulation time: 00 hr 29 min 28 sec)
Heartbeat CPU 0 instructions: 480000001 cycles: 129478417 heartbeat IPC: 3.694 cumulative IPC: 3.676 (Simulation time: 00 hr 30 min 05 sec)
Heartbeat CPU 0 instructions: 490000000 cycles: 132187829 heartbeat IPC: 3.691 cumulative IPC: 3.676 (Simulation time: 00 hr 30 min 43 sec)
Heartbeat CPU 0 instructions: 500000002 cycles: 134895141 heartbeat IPC: 3.694 cumulative IPC: 3.677 (Simulation time: 00 hr 31 min 22 sec)
Heartbeat CPU 0 instructions: 510000003 cycles: 137605135 heartbeat IPC: 3.69 cumulative IPC: 3.677 (Simulation time: 00 hr 32 min 00 sec)
Heartbeat CPU 0 instructions: 520000004 cycles: 140310889 heartbeat IPC: 3.696 cumulative IPC: 3.677 (Simulation time: 00 hr 32 min 39 sec)
Heartbeat CPU 0 instructions: 530000000 cycles: 143021853 heartbeat IPC: 3.689 cumulative IPC: 3.678 (Simulation time: 00 hr 33 min 17 sec)
Heartbeat CPU 0 instructions: 540000000 cycles: 145733034 heartbeat IPC: 3.688 cumulative IPC: 3.678 (Simulation time: 00 hr 33 min 53 sec)
Heartbeat CPU 0 instructions: 550000003 cycles: 148438883 heartbeat IPC: 3.696 cumulative IPC: 3.678 (Simulation time: 00 hr 34 min 32 sec)
Heartbeat CPU 0 instructions: 560000003 cycles: 151144695 heartbeat IPC: 3.696 cumulative IPC: 3.678 (Simulation time: 00 hr 35 min 10 sec)
Heartbeat CPU 0 instructions: 570000004 cycles: 153849651 heartbeat IPC: 3.697 cumulative IPC: 3.679 (Simulation time: 00 hr 35 min 47 sec)
Heartbeat CPU 0 instructions: 580000000 cycles: 156558792 heartbeat IPC: 3.691 cumulative IPC: 3.679 (Simulation time: 00 hr 36 min 23 sec)
Heartbeat CPU 0 instructions: 590000002 cycles: 159264977 heartbeat IPC: 3.695 cumulative IPC: 3.679 (Simulation time: 00 hr 36 min 59 sec)
*** Reached end of trace: (0, "traces/convolution.champsimtrace")
Heartbeat CPU 0 instructions: 600000000 cycles: 161979502 heartbeat IPC: 3.684 cumulative IPC: 3.679 (Simulation time: 00 hr 37 min 36 sec)
Heartbeat CPU 0 instructions: 610000002 cycles: 185467217 heartbeat IPC: 0.4258 cumulative IPC: 3.238 (Simulation time: 00 hr 40 min 55 sec)
Heartbeat CPU 0 instructions: 620000001 cycles: 206277818 heartbeat IPC: 0.4805 cumulative IPC: 2.942 (Simulation time: 00 hr 43 min 51 sec)
Heartbeat CPU 0 instructions: 630000001 cycles: 216985405 heartbeat IPC: 0.9339 cumulative IPC: 2.836 (Simulation time: 00 hr 45 min 34 sec)
Heartbeat CPU 0 instructions: 640000004 cycles: 228215554 heartbeat IPC: 0.8905 cumulative IPC: 2.735 (Simulation time: 00 hr 47 min 17 sec)
Heartbeat CPU 0 instructions: 650000001 cycles: 240330152 heartbeat IPC: 0.8255 cumulative IPC: 2.634 (Simulation time: 00 hr 49 min 12 sec)
Simulation finished CPU 0 instructions: 600000001 cycles: 227829950 cumulative IPC: 2.634 (Simulation time: 00 hr 49 min 12 sec)
Simulation complete CPU 0 instructions: 600000001 cycles: 227829950 cumulative IPC: 2.634 (Simulation time: 00 hr 49 min 12 sec)

ChampSim completed all CPUs

=== Simulation ===
CPU 0 runs traces/convolution.champsimtrace
Region of Interest Statistics

CPU 0 cumulative IPC: 2.634 instructions: 600000001 cycles: 227829950
CPU 0 Branch Prediction Accuracy: 99.3% MPKI: 1.265 Average ROB Occupancy at Mispredict: 64.13
Branch type MPKI
BRANCH_DIRECT_JUMP: 0.000107
BRANCH_INDIRECT: 4.17e-05
BRANCH_CONDITIONAL: 1.26
BRANCH_DIRECT_CALL: 0.000103
BRANCH_INDIRECT_CALL: 8.33e-06
BRANCH_RETURN: 1.83e-05

LLC TOTAL        ACCESS:    1183663 HIT:      34618 MISS:    1149045
LLC LOAD         ACCESS:       2888 HIT:         10 MISS:       2878
LLC RFO          ACCESS:     535118 HIT:       3397 MISS:     531721
LLC PREFETCH     ACCESS:          0 HIT:          0 MISS:          0
LLC WRITE        ACCESS:     535173 HIT:      30975 MISS:     504198
LLC TRANSLATION  ACCESS:     110484 HIT:        236 MISS:     110248
LLC PREFETCH REQUESTED:          0 ISSUED:          0 USEFUL:          0 USELESS:          0
LLC AVERAGE MISS LATENCY: 593.9 cycles
cpu0_DTLB TOTAL        ACCESS:  121554486 HIT:  121200922 MISS:     353564
cpu0_DTLB LOAD         ACCESS:  121554486 HIT:  121200922 MISS:     353564
cpu0_DTLB RFO          ACCESS:          0 HIT:          0 MISS:          0
cpu0_DTLB PREFETCH     ACCESS:          0 HIT:          0 MISS:          0
cpu0_DTLB WRITE        ACCESS:          0 HIT:          0 MISS:          0
cpu0_DTLB TRANSLATION  ACCESS:          0 HIT:          0 MISS:          0
cpu0_DTLB PREFETCH REQUESTED:          0 ISSUED:          0 USEFUL:          0 USELESS:          0
cpu0_DTLB AVERAGE MISS LATENCY: 640.9 cycles
cpu0_ITLB TOTAL        ACCESS:       2036 HIT:       2001 MISS:         35
cpu0_ITLB LOAD         ACCESS:       2036 HIT:       2001 MISS:         35
cpu0_ITLB RFO          ACCESS:          0 HIT:          0 MISS:          0
cpu0_ITLB PREFETCH     ACCESS:          0 HIT:          0 MISS:          0
cpu0_ITLB WRITE        ACCESS:          0 HIT:          0 MISS:          0
cpu0_ITLB TRANSLATION  ACCESS:          0 HIT:          0 MISS:          0
cpu0_ITLB PREFETCH REQUESTED:          0 ISSUED:          0 USEFUL:          0 USELESS:          0
cpu0_ITLB AVERAGE MISS LATENCY: 781.3 cycles
cpu0_L1D TOTAL        ACCESS:  162695460 HIT:  156531030 MISS:    6164430
cpu0_L1D LOAD         ACCESS:   90477306 HIT:   90471045 MISS:       6261
cpu0_L1D RFO          ACCESS:          0 HIT:          0 MISS:          0
cpu0_L1D PREFETCH     ACCESS:          0 HIT:          0 MISS:          0
cpu0_L1D WRITE        ACCESS:   72036849 HIT:   66021528 MISS:    6015321
cpu0_L1D TRANSLATION  ACCESS:     181305 HIT:      38457 MISS:     142848
cpu0_L1D PREFETCH REQUESTED:          0 ISSUED:          0 USEFUL:          0 USELESS:          0
cpu0_L1D AVERAGE MISS LATENCY: 86 cycles
cpu0_L1I TOTAL        ACCESS:       2354 HIT:       1017 MISS:       1337
cpu0_L1I LOAD         ACCESS:       2354 HIT:       1017 MISS:       1337
cpu0_L1I RFO          ACCESS:          0 HIT:          0 MISS:          0
cpu0_L1I PREFETCH     ACCESS:          0 HIT:          0 MISS:          0
cpu0_L1I WRITE        ACCESS:          0 HIT:          0 MISS:          0
cpu0_L1I TRANSLATION  ACCESS:          0 HIT:          0 MISS:          0
cpu0_L1I PREFETCH REQUESTED:          0 ISSUED:          0 USEFUL:          0 USELESS:          0
cpu0_L1I AVERAGE MISS LATENCY: 772.7 cycles
cpu0_L2C TOTAL        ACCESS:    1191676 HIT:     543168 MISS:     648508
cpu0_L2C LOAD         ACCESS:       3313 HIT:        425 MISS:       2888
cpu0_L2C RFO          ACCESS:     538120 HIT:       3002 MISS:     535118
cpu0_L2C PREFETCH     ACCESS:          0 HIT:          0 MISS:          0
cpu0_L2C WRITE        ACCESS:     538233 HIT:     538216 MISS:         17
cpu0_L2C TRANSLATION  ACCESS:     112010 HIT:       1525 MISS:     110485
cpu0_L2C PREFETCH REQUESTED:          0 ISSUED:          0 USEFUL:          0 USELESS:          0
cpu0_L2C AVERAGE MISS LATENCY: 1073 cycles
cpu0_STLB TOTAL        ACCESS:     156172 HIT:         58 MISS:     156114
cpu0_STLB LOAD         ACCESS:     156172 HIT:         58 MISS:     156114
cpu0_STLB RFO          ACCESS:          0 HIT:          0 MISS:          0
cpu0_STLB PREFETCH     ACCESS:          0 HIT:          0 MISS:          0
cpu0_STLB WRITE        ACCESS:          0 HIT:          0 MISS:          0
cpu0_STLB TRANSLATION  ACCESS:          0 HIT:          0 MISS:          0
cpu0_STLB PREFETCH REQUESTED:          0 ISSUED:          0 USEFUL:          0 USELESS:          0
cpu0_STLB AVERAGE MISS LATENCY: 1663 cycles

DRAM Statistics

Channel 0 RQ ROW_BUFFER_HIT:     144742
  ROW_BUFFER_MISS:     500098
 AVG DBUS CONGESTED CYCLE: 3.977
WQ ROW_BUFFER_HIT: Channel 0 
  ROW_BUFFER_MISS:     115831
  FULL:     429371
Final OPTGen Hits: 148
Final OPTGen Access: 16955
Final OPTGEN Hit Rate: 0.872899
