WARNING: physical memory size is smaller than virtual memory size.

*** ChampSim Multicore Out-of-Order Simulator ***
Warmup Instructions: 50000000
Simulation Instructions: 600000000
Number of CPUs: 1
Page size: 4096

CPU 0 Tage branch predictor
Off-chip DRAM Size: 4 GiB Channels: 1 Width: 64-bit Data Race: 3200 MT/s
Heartbeat CPU 0 instructions: 10000001 cycles: 2500202 heartbeat IPC: 4 cumulative IPC: 4 (Simulation time: 00 hr 01 min 19 sec)
Heartbeat CPU 0 instructions: 20000001 cycles: 5000202 heartbeat IPC: 4 cumulative IPC: 4 (Simulation time: 00 hr 02 min 23 sec)
Heartbeat CPU 0 instructions: 30000001 cycles: 7500202 heartbeat IPC: 4 cumulative IPC: 4 (Simulation time: 00 hr 03 min 37 sec)
Heartbeat CPU 0 instructions: 40000001 cycles: 10000202 heartbeat IPC: 4 cumulative IPC: 4 (Simulation time: 00 hr 05 min 00 sec)
Heartbeat CPU 0 instructions: 50000001 cycles: 12500202 heartbeat IPC: 4 cumulative IPC: 4 (Simulation time: 00 hr 06 min 00 sec)
Warmup finished CPU 0 instructions: 50000001 cycles: 12500203 cumulative IPC: 4 (Simulation time: 00 hr 06 min 00 sec)
Warmup complete CPU 0 instructions: 50000001 cycles: 12500203 cumulative IPC: 4 (Simulation time: 00 hr 06 min 00 sec)
Heartbeat CPU 0 instructions: 60000002 cycles: 15599996 heartbeat IPC: 3.226 cumulative IPC: 3.226 (Simulation time: 00 hr 07 min 20 sec)
Heartbeat CPU 0 instructions: 70000002 cycles: 18102283 heartbeat IPC: 3.996 cumulative IPC: 3.57 (Simulation time: 00 hr 08 min 32 sec)
Heartbeat CPU 0 instructions: 80000002 cycles: 20602304 heartbeat IPC: 4 cumulative IPC: 3.703 (Simulation time: 00 hr 09 min 40 sec)
Heartbeat CPU 0 instructions: 90000004 cycles: 23102325 heartbeat IPC: 4 cumulative IPC: 3.773 (Simulation time: 00 hr 10 min 48 sec)
Heartbeat CPU 0 instructions: 100000000 cycles: 25602346 heartbeat IPC: 4 cumulative IPC: 3.816 (Simulation time: 00 hr 11 min 55 sec)
Heartbeat CPU 0 instructions: 110000002 cycles: 28102828 heartbeat IPC: 3.999 cumulative IPC: 3.846 (Simulation time: 00 hr 13 min 04 sec)
Heartbeat CPU 0 instructions: 120000000 cycles: 30603759 heartbeat IPC: 3.999 cumulative IPC: 3.867 (Simulation time: 00 hr 14 min 10 sec)
Heartbeat CPU 0 instructions: 130000000 cycles: 33104288 heartbeat IPC: 3.999 cumulative IPC: 3.883 (Simulation time: 00 hr 15 min 33 sec)
Heartbeat CPU 0 instructions: 140000001 cycles: 35604309 heartbeat IPC: 4 cumulative IPC: 3.895 (Simulation time: 00 hr 16 min 57 sec)
Heartbeat CPU 0 instructions: 150000002 cycles: 38104331 heartbeat IPC: 4 cumulative IPC: 3.906 (Simulation time: 00 hr 18 min 09 sec)
Heartbeat CPU 0 instructions: 160000004 cycles: 40604367 heartbeat IPC: 4 cumulative IPC: 3.914 (Simulation time: 00 hr 19 min 18 sec)
Heartbeat CPU 0 instructions: 170000004 cycles: 43107290 heartbeat IPC: 3.995 cumulative IPC: 3.921 (Simulation time: 00 hr 20 min 27 sec)
Heartbeat CPU 0 instructions: 180000001 cycles: 45607310 heartbeat IPC: 4 cumulative IPC: 3.927 (Simulation time: 00 hr 21 min 36 sec)
Heartbeat CPU 0 instructions: 190000002 cycles: 48109455 heartbeat IPC: 3.997 cumulative IPC: 3.932 (Simulation time: 00 hr 22 min 44 sec)
Heartbeat CPU 0 instructions: 200000002 cycles: 50609476 heartbeat IPC: 4 cumulative IPC: 3.936 (Simulation time: 00 hr 23 min 52 sec)
Heartbeat CPU 0 instructions: 210000000 cycles: 53109498 heartbeat IPC: 4 cumulative IPC: 3.94 (Simulation time: 00 hr 24 min 58 sec)
Heartbeat CPU 0 instructions: 220000000 cycles: 55613127 heartbeat IPC: 3.994 cumulative IPC: 3.943 (Simulation time: 00 hr 26 min 08 sec)
Heartbeat CPU 0 instructions: 230000002 cycles: 58113150 heartbeat IPC: 4 cumulative IPC: 3.946 (Simulation time: 00 hr 27 min 14 sec)
Heartbeat CPU 0 instructions: 240000003 cycles: 60613172 heartbeat IPC: 4 cumulative IPC: 3.949 (Simulation time: 00 hr 28 min 22 sec)
Heartbeat CPU 0 instructions: 250000000 cycles: 63113255 heartbeat IPC: 4 cumulative IPC: 3.952 (Simulation time: 00 hr 29 min 30 sec)
Heartbeat CPU 0 instructions: 260000001 cycles: 65613722 heartbeat IPC: 3.999 cumulative IPC: 3.954 (Simulation time: 00 hr 30 min 39 sec)
Heartbeat CPU 0 instructions: 270000002 cycles: 68116525 heartbeat IPC: 3.996 cumulative IPC: 3.956 (Simulation time: 00 hr 31 min 46 sec)
Heartbeat CPU 0 instructions: 280000003 cycles: 70616555 heartbeat IPC: 4 cumulative IPC: 3.958 (Simulation time: 00 hr 32 min 55 sec)
Heartbeat CPU 0 instructions: 290000004 cycles: 73116576 heartbeat IPC: 4 cumulative IPC: 3.959 (Simulation time: 00 hr 34 min 05 sec)
Heartbeat CPU 0 instructions: 300000004 cycles: 75616597 heartbeat IPC: 4 cumulative IPC: 3.961 (Simulation time: 00 hr 35 min 12 sec)
Heartbeat CPU 0 instructions: 310000000 cycles: 78116620 heartbeat IPC: 4 cumulative IPC: 3.962 (Simulation time: 00 hr 36 min 23 sec)
Heartbeat CPU 0 instructions: 320000004 cycles: 80619127 heartbeat IPC: 3.996 cumulative IPC: 3.964 (Simulation time: 00 hr 37 min 35 sec)
Heartbeat CPU 0 instructions: 330000000 cycles: 83119651 heartbeat IPC: 3.999 cumulative IPC: 3.965 (Simulation time: 00 hr 38 min 45 sec)
Heartbeat CPU 0 instructions: 340000001 cycles: 85620116 heartbeat IPC: 3.999 cumulative IPC: 3.966 (Simulation time: 00 hr 39 min 54 sec)
Heartbeat CPU 0 instructions: 350000002 cycles: 88120138 heartbeat IPC: 4 cumulative IPC: 3.967 (Simulation time: 00 hr 41 min 03 sec)
Heartbeat CPU 0 instructions: 360000004 cycles: 90620159 heartbeat IPC: 4 cumulative IPC: 3.968 (Simulation time: 00 hr 42 min 15 sec)
Heartbeat CPU 0 instructions: 370000004 cycles: 93123769 heartbeat IPC: 3.994 cumulative IPC: 3.969 (Simulation time: 00 hr 43 min 25 sec)
Heartbeat CPU 0 instructions: 380000000 cycles: 95623832 heartbeat IPC: 4 cumulative IPC: 3.97 (Simulation time: 00 hr 44 min 36 sec)
Heartbeat CPU 0 instructions: 390000004 cycles: 98123855 heartbeat IPC: 4 cumulative IPC: 3.971 (Simulation time: 00 hr 45 min 44 sec)
Heartbeat CPU 0 instructions: 400000001 cycles: 100623875 heartbeat IPC: 4 cumulative IPC: 3.972 (Simulation time: 00 hr 46 min 57 sec)
Heartbeat CPU 0 instructions: 410000004 cycles: 103127659 heartbeat IPC: 3.994 cumulative IPC: 3.972 (Simulation time: 00 hr 48 min 06 sec)
Heartbeat CPU 0 instructions: 420000001 cycles: 105628181 heartbeat IPC: 3.999 cumulative IPC: 3.973 (Simulation time: 00 hr 49 min 17 sec)
Heartbeat CPU 0 instructions: 430000002 cycles: 108128202 heartbeat IPC: 4 cumulative IPC: 3.974 (Simulation time: 00 hr 50 min 26 sec)
Heartbeat CPU 0 instructions: 440000004 cycles: 110628224 heartbeat IPC: 4 cumulative IPC: 3.974 (Simulation time: 00 hr 51 min 38 sec)
Heartbeat CPU 0 instructions: 450000004 cycles: 113128244 heartbeat IPC: 4 cumulative IPC: 3.975 (Simulation time: 00 hr 52 min 48 sec)
Heartbeat CPU 0 instructions: 460000001 cycles: 115630334 heartbeat IPC: 3.997 cumulative IPC: 3.976 (Simulation time: 00 hr 54 min 00 sec)
Heartbeat CPU 0 instructions: 470000002 cycles: 118130355 heartbeat IPC: 4 cumulative IPC: 3.976 (Simulation time: 00 hr 55 min 11 sec)
Heartbeat CPU 0 instructions: 480000003 cycles: 120630377 heartbeat IPC: 4 cumulative IPC: 3.977 (Simulation time: 00 hr 56 min 20 sec)
Heartbeat CPU 0 instructions: 490000000 cycles: 123130843 heartbeat IPC: 3.999 cumulative IPC: 3.977 (Simulation time: 00 hr 57 min 32 sec)
Heartbeat CPU 0 instructions: 500000001 cycles: 125630865 heartbeat IPC: 4 cumulative IPC: 3.978 (Simulation time: 00 hr 58 min 43 sec)
Heartbeat CPU 0 instructions: 510000003 cycles: 128130887 heartbeat IPC: 4 cumulative IPC: 3.978 (Simulation time: 00 hr 59 min 53 sec)
Heartbeat CPU 0 instructions: 520000004 cycles: 130633877 heartbeat IPC: 3.995 cumulative IPC: 3.979 (Simulation time: 01 hr 01 min 04 sec)
Heartbeat CPU 0 instructions: 530000000 cycles: 133133919 heartbeat IPC: 4 cumulative IPC: 3.979 (Simulation time: 01 hr 02 min 13 sec)
Heartbeat CPU 0 instructions: 540000001 cycles: 135633939 heartbeat IPC: 4 cumulative IPC: 3.979 (Simulation time: 01 hr 03 min 24 sec)
Heartbeat CPU 0 instructions: 550000001 cycles: 138133960 heartbeat IPC: 4 cumulative IPC: 3.98 (Simulation time: 01 hr 04 min 32 sec)
Heartbeat CPU 0 instructions: 560000003 cycles: 140635998 heartbeat IPC: 3.997 cumulative IPC: 3.98 (Simulation time: 01 hr 05 min 42 sec)
Heartbeat CPU 0 instructions: 570000004 cycles: 143136028 heartbeat IPC: 4 cumulative IPC: 3.981 (Simulation time: 01 hr 06 min 51 sec)
Heartbeat CPU 0 instructions: 580000003 cycles: 145636049 heartbeat IPC: 4 cumulative IPC: 3.981 (Simulation time: 01 hr 07 min 59 sec)
Heartbeat CPU 0 instructions: 590000000 cycles: 148136072 heartbeat IPC: 4 cumulative IPC: 3.981 (Simulation time: 01 hr 09 min 05 sec)
*** Reached end of trace: (0, "traces/convolution.champsimtrace")
Heartbeat CPU 0 instructions: 600000003 cycles: 150636094 heartbeat IPC: 4 cumulative IPC: 3.982 (Simulation time: 01 hr 10 min 11 sec)
Heartbeat CPU 0 instructions: 610000004 cycles: 179775495 heartbeat IPC: 0.3432 cumulative IPC: 3.348 (Simulation time: 01 hr 16 min 24 sec)
Heartbeat CPU 0 instructions: 620000002 cycles: 206921557 heartbeat IPC: 0.3684 cumulative IPC: 2.932 (Simulation time: 01 hr 21 min 41 sec)
Heartbeat CPU 0 instructions: 630000000 cycles: 218340092 heartbeat IPC: 0.8758 cumulative IPC: 2.818 (Simulation time: 01 hr 23 min 53 sec)
Heartbeat CPU 0 instructions: 640000002 cycles: 229024409 heartbeat IPC: 0.936 cumulative IPC: 2.725 (Simulation time: 01 hr 25 min 58 sec)
Heartbeat CPU 0 instructions: 650000004 cycles: 239620433 heartbeat IPC: 0.9438 cumulative IPC: 2.642 (Simulation time: 01 hr 28 min 04 sec)
Simulation finished CPU 0 instructions: 600000003 cycles: 227120231 cumulative IPC: 2.642 (Simulation time: 01 hr 28 min 04 sec)
Simulation complete CPU 0 instructions: 600000003 cycles: 227120231 cumulative IPC: 2.642 (Simulation time: 01 hr 28 min 04 sec)

ChampSim completed all CPUs

=== Simulation ===
CPU 0 runs traces/convolution.champsimtrace
Region of Interest Statistics

CPU 0 cumulative IPC: 2.642 instructions: 600000003 cycles: 227120231
CPU 0 Branch Prediction Accuracy: 100% MPKI: 0.00296 Average ROB Occupancy at Mispredict: 69.43
Branch type MPKI
BRANCH_DIRECT_JUMP: 0.000107
BRANCH_INDIRECT: 4e-05
BRANCH_CONDITIONAL: 0.00268
BRANCH_DIRECT_CALL: 0.000103
BRANCH_INDIRECT_CALL: 8.33e-06
BRANCH_RETURN: 1.83e-05

LLC TOTAL        ACCESS:    1183551 HIT:     471725 MISS:     711826
LLC LOAD         ACCESS:       2894 HIT:       1391 MISS:       1503
LLC RFO          ACCESS:     535132 HIT:        530 MISS:     534602
LLC PREFETCH     ACCESS:          0 HIT:          0 MISS:          0
LLC WRITE        ACCESS:     535184 HIT:     469265 MISS:      65919
LLC TRANSLATION  ACCESS:     110341 HIT:        539 MISS:     109802
LLC PREFETCH REQUESTED:          0 ISSUED:          0 USEFUL:          0 USELESS:          0
LLC AVERAGE MISS LATENCY: 1051 cycles
cpu0_DTLB TOTAL        ACCESS:  113110340 HIT:  112756939 MISS:     353401
cpu0_DTLB LOAD         ACCESS:  113110340 HIT:  112756939 MISS:     353401
cpu0_DTLB RFO          ACCESS:          0 HIT:          0 MISS:          0
cpu0_DTLB PREFETCH     ACCESS:          0 HIT:          0 MISS:          0
cpu0_DTLB WRITE        ACCESS:          0 HIT:          0 MISS:          0
cpu0_DTLB TRANSLATION  ACCESS:          0 HIT:          0 MISS:          0
cpu0_DTLB PREFETCH REQUESTED:          0 ISSUED:          0 USEFUL:          0 USELESS:          0
cpu0_DTLB AVERAGE MISS LATENCY: 779.2 cycles
cpu0_ITLB TOTAL        ACCESS:       2114 HIT:       2076 MISS:         38
cpu0_ITLB LOAD         ACCESS:       2114 HIT:       2076 MISS:         38
cpu0_ITLB RFO          ACCESS:          0 HIT:          0 MISS:          0
cpu0_ITLB PREFETCH     ACCESS:          0 HIT:          0 MISS:          0
cpu0_ITLB WRITE        ACCESS:          0 HIT:          0 MISS:          0
cpu0_ITLB TRANSLATION  ACCESS:          0 HIT:          0 MISS:          0
cpu0_ITLB PREFETCH REQUESTED:          0 ISSUED:          0 USEFUL:          0 USELESS:          0
cpu0_ITLB AVERAGE MISS LATENCY: 438.1 cycles
cpu0_L1D TOTAL        ACCESS:  146345579 HIT:  140128780 MISS:    6216799
cpu0_L1D LOAD         ACCESS:   74194275 HIT:   74186095 MISS:       8180
cpu0_L1D RFO          ACCESS:          0 HIT:          0 MISS:          0
cpu0_L1D PREFETCH     ACCESS:          0 HIT:          0 MISS:          0
cpu0_L1D WRITE        ACCESS:   71970207 HIT:   65904474 MISS:    6065733
cpu0_L1D TRANSLATION  ACCESS:     181097 HIT:      38211 MISS:     142886
cpu0_L1D PREFETCH REQUESTED:          0 ISSUED:          0 USEFUL:          0 USELESS:          0
cpu0_L1D AVERAGE MISS LATENCY: 95.63 cycles
cpu0_L1I TOTAL        ACCESS:       2444 HIT:       1016 MISS:       1428
cpu0_L1I LOAD         ACCESS:       2444 HIT:       1016 MISS:       1428
cpu0_L1I RFO          ACCESS:          0 HIT:          0 MISS:          0
cpu0_L1I PREFETCH     ACCESS:          0 HIT:          0 MISS:          0
cpu0_L1I WRITE        ACCESS:          0 HIT:          0 MISS:          0
cpu0_L1I TRANSLATION  ACCESS:          0 HIT:          0 MISS:          0
cpu0_L1I PREFETCH REQUESTED:          0 ISSUED:          0 USEFUL:          0 USELESS:          0
cpu0_L1I AVERAGE MISS LATENCY: 273.5 cycles
cpu0_L2C TOTAL        ACCESS:    1193985 HIT:     545604 MISS:     648381
cpu0_L2C LOAD         ACCESS:       3321 HIT:        427 MISS:       2894
cpu0_L2C RFO          ACCESS:     539421 HIT:       4289 MISS:     535132
cpu0_L2C PREFETCH     ACCESS:          0 HIT:          0 MISS:          0
cpu0_L2C WRITE        ACCESS:     539547 HIT:     539533 MISS:         14
cpu0_L2C TRANSLATION  ACCESS:     111696 HIT:       1355 MISS:     110341
cpu0_L2C PREFETCH REQUESTED:          0 ISSUED:          0 USEFUL:          0 USELESS:          0
cpu0_L2C AVERAGE MISS LATENCY: 1175 cycles
cpu0_STLB TOTAL        ACCESS:     156158 HIT:         44 MISS:     156114
cpu0_STLB LOAD         ACCESS:     156158 HIT:         44 MISS:     156114
cpu0_STLB RFO          ACCESS:          0 HIT:          0 MISS:          0
cpu0_STLB PREFETCH     ACCESS:          0 HIT:          0 MISS:          0
cpu0_STLB WRITE        ACCESS:          0 HIT:          0 MISS:          0
cpu0_STLB TRANSLATION  ACCESS:          0 HIT:          0 MISS:          0
cpu0_STLB PREFETCH REQUESTED:          0 ISSUED:          0 USEFUL:          0 USELESS:          0
cpu0_STLB AVERAGE MISS LATENCY: 1967 cycles

DRAM Statistics

Channel 0 RQ ROW_BUFFER_HIT:     143793
  ROW_BUFFER_MISS:     502110
 AVG DBUS CONGESTED CYCLE: 3.987
WQ ROW_BUFFER_HIT: Channel 0 
  ROW_BUFFER_MISS:       6308
  FULL:     528238
