WARNING: physical memory size is smaller than virtual memory size.

*** ChampSim Multicore Out-of-Order Simulator ***
Warmup Instructions: 50000000
Simulation Instructions: 600000000
Number of CPUs: 1
Page size: 4096

Off-chip DRAM Size: 4 GiB Channels: 1 Width: 64-bit Data Race: 3200 MT/s
Heartbeat CPU 0 instructions: 10000000 cycles: 2500202 heartbeat IPC: 4 cumulative IPC: 4 (Simulation time: 00 hr 00 min 33 sec)
Heartbeat CPU 0 instructions: 20000000 cycles: 5000202 heartbeat IPC: 4 cumulative IPC: 4 (Simulation time: 00 hr 01 min 07 sec)
Heartbeat CPU 0 instructions: 30000000 cycles: 7500202 heartbeat IPC: 4 cumulative IPC: 4 (Simulation time: 00 hr 01 min 40 sec)
Heartbeat CPU 0 instructions: 40000000 cycles: 10000202 heartbeat IPC: 4 cumulative IPC: 4 (Simulation time: 00 hr 02 min 12 sec)
Heartbeat CPU 0 instructions: 50000000 cycles: 12500202 heartbeat IPC: 4 cumulative IPC: 4 (Simulation time: 00 hr 02 min 45 sec)
Warmup finished CPU 0 instructions: 50000000 cycles: 12500203 cumulative IPC: 4 (Simulation time: 00 hr 02 min 45 sec)
Warmup complete CPU 0 instructions: 50000000 cycles: 12500203 cumulative IPC: 4 (Simulation time: 00 hr 02 min 45 sec)
Heartbeat CPU 0 instructions: 60000002 cycles: 15726023 heartbeat IPC: 3.1 cumulative IPC: 3.1 (Simulation time: 00 hr 03 min 28 sec)
Heartbeat CPU 0 instructions: 70000002 cycles: 18384965 heartbeat IPC: 3.761 cumulative IPC: 3.399 (Simulation time: 00 hr 04 min 06 sec)
Heartbeat CPU 0 instructions: 80000003 cycles: 21041771 heartbeat IPC: 3.764 cumulative IPC: 3.512 (Simulation time: 00 hr 04 min 54 sec)
Heartbeat CPU 0 instructions: 90000004 cycles: 23696734 heartbeat IPC: 3.767 cumulative IPC: 3.573 (Simulation time: 00 hr 05 min 34 sec)
Heartbeat CPU 0 instructions: 100000003 cycles: 26352652 heartbeat IPC: 3.765 cumulative IPC: 3.609 (Simulation time: 00 hr 06 min 13 sec)
Heartbeat CPU 0 instructions: 110000000 cycles: 29008987 heartbeat IPC: 3.765 cumulative IPC: 3.634 (Simulation time: 00 hr 06 min 51 sec)
Heartbeat CPU 0 instructions: 120000000 cycles: 31664772 heartbeat IPC: 3.765 cumulative IPC: 3.653 (Simulation time: 00 hr 07 min 27 sec)
Heartbeat CPU 0 instructions: 130000000 cycles: 34322025 heartbeat IPC: 3.763 cumulative IPC: 3.666 (Simulation time: 00 hr 08 min 06 sec)
Heartbeat CPU 0 instructions: 140000001 cycles: 36980341 heartbeat IPC: 3.762 cumulative IPC: 3.676 (Simulation time: 00 hr 08 min 43 sec)
Heartbeat CPU 0 instructions: 150000003 cycles: 39635984 heartbeat IPC: 3.766 cumulative IPC: 3.685 (Simulation time: 00 hr 09 min 22 sec)
Heartbeat CPU 0 instructions: 160000003 cycles: 42291062 heartbeat IPC: 3.766 cumulative IPC: 3.692 (Simulation time: 00 hr 10 min 00 sec)
Heartbeat CPU 0 instructions: 170000001 cycles: 44946725 heartbeat IPC: 3.766 cumulative IPC: 3.698 (Simulation time: 00 hr 10 min 40 sec)
Heartbeat CPU 0 instructions: 180000001 cycles: 47601545 heartbeat IPC: 3.767 cumulative IPC: 3.704 (Simulation time: 00 hr 11 min 20 sec)
Heartbeat CPU 0 instructions: 190000002 cycles: 50256916 heartbeat IPC: 3.766 cumulative IPC: 3.708 (Simulation time: 00 hr 11 min 56 sec)
Heartbeat CPU 0 instructions: 200000001 cycles: 52912169 heartbeat IPC: 3.766 cumulative IPC: 3.712 (Simulation time: 00 hr 12 min 31 sec)
Heartbeat CPU 0 instructions: 210000000 cycles: 55570918 heartbeat IPC: 3.761 cumulative IPC: 3.715 (Simulation time: 00 hr 13 min 09 sec)
Heartbeat CPU 0 instructions: 220000001 cycles: 58226756 heartbeat IPC: 3.765 cumulative IPC: 3.718 (Simulation time: 00 hr 13 min 45 sec)
Heartbeat CPU 0 instructions: 230000002 cycles: 60886308 heartbeat IPC: 3.76 cumulative IPC: 3.72 (Simulation time: 00 hr 14 min 22 sec)
Heartbeat CPU 0 instructions: 240000004 cycles: 63543484 heartbeat IPC: 3.763 cumulative IPC: 3.722 (Simulation time: 00 hr 15 min 00 sec)
Heartbeat CPU 0 instructions: 250000000 cycles: 66203581 heartbeat IPC: 3.759 cumulative IPC: 3.724 (Simulation time: 00 hr 15 min 37 sec)
Heartbeat CPU 0 instructions: 260000000 cycles: 68862117 heartbeat IPC: 3.761 cumulative IPC: 3.726 (Simulation time: 00 hr 16 min 12 sec)
Heartbeat CPU 0 instructions: 270000002 cycles: 71514567 heartbeat IPC: 3.77 cumulative IPC: 3.728 (Simulation time: 00 hr 16 min 49 sec)
Heartbeat CPU 0 instructions: 280000003 cycles: 74169861 heartbeat IPC: 3.766 cumulative IPC: 3.73 (Simulation time: 00 hr 17 min 28 sec)
Heartbeat CPU 0 instructions: 290000002 cycles: 76826972 heartbeat IPC: 3.763 cumulative IPC: 3.731 (Simulation time: 00 hr 18 min 05 sec)
Heartbeat CPU 0 instructions: 300000000 cycles: 79481905 heartbeat IPC: 3.767 cumulative IPC: 3.732 (Simulation time: 00 hr 18 min 42 sec)
Heartbeat CPU 0 instructions: 310000002 cycles: 82137850 heartbeat IPC: 3.765 cumulative IPC: 3.734 (Simulation time: 00 hr 19 min 18 sec)
Heartbeat CPU 0 instructions: 320000004 cycles: 84795836 heartbeat IPC: 3.762 cumulative IPC: 3.735 (Simulation time: 00 hr 19 min 53 sec)
Heartbeat CPU 0 instructions: 330000000 cycles: 87455073 heartbeat IPC: 3.76 cumulative IPC: 3.736 (Simulation time: 00 hr 20 min 28 sec)
Heartbeat CPU 0 instructions: 340000002 cycles: 90109579 heartbeat IPC: 3.767 cumulative IPC: 3.737 (Simulation time: 00 hr 21 min 04 sec)
Heartbeat CPU 0 instructions: 350000002 cycles: 92764413 heartbeat IPC: 3.767 cumulative IPC: 3.738 (Simulation time: 00 hr 21 min 39 sec)
Heartbeat CPU 0 instructions: 360000001 cycles: 95421230 heartbeat IPC: 3.764 cumulative IPC: 3.738 (Simulation time: 00 hr 22 min 14 sec)
Heartbeat CPU 0 instructions: 370000004 cycles: 98076745 heartbeat IPC: 3.766 cumulative IPC: 3.739 (Simulation time: 00 hr 22 min 49 sec)
Heartbeat CPU 0 instructions: 380000000 cycles: 100731126 heartbeat IPC: 3.767 cumulative IPC: 3.74 (Simulation time: 00 hr 23 min 24 sec)
Heartbeat CPU 0 instructions: 390000003 cycles: 103385496 heartbeat IPC: 3.767 cumulative IPC: 3.741 (Simulation time: 00 hr 23 min 59 sec)
Heartbeat CPU 0 instructions: 400000000 cycles: 106041952 heartbeat IPC: 3.764 cumulative IPC: 3.742 (Simulation time: 00 hr 24 min 34 sec)
Heartbeat CPU 0 instructions: 410000000 cycles: 108698004 heartbeat IPC: 3.765 cumulative IPC: 3.742 (Simulation time: 00 hr 25 min 09 sec)
Heartbeat CPU 0 instructions: 420000001 cycles: 111353131 heartbeat IPC: 3.766 cumulative IPC: 3.743 (Simulation time: 00 hr 25 min 44 sec)
Heartbeat CPU 0 instructions: 430000003 cycles: 114009916 heartbeat IPC: 3.764 cumulative IPC: 3.743 (Simulation time: 00 hr 26 min 19 sec)
Heartbeat CPU 0 instructions: 440000003 cycles: 116663634 heartbeat IPC: 3.768 cumulative IPC: 3.744 (Simulation time: 00 hr 26 min 54 sec)
Heartbeat CPU 0 instructions: 450000004 cycles: 119322155 heartbeat IPC: 3.761 cumulative IPC: 3.745 (Simulation time: 00 hr 27 min 30 sec)
Heartbeat CPU 0 instructions: 460000001 cycles: 121979977 heartbeat IPC: 3.762 cumulative IPC: 3.745 (Simulation time: 00 hr 28 min 05 sec)
Heartbeat CPU 0 instructions: 470000002 cycles: 124635711 heartbeat IPC: 3.765 cumulative IPC: 3.745 (Simulation time: 00 hr 28 min 40 sec)
Heartbeat CPU 0 instructions: 480000001 cycles: 127289697 heartbeat IPC: 3.768 cumulative IPC: 3.746 (Simulation time: 00 hr 29 min 18 sec)
Heartbeat CPU 0 instructions: 490000000 cycles: 129947608 heartbeat IPC: 3.762 cumulative IPC: 3.746 (Simulation time: 00 hr 29 min 55 sec)
Heartbeat CPU 0 instructions: 500000002 cycles: 132602200 heartbeat IPC: 3.767 cumulative IPC: 3.747 (Simulation time: 00 hr 30 min 34 sec)
Heartbeat CPU 0 instructions: 510000003 cycles: 135258737 heartbeat IPC: 3.764 cumulative IPC: 3.747 (Simulation time: 00 hr 31 min 11 sec)
Heartbeat CPU 0 instructions: 520000004 cycles: 137924484 heartbeat IPC: 3.751 cumulative IPC: 3.747 (Simulation time: 00 hr 31 min 48 sec)
Heartbeat CPU 0 instructions: 530000000 cycles: 140581192 heartbeat IPC: 3.764 cumulative IPC: 3.748 (Simulation time: 00 hr 32 min 24 sec)
Heartbeat CPU 0 instructions: 540000000 cycles: 143235981 heartbeat IPC: 3.767 cumulative IPC: 3.748 (Simulation time: 00 hr 32 min 59 sec)
Heartbeat CPU 0 instructions: 550000003 cycles: 145889549 heartbeat IPC: 3.769 cumulative IPC: 3.748 (Simulation time: 00 hr 33 min 34 sec)
Heartbeat CPU 0 instructions: 560000003 cycles: 148548933 heartbeat IPC: 3.76 cumulative IPC: 3.749 (Simulation time: 00 hr 34 min 09 sec)
Heartbeat CPU 0 instructions: 570000004 cycles: 151208358 heartbeat IPC: 3.76 cumulative IPC: 3.749 (Simulation time: 00 hr 34 min 44 sec)
Heartbeat CPU 0 instructions: 580000000 cycles: 153865935 heartbeat IPC: 3.763 cumulative IPC: 3.749 (Simulation time: 00 hr 35 min 19 sec)
Heartbeat CPU 0 instructions: 590000002 cycles: 156521308 heartbeat IPC: 3.766 cumulative IPC: 3.749 (Simulation time: 00 hr 35 min 54 sec)
*** Reached end of trace: (0, "traces/convolution.champsimtrace")
Heartbeat CPU 0 instructions: 600000000 cycles: 159178530 heartbeat IPC: 3.763 cumulative IPC: 3.75 (Simulation time: 00 hr 36 min 29 sec)
Heartbeat CPU 0 instructions: 610000002 cycles: 181320025 heartbeat IPC: 0.4516 cumulative IPC: 3.317 (Simulation time: 00 hr 39 min 21 sec)
Heartbeat CPU 0 instructions: 620000001 cycles: 200360096 heartbeat IPC: 0.5252 cumulative IPC: 3.034 (Simulation time: 00 hr 42 min 03 sec)
Heartbeat CPU 0 instructions: 630000001 cycles: 208924941 heartbeat IPC: 1.168 cumulative IPC: 2.953 (Simulation time: 00 hr 43 min 26 sec)
Heartbeat CPU 0 instructions: 640000004 cycles: 219719884 heartbeat IPC: 0.9264 cumulative IPC: 2.847 (Simulation time: 00 hr 45 min 06 sec)
Heartbeat CPU 0 instructions: 650000001 cycles: 230455244 heartbeat IPC: 0.9315 cumulative IPC: 2.753 (Simulation time: 00 hr 46 min 46 sec)
Simulation finished CPU 0 instructions: 600000001 cycles: 217955042 cumulative IPC: 2.753 (Simulation time: 00 hr 46 min 46 sec)
Simulation complete CPU 0 instructions: 600000001 cycles: 217955042 cumulative IPC: 2.753 (Simulation time: 00 hr 46 min 46 sec)

ChampSim completed all CPUs

=== Simulation ===
CPU 0 runs traces/convolution.champsimtrace
Region of Interest Statistics

CPU 0 cumulative IPC: 2.753 instructions: 600000001 cycles: 217955042
CPU 0 Branch Prediction Accuracy: 99.47% MPKI: 0.9507 Average ROB Occupancy at Mispredict: 69.16
Branch type MPKI
BRANCH_DIRECT_JUMP: 0.000107
BRANCH_INDIRECT: 4.17e-05
BRANCH_CONDITIONAL: 0.95
BRANCH_DIRECT_CALL: 0.000103
BRANCH_INDIRECT_CALL: 8.33e-06
BRANCH_RETURN: 1.83e-05

LLC TOTAL        ACCESS:    1182756 HIT:      50680 MISS:    1132076
LLC LOAD         ACCESS:       2888 HIT:       1432 MISS:       1456
LLC RFO          ACCESS:     535119 HIT:      16592 MISS:     518527
LLC PREFETCH     ACCESS:          0 HIT:          0 MISS:          0
LLC WRITE        ACCESS:     535169 HIT:      19318 MISS:     515851
LLC TRANSLATION  ACCESS:     109580 HIT:      13338 MISS:      96242
LLC PREFETCH REQUESTED:          0 ISSUED:          0 USEFUL:          0 USELESS:          0
LLC AVERAGE MISS LATENCY: 552.4 cycles
cpu0_DTLB TOTAL        ACCESS:  120210798 HIT:  119873649 MISS:     337149
cpu0_DTLB LOAD         ACCESS:  120210798 HIT:  119873649 MISS:     337149
cpu0_DTLB RFO          ACCESS:          0 HIT:          0 MISS:          0
cpu0_DTLB PREFETCH     ACCESS:          0 HIT:          0 MISS:          0
cpu0_DTLB WRITE        ACCESS:          0 HIT:          0 MISS:          0
cpu0_DTLB TRANSLATION  ACCESS:          0 HIT:          0 MISS:          0
cpu0_DTLB PREFETCH REQUESTED:          0 ISSUED:          0 USEFUL:          0 USELESS:          0
cpu0_DTLB AVERAGE MISS LATENCY: 635.5 cycles
cpu0_ITLB TOTAL        ACCESS:       2003 HIT:       1972 MISS:         31
cpu0_ITLB LOAD         ACCESS:       2003 HIT:       1972 MISS:         31
cpu0_ITLB RFO          ACCESS:          0 HIT:          0 MISS:          0
cpu0_ITLB PREFETCH     ACCESS:          0 HIT:          0 MISS:          0
cpu0_ITLB WRITE        ACCESS:          0 HIT:          0 MISS:          0
cpu0_ITLB TRANSLATION  ACCESS:          0 HIT:          0 MISS:          0
cpu0_ITLB PREFETCH REQUESTED:          0 ISSUED:          0 USEFUL:          0 USELESS:          0
cpu0_ITLB AVERAGE MISS LATENCY: 461.4 cycles
cpu0_L1D TOTAL        ACCESS:  161282107 HIT:  155139753 MISS:    6142354
cpu0_L1D LOAD         ACCESS:   89042475 HIT:   89035969 MISS:       6506
cpu0_L1D RFO          ACCESS:          0 HIT:          0 MISS:          0
cpu0_L1D PREFETCH     ACCESS:          0 HIT:          0 MISS:          0
cpu0_L1D WRITE        ACCESS:   72059084 HIT:   66067702 MISS:    5991382
cpu0_L1D TRANSLATION  ACCESS:     180548 HIT:      36082 MISS:     144466
cpu0_L1D PREFETCH REQUESTED:          0 ISSUED:          0 USEFUL:          0 USELESS:          0
cpu0_L1D AVERAGE MISS LATENCY: 80.35 cycles
cpu0_L1I TOTAL        ACCESS:       2298 HIT:       1012 MISS:       1286
cpu0_L1I LOAD         ACCESS:       2298 HIT:       1012 MISS:       1286
cpu0_L1I RFO          ACCESS:          0 HIT:          0 MISS:          0
cpu0_L1I PREFETCH     ACCESS:          0 HIT:          0 MISS:          0
cpu0_L1I WRITE        ACCESS:          0 HIT:          0 MISS:          0
cpu0_L1I TRANSLATION  ACCESS:          0 HIT:          0 MISS:          0
cpu0_L1I PREFETCH REQUESTED:          0 ISSUED:          0 USEFUL:          0 USELESS:          0
cpu0_L1I AVERAGE MISS LATENCY: 359.4 cycles
cpu0_L2C TOTAL        ACCESS:    1190503 HIT:     542897 MISS:     647606
cpu0_L2C LOAD         ACCESS:       3314 HIT:        426 MISS:       2888
cpu0_L2C RFO          ACCESS:     538063 HIT:       2944 MISS:     535119
cpu0_L2C PREFETCH     ACCESS:          0 HIT:          0 MISS:          0
cpu0_L2C WRITE        ACCESS:     538216 HIT:     538198 MISS:         18
cpu0_L2C TRANSLATION  ACCESS:     110910 HIT:       1329 MISS:     109581
cpu0_L2C PREFETCH REQUESTED:          0 ISSUED:          0 USEFUL:          0 USELESS:          0
cpu0_L2C AVERAGE MISS LATENCY: 986.6 cycles
cpu0_STLB TOTAL        ACCESS:     156158 HIT:         51 MISS:     156107
cpu0_STLB LOAD         ACCESS:     156158 HIT:         51 MISS:     156107
cpu0_STLB RFO          ACCESS:          0 HIT:          0 MISS:          0
cpu0_STLB PREFETCH     ACCESS:          0 HIT:          0 MISS:          0
cpu0_STLB WRITE        ACCESS:          0 HIT:          0 MISS:          0
cpu0_STLB TRANSLATION  ACCESS:          0 HIT:          0 MISS:          0
cpu0_STLB PREFETCH REQUESTED:          0 ISSUED:          0 USEFUL:          0 USELESS:          0
cpu0_STLB AVERAGE MISS LATENCY: 1549 cycles

DRAM Statistics

Channel 0 RQ ROW_BUFFER_HIT:     138555
  ROW_BUFFER_MISS:     477665
 AVG DBUS CONGESTED CYCLE: 3.975
WQ ROW_BUFFER_HIT: Channel 0 
  ROW_BUFFER_MISS:     119871
  FULL:     398639
