WARNING: physical memory size is smaller than virtual memory size.

*** ChampSim Multicore Out-of-Order Simulator ***
Warmup Instructions: 50000000
Simulation Instructions: 600000000
Number of CPUs: 1
Page size: 4096

CPU 0 Tage branch predictor
Off-chip DRAM Size: 4 GiB Channels: 1 Width: 64-bit Data Race: 3200 MT/s
Heartbeat CPU 0 instructions: 10000001 cycles: 2500202 heartbeat IPC: 4 cumulative IPC: 4 (Simulation time: 00 hr 01 min 44 sec)
Heartbeat CPU 0 instructions: 20000001 cycles: 5000202 heartbeat IPC: 4 cumulative IPC: 4 (Simulation time: 00 hr 03 min 02 sec)
Heartbeat CPU 0 instructions: 30000001 cycles: 7500202 heartbeat IPC: 4 cumulative IPC: 4 (Simulation time: 00 hr 04 min 11 sec)
Heartbeat CPU 0 instructions: 40000001 cycles: 10000202 heartbeat IPC: 4 cumulative IPC: 4 (Simulation time: 00 hr 05 min 15 sec)
Heartbeat CPU 0 instructions: 50000001 cycles: 12500202 heartbeat IPC: 4 cumulative IPC: 4 (Simulation time: 00 hr 06 min 19 sec)
Warmup finished CPU 0 instructions: 50000001 cycles: 12500203 cumulative IPC: 4 (Simulation time: 00 hr 06 min 19 sec)
Warmup complete CPU 0 instructions: 50000001 cycles: 12500203 cumulative IPC: 4 (Simulation time: 00 hr 06 min 19 sec)
Heartbeat CPU 0 instructions: 60000002 cycles: 15596331 heartbeat IPC: 3.23 cumulative IPC: 3.23 (Simulation time: 00 hr 07 min 39 sec)
Heartbeat CPU 0 instructions: 70000002 cycles: 18099208 heartbeat IPC: 3.995 cumulative IPC: 3.572 (Simulation time: 00 hr 08 min 50 sec)
Heartbeat CPU 0 instructions: 80000002 cycles: 20599229 heartbeat IPC: 4 cumulative IPC: 3.704 (Simulation time: 00 hr 10 min 02 sec)
Heartbeat CPU 0 instructions: 90000004 cycles: 23099250 heartbeat IPC: 4 cumulative IPC: 3.774 (Simulation time: 00 hr 11 min 15 sec)
Heartbeat CPU 0 instructions: 100000000 cycles: 25599271 heartbeat IPC: 4 cumulative IPC: 3.817 (Simulation time: 00 hr 12 min 27 sec)
Heartbeat CPU 0 instructions: 110000002 cycles: 28099753 heartbeat IPC: 3.999 cumulative IPC: 3.846 (Simulation time: 00 hr 13 min 39 sec)
Heartbeat CPU 0 instructions: 120000000 cycles: 30601186 heartbeat IPC: 3.998 cumulative IPC: 3.867 (Simulation time: 00 hr 14 min 50 sec)
Heartbeat CPU 0 instructions: 130000000 cycles: 33102574 heartbeat IPC: 3.998 cumulative IPC: 3.883 (Simulation time: 00 hr 16 min 02 sec)
Heartbeat CPU 0 instructions: 140000001 cycles: 35602595 heartbeat IPC: 4 cumulative IPC: 3.896 (Simulation time: 00 hr 17 min 13 sec)
Heartbeat CPU 0 instructions: 150000002 cycles: 38102617 heartbeat IPC: 4 cumulative IPC: 3.906 (Simulation time: 00 hr 18 min 23 sec)
Heartbeat CPU 0 instructions: 160000004 cycles: 40602653 heartbeat IPC: 4 cumulative IPC: 3.914 (Simulation time: 00 hr 19 min 33 sec)
Heartbeat CPU 0 instructions: 170000004 cycles: 43104735 heartbeat IPC: 3.997 cumulative IPC: 3.921 (Simulation time: 00 hr 20 min 43 sec)
Heartbeat CPU 0 instructions: 180000001 cycles: 45605215 heartbeat IPC: 3.999 cumulative IPC: 3.927 (Simulation time: 00 hr 21 min 53 sec)
Heartbeat CPU 0 instructions: 190000002 cycles: 48106650 heartbeat IPC: 3.998 cumulative IPC: 3.932 (Simulation time: 00 hr 23 min 01 sec)
Heartbeat CPU 0 instructions: 200000002 cycles: 50606671 heartbeat IPC: 4 cumulative IPC: 3.936 (Simulation time: 00 hr 24 min 11 sec)
Heartbeat CPU 0 instructions: 210000000 cycles: 53106693 heartbeat IPC: 4 cumulative IPC: 3.94 (Simulation time: 00 hr 25 min 20 sec)
Heartbeat CPU 0 instructions: 220000000 cycles: 55609595 heartbeat IPC: 3.995 cumulative IPC: 3.943 (Simulation time: 00 hr 26 min 31 sec)
Heartbeat CPU 0 instructions: 230000002 cycles: 58109618 heartbeat IPC: 4 cumulative IPC: 3.947 (Simulation time: 00 hr 27 min 42 sec)
Heartbeat CPU 0 instructions: 240000003 cycles: 60609640 heartbeat IPC: 4 cumulative IPC: 3.949 (Simulation time: 00 hr 28 min 53 sec)
Heartbeat CPU 0 instructions: 250000000 cycles: 63109659 heartbeat IPC: 4 cumulative IPC: 3.952 (Simulation time: 00 hr 30 min 02 sec)
Heartbeat CPU 0 instructions: 260000001 cycles: 65610126 heartbeat IPC: 3.999 cumulative IPC: 3.954 (Simulation time: 00 hr 31 min 09 sec)
Heartbeat CPU 0 instructions: 270000002 cycles: 68113264 heartbeat IPC: 3.995 cumulative IPC: 3.956 (Simulation time: 00 hr 32 min 19 sec)
Heartbeat CPU 0 instructions: 280000003 cycles: 70613790 heartbeat IPC: 3.999 cumulative IPC: 3.958 (Simulation time: 00 hr 33 min 27 sec)
Heartbeat CPU 0 instructions: 290000004 cycles: 73113811 heartbeat IPC: 4 cumulative IPC: 3.96 (Simulation time: 00 hr 34 min 36 sec)
Heartbeat CPU 0 instructions: 300000003 cycles: 75613895 heartbeat IPC: 4 cumulative IPC: 3.961 (Simulation time: 00 hr 35 min 43 sec)
Heartbeat CPU 0 instructions: 310000000 cycles: 78113919 heartbeat IPC: 4 cumulative IPC: 3.963 (Simulation time: 00 hr 36 min 52 sec)
Heartbeat CPU 0 instructions: 320000004 cycles: 80617464 heartbeat IPC: 3.994 cumulative IPC: 3.964 (Simulation time: 00 hr 38 min 02 sec)
Heartbeat CPU 0 instructions: 330000000 cycles: 83117988 heartbeat IPC: 3.999 cumulative IPC: 3.965 (Simulation time: 00 hr 39 min 09 sec)
Heartbeat CPU 0 instructions: 340000001 cycles: 85618918 heartbeat IPC: 3.999 cumulative IPC: 3.966 (Simulation time: 00 hr 40 min 19 sec)
Heartbeat CPU 0 instructions: 350000002 cycles: 88118940 heartbeat IPC: 4 cumulative IPC: 3.967 (Simulation time: 00 hr 41 min 29 sec)
Heartbeat CPU 0 instructions: 360000004 cycles: 90618961 heartbeat IPC: 4 cumulative IPC: 3.968 (Simulation time: 00 hr 42 min 38 sec)
Heartbeat CPU 0 instructions: 370000004 cycles: 93122973 heartbeat IPC: 3.994 cumulative IPC: 3.969 (Simulation time: 00 hr 43 min 46 sec)
Heartbeat CPU 0 instructions: 380000000 cycles: 95622993 heartbeat IPC: 4 cumulative IPC: 3.97 (Simulation time: 00 hr 44 min 55 sec)
Heartbeat CPU 0 instructions: 390000004 cycles: 98123016 heartbeat IPC: 4 cumulative IPC: 3.971 (Simulation time: 00 hr 46 min 01 sec)
Heartbeat CPU 0 instructions: 400000001 cycles: 100623036 heartbeat IPC: 4 cumulative IPC: 3.972 (Simulation time: 00 hr 47 min 10 sec)
Heartbeat CPU 0 instructions: 410000004 cycles: 103127322 heartbeat IPC: 3.993 cumulative IPC: 3.972 (Simulation time: 00 hr 48 min 17 sec)
Heartbeat CPU 0 instructions: 420000001 cycles: 105628212 heartbeat IPC: 3.999 cumulative IPC: 3.973 (Simulation time: 00 hr 49 min 25 sec)
Heartbeat CPU 0 instructions: 430000002 cycles: 108128233 heartbeat IPC: 4 cumulative IPC: 3.974 (Simulation time: 00 hr 50 min 32 sec)
Heartbeat CPU 0 instructions: 440000004 cycles: 110628255 heartbeat IPC: 4 cumulative IPC: 3.974 (Simulation time: 00 hr 51 min 39 sec)
Heartbeat CPU 0 instructions: 450000004 cycles: 113128275 heartbeat IPC: 4 cumulative IPC: 3.975 (Simulation time: 00 hr 52 min 47 sec)
Heartbeat CPU 0 instructions: 460000001 cycles: 115630166 heartbeat IPC: 3.997 cumulative IPC: 3.976 (Simulation time: 00 hr 53 min 54 sec)
Heartbeat CPU 0 instructions: 470000002 cycles: 118130187 heartbeat IPC: 4 cumulative IPC: 3.976 (Simulation time: 00 hr 55 min 02 sec)
Heartbeat CPU 0 instructions: 480000003 cycles: 120630209 heartbeat IPC: 4 cumulative IPC: 3.977 (Simulation time: 00 hr 56 min 09 sec)
Heartbeat CPU 0 instructions: 490000000 cycles: 123131366 heartbeat IPC: 3.998 cumulative IPC: 3.977 (Simulation time: 00 hr 57 min 16 sec)
Heartbeat CPU 0 instructions: 500000001 cycles: 125631388 heartbeat IPC: 4 cumulative IPC: 3.978 (Simulation time: 00 hr 58 min 21 sec)
Heartbeat CPU 0 instructions: 510000003 cycles: 128131410 heartbeat IPC: 4 cumulative IPC: 3.978 (Simulation time: 00 hr 59 min 27 sec)
Heartbeat CPU 0 instructions: 520000004 cycles: 130635916 heartbeat IPC: 3.993 cumulative IPC: 3.978 (Simulation time: 01 hr 00 min 30 sec)
Heartbeat CPU 0 instructions: 530000000 cycles: 133135958 heartbeat IPC: 4 cumulative IPC: 3.979 (Simulation time: 01 hr 01 min 36 sec)
Heartbeat CPU 0 instructions: 540000001 cycles: 135635978 heartbeat IPC: 4 cumulative IPC: 3.979 (Simulation time: 01 hr 02 min 40 sec)
Heartbeat CPU 0 instructions: 550000001 cycles: 138135999 heartbeat IPC: 4 cumulative IPC: 3.98 (Simulation time: 01 hr 03 min 47 sec)
Heartbeat CPU 0 instructions: 560000003 cycles: 140637066 heartbeat IPC: 3.998 cumulative IPC: 3.98 (Simulation time: 01 hr 04 min 51 sec)
Heartbeat CPU 0 instructions: 570000004 cycles: 143137814 heartbeat IPC: 3.999 cumulative IPC: 3.98 (Simulation time: 01 hr 05 min 59 sec)
Heartbeat CPU 0 instructions: 580000003 cycles: 145637835 heartbeat IPC: 4 cumulative IPC: 3.981 (Simulation time: 01 hr 07 min 03 sec)
Heartbeat CPU 0 instructions: 590000000 cycles: 148137858 heartbeat IPC: 4 cumulative IPC: 3.981 (Simulation time: 01 hr 08 min 09 sec)
*** Reached end of trace: (0, "traces/convolution.champsimtrace")
Heartbeat CPU 0 instructions: 600000003 cycles: 150637880 heartbeat IPC: 4 cumulative IPC: 3.982 (Simulation time: 01 hr 09 min 13 sec)
Heartbeat CPU 0 instructions: 610000004 cycles: 179650524 heartbeat IPC: 0.3447 cumulative IPC: 3.35 (Simulation time: 01 hr 15 min 36 sec)
Heartbeat CPU 0 instructions: 620000002 cycles: 206807319 heartbeat IPC: 0.3682 cumulative IPC: 2.934 (Simulation time: 01 hr 22 min 24 sec)
Heartbeat CPU 0 instructions: 630000004 cycles: 218243220 heartbeat IPC: 0.8744 cumulative IPC: 2.819 (Simulation time: 01 hr 25 min 23 sec)
Heartbeat CPU 0 instructions: 640000002 cycles: 228924827 heartbeat IPC: 0.9362 cumulative IPC: 2.726 (Simulation time: 01 hr 28 min 13 sec)
Heartbeat CPU 0 instructions: 650000004 cycles: 239522584 heartbeat IPC: 0.9436 cumulative IPC: 2.643 (Simulation time: 01 hr 31 min 13 sec)
Simulation finished CPU 0 instructions: 600000003 cycles: 227022382 cumulative IPC: 2.643 (Simulation time: 01 hr 31 min 13 sec)
Simulation complete CPU 0 instructions: 600000003 cycles: 227022382 cumulative IPC: 2.643 (Simulation time: 01 hr 31 min 13 sec)

ChampSim completed all CPUs

=== Simulation ===
CPU 0 runs traces/convolution.champsimtrace
Region of Interest Statistics

CPU 0 cumulative IPC: 2.643 instructions: 600000003 cycles: 227022382
CPU 0 Branch Prediction Accuracy: 100% MPKI: 0.00296 Average ROB Occupancy at Mispredict: 69.37
Branch type MPKI
BRANCH_DIRECT_JUMP: 0.000107
BRANCH_INDIRECT: 4e-05
BRANCH_CONDITIONAL: 0.00268
BRANCH_DIRECT_CALL: 0.000103
BRANCH_INDIRECT_CALL: 8.33e-06
BRANCH_RETURN: 1.83e-05

LLC TOTAL        ACCESS:    1185648 HIT:     473443 MISS:     712205
LLC LOAD         ACCESS:       2893 HIT:       1687 MISS:       1206
LLC RFO          ACCESS:     535131 HIT:        532 MISS:     534599
LLC PREFETCH     ACCESS:       2099 HIT:       1126 MISS:        973
LLC WRITE        ACCESS:     535183 HIT:     469593 MISS:      65590
LLC TRANSLATION  ACCESS:     110342 HIT:        505 MISS:     109837
LLC PREFETCH REQUESTED:       2099 ISSUED:       2099 USEFUL:        473 USELESS:         25
LLC AVERAGE MISS LATENCY: 1051 cycles
cpu0_DTLB TOTAL        ACCESS:  113112488 HIT:  112758876 MISS:     353612
cpu0_DTLB LOAD         ACCESS:  113112488 HIT:  112758876 MISS:     353612
cpu0_DTLB RFO          ACCESS:          0 HIT:          0 MISS:          0
cpu0_DTLB PREFETCH     ACCESS:          0 HIT:          0 MISS:          0
cpu0_DTLB WRITE        ACCESS:          0 HIT:          0 MISS:          0
cpu0_DTLB TRANSLATION  ACCESS:          0 HIT:          0 MISS:          0
cpu0_DTLB PREFETCH REQUESTED:          0 ISSUED:          0 USEFUL:          0 USELESS:          0
cpu0_DTLB AVERAGE MISS LATENCY: 777.4 cycles
cpu0_ITLB TOTAL        ACCESS:       2126 HIT:       2087 MISS:         39
cpu0_ITLB LOAD         ACCESS:       2126 HIT:       2087 MISS:         39
cpu0_ITLB RFO          ACCESS:          0 HIT:          0 MISS:          0
cpu0_ITLB PREFETCH     ACCESS:          0 HIT:          0 MISS:          0
cpu0_ITLB WRITE        ACCESS:          0 HIT:          0 MISS:          0
cpu0_ITLB TRANSLATION  ACCESS:          0 HIT:          0 MISS:          0
cpu0_ITLB PREFETCH REQUESTED:          0 ISSUED:          0 USEFUL:          0 USELESS:          0
cpu0_ITLB AVERAGE MISS LATENCY: 461.6 cycles
cpu0_L1D TOTAL        ACCESS:  146346627 HIT:  140129798 MISS:    6216829
cpu0_L1D LOAD         ACCESS:   74195337 HIT:   74187114 MISS:       8223
cpu0_L1D RFO          ACCESS:          0 HIT:          0 MISS:          0
cpu0_L1D PREFETCH     ACCESS:          0 HIT:          0 MISS:          0
cpu0_L1D WRITE        ACCESS:   71970202 HIT:   65904482 MISS:    6065720
cpu0_L1D TRANSLATION  ACCESS:     181088 HIT:      38202 MISS:     142886
cpu0_L1D PREFETCH REQUESTED:          0 ISSUED:          0 USEFUL:          0 USELESS:          0
cpu0_L1D AVERAGE MISS LATENCY: 95.56 cycles
cpu0_L1I TOTAL        ACCESS:       2460 HIT:       1031 MISS:       1429
cpu0_L1I LOAD         ACCESS:       2460 HIT:       1031 MISS:       1429
cpu0_L1I RFO          ACCESS:          0 HIT:          0 MISS:          0
cpu0_L1I PREFETCH     ACCESS:          0 HIT:          0 MISS:          0
cpu0_L1I WRITE        ACCESS:          0 HIT:          0 MISS:          0
cpu0_L1I TRANSLATION  ACCESS:          0 HIT:          0 MISS:          0
cpu0_L1I PREFETCH REQUESTED:          0 ISSUED:          0 USEFUL:          0 USELESS:          0
cpu0_L1I AVERAGE MISS LATENCY: 270.5 cycles
cpu0_L2C TOTAL        ACCESS:    1194002 HIT:     545622 MISS:     648380
cpu0_L2C LOAD         ACCESS:       3320 HIT:        427 MISS:       2893
cpu0_L2C RFO          ACCESS:     539405 HIT:       4274 MISS:     535131
cpu0_L2C PREFETCH     ACCESS:          0 HIT:          0 MISS:          0
cpu0_L2C WRITE        ACCESS:     539546 HIT:     539532 MISS:         14
cpu0_L2C TRANSLATION  ACCESS:     111731 HIT:       1389 MISS:     110342
cpu0_L2C PREFETCH REQUESTED:          0 ISSUED:          0 USEFUL:          0 USELESS:          0
cpu0_L2C AVERAGE MISS LATENCY: 1174 cycles
cpu0_STLB TOTAL        ACCESS:     156158 HIT:         47 MISS:     156111
cpu0_STLB LOAD         ACCESS:     156158 HIT:         47 MISS:     156111
cpu0_STLB RFO          ACCESS:          0 HIT:          0 MISS:          0
cpu0_STLB PREFETCH     ACCESS:          0 HIT:          0 MISS:          0
cpu0_STLB WRITE        ACCESS:          0 HIT:          0 MISS:          0
cpu0_STLB TRANSLATION  ACCESS:          0 HIT:          0 MISS:          0
cpu0_STLB PREFETCH REQUESTED:          0 ISSUED:          0 USEFUL:          0 USELESS:          0
cpu0_STLB AVERAGE MISS LATENCY: 1966 cycles

DRAM Statistics

Channel 0 RQ ROW_BUFFER_HIT:     143380
  ROW_BUFFER_MISS:     502585
 AVG DBUS CONGESTED CYCLE: 3.987
WQ ROW_BUFFER_HIT: Channel 0 
  ROW_BUFFER_MISS:       6517
  FULL:     527961
