WARNING: physical memory size is smaller than virtual memory size.

*** ChampSim Multicore Out-of-Order Simulator ***
Warmup Instructions: 50000000
Simulation Instructions: 600000000
Number of CPUs: 1
Page size: 4096

Off-chip DRAM Size: 4 GiB Channels: 1 Width: 64-bit Data Race: 3200 MT/s
Heartbeat CPU 0 instructions: 10000001 cycles: 2500202 heartbeat IPC: 4 cumulative IPC: 4 (Simulation time: 00 hr 00 min 52 sec)
Heartbeat CPU 0 instructions: 20000001 cycles: 5000202 heartbeat IPC: 4 cumulative IPC: 4 (Simulation time: 00 hr 01 min 55 sec)
Heartbeat CPU 0 instructions: 30000001 cycles: 7500202 heartbeat IPC: 4 cumulative IPC: 4 (Simulation time: 00 hr 03 min 12 sec)
Heartbeat CPU 0 instructions: 40000001 cycles: 10000202 heartbeat IPC: 4 cumulative IPC: 4 (Simulation time: 00 hr 04 min 29 sec)
Heartbeat CPU 0 instructions: 50000001 cycles: 12500202 heartbeat IPC: 4 cumulative IPC: 4 (Simulation time: 00 hr 05 min 30 sec)
Warmup finished CPU 0 instructions: 50000001 cycles: 12500203 cumulative IPC: 4 (Simulation time: 00 hr 05 min 30 sec)
Warmup complete CPU 0 instructions: 50000001 cycles: 12500203 cumulative IPC: 4 (Simulation time: 00 hr 05 min 30 sec)
Heartbeat CPU 0 instructions: 60000004 cycles: 15791120 heartbeat IPC: 3.039 cumulative IPC: 3.039 (Simulation time: 00 hr 06 min 41 sec)
Heartbeat CPU 0 instructions: 70000002 cycles: 18496802 heartbeat IPC: 3.696 cumulative IPC: 3.335 (Simulation time: 00 hr 07 min 41 sec)
Heartbeat CPU 0 instructions: 80000002 cycles: 21201198 heartbeat IPC: 3.698 cumulative IPC: 3.448 (Simulation time: 00 hr 08 min 41 sec)
Heartbeat CPU 0 instructions: 90000004 cycles: 23904858 heartbeat IPC: 3.699 cumulative IPC: 3.507 (Simulation time: 00 hr 09 min 41 sec)
Heartbeat CPU 0 instructions: 100000000 cycles: 26608514 heartbeat IPC: 3.699 cumulative IPC: 3.544 (Simulation time: 00 hr 10 min 41 sec)
Heartbeat CPU 0 instructions: 110000004 cycles: 29312351 heartbeat IPC: 3.698 cumulative IPC: 3.569 (Simulation time: 00 hr 11 min 40 sec)
Heartbeat CPU 0 instructions: 120000001 cycles: 32017133 heartbeat IPC: 3.697 cumulative IPC: 3.587 (Simulation time: 00 hr 12 min 39 sec)
Heartbeat CPU 0 instructions: 130000000 cycles: 34721174 heartbeat IPC: 3.698 cumulative IPC: 3.6 (Simulation time: 00 hr 13 min 38 sec)
Heartbeat CPU 0 instructions: 140000001 cycles: 37424809 heartbeat IPC: 3.699 cumulative IPC: 3.611 (Simulation time: 00 hr 14 min 37 sec)
Heartbeat CPU 0 instructions: 150000002 cycles: 40128425 heartbeat IPC: 3.699 cumulative IPC: 3.619 (Simulation time: 00 hr 15 min 35 sec)
Heartbeat CPU 0 instructions: 160000004 cycles: 42831874 heartbeat IPC: 3.699 cumulative IPC: 3.627 (Simulation time: 00 hr 16 min 33 sec)
Heartbeat CPU 0 instructions: 170000004 cycles: 45538092 heartbeat IPC: 3.695 cumulative IPC: 3.632 (Simulation time: 00 hr 17 min 32 sec)
Heartbeat CPU 0 instructions: 180000002 cycles: 48241593 heartbeat IPC: 3.699 cumulative IPC: 3.637 (Simulation time: 00 hr 18 min 30 sec)
Heartbeat CPU 0 instructions: 190000002 cycles: 50945974 heartbeat IPC: 3.698 cumulative IPC: 3.641 (Simulation time: 00 hr 19 min 29 sec)
Heartbeat CPU 0 instructions: 200000001 cycles: 53649591 heartbeat IPC: 3.699 cumulative IPC: 3.645 (Simulation time: 00 hr 20 min 25 sec)
Heartbeat CPU 0 instructions: 210000000 cycles: 56353004 heartbeat IPC: 3.699 cumulative IPC: 3.649 (Simulation time: 00 hr 21 min 23 sec)
Heartbeat CPU 0 instructions: 220000000 cycles: 59060005 heartbeat IPC: 3.694 cumulative IPC: 3.651 (Simulation time: 00 hr 22 min 20 sec)
Heartbeat CPU 0 instructions: 230000002 cycles: 61763627 heartbeat IPC: 3.699 cumulative IPC: 3.654 (Simulation time: 00 hr 23 min 17 sec)
Heartbeat CPU 0 instructions: 240000003 cycles: 64467241 heartbeat IPC: 3.699 cumulative IPC: 3.656 (Simulation time: 00 hr 24 min 14 sec)
Heartbeat CPU 0 instructions: 250000000 cycles: 67170888 heartbeat IPC: 3.699 cumulative IPC: 3.658 (Simulation time: 00 hr 25 min 10 sec)
Heartbeat CPU 0 instructions: 260000001 cycles: 69874870 heartbeat IPC: 3.698 cumulative IPC: 3.66 (Simulation time: 00 hr 26 min 09 sec)
Heartbeat CPU 0 instructions: 270000003 cycles: 72580437 heartbeat IPC: 3.696 cumulative IPC: 3.662 (Simulation time: 00 hr 27 min 06 sec)
Heartbeat CPU 0 instructions: 280000003 cycles: 75284563 heartbeat IPC: 3.698 cumulative IPC: 3.663 (Simulation time: 00 hr 28 min 03 sec)
Heartbeat CPU 0 instructions: 290000004 cycles: 77988197 heartbeat IPC: 3.699 cumulative IPC: 3.665 (Simulation time: 00 hr 29 min 00 sec)
Heartbeat CPU 0 instructions: 300000004 cycles: 80691730 heartbeat IPC: 3.699 cumulative IPC: 3.666 (Simulation time: 00 hr 29 min 59 sec)
Heartbeat CPU 0 instructions: 310000000 cycles: 83395133 heartbeat IPC: 3.699 cumulative IPC: 3.667 (Simulation time: 00 hr 30 min 56 sec)
Heartbeat CPU 0 instructions: 320000001 cycles: 86100946 heartbeat IPC: 3.696 cumulative IPC: 3.668 (Simulation time: 00 hr 31 min 53 sec)
Heartbeat CPU 0 instructions: 330000000 cycles: 88805426 heartbeat IPC: 3.698 cumulative IPC: 3.669 (Simulation time: 00 hr 32 min 48 sec)
Heartbeat CPU 0 instructions: 340000001 cycles: 91509391 heartbeat IPC: 3.698 cumulative IPC: 3.67 (Simulation time: 00 hr 33 min 45 sec)
Heartbeat CPU 0 instructions: 350000002 cycles: 94212966 heartbeat IPC: 3.699 cumulative IPC: 3.671 (Simulation time: 00 hr 34 min 41 sec)
Heartbeat CPU 0 instructions: 360000003 cycles: 96916290 heartbeat IPC: 3.699 cumulative IPC: 3.672 (Simulation time: 00 hr 35 min 36 sec)
Heartbeat CPU 0 instructions: 370000004 cycles: 99622489 heartbeat IPC: 3.695 cumulative IPC: 3.673 (Simulation time: 00 hr 36 min 34 sec)
Heartbeat CPU 0 instructions: 380000000 cycles: 102326060 heartbeat IPC: 3.699 cumulative IPC: 3.674 (Simulation time: 00 hr 37 min 28 sec)
Heartbeat CPU 0 instructions: 390000004 cycles: 105029648 heartbeat IPC: 3.699 cumulative IPC: 3.675 (Simulation time: 00 hr 38 min 26 sec)
Heartbeat CPU 0 instructions: 400000000 cycles: 107733053 heartbeat IPC: 3.699 cumulative IPC: 3.675 (Simulation time: 00 hr 39 min 22 sec)
Heartbeat CPU 0 instructions: 410000004 cycles: 110438018 heartbeat IPC: 3.697 cumulative IPC: 3.676 (Simulation time: 00 hr 40 min 18 sec)
Heartbeat CPU 0 instructions: 420000001 cycles: 113143556 heartbeat IPC: 3.696 cumulative IPC: 3.676 (Simulation time: 00 hr 41 min 13 sec)
Heartbeat CPU 0 instructions: 430000002 cycles: 115847109 heartbeat IPC: 3.699 cumulative IPC: 3.677 (Simulation time: 00 hr 42 min 10 sec)
Heartbeat CPU 0 instructions: 440000004 cycles: 118550778 heartbeat IPC: 3.699 cumulative IPC: 3.677 (Simulation time: 00 hr 43 min 05 sec)
Heartbeat CPU 0 instructions: 450000004 cycles: 121254092 heartbeat IPC: 3.699 cumulative IPC: 3.678 (Simulation time: 00 hr 44 min 02 sec)
Heartbeat CPU 0 instructions: 460000002 cycles: 123958932 heartbeat IPC: 3.697 cumulative IPC: 3.678 (Simulation time: 00 hr 44 min 57 sec)
Heartbeat CPU 0 instructions: 470000002 cycles: 126662464 heartbeat IPC: 3.699 cumulative IPC: 3.679 (Simulation time: 00 hr 45 min 52 sec)
Heartbeat CPU 0 instructions: 480000003 cycles: 129366113 heartbeat IPC: 3.699 cumulative IPC: 3.679 (Simulation time: 00 hr 46 min 49 sec)
Heartbeat CPU 0 instructions: 490000000 cycles: 132070167 heartbeat IPC: 3.698 cumulative IPC: 3.68 (Simulation time: 00 hr 47 min 43 sec)
Heartbeat CPU 0 instructions: 500000001 cycles: 134773596 heartbeat IPC: 3.699 cumulative IPC: 3.68 (Simulation time: 00 hr 48 min 40 sec)
Heartbeat CPU 0 instructions: 510000003 cycles: 137477012 heartbeat IPC: 3.699 cumulative IPC: 3.681 (Simulation time: 00 hr 49 min 35 sec)
Heartbeat CPU 0 instructions: 520000004 cycles: 140182873 heartbeat IPC: 3.696 cumulative IPC: 3.681 (Simulation time: 00 hr 50 min 31 sec)
Heartbeat CPU 0 instructions: 530000000 cycles: 142886400 heartbeat IPC: 3.699 cumulative IPC: 3.681 (Simulation time: 00 hr 51 min 26 sec)
Heartbeat CPU 0 instructions: 540000001 cycles: 145589946 heartbeat IPC: 3.699 cumulative IPC: 3.682 (Simulation time: 00 hr 52 min 22 sec)
Heartbeat CPU 0 instructions: 550000001 cycles: 148293293 heartbeat IPC: 3.699 cumulative IPC: 3.682 (Simulation time: 00 hr 53 min 17 sec)
Heartbeat CPU 0 instructions: 560000003 cycles: 150999585 heartbeat IPC: 3.695 cumulative IPC: 3.682 (Simulation time: 00 hr 54 min 12 sec)
Heartbeat CPU 0 instructions: 570000004 cycles: 153703596 heartbeat IPC: 3.698 cumulative IPC: 3.683 (Simulation time: 00 hr 55 min 09 sec)
Heartbeat CPU 0 instructions: 580000004 cycles: 156407216 heartbeat IPC: 3.699 cumulative IPC: 3.683 (Simulation time: 00 hr 56 min 03 sec)
Heartbeat CPU 0 instructions: 590000000 cycles: 159110691 heartbeat IPC: 3.699 cumulative IPC: 3.683 (Simulation time: 00 hr 57 min 00 sec)
*** Reached end of trace: (0, "traces/convolution.champsimtrace")
Heartbeat CPU 0 instructions: 600000001 cycles: 161813961 heartbeat IPC: 3.699 cumulative IPC: 3.684 (Simulation time: 00 hr 57 min 54 sec)
Heartbeat CPU 0 instructions: 610000004 cycles: 190842883 heartbeat IPC: 0.3445 cumulative IPC: 3.14 (Simulation time: 01 hr 03 min 58 sec)
Heartbeat CPU 0 instructions: 620000002 cycles: 217994391 heartbeat IPC: 0.3683 cumulative IPC: 2.774 (Simulation time: 01 hr 09 min 43 sec)
Heartbeat CPU 0 instructions: 630000000 cycles: 229412648 heartbeat IPC: 0.8758 cumulative IPC: 2.674 (Simulation time: 01 hr 12 min 24 sec)
Heartbeat CPU 0 instructions: 640000002 cycles: 240133400 heartbeat IPC: 0.9328 cumulative IPC: 2.592 (Simulation time: 01 hr 15 min 01 sec)
Heartbeat CPU 0 instructions: 650000002 cycles: 250683719 heartbeat IPC: 0.9478 cumulative IPC: 2.519 (Simulation time: 01 hr 17 min 45 sec)
Simulation finished CPU 0 instructions: 600000001 cycles: 238183517 cumulative IPC: 2.519 (Simulation time: 01 hr 17 min 45 sec)
Simulation complete CPU 0 instructions: 600000001 cycles: 238183517 cumulative IPC: 2.519 (Simulation time: 01 hr 17 min 45 sec)

ChampSim completed all CPUs

=== Simulation ===
CPU 0 runs traces/convolution.champsimtrace
Region of Interest Statistics

CPU 0 cumulative IPC: 2.519 instructions: 600000001 cycles: 238183517
CPU 0 Branch Prediction Accuracy: 99.3% MPKI: 1.265 Average ROB Occupancy at Mispredict: 63.94
Branch type MPKI
BRANCH_DIRECT_JUMP: 0.000107
BRANCH_INDIRECT: 4e-05
BRANCH_CONDITIONAL: 1.26
BRANCH_DIRECT_CALL: 0.000103
BRANCH_INDIRECT_CALL: 8.33e-06
BRANCH_RETURN: 1.83e-05

LLC TOTAL        ACCESS:    1186423 HIT:     473930 MISS:     712493
LLC LOAD         ACCESS:       2893 HIT:       1773 MISS:       1120
LLC RFO          ACCESS:     535131 HIT:        479 MISS:     534652
LLC PREFETCH     ACCESS:       2893 HIT:       1456 MISS:       1437
LLC WRITE        ACCESS:     535182 HIT:     469720 MISS:      65462
LLC TRANSLATION  ACCESS:     110324 HIT:        502 MISS:     109822
LLC PREFETCH REQUESTED:       2893 ISSUED:       2893 USEFUL:        938 USELESS:        182
LLC AVERAGE MISS LATENCY: 1039 cycles
cpu0_DTLB TOTAL        ACCESS:  121564802 HIT:  121211744 MISS:     353058
cpu0_DTLB LOAD         ACCESS:  121564802 HIT:  121211744 MISS:     353058
cpu0_DTLB RFO          ACCESS:          0 HIT:          0 MISS:          0
cpu0_DTLB PREFETCH     ACCESS:          0 HIT:          0 MISS:          0
cpu0_DTLB WRITE        ACCESS:          0 HIT:          0 MISS:          0
cpu0_DTLB TRANSLATION  ACCESS:          0 HIT:          0 MISS:          0
cpu0_DTLB PREFETCH REQUESTED:          0 ISSUED:          0 USEFUL:          0 USELESS:          0
cpu0_DTLB AVERAGE MISS LATENCY: 778.5 cycles
cpu0_ITLB TOTAL        ACCESS:       2038 HIT:       1990 MISS:         48
cpu0_ITLB LOAD         ACCESS:       2038 HIT:       1990 MISS:         48
cpu0_ITLB RFO          ACCESS:          0 HIT:          0 MISS:          0
cpu0_ITLB PREFETCH     ACCESS:          0 HIT:          0 MISS:          0
cpu0_ITLB WRITE        ACCESS:          0 HIT:          0 MISS:          0
cpu0_ITLB TRANSLATION  ACCESS:          0 HIT:          0 MISS:          0
cpu0_ITLB PREFETCH REQUESTED:          0 ISSUED:          0 USEFUL:          0 USELESS:          0
cpu0_ITLB AVERAGE MISS LATENCY: 480.3 cycles
cpu0_L1D TOTAL        ACCESS:  162714519 HIT:  156528114 MISS:    6186405
cpu0_L1D LOAD         ACCESS:   90497181 HIT:   90490592 MISS:       6589
cpu0_L1D RFO          ACCESS:          0 HIT:          0 MISS:          0
cpu0_L1D PREFETCH     ACCESS:          0 HIT:          0 MISS:          0
cpu0_L1D WRITE        ACCESS:   72036274 HIT:   65999313 MISS:    6036961
cpu0_L1D TRANSLATION  ACCESS:     181064 HIT:      38209 MISS:     142855
cpu0_L1D PREFETCH REQUESTED:          0 ISSUED:          0 USEFUL:          0 USELESS:          0
cpu0_L1D AVERAGE MISS LATENCY: 93.17 cycles
cpu0_L1I TOTAL        ACCESS:       2362 HIT:       1051 MISS:       1311
cpu0_L1I LOAD         ACCESS:       2362 HIT:       1051 MISS:       1311
cpu0_L1I RFO          ACCESS:          0 HIT:          0 MISS:          0
cpu0_L1I PREFETCH     ACCESS:          0 HIT:          0 MISS:          0
cpu0_L1I WRITE        ACCESS:          0 HIT:          0 MISS:          0
cpu0_L1I TRANSLATION  ACCESS:          0 HIT:          0 MISS:          0
cpu0_L1I PREFETCH REQUESTED:          0 ISSUED:          0 USEFUL:          0 USELESS:          0
cpu0_L1I AVERAGE MISS LATENCY: 265.7 cycles
cpu0_L2C TOTAL        ACCESS:    1190674 HIT:     542308 MISS:     648366
cpu0_L2C LOAD         ACCESS:       3320 HIT:        427 MISS:       2893
cpu0_L2C RFO          ACCESS:     537780 HIT:       2647 MISS:     535133
cpu0_L2C PREFETCH     ACCESS:          0 HIT:          0 MISS:          0
cpu0_L2C WRITE        ACCESS:     537902 HIT:     537886 MISS:         16
cpu0_L2C TRANSLATION  ACCESS:     111672 HIT:       1348 MISS:     110324
cpu0_L2C PREFETCH REQUESTED:          0 ISSUED:          0 USEFUL:          0 USELESS:          0
cpu0_L2C AVERAGE MISS LATENCY: 1162 cycles
cpu0_STLB TOTAL        ACCESS:     156155 HIT:         45 MISS:     156110
cpu0_STLB LOAD         ACCESS:     156155 HIT:         45 MISS:     156110
cpu0_STLB RFO          ACCESS:          0 HIT:          0 MISS:          0
cpu0_STLB PREFETCH     ACCESS:          0 HIT:          0 MISS:          0
cpu0_STLB WRITE        ACCESS:          0 HIT:          0 MISS:          0
cpu0_STLB TRANSLATION  ACCESS:          0 HIT:          0 MISS:          0
cpu0_STLB PREFETCH REQUESTED:          0 ISSUED:          0 USEFUL:          0 USELESS:          0
cpu0_STLB AVERAGE MISS LATENCY: 1967 cycles

DRAM Statistics

Channel 0 RQ ROW_BUFFER_HIT:     143216
  ROW_BUFFER_MISS:     503032
 AVG DBUS CONGESTED CYCLE: 3.985
WQ ROW_BUFFER_HIT: Channel 0 
  ROW_BUFFER_MISS:       6371
  FULL:     528247
