WARNING: physical memory size is smaller than virtual memory size.

*** ChampSim Multicore Out-of-Order Simulator ***
Warmup Instructions: 50000000
Simulation Instructions: 600000000
Number of CPUs: 1
Page size: 4096

Off-chip DRAM Size: 4 GiB Channels: 1 Width: 64-bit Data Race: 3200 MT/s
Heartbeat CPU 0 instructions: 10000000 cycles: 2500202 heartbeat IPC: 4 cumulative IPC: 4 (Simulation time: 00 hr 00 min 34 sec)
Heartbeat CPU 0 instructions: 20000000 cycles: 5000202 heartbeat IPC: 4 cumulative IPC: 4 (Simulation time: 00 hr 01 min 08 sec)
Heartbeat CPU 0 instructions: 30000000 cycles: 7500202 heartbeat IPC: 4 cumulative IPC: 4 (Simulation time: 00 hr 01 min 41 sec)
Heartbeat CPU 0 instructions: 40000000 cycles: 10000202 heartbeat IPC: 4 cumulative IPC: 4 (Simulation time: 00 hr 02 min 13 sec)
Heartbeat CPU 0 instructions: 50000000 cycles: 12500202 heartbeat IPC: 4 cumulative IPC: 4 (Simulation time: 00 hr 02 min 44 sec)
Warmup finished CPU 0 instructions: 50000000 cycles: 12500203 cumulative IPC: 4 (Simulation time: 00 hr 02 min 44 sec)
Warmup complete CPU 0 instructions: 50000000 cycles: 12500203 cumulative IPC: 4 (Simulation time: 00 hr 02 min 44 sec)
Heartbeat CPU 0 instructions: 60000002 cycles: 15727009 heartbeat IPC: 3.099 cumulative IPC: 3.099 (Simulation time: 00 hr 03 min 24 sec)
Heartbeat CPU 0 instructions: 70000002 cycles: 18386109 heartbeat IPC: 3.761 cumulative IPC: 3.398 (Simulation time: 00 hr 03 min 59 sec)
Heartbeat CPU 0 instructions: 80000003 cycles: 21040162 heartbeat IPC: 3.768 cumulative IPC: 3.513 (Simulation time: 00 hr 04 min 34 sec)
Heartbeat CPU 0 instructions: 90000004 cycles: 23697193 heartbeat IPC: 3.764 cumulative IPC: 3.572 (Simulation time: 00 hr 05 min 10 sec)
Heartbeat CPU 0 instructions: 100000003 cycles: 26353456 heartbeat IPC: 3.765 cumulative IPC: 3.609 (Simulation time: 00 hr 05 min 45 sec)
Heartbeat CPU 0 instructions: 110000000 cycles: 29008549 heartbeat IPC: 3.766 cumulative IPC: 3.635 (Simulation time: 00 hr 06 min 20 sec)
Heartbeat CPU 0 instructions: 120000000 cycles: 31666569 heartbeat IPC: 3.762 cumulative IPC: 3.652 (Simulation time: 00 hr 06 min 55 sec)
Heartbeat CPU 0 instructions: 130000000 cycles: 34321842 heartbeat IPC: 3.766 cumulative IPC: 3.666 (Simulation time: 00 hr 07 min 30 sec)
Heartbeat CPU 0 instructions: 140000001 cycles: 36980752 heartbeat IPC: 3.761 cumulative IPC: 3.676 (Simulation time: 00 hr 08 min 05 sec)
Heartbeat CPU 0 instructions: 150000003 cycles: 39637847 heartbeat IPC: 3.764 cumulative IPC: 3.685 (Simulation time: 00 hr 08 min 40 sec)
Heartbeat CPU 0 instructions: 160000003 cycles: 42292359 heartbeat IPC: 3.767 cumulative IPC: 3.692 (Simulation time: 00 hr 09 min 16 sec)
Heartbeat CPU 0 instructions: 170000001 cycles: 44946479 heartbeat IPC: 3.768 cumulative IPC: 3.698 (Simulation time: 00 hr 09 min 51 sec)
Heartbeat CPU 0 instructions: 180000001 cycles: 47604159 heartbeat IPC: 3.763 cumulative IPC: 3.703 (Simulation time: 00 hr 10 min 26 sec)
Heartbeat CPU 0 instructions: 190000002 cycles: 50258373 heartbeat IPC: 3.768 cumulative IPC: 3.708 (Simulation time: 00 hr 11 min 02 sec)
Heartbeat CPU 0 instructions: 200000001 cycles: 52912678 heartbeat IPC: 3.767 cumulative IPC: 3.712 (Simulation time: 00 hr 11 min 37 sec)
Heartbeat CPU 0 instructions: 210000000 cycles: 55570389 heartbeat IPC: 3.763 cumulative IPC: 3.715 (Simulation time: 00 hr 12 min 13 sec)
Heartbeat CPU 0 instructions: 220000001 cycles: 58225051 heartbeat IPC: 3.767 cumulative IPC: 3.718 (Simulation time: 00 hr 12 min 48 sec)
Heartbeat CPU 0 instructions: 230000002 cycles: 60885889 heartbeat IPC: 3.758 cumulative IPC: 3.72 (Simulation time: 00 hr 13 min 23 sec)
Heartbeat CPU 0 instructions: 240000004 cycles: 63542441 heartbeat IPC: 3.764 cumulative IPC: 3.722 (Simulation time: 00 hr 13 min 58 sec)
Heartbeat CPU 0 instructions: 250000000 cycles: 66199336 heartbeat IPC: 3.764 cumulative IPC: 3.724 (Simulation time: 00 hr 14 min 34 sec)
Heartbeat CPU 0 instructions: 260000000 cycles: 68856317 heartbeat IPC: 3.764 cumulative IPC: 3.726 (Simulation time: 00 hr 15 min 08 sec)
Heartbeat CPU 0 instructions: 270000002 cycles: 71510258 heartbeat IPC: 3.768 cumulative IPC: 3.728 (Simulation time: 00 hr 15 min 43 sec)
Heartbeat CPU 0 instructions: 280000003 cycles: 74164952 heartbeat IPC: 3.767 cumulative IPC: 3.73 (Simulation time: 00 hr 16 min 18 sec)
Heartbeat CPU 0 instructions: 290000002 cycles: 76819810 heartbeat IPC: 3.767 cumulative IPC: 3.731 (Simulation time: 00 hr 16 min 53 sec)
Heartbeat CPU 0 instructions: 300000000 cycles: 79475688 heartbeat IPC: 3.765 cumulative IPC: 3.733 (Simulation time: 00 hr 17 min 27 sec)
Heartbeat CPU 0 instructions: 310000002 cycles: 82131172 heartbeat IPC: 3.766 cumulative IPC: 3.734 (Simulation time: 00 hr 18 min 02 sec)
Heartbeat CPU 0 instructions: 320000004 cycles: 84787978 heartbeat IPC: 3.764 cumulative IPC: 3.735 (Simulation time: 00 hr 18 min 37 sec)
Heartbeat CPU 0 instructions: 330000000 cycles: 87444206 heartbeat IPC: 3.765 cumulative IPC: 3.736 (Simulation time: 00 hr 19 min 11 sec)
Heartbeat CPU 0 instructions: 340000002 cycles: 90101084 heartbeat IPC: 3.764 cumulative IPC: 3.737 (Simulation time: 00 hr 19 min 46 sec)
Heartbeat CPU 0 instructions: 350000002 cycles: 92758525 heartbeat IPC: 3.763 cumulative IPC: 3.738 (Simulation time: 00 hr 20 min 21 sec)
Heartbeat CPU 0 instructions: 360000001 cycles: 95413952 heartbeat IPC: 3.766 cumulative IPC: 3.739 (Simulation time: 00 hr 20 min 57 sec)
Heartbeat CPU 0 instructions: 370000004 cycles: 98069712 heartbeat IPC: 3.765 cumulative IPC: 3.74 (Simulation time: 00 hr 21 min 32 sec)
Heartbeat CPU 0 instructions: 380000000 cycles: 100724514 heartbeat IPC: 3.767 cumulative IPC: 3.74 (Simulation time: 00 hr 22 min 08 sec)
Heartbeat CPU 0 instructions: 390000003 cycles: 103377271 heartbeat IPC: 3.77 cumulative IPC: 3.741 (Simulation time: 00 hr 22 min 43 sec)
Heartbeat CPU 0 instructions: 400000000 cycles: 106032030 heartbeat IPC: 3.767 cumulative IPC: 3.742 (Simulation time: 00 hr 23 min 21 sec)
Heartbeat CPU 0 instructions: 410000000 cycles: 108688777 heartbeat IPC: 3.764 cumulative IPC: 3.743 (Simulation time: 00 hr 24 min 00 sec)
Heartbeat CPU 0 instructions: 420000001 cycles: 111343342 heartbeat IPC: 3.767 cumulative IPC: 3.743 (Simulation time: 00 hr 24 min 40 sec)
Heartbeat CPU 0 instructions: 430000003 cycles: 113998214 heartbeat IPC: 3.767 cumulative IPC: 3.744 (Simulation time: 00 hr 25 min 21 sec)
Heartbeat CPU 0 instructions: 440000003 cycles: 116653909 heartbeat IPC: 3.765 cumulative IPC: 3.744 (Simulation time: 00 hr 26 min 00 sec)
Heartbeat CPU 0 instructions: 450000004 cycles: 119312430 heartbeat IPC: 3.761 cumulative IPC: 3.745 (Simulation time: 00 hr 26 min 37 sec)
Heartbeat CPU 0 instructions: 460000001 cycles: 121970252 heartbeat IPC: 3.762 cumulative IPC: 3.745 (Simulation time: 00 hr 27 min 23 sec)
Heartbeat CPU 0 instructions: 470000002 cycles: 124625986 heartbeat IPC: 3.765 cumulative IPC: 3.746 (Simulation time: 00 hr 28 min 06 sec)
Heartbeat CPU 0 instructions: 480000001 cycles: 127279972 heartbeat IPC: 3.768 cumulative IPC: 3.746 (Simulation time: 00 hr 28 min 43 sec)
Heartbeat CPU 0 instructions: 490000000 cycles: 129937883 heartbeat IPC: 3.762 cumulative IPC: 3.747 (Simulation time: 00 hr 29 min 21 sec)
Heartbeat CPU 0 instructions: 500000002 cycles: 132592475 heartbeat IPC: 3.767 cumulative IPC: 3.747 (Simulation time: 00 hr 29 min 57 sec)
Heartbeat CPU 0 instructions: 510000003 cycles: 135249012 heartbeat IPC: 3.764 cumulative IPC: 3.747 (Simulation time: 00 hr 30 min 37 sec)
Heartbeat CPU 0 instructions: 520000004 cycles: 137914759 heartbeat IPC: 3.751 cumulative IPC: 3.748 (Simulation time: 00 hr 31 min 15 sec)
Heartbeat CPU 0 instructions: 530000000 cycles: 140571467 heartbeat IPC: 3.764 cumulative IPC: 3.748 (Simulation time: 00 hr 31 min 54 sec)
Heartbeat CPU 0 instructions: 540000000 cycles: 143226256 heartbeat IPC: 3.767 cumulative IPC: 3.748 (Simulation time: 00 hr 32 min 30 sec)
Heartbeat CPU 0 instructions: 550000003 cycles: 145879824 heartbeat IPC: 3.769 cumulative IPC: 3.749 (Simulation time: 00 hr 33 min 04 sec)
Heartbeat CPU 0 instructions: 560000003 cycles: 148539208 heartbeat IPC: 3.76 cumulative IPC: 3.749 (Simulation time: 00 hr 33 min 45 sec)
Heartbeat CPU 0 instructions: 570000004 cycles: 151198633 heartbeat IPC: 3.76 cumulative IPC: 3.749 (Simulation time: 00 hr 34 min 21 sec)
Heartbeat CPU 0 instructions: 580000000 cycles: 153856210 heartbeat IPC: 3.763 cumulative IPC: 3.749 (Simulation time: 00 hr 34 min 59 sec)
Heartbeat CPU 0 instructions: 590000002 cycles: 156511583 heartbeat IPC: 3.766 cumulative IPC: 3.75 (Simulation time: 00 hr 35 min 37 sec)
*** Reached end of trace: (0, "traces/convolution.champsimtrace")
Heartbeat CPU 0 instructions: 600000000 cycles: 159168805 heartbeat IPC: 3.763 cumulative IPC: 3.75 (Simulation time: 00 hr 36 min 16 sec)
Heartbeat CPU 0 instructions: 610000002 cycles: 181319280 heartbeat IPC: 0.4515 cumulative IPC: 3.317 (Simulation time: 00 hr 39 min 28 sec)
Heartbeat CPU 0 instructions: 620000001 cycles: 200382344 heartbeat IPC: 0.5246 cumulative IPC: 3.034 (Simulation time: 00 hr 42 min 16 sec)
Heartbeat CPU 0 instructions: 630000001 cycles: 208902772 heartbeat IPC: 1.174 cumulative IPC: 2.953 (Simulation time: 00 hr 43 min 43 sec)
Heartbeat CPU 0 instructions: 640000004 cycles: 219725830 heartbeat IPC: 0.924 cumulative IPC: 2.847 (Simulation time: 00 hr 45 min 22 sec)
Heartbeat CPU 0 instructions: 650000001 cycles: 230494276 heartbeat IPC: 0.9286 cumulative IPC: 2.752 (Simulation time: 00 hr 47 min 01 sec)
Simulation finished CPU 0 instructions: 600000001 cycles: 217994074 cumulative IPC: 2.752 (Simulation time: 00 hr 47 min 01 sec)
Simulation complete CPU 0 instructions: 600000001 cycles: 217994074 cumulative IPC: 2.752 (Simulation time: 00 hr 47 min 01 sec)

ChampSim completed all CPUs

=== Simulation ===
CPU 0 runs traces/convolution.champsimtrace
Region of Interest Statistics

CPU 0 cumulative IPC: 2.752 instructions: 600000001 cycles: 217994074
CPU 0 Branch Prediction Accuracy: 99.47% MPKI: 0.9507 Average ROB Occupancy at Mispredict: 69.14
Branch type MPKI
BRANCH_DIRECT_JUMP: 0.000107
BRANCH_INDIRECT: 4.17e-05
BRANCH_CONDITIONAL: 0.95
BRANCH_DIRECT_CALL: 0.000103
BRANCH_INDIRECT_CALL: 8.33e-06
BRANCH_RETURN: 1.83e-05

LLC TOTAL        ACCESS:    1182781 HIT:      50670 MISS:    1132111
LLC LOAD         ACCESS:       2888 HIT:       1434 MISS:       1454
LLC RFO          ACCESS:     535119 HIT:      16591 MISS:     518528
LLC PREFETCH     ACCESS:          0 HIT:          0 MISS:          0
LLC WRITE        ACCESS:     535170 HIT:      19315 MISS:     515855
LLC TRANSLATION  ACCESS:     109604 HIT:      13330 MISS:      96274
LLC PREFETCH REQUESTED:          0 ISSUED:          0 USEFUL:          0 USELESS:          0
LLC AVERAGE MISS LATENCY: 552.1 cycles
cpu0_DTLB TOTAL        ACCESS:  120210143 HIT:  119872785 MISS:     337358
cpu0_DTLB LOAD         ACCESS:  120210143 HIT:  119872785 MISS:     337358
cpu0_DTLB RFO          ACCESS:          0 HIT:          0 MISS:          0
cpu0_DTLB PREFETCH     ACCESS:          0 HIT:          0 MISS:          0
cpu0_DTLB WRITE        ACCESS:          0 HIT:          0 MISS:          0
cpu0_DTLB TRANSLATION  ACCESS:          0 HIT:          0 MISS:          0
cpu0_DTLB PREFETCH REQUESTED:          0 ISSUED:          0 USEFUL:          0 USELESS:          0
cpu0_DTLB AVERAGE MISS LATENCY: 635.2 cycles
cpu0_ITLB TOTAL        ACCESS:       2005 HIT:       1974 MISS:         31
cpu0_ITLB LOAD         ACCESS:       2005 HIT:       1974 MISS:         31
cpu0_ITLB RFO          ACCESS:          0 HIT:          0 MISS:          0
cpu0_ITLB PREFETCH     ACCESS:          0 HIT:          0 MISS:          0
cpu0_ITLB WRITE        ACCESS:          0 HIT:          0 MISS:          0
cpu0_ITLB TRANSLATION  ACCESS:          0 HIT:          0 MISS:          0
cpu0_ITLB PREFETCH REQUESTED:          0 ISSUED:          0 USEFUL:          0 USELESS:          0
cpu0_ITLB AVERAGE MISS LATENCY: 507.9 cycles
cpu0_L1D TOTAL        ACCESS:  161282575 HIT:  155139344 MISS:    6143231
cpu0_L1D LOAD         ACCESS:   89043032 HIT:   89036582 MISS:       6450
cpu0_L1D RFO          ACCESS:          0 HIT:          0 MISS:          0
cpu0_L1D PREFETCH     ACCESS:          0 HIT:          0 MISS:          0
cpu0_L1D WRITE        ACCESS:   72058981 HIT:   66066714 MISS:    5992267
cpu0_L1D TRANSLATION  ACCESS:     180562 HIT:      36048 MISS:     144514
cpu0_L1D PREFETCH REQUESTED:          0 ISSUED:          0 USEFUL:          0 USELESS:          0
cpu0_L1D AVERAGE MISS LATENCY: 80.3 cycles
cpu0_L1I TOTAL        ACCESS:       2299 HIT:       1012 MISS:       1287
cpu0_L1I LOAD         ACCESS:       2299 HIT:       1012 MISS:       1287
cpu0_L1I RFO          ACCESS:          0 HIT:          0 MISS:          0
cpu0_L1I PREFETCH     ACCESS:          0 HIT:          0 MISS:          0
cpu0_L1I WRITE        ACCESS:          0 HIT:          0 MISS:          0
cpu0_L1I TRANSLATION  ACCESS:          0 HIT:          0 MISS:          0
cpu0_L1I PREFETCH REQUESTED:          0 ISSUED:          0 USEFUL:          0 USELESS:          0
cpu0_L1I AVERAGE MISS LATENCY: 359.7 cycles
cpu0_L2C TOTAL        ACCESS:    1190522 HIT:     542891 MISS:     647631
cpu0_L2C LOAD         ACCESS:       3314 HIT:        426 MISS:       2888
cpu0_L2C RFO          ACCESS:     538059 HIT:       2939 MISS:     535120
cpu0_L2C PREFETCH     ACCESS:          0 HIT:          0 MISS:          0
cpu0_L2C WRITE        ACCESS:     538217 HIT:     538199 MISS:         18
cpu0_L2C TRANSLATION  ACCESS:     110932 HIT:       1327 MISS:     109605
cpu0_L2C PREFETCH REQUESTED:          0 ISSUED:          0 USEFUL:          0 USELESS:          0
cpu0_L2C AVERAGE MISS LATENCY: 986.1 cycles
cpu0_STLB TOTAL        ACCESS:     156148 HIT:         43 MISS:     156105
cpu0_STLB LOAD         ACCESS:     156148 HIT:         43 MISS:     156105
cpu0_STLB RFO          ACCESS:          0 HIT:          0 MISS:          0
cpu0_STLB PREFETCH     ACCESS:          0 HIT:          0 MISS:          0
cpu0_STLB WRITE        ACCESS:          0 HIT:          0 MISS:          0
cpu0_STLB TRANSLATION  ACCESS:          0 HIT:          0 MISS:          0
cpu0_STLB PREFETCH REQUESTED:          0 ISSUED:          0 USEFUL:          0 USELESS:          0
cpu0_STLB AVERAGE MISS LATENCY: 1549 cycles

DRAM Statistics

Channel 0 RQ ROW_BUFFER_HIT:     138321
  ROW_BUFFER_MISS:     477931
 AVG DBUS CONGESTED CYCLE: 3.976
WQ ROW_BUFFER_HIT: Channel 0 
  ROW_BUFFER_MISS:     119749
  FULL:     398759
