WARNING: physical memory size is smaller than virtual memory size.

*** ChampSim Multicore Out-of-Order Simulator ***
Warmup Instructions: 50000000
Simulation Instructions: 600000000
Number of CPUs: 1
Page size: 4096

Off-chip DRAM Size: 4 GiB Channels: 1 Width: 64-bit Data Race: 3200 MT/s
Heartbeat CPU 0 instructions: 10000000 cycles: 2500202 heartbeat IPC: 4 cumulative IPC: 4 (Simulation time: 00 hr 00 min 34 sec)
Heartbeat CPU 0 instructions: 20000000 cycles: 5000202 heartbeat IPC: 4 cumulative IPC: 4 (Simulation time: 00 hr 01 min 07 sec)
Heartbeat CPU 0 instructions: 30000000 cycles: 7500202 heartbeat IPC: 4 cumulative IPC: 4 (Simulation time: 00 hr 01 min 41 sec)
Heartbeat CPU 0 instructions: 40000000 cycles: 10000202 heartbeat IPC: 4 cumulative IPC: 4 (Simulation time: 00 hr 02 min 14 sec)
Heartbeat CPU 0 instructions: 50000000 cycles: 12500202 heartbeat IPC: 4 cumulative IPC: 4 (Simulation time: 00 hr 02 min 48 sec)
Warmup finished CPU 0 instructions: 50000000 cycles: 12500203 cumulative IPC: 4 (Simulation time: 00 hr 02 min 48 sec)
Warmup complete CPU 0 instructions: 50000000 cycles: 12500203 cumulative IPC: 4 (Simulation time: 00 hr 02 min 48 sec)
Heartbeat CPU 0 instructions: 60000002 cycles: 15723370 heartbeat IPC: 3.103 cumulative IPC: 3.103 (Simulation time: 00 hr 03 min 29 sec)
Heartbeat CPU 0 instructions: 70000002 cycles: 18384328 heartbeat IPC: 3.758 cumulative IPC: 3.399 (Simulation time: 00 hr 04 min 04 sec)
Heartbeat CPU 0 instructions: 80000003 cycles: 21040736 heartbeat IPC: 3.764 cumulative IPC: 3.513 (Simulation time: 00 hr 04 min 42 sec)
Heartbeat CPU 0 instructions: 90000004 cycles: 23696199 heartbeat IPC: 3.766 cumulative IPC: 3.573 (Simulation time: 00 hr 05 min 18 sec)
Heartbeat CPU 0 instructions: 100000003 cycles: 26356009 heartbeat IPC: 3.76 cumulative IPC: 3.609 (Simulation time: 00 hr 05 min 54 sec)
Heartbeat CPU 0 instructions: 110000000 cycles: 29009446 heartbeat IPC: 3.769 cumulative IPC: 3.634 (Simulation time: 00 hr 06 min 29 sec)
Heartbeat CPU 0 instructions: 120000000 cycles: 31666386 heartbeat IPC: 3.764 cumulative IPC: 3.652 (Simulation time: 00 hr 07 min 06 sec)
Heartbeat CPU 0 instructions: 130000000 cycles: 34319577 heartbeat IPC: 3.769 cumulative IPC: 3.666 (Simulation time: 00 hr 07 min 44 sec)
Heartbeat CPU 0 instructions: 140000001 cycles: 36977641 heartbeat IPC: 3.762 cumulative IPC: 3.677 (Simulation time: 00 hr 08 min 18 sec)
Heartbeat CPU 0 instructions: 150000003 cycles: 39635078 heartbeat IPC: 3.763 cumulative IPC: 3.685 (Simulation time: 00 hr 08 min 54 sec)
Heartbeat CPU 0 instructions: 160000003 cycles: 42290320 heartbeat IPC: 3.766 cumulative IPC: 3.692 (Simulation time: 00 hr 09 min 29 sec)
Heartbeat CPU 0 instructions: 170000001 cycles: 44943988 heartbeat IPC: 3.768 cumulative IPC: 3.699 (Simulation time: 00 hr 10 min 04 sec)
Heartbeat CPU 0 instructions: 180000001 cycles: 47598303 heartbeat IPC: 3.767 cumulative IPC: 3.704 (Simulation time: 00 hr 10 min 40 sec)
Heartbeat CPU 0 instructions: 190000002 cycles: 50253264 heartbeat IPC: 3.767 cumulative IPC: 3.708 (Simulation time: 00 hr 11 min 15 sec)
Heartbeat CPU 0 instructions: 200000001 cycles: 52908468 heartbeat IPC: 3.766 cumulative IPC: 3.712 (Simulation time: 00 hr 11 min 52 sec)
Heartbeat CPU 0 instructions: 210000000 cycles: 55564377 heartbeat IPC: 3.765 cumulative IPC: 3.715 (Simulation time: 00 hr 12 min 27 sec)
Heartbeat CPU 0 instructions: 220000001 cycles: 58222037 heartbeat IPC: 3.763 cumulative IPC: 3.718 (Simulation time: 00 hr 13 min 03 sec)
Heartbeat CPU 0 instructions: 230000002 cycles: 60881530 heartbeat IPC: 3.76 cumulative IPC: 3.72 (Simulation time: 00 hr 13 min 39 sec)
Heartbeat CPU 0 instructions: 240000004 cycles: 63538187 heartbeat IPC: 3.764 cumulative IPC: 3.723 (Simulation time: 00 hr 14 min 14 sec)
Heartbeat CPU 0 instructions: 250000000 cycles: 66193809 heartbeat IPC: 3.766 cumulative IPC: 3.725 (Simulation time: 00 hr 14 min 50 sec)
Heartbeat CPU 0 instructions: 260000000 cycles: 68852461 heartbeat IPC: 3.761 cumulative IPC: 3.727 (Simulation time: 00 hr 15 min 26 sec)
Heartbeat CPU 0 instructions: 270000002 cycles: 71506364 heartbeat IPC: 3.768 cumulative IPC: 3.728 (Simulation time: 00 hr 16 min 02 sec)
Heartbeat CPU 0 instructions: 280000003 cycles: 74165360 heartbeat IPC: 3.761 cumulative IPC: 3.73 (Simulation time: 00 hr 16 min 38 sec)
Heartbeat CPU 0 instructions: 290000002 cycles: 76821987 heartbeat IPC: 3.764 cumulative IPC: 3.731 (Simulation time: 00 hr 17 min 13 sec)
Heartbeat CPU 0 instructions: 300000000 cycles: 79481206 heartbeat IPC: 3.761 cumulative IPC: 3.732 (Simulation time: 00 hr 17 min 48 sec)
Heartbeat CPU 0 instructions: 310000002 cycles: 82137574 heartbeat IPC: 3.765 cumulative IPC: 3.734 (Simulation time: 00 hr 18 min 24 sec)
Heartbeat CPU 0 instructions: 320000004 cycles: 84793754 heartbeat IPC: 3.765 cumulative IPC: 3.735 (Simulation time: 00 hr 19 min 00 sec)
Heartbeat CPU 0 instructions: 330000000 cycles: 87451203 heartbeat IPC: 3.763 cumulative IPC: 3.736 (Simulation time: 00 hr 19 min 36 sec)
Heartbeat CPU 0 instructions: 340000002 cycles: 90106925 heartbeat IPC: 3.765 cumulative IPC: 3.737 (Simulation time: 00 hr 20 min 11 sec)
Heartbeat CPU 0 instructions: 350000002 cycles: 92763653 heartbeat IPC: 3.764 cumulative IPC: 3.738 (Simulation time: 00 hr 20 min 46 sec)
Heartbeat CPU 0 instructions: 360000001 cycles: 95421356 heartbeat IPC: 3.763 cumulative IPC: 3.738 (Simulation time: 00 hr 21 min 21 sec)
Heartbeat CPU 0 instructions: 370000004 cycles: 98076626 heartbeat IPC: 3.766 cumulative IPC: 3.739 (Simulation time: 00 hr 21 min 56 sec)
Heartbeat CPU 0 instructions: 380000000 cycles: 100735438 heartbeat IPC: 3.761 cumulative IPC: 3.74 (Simulation time: 00 hr 22 min 31 sec)
Heartbeat CPU 0 instructions: 390000003 cycles: 103390800 heartbeat IPC: 3.766 cumulative IPC: 3.741 (Simulation time: 00 hr 23 min 06 sec)
Heartbeat CPU 0 instructions: 400000000 cycles: 106046175 heartbeat IPC: 3.766 cumulative IPC: 3.741 (Simulation time: 00 hr 23 min 41 sec)
Heartbeat CPU 0 instructions: 410000000 cycles: 108701363 heartbeat IPC: 3.766 cumulative IPC: 3.742 (Simulation time: 00 hr 24 min 17 sec)
Heartbeat CPU 0 instructions: 420000001 cycles: 111355469 heartbeat IPC: 3.768 cumulative IPC: 3.743 (Simulation time: 00 hr 24 min 52 sec)
Heartbeat CPU 0 instructions: 430000003 cycles: 114012374 heartbeat IPC: 3.764 cumulative IPC: 3.743 (Simulation time: 00 hr 25 min 27 sec)
Heartbeat CPU 0 instructions: 440000003 cycles: 116667924 heartbeat IPC: 3.766 cumulative IPC: 3.744 (Simulation time: 00 hr 26 min 02 sec)
Heartbeat CPU 0 instructions: 450000004 cycles: 119329245 heartbeat IPC: 3.758 cumulative IPC: 3.744 (Simulation time: 00 hr 26 min 37 sec)
Heartbeat CPU 0 instructions: 460000001 cycles: 121984805 heartbeat IPC: 3.766 cumulative IPC: 3.745 (Simulation time: 00 hr 27 min 12 sec)
Heartbeat CPU 0 instructions: 470000002 cycles: 124638513 heartbeat IPC: 3.768 cumulative IPC: 3.745 (Simulation time: 00 hr 27 min 47 sec)
Heartbeat CPU 0 instructions: 480000001 cycles: 127292825 heartbeat IPC: 3.767 cumulative IPC: 3.746 (Simulation time: 00 hr 28 min 22 sec)
Heartbeat CPU 0 instructions: 490000000 cycles: 129950536 heartbeat IPC: 3.763 cumulative IPC: 3.746 (Simulation time: 00 hr 28 min 57 sec)
Heartbeat CPU 0 instructions: 500000002 cycles: 132605957 heartbeat IPC: 3.766 cumulative IPC: 3.747 (Simulation time: 00 hr 29 min 32 sec)
Heartbeat CPU 0 instructions: 510000003 cycles: 135259571 heartbeat IPC: 3.768 cumulative IPC: 3.747 (Simulation time: 00 hr 30 min 07 sec)
Heartbeat CPU 0 instructions: 520000004 cycles: 137919759 heartbeat IPC: 3.759 cumulative IPC: 3.747 (Simulation time: 00 hr 30 min 42 sec)
Heartbeat CPU 0 instructions: 530000000 cycles: 140573585 heartbeat IPC: 3.768 cumulative IPC: 3.748 (Simulation time: 00 hr 31 min 19 sec)
Heartbeat CPU 0 instructions: 540000000 cycles: 143229227 heartbeat IPC: 3.766 cumulative IPC: 3.748 (Simulation time: 00 hr 31 min 57 sec)
Heartbeat CPU 0 instructions: 550000003 cycles: 145883777 heartbeat IPC: 3.767 cumulative IPC: 3.749 (Simulation time: 00 hr 32 min 35 sec)
Heartbeat CPU 0 instructions: 560000003 cycles: 148538694 heartbeat IPC: 3.767 cumulative IPC: 3.749 (Simulation time: 00 hr 33 min 11 sec)
Heartbeat CPU 0 instructions: 570000004 cycles: 151194400 heartbeat IPC: 3.765 cumulative IPC: 3.749 (Simulation time: 00 hr 33 min 47 sec)
Heartbeat CPU 0 instructions: 580000000 cycles: 153853574 heartbeat IPC: 3.761 cumulative IPC: 3.749 (Simulation time: 00 hr 34 min 27 sec)
Heartbeat CPU 0 instructions: 590000002 cycles: 156509321 heartbeat IPC: 3.765 cumulative IPC: 3.75 (Simulation time: 00 hr 35 min 04 sec)
*** Reached end of trace: (0, "traces/convolution.champsimtrace")
Heartbeat CPU 0 instructions: 600000000 cycles: 159168747 heartbeat IPC: 3.76 cumulative IPC: 3.75 (Simulation time: 00 hr 35 min 41 sec)
Heartbeat CPU 0 instructions: 610000002 cycles: 180991543 heartbeat IPC: 0.4582 cumulative IPC: 3.324 (Simulation time: 00 hr 38 min 44 sec)
Heartbeat CPU 0 instructions: 620000001 cycles: 200049679 heartbeat IPC: 0.5247 cumulative IPC: 3.039 (Simulation time: 00 hr 41 min 28 sec)
Heartbeat CPU 0 instructions: 630000001 cycles: 208684772 heartbeat IPC: 1.158 cumulative IPC: 2.956 (Simulation time: 00 hr 42 min 57 sec)
Heartbeat CPU 0 instructions: 640000004 cycles: 219552754 heartbeat IPC: 0.9201 cumulative IPC: 2.85 (Simulation time: 00 hr 44 min 42 sec)
Heartbeat CPU 0 instructions: 650000001 cycles: 230301022 heartbeat IPC: 0.9304 cumulative IPC: 2.755 (Simulation time: 00 hr 46 min 21 sec)
Simulation finished CPU 0 instructions: 600000001 cycles: 217800820 cumulative IPC: 2.755 (Simulation time: 00 hr 46 min 21 sec)
Simulation complete CPU 0 instructions: 600000001 cycles: 217800820 cumulative IPC: 2.755 (Simulation time: 00 hr 46 min 21 sec)

ChampSim completed all CPUs

=== Simulation ===
CPU 0 runs traces/convolution.champsimtrace
Region of Interest Statistics

CPU 0 cumulative IPC: 2.755 instructions: 600000001 cycles: 217800820
CPU 0 Branch Prediction Accuracy: 99.47% MPKI: 0.9507 Average ROB Occupancy at Mispredict: 69.1
Branch type MPKI
BRANCH_DIRECT_JUMP: 0.000107
BRANCH_INDIRECT: 4.17e-05
BRANCH_CONDITIONAL: 0.95
BRANCH_DIRECT_CALL: 0.000103
BRANCH_INDIRECT_CALL: 8.33e-06
BRANCH_RETURN: 1.83e-05

LLC TOTAL        ACCESS:    1185654 HIT:      52903 MISS:    1132751
LLC LOAD         ACCESS:       2889 HIT:       2593 MISS:        296
LLC RFO          ACCESS:     535119 HIT:      15700 MISS:     519419
LLC PREFETCH     ACCESS:       2889 HIT:       2589 MISS:        300
LLC WRITE        ACCESS:     535166 HIT:      19063 MISS:     516103
LLC TRANSLATION  ACCESS:     109591 HIT:      12958 MISS:      96633
LLC PREFETCH REQUESTED:       2889 ISSUED:       2889 USEFUL:         19 USELESS:        256
LLC AVERAGE MISS LATENCY: 552.5 cycles
cpu0_DTLB TOTAL        ACCESS:  120203258 HIT:  119865661 MISS:     337597
cpu0_DTLB LOAD         ACCESS:  120203258 HIT:  119865661 MISS:     337597
cpu0_DTLB RFO          ACCESS:          0 HIT:          0 MISS:          0
cpu0_DTLB PREFETCH     ACCESS:          0 HIT:          0 MISS:          0
cpu0_DTLB WRITE        ACCESS:          0 HIT:          0 MISS:          0
cpu0_DTLB TRANSLATION  ACCESS:          0 HIT:          0 MISS:          0
cpu0_DTLB PREFETCH REQUESTED:          0 ISSUED:          0 USEFUL:          0 USELESS:          0
cpu0_DTLB AVERAGE MISS LATENCY: 636.5 cycles
cpu0_ITLB TOTAL        ACCESS:       1998 HIT:       1967 MISS:         31
cpu0_ITLB LOAD         ACCESS:       1998 HIT:       1967 MISS:         31
cpu0_ITLB RFO          ACCESS:          0 HIT:          0 MISS:          0
cpu0_ITLB PREFETCH     ACCESS:          0 HIT:          0 MISS:          0
cpu0_ITLB WRITE        ACCESS:          0 HIT:          0 MISS:          0
cpu0_ITLB TRANSLATION  ACCESS:          0 HIT:          0 MISS:          0
cpu0_ITLB PREFETCH REQUESTED:          0 ISSUED:          0 USEFUL:          0 USELESS:          0
cpu0_ITLB AVERAGE MISS LATENCY: 691.2 cycles
cpu0_L1D TOTAL        ACCESS:  161278749 HIT:  155134215 MISS:    6144534
cpu0_L1D LOAD         ACCESS:   89040149 HIT:   89034574 MISS:       5575
cpu0_L1D RFO          ACCESS:          0 HIT:          0 MISS:          0
cpu0_L1D PREFETCH     ACCESS:          0 HIT:          0 MISS:          0
cpu0_L1D WRITE        ACCESS:   72058040 HIT:   66063468 MISS:    5994572
cpu0_L1D TRANSLATION  ACCESS:     180560 HIT:      36173 MISS:     144387
cpu0_L1D PREFETCH REQUESTED:          0 ISSUED:          0 USEFUL:          0 USELESS:          0
cpu0_L1D AVERAGE MISS LATENCY: 80.17 cycles
cpu0_L1I TOTAL        ACCESS:       2297 HIT:       1044 MISS:       1253
cpu0_L1I LOAD         ACCESS:       2297 HIT:       1044 MISS:       1253
cpu0_L1I RFO          ACCESS:          0 HIT:          0 MISS:          0
cpu0_L1I PREFETCH     ACCESS:          0 HIT:          0 MISS:          0
cpu0_L1I WRITE        ACCESS:          0 HIT:          0 MISS:          0
cpu0_L1I TRANSLATION  ACCESS:          0 HIT:          0 MISS:          0
cpu0_L1I PREFETCH REQUESTED:          0 ISSUED:          0 USEFUL:          0 USELESS:          0
cpu0_L1I AVERAGE MISS LATENCY: 186.9 cycles
cpu0_L2C TOTAL        ACCESS:    1190506 HIT:     542888 MISS:     647618
cpu0_L2C LOAD         ACCESS:       3315 HIT:        426 MISS:       2889
cpu0_L2C RFO          ACCESS:     538065 HIT:       2946 MISS:     535119
cpu0_L2C PREFETCH     ACCESS:          0 HIT:          0 MISS:          0
cpu0_L2C WRITE        ACCESS:     538206 HIT:     538188 MISS:         18
cpu0_L2C TRANSLATION  ACCESS:     110920 HIT:       1328 MISS:     109592
cpu0_L2C PREFETCH REQUESTED:          0 ISSUED:          0 USEFUL:          0 USELESS:          0
cpu0_L2C AVERAGE MISS LATENCY: 986.6 cycles
cpu0_STLB TOTAL        ACCESS:     156148 HIT:         43 MISS:     156105
cpu0_STLB LOAD         ACCESS:     156148 HIT:         43 MISS:     156105
cpu0_STLB RFO          ACCESS:          0 HIT:          0 MISS:          0
cpu0_STLB PREFETCH     ACCESS:          0 HIT:          0 MISS:          0
cpu0_STLB WRITE        ACCESS:          0 HIT:          0 MISS:          0
cpu0_STLB TRANSLATION  ACCESS:          0 HIT:          0 MISS:          0
cpu0_STLB PREFETCH REQUESTED:          0 ISSUED:          0 USEFUL:          0 USELESS:          0
cpu0_STLB AVERAGE MISS LATENCY: 1555 cycles

DRAM Statistics

Channel 0 RQ ROW_BUFFER_HIT:     138438
  ROW_BUFFER_MISS:     478170
 AVG DBUS CONGESTED CYCLE: 3.975
WQ ROW_BUFFER_HIT: Channel 0 
  ROW_BUFFER_MISS:     119974
  FULL:     399406
