WARNING: physical memory size is smaller than virtual memory size.

*** ChampSim Multicore Out-of-Order Simulator ***
Warmup Instructions: 50000000
Simulation Instructions: 600000000
Number of CPUs: 1
Page size: 4096

Off-chip DRAM Size: 4 GiB Channels: 1 Width: 64-bit Data Race: 3200 MT/s
Heartbeat CPU 0 instructions: 10000000 cycles: 2500202 heartbeat IPC: 4 cumulative IPC: 4 (Simulation time: 00 hr 00 min 32 sec)
Heartbeat CPU 0 instructions: 20000000 cycles: 5000202 heartbeat IPC: 4 cumulative IPC: 4 (Simulation time: 00 hr 01 min 05 sec)
Heartbeat CPU 0 instructions: 30000000 cycles: 7500202 heartbeat IPC: 4 cumulative IPC: 4 (Simulation time: 00 hr 01 min 40 sec)
Heartbeat CPU 0 instructions: 40000000 cycles: 10000202 heartbeat IPC: 4 cumulative IPC: 4 (Simulation time: 00 hr 02 min 14 sec)
Heartbeat CPU 0 instructions: 50000000 cycles: 12500202 heartbeat IPC: 4 cumulative IPC: 4 (Simulation time: 00 hr 02 min 49 sec)
Warmup finished CPU 0 instructions: 50000000 cycles: 12500203 cumulative IPC: 4 (Simulation time: 00 hr 02 min 49 sec)
Warmup complete CPU 0 instructions: 50000000 cycles: 12500203 cumulative IPC: 4 (Simulation time: 00 hr 02 min 49 sec)
Heartbeat CPU 0 instructions: 60000002 cycles: 15723547 heartbeat IPC: 3.102 cumulative IPC: 3.102 (Simulation time: 00 hr 03 min 29 sec)
Heartbeat CPU 0 instructions: 70000002 cycles: 18381328 heartbeat IPC: 3.763 cumulative IPC: 3.401 (Simulation time: 00 hr 04 min 05 sec)
Heartbeat CPU 0 instructions: 80000003 cycles: 21036767 heartbeat IPC: 3.766 cumulative IPC: 3.514 (Simulation time: 00 hr 04 min 45 sec)
Heartbeat CPU 0 instructions: 90000004 cycles: 23693449 heartbeat IPC: 3.764 cumulative IPC: 3.574 (Simulation time: 00 hr 05 min 22 sec)
Heartbeat CPU 0 instructions: 100000003 cycles: 26351466 heartbeat IPC: 3.762 cumulative IPC: 3.61 (Simulation time: 00 hr 06 min 00 sec)
Heartbeat CPU 0 instructions: 110000000 cycles: 29006643 heartbeat IPC: 3.766 cumulative IPC: 3.635 (Simulation time: 00 hr 06 min 39 sec)
Heartbeat CPU 0 instructions: 120000000 cycles: 31664538 heartbeat IPC: 3.762 cumulative IPC: 3.653 (Simulation time: 00 hr 07 min 15 sec)
Heartbeat CPU 0 instructions: 130000000 cycles: 34320615 heartbeat IPC: 3.765 cumulative IPC: 3.666 (Simulation time: 00 hr 07 min 51 sec)
Heartbeat CPU 0 instructions: 140000001 cycles: 36978016 heartbeat IPC: 3.763 cumulative IPC: 3.677 (Simulation time: 00 hr 08 min 29 sec)
Heartbeat CPU 0 instructions: 150000003 cycles: 39633388 heartbeat IPC: 3.766 cumulative IPC: 3.686 (Simulation time: 00 hr 09 min 09 sec)
Heartbeat CPU 0 instructions: 160000003 cycles: 42289118 heartbeat IPC: 3.765 cumulative IPC: 3.693 (Simulation time: 00 hr 09 min 46 sec)
Heartbeat CPU 0 instructions: 170000001 cycles: 44943023 heartbeat IPC: 3.768 cumulative IPC: 3.699 (Simulation time: 00 hr 10 min 21 sec)
Heartbeat CPU 0 instructions: 180000001 cycles: 47596373 heartbeat IPC: 3.769 cumulative IPC: 3.704 (Simulation time: 00 hr 11 min 01 sec)
Heartbeat CPU 0 instructions: 190000002 cycles: 50249313 heartbeat IPC: 3.769 cumulative IPC: 3.709 (Simulation time: 00 hr 11 min 38 sec)
Heartbeat CPU 0 instructions: 200000001 cycles: 52906061 heartbeat IPC: 3.764 cumulative IPC: 3.712 (Simulation time: 00 hr 12 min 16 sec)
Heartbeat CPU 0 instructions: 210000000 cycles: 55567437 heartbeat IPC: 3.757 cumulative IPC: 3.715 (Simulation time: 00 hr 12 min 52 sec)
Heartbeat CPU 0 instructions: 220000001 cycles: 58223736 heartbeat IPC: 3.765 cumulative IPC: 3.718 (Simulation time: 00 hr 13 min 28 sec)
Heartbeat CPU 0 instructions: 230000002 cycles: 60883057 heartbeat IPC: 3.76 cumulative IPC: 3.72 (Simulation time: 00 hr 14 min 03 sec)
Heartbeat CPU 0 instructions: 240000004 cycles: 63543378 heartbeat IPC: 3.759 cumulative IPC: 3.722 (Simulation time: 00 hr 14 min 38 sec)
Heartbeat CPU 0 instructions: 250000000 cycles: 66200679 heartbeat IPC: 3.763 cumulative IPC: 3.724 (Simulation time: 00 hr 15 min 13 sec)
Heartbeat CPU 0 instructions: 260000000 cycles: 68859602 heartbeat IPC: 3.761 cumulative IPC: 3.726 (Simulation time: 00 hr 15 min 48 sec)
Heartbeat CPU 0 instructions: 270000002 cycles: 71513826 heartbeat IPC: 3.768 cumulative IPC: 3.728 (Simulation time: 00 hr 16 min 23 sec)
Heartbeat CPU 0 instructions: 280000003 cycles: 74168672 heartbeat IPC: 3.767 cumulative IPC: 3.73 (Simulation time: 00 hr 16 min 59 sec)
Heartbeat CPU 0 instructions: 290000002 cycles: 76823780 heartbeat IPC: 3.766 cumulative IPC: 3.731 (Simulation time: 00 hr 17 min 35 sec)
Heartbeat CPU 0 instructions: 300000000 cycles: 79482954 heartbeat IPC: 3.761 cumulative IPC: 3.732 (Simulation time: 00 hr 18 min 12 sec)
Heartbeat CPU 0 instructions: 310000002 cycles: 82136752 heartbeat IPC: 3.768 cumulative IPC: 3.734 (Simulation time: 00 hr 18 min 49 sec)
Heartbeat CPU 0 instructions: 320000004 cycles: 84793320 heartbeat IPC: 3.764 cumulative IPC: 3.735 (Simulation time: 00 hr 19 min 26 sec)
Heartbeat CPU 0 instructions: 330000000 cycles: 87454962 heartbeat IPC: 3.757 cumulative IPC: 3.736 (Simulation time: 00 hr 20 min 03 sec)
Heartbeat CPU 0 instructions: 340000002 cycles: 90113313 heartbeat IPC: 3.762 cumulative IPC: 3.736 (Simulation time: 00 hr 20 min 38 sec)
Heartbeat CPU 0 instructions: 350000002 cycles: 92770816 heartbeat IPC: 3.763 cumulative IPC: 3.737 (Simulation time: 00 hr 21 min 13 sec)
Heartbeat CPU 0 instructions: 360000001 cycles: 95427411 heartbeat IPC: 3.764 cumulative IPC: 3.738 (Simulation time: 00 hr 21 min 48 sec)
Heartbeat CPU 0 instructions: 370000004 cycles: 98083503 heartbeat IPC: 3.765 cumulative IPC: 3.739 (Simulation time: 00 hr 22 min 23 sec)
Heartbeat CPU 0 instructions: 380000000 cycles: 100737717 heartbeat IPC: 3.768 cumulative IPC: 3.74 (Simulation time: 00 hr 22 min 58 sec)
Heartbeat CPU 0 instructions: 390000003 cycles: 103391910 heartbeat IPC: 3.768 cumulative IPC: 3.741 (Simulation time: 00 hr 23 min 33 sec)
Heartbeat CPU 0 instructions: 400000000 cycles: 106046099 heartbeat IPC: 3.768 cumulative IPC: 3.741 (Simulation time: 00 hr 24 min 09 sec)
Heartbeat CPU 0 instructions: 410000000 cycles: 108702132 heartbeat IPC: 3.765 cumulative IPC: 3.742 (Simulation time: 00 hr 24 min 44 sec)
Heartbeat CPU 0 instructions: 420000001 cycles: 111359482 heartbeat IPC: 3.763 cumulative IPC: 3.743 (Simulation time: 00 hr 25 min 19 sec)
Heartbeat CPU 0 instructions: 430000003 cycles: 114016599 heartbeat IPC: 3.763 cumulative IPC: 3.743 (Simulation time: 00 hr 25 min 54 sec)
Heartbeat CPU 0 instructions: 440000003 cycles: 116670214 heartbeat IPC: 3.768 cumulative IPC: 3.744 (Simulation time: 00 hr 26 min 29 sec)
Heartbeat CPU 0 instructions: 450000004 cycles: 119328735 heartbeat IPC: 3.761 cumulative IPC: 3.744 (Simulation time: 00 hr 27 min 04 sec)
Heartbeat CPU 0 instructions: 460000001 cycles: 121986557 heartbeat IPC: 3.762 cumulative IPC: 3.745 (Simulation time: 00 hr 27 min 40 sec)
Heartbeat CPU 0 instructions: 470000002 cycles: 124642291 heartbeat IPC: 3.765 cumulative IPC: 3.745 (Simulation time: 00 hr 28 min 15 sec)
Heartbeat CPU 0 instructions: 480000001 cycles: 127296277 heartbeat IPC: 3.768 cumulative IPC: 3.746 (Simulation time: 00 hr 28 min 51 sec)
Heartbeat CPU 0 instructions: 490000000 cycles: 129954188 heartbeat IPC: 3.762 cumulative IPC: 3.746 (Simulation time: 00 hr 29 min 26 sec)
Heartbeat CPU 0 instructions: 500000002 cycles: 132608780 heartbeat IPC: 3.767 cumulative IPC: 3.747 (Simulation time: 00 hr 30 min 01 sec)
Heartbeat CPU 0 instructions: 510000003 cycles: 135265317 heartbeat IPC: 3.764 cumulative IPC: 3.747 (Simulation time: 00 hr 30 min 36 sec)
Heartbeat CPU 0 instructions: 520000004 cycles: 137931064 heartbeat IPC: 3.751 cumulative IPC: 3.747 (Simulation time: 00 hr 31 min 11 sec)
Heartbeat CPU 0 instructions: 530000000 cycles: 140587772 heartbeat IPC: 3.764 cumulative IPC: 3.747 (Simulation time: 00 hr 31 min 47 sec)
Heartbeat CPU 0 instructions: 540000000 cycles: 143242561 heartbeat IPC: 3.767 cumulative IPC: 3.748 (Simulation time: 00 hr 32 min 22 sec)
Heartbeat CPU 0 instructions: 550000003 cycles: 145896129 heartbeat IPC: 3.769 cumulative IPC: 3.748 (Simulation time: 00 hr 33 min 00 sec)
Heartbeat CPU 0 instructions: 560000003 cycles: 148555513 heartbeat IPC: 3.76 cumulative IPC: 3.748 (Simulation time: 00 hr 33 min 37 sec)
Heartbeat CPU 0 instructions: 570000004 cycles: 151214938 heartbeat IPC: 3.76 cumulative IPC: 3.749 (Simulation time: 00 hr 34 min 14 sec)
Heartbeat CPU 0 instructions: 580000000 cycles: 153872515 heartbeat IPC: 3.763 cumulative IPC: 3.749 (Simulation time: 00 hr 34 min 50 sec)
Heartbeat CPU 0 instructions: 590000002 cycles: 156527888 heartbeat IPC: 3.766 cumulative IPC: 3.749 (Simulation time: 00 hr 35 min 28 sec)
*** Reached end of trace: (0, "traces/convolution.champsimtrace")
Heartbeat CPU 0 instructions: 600000000 cycles: 159185082 heartbeat IPC: 3.763 cumulative IPC: 3.75 (Simulation time: 00 hr 36 min 04 sec)
Heartbeat CPU 0 instructions: 610000002 cycles: 181124720 heartbeat IPC: 0.4558 cumulative IPC: 3.321 (Simulation time: 00 hr 39 min 04 sec)
Heartbeat CPU 0 instructions: 620000001 cycles: 200175020 heartbeat IPC: 0.5249 cumulative IPC: 3.037 (Simulation time: 00 hr 41 min 46 sec)
Heartbeat CPU 0 instructions: 630000001 cycles: 208749089 heartbeat IPC: 1.166 cumulative IPC: 2.955 (Simulation time: 00 hr 43 min 10 sec)
Heartbeat CPU 0 instructions: 640000004 cycles: 219554132 heartbeat IPC: 0.9255 cumulative IPC: 2.849 (Simulation time: 00 hr 44 min 55 sec)
Heartbeat CPU 0 instructions: 650000001 cycles: 230308660 heartbeat IPC: 0.9298 cumulative IPC: 2.755 (Simulation time: 00 hr 46 min 38 sec)
Simulation finished CPU 0 instructions: 600000001 cycles: 217808458 cumulative IPC: 2.755 (Simulation time: 00 hr 46 min 38 sec)
Simulation complete CPU 0 instructions: 600000001 cycles: 217808458 cumulative IPC: 2.755 (Simulation time: 00 hr 46 min 38 sec)

ChampSim completed all CPUs

=== Simulation ===
CPU 0 runs traces/convolution.champsimtrace
Region of Interest Statistics

CPU 0 cumulative IPC: 2.755 instructions: 600000001 cycles: 217808458
CPU 0 Branch Prediction Accuracy: 99.47% MPKI: 0.9507 Average ROB Occupancy at Mispredict: 69.13
Branch type MPKI
BRANCH_DIRECT_JUMP: 0.000107
BRANCH_INDIRECT: 4.17e-05
BRANCH_CONDITIONAL: 0.95
BRANCH_DIRECT_CALL: 0.000103
BRANCH_INDIRECT_CALL: 8.33e-06
BRANCH_RETURN: 1.83e-05

LLC TOTAL        ACCESS:    1185674 HIT:      52383 MISS:    1133291
LLC LOAD         ACCESS:       2888 HIT:       1906 MISS:        982
LLC RFO          ACCESS:     535120 HIT:      16514 MISS:     518606
LLC PREFETCH     ACCESS:       2888 HIT:       1624 MISS:       1264
LLC WRITE        ACCESS:     535168 HIT:      19181 MISS:     515987
LLC TRANSLATION  ACCESS:     109610 HIT:      13158 MISS:      96452
LLC PREFETCH REQUESTED:       2888 ISSUED:       2888 USEFUL:        680 USELESS:        285
LLC AVERAGE MISS LATENCY: 552.3 cycles
cpu0_DTLB TOTAL        ACCESS:  120209997 HIT:  119872742 MISS:     337255
cpu0_DTLB LOAD         ACCESS:  120209997 HIT:  119872742 MISS:     337255
cpu0_DTLB RFO          ACCESS:          0 HIT:          0 MISS:          0
cpu0_DTLB PREFETCH     ACCESS:          0 HIT:          0 MISS:          0
cpu0_DTLB WRITE        ACCESS:          0 HIT:          0 MISS:          0
cpu0_DTLB TRANSLATION  ACCESS:          0 HIT:          0 MISS:          0
cpu0_DTLB PREFETCH REQUESTED:          0 ISSUED:          0 USEFUL:          0 USELESS:          0
cpu0_DTLB AVERAGE MISS LATENCY: 635.8 cycles
cpu0_ITLB TOTAL        ACCESS:       1996 HIT:       1965 MISS:         31
cpu0_ITLB LOAD         ACCESS:       1996 HIT:       1965 MISS:         31
cpu0_ITLB RFO          ACCESS:          0 HIT:          0 MISS:          0
cpu0_ITLB PREFETCH     ACCESS:          0 HIT:          0 MISS:          0
cpu0_ITLB WRITE        ACCESS:          0 HIT:          0 MISS:          0
cpu0_ITLB TRANSLATION  ACCESS:          0 HIT:          0 MISS:          0
cpu0_ITLB PREFETCH REQUESTED:          0 ISSUED:          0 USEFUL:          0 USELESS:          0
cpu0_ITLB AVERAGE MISS LATENCY: 479.3 cycles
cpu0_L1D TOTAL        ACCESS:  161281993 HIT:  155138394 MISS:    6143599
cpu0_L1D LOAD         ACCESS:   89042894 HIT:   89036366 MISS:       6528
cpu0_L1D RFO          ACCESS:          0 HIT:          0 MISS:          0
cpu0_L1D PREFETCH     ACCESS:          0 HIT:          0 MISS:          0
cpu0_L1D WRITE        ACCESS:   72058522 HIT:   66065970 MISS:    5992552
cpu0_L1D TRANSLATION  ACCESS:     180577 HIT:      36058 MISS:     144519
cpu0_L1D PREFETCH REQUESTED:          0 ISSUED:          0 USEFUL:          0 USELESS:          0
cpu0_L1D AVERAGE MISS LATENCY: 80.29 cycles
cpu0_L1I TOTAL        ACCESS:       2291 HIT:       1008 MISS:       1283
cpu0_L1I LOAD         ACCESS:       2291 HIT:       1008 MISS:       1283
cpu0_L1I RFO          ACCESS:          0 HIT:          0 MISS:          0
cpu0_L1I PREFETCH     ACCESS:          0 HIT:          0 MISS:          0
cpu0_L1I WRITE        ACCESS:          0 HIT:          0 MISS:          0
cpu0_L1I TRANSLATION  ACCESS:          0 HIT:          0 MISS:          0
cpu0_L1I PREFETCH REQUESTED:          0 ISSUED:          0 USEFUL:          0 USELESS:          0
cpu0_L1I AVERAGE MISS LATENCY: 314.8 cycles
cpu0_L2C TOTAL        ACCESS:    1190527 HIT:     542890 MISS:     647637
cpu0_L2C LOAD         ACCESS:       3314 HIT:        426 MISS:       2888
cpu0_L2C RFO          ACCESS:     538051 HIT:       2931 MISS:     535120
cpu0_L2C PREFETCH     ACCESS:          0 HIT:          0 MISS:          0
cpu0_L2C WRITE        ACCESS:     538215 HIT:     538197 MISS:         18
cpu0_L2C TRANSLATION  ACCESS:     110947 HIT:       1336 MISS:     109611
cpu0_L2C PREFETCH REQUESTED:          0 ISSUED:          0 USEFUL:          0 USELESS:          0
cpu0_L2C AVERAGE MISS LATENCY: 986.1 cycles
cpu0_STLB TOTAL        ACCESS:     156158 HIT:         49 MISS:     156109
cpu0_STLB LOAD         ACCESS:     156158 HIT:         49 MISS:     156109
cpu0_STLB RFO          ACCESS:          0 HIT:          0 MISS:          0
cpu0_STLB PREFETCH     ACCESS:          0 HIT:          0 MISS:          0
cpu0_STLB WRITE        ACCESS:          0 HIT:          0 MISS:          0
cpu0_STLB TRANSLATION  ACCESS:          0 HIT:          0 MISS:          0
cpu0_STLB PREFETCH REQUESTED:          0 ISSUED:          0 USEFUL:          0 USELESS:          0
cpu0_STLB AVERAGE MISS LATENCY: 1550 cycles

DRAM Statistics

Channel 0 RQ ROW_BUFFER_HIT:     138449
  ROW_BUFFER_MISS:     478254
 AVG DBUS CONGESTED CYCLE: 3.976
WQ ROW_BUFFER_HIT: Channel 0 
  ROW_BUFFER_MISS:     119710
  FULL:     398886
