WARNING: physical memory size is smaller than virtual memory size.

*** ChampSim Multicore Out-of-Order Simulator ***
Warmup Instructions: 50000000
Simulation Instructions: 600000000
Number of CPUs: 1
Page size: 4096

Off-chip DRAM Size: 4 GiB Channels: 1 Width: 64-bit Data Race: 3200 MT/s
Heartbeat CPU 0 instructions: 10000000 cycles: 2500202 heartbeat IPC: 4 cumulative IPC: 4 (Simulation time: 00 hr 00 min 34 sec)
Heartbeat CPU 0 instructions: 20000000 cycles: 5000202 heartbeat IPC: 4 cumulative IPC: 4 (Simulation time: 00 hr 01 min 07 sec)
Heartbeat CPU 0 instructions: 30000000 cycles: 7500202 heartbeat IPC: 4 cumulative IPC: 4 (Simulation time: 00 hr 01 min 39 sec)
Heartbeat CPU 0 instructions: 40000000 cycles: 10000202 heartbeat IPC: 4 cumulative IPC: 4 (Simulation time: 00 hr 02 min 12 sec)
Heartbeat CPU 0 instructions: 50000000 cycles: 12500202 heartbeat IPC: 4 cumulative IPC: 4 (Simulation time: 00 hr 02 min 46 sec)
Warmup finished CPU 0 instructions: 50000000 cycles: 12500203 cumulative IPC: 4 (Simulation time: 00 hr 02 min 46 sec)
Warmup complete CPU 0 instructions: 50000000 cycles: 12500203 cumulative IPC: 4 (Simulation time: 00 hr 02 min 46 sec)
Heartbeat CPU 0 instructions: 60000002 cycles: 15798339 heartbeat IPC: 3.032 cumulative IPC: 3.032 (Simulation time: 00 hr 03 min 34 sec)
Heartbeat CPU 0 instructions: 70000002 cycles: 18504741 heartbeat IPC: 3.695 cumulative IPC: 3.331 (Simulation time: 00 hr 04 min 20 sec)
Heartbeat CPU 0 instructions: 80000003 cycles: 21208338 heartbeat IPC: 3.699 cumulative IPC: 3.445 (Simulation time: 00 hr 05 min 04 sec)
Heartbeat CPU 0 instructions: 90000004 cycles: 23911901 heartbeat IPC: 3.699 cumulative IPC: 3.505 (Simulation time: 00 hr 05 min 49 sec)
Heartbeat CPU 0 instructions: 100000003 cycles: 26617713 heartbeat IPC: 3.696 cumulative IPC: 3.542 (Simulation time: 00 hr 06 min 41 sec)
Heartbeat CPU 0 instructions: 110000000 cycles: 29321708 heartbeat IPC: 3.698 cumulative IPC: 3.567 (Simulation time: 00 hr 07 min 19 sec)
Heartbeat CPU 0 instructions: 120000000 cycles: 32025655 heartbeat IPC: 3.698 cumulative IPC: 3.585 (Simulation time: 00 hr 08 min 06 sec)
Heartbeat CPU 0 instructions: 130000000 cycles: 34729276 heartbeat IPC: 3.699 cumulative IPC: 3.599 (Simulation time: 00 hr 08 min 47 sec)
Heartbeat CPU 0 instructions: 140000001 cycles: 37432825 heartbeat IPC: 3.699 cumulative IPC: 3.61 (Simulation time: 00 hr 09 min 25 sec)
Heartbeat CPU 0 instructions: 150000003 cycles: 40136409 heartbeat IPC: 3.699 cumulative IPC: 3.618 (Simulation time: 00 hr 10 min 07 sec)
Heartbeat CPU 0 instructions: 160000003 cycles: 42841634 heartbeat IPC: 3.697 cumulative IPC: 3.625 (Simulation time: 00 hr 10 min 50 sec)
Heartbeat CPU 0 instructions: 170000001 cycles: 45545243 heartbeat IPC: 3.699 cumulative IPC: 3.631 (Simulation time: 00 hr 11 min 26 sec)
Heartbeat CPU 0 instructions: 180000001 cycles: 48248816 heartbeat IPC: 3.699 cumulative IPC: 3.637 (Simulation time: 00 hr 12 min 04 sec)
Heartbeat CPU 0 instructions: 190000002 cycles: 50953709 heartbeat IPC: 3.697 cumulative IPC: 3.641 (Simulation time: 00 hr 12 min 41 sec)
Heartbeat CPU 0 instructions: 200000001 cycles: 53657295 heartbeat IPC: 3.699 cumulative IPC: 3.645 (Simulation time: 00 hr 13 min 18 sec)
Heartbeat CPU 0 instructions: 210000000 cycles: 56366874 heartbeat IPC: 3.691 cumulative IPC: 3.647 (Simulation time: 00 hr 13 min 59 sec)
Heartbeat CPU 0 instructions: 220000001 cycles: 59070231 heartbeat IPC: 3.699 cumulative IPC: 3.65 (Simulation time: 00 hr 14 min 37 sec)
Heartbeat CPU 0 instructions: 230000002 cycles: 61773853 heartbeat IPC: 3.699 cumulative IPC: 3.653 (Simulation time: 00 hr 15 min 17 sec)
Heartbeat CPU 0 instructions: 240000004 cycles: 64477486 heartbeat IPC: 3.699 cumulative IPC: 3.655 (Simulation time: 00 hr 15 min 53 sec)
Heartbeat CPU 0 instructions: 250000000 cycles: 67184224 heartbeat IPC: 3.694 cumulative IPC: 3.657 (Simulation time: 00 hr 16 min 33 sec)
Heartbeat CPU 0 instructions: 260000000 cycles: 69888578 heartbeat IPC: 3.698 cumulative IPC: 3.659 (Simulation time: 00 hr 17 min 10 sec)
Heartbeat CPU 0 instructions: 270000002 cycles: 72592813 heartbeat IPC: 3.698 cumulative IPC: 3.661 (Simulation time: 00 hr 17 min 48 sec)
Heartbeat CPU 0 instructions: 280000003 cycles: 75296705 heartbeat IPC: 3.698 cumulative IPC: 3.663 (Simulation time: 00 hr 18 min 24 sec)
Heartbeat CPU 0 instructions: 290000003 cycles: 78000389 heartbeat IPC: 3.699 cumulative IPC: 3.664 (Simulation time: 00 hr 19 min 00 sec)
Heartbeat CPU 0 instructions: 300000000 cycles: 80706877 heartbeat IPC: 3.695 cumulative IPC: 3.665 (Simulation time: 00 hr 19 min 36 sec)
Heartbeat CPU 0 instructions: 310000002 cycles: 83411724 heartbeat IPC: 3.697 cumulative IPC: 3.667 (Simulation time: 00 hr 20 min 11 sec)
Heartbeat CPU 0 instructions: 320000004 cycles: 86115101 heartbeat IPC: 3.699 cumulative IPC: 3.668 (Simulation time: 00 hr 20 min 49 sec)
Heartbeat CPU 0 instructions: 330000000 cycles: 88818711 heartbeat IPC: 3.699 cumulative IPC: 3.669 (Simulation time: 00 hr 21 min 28 sec)
Heartbeat CPU 0 instructions: 340000002 cycles: 91522804 heartbeat IPC: 3.698 cumulative IPC: 3.67 (Simulation time: 00 hr 22 min 06 sec)
Heartbeat CPU 0 instructions: 350000002 cycles: 94226367 heartbeat IPC: 3.699 cumulative IPC: 3.671 (Simulation time: 00 hr 22 min 42 sec)
Heartbeat CPU 0 instructions: 360000001 cycles: 96933806 heartbeat IPC: 3.694 cumulative IPC: 3.672 (Simulation time: 00 hr 23 min 19 sec)
Heartbeat CPU 0 instructions: 370000004 cycles: 99637524 heartbeat IPC: 3.699 cumulative IPC: 3.672 (Simulation time: 00 hr 23 min 55 sec)
Heartbeat CPU 0 instructions: 380000000 cycles: 102341092 heartbeat IPC: 3.699 cumulative IPC: 3.673 (Simulation time: 00 hr 24 min 32 sec)
Heartbeat CPU 0 instructions: 390000004 cycles: 105044812 heartbeat IPC: 3.699 cumulative IPC: 3.674 (Simulation time: 00 hr 25 min 07 sec)
Heartbeat CPU 0 instructions: 400000000 cycles: 107750029 heartbeat IPC: 3.697 cumulative IPC: 3.675 (Simulation time: 00 hr 25 min 43 sec)
Heartbeat CPU 0 instructions: 410000000 cycles: 110455261 heartbeat IPC: 3.697 cumulative IPC: 3.675 (Simulation time: 00 hr 26 min 20 sec)
Heartbeat CPU 0 instructions: 420000001 cycles: 113158707 heartbeat IPC: 3.699 cumulative IPC: 3.676 (Simulation time: 00 hr 26 min 56 sec)
Heartbeat CPU 0 instructions: 430000003 cycles: 115862776 heartbeat IPC: 3.698 cumulative IPC: 3.676 (Simulation time: 00 hr 27 min 32 sec)
Heartbeat CPU 0 instructions: 440000003 cycles: 118566637 heartbeat IPC: 3.698 cumulative IPC: 3.677 (Simulation time: 00 hr 28 min 08 sec)
Heartbeat CPU 0 instructions: 450000004 cycles: 121274236 heartbeat IPC: 3.693 cumulative IPC: 3.677 (Simulation time: 00 hr 28 min 43 sec)
Heartbeat CPU 0 instructions: 460000001 cycles: 123977593 heartbeat IPC: 3.699 cumulative IPC: 3.678 (Simulation time: 00 hr 29 min 19 sec)
Heartbeat CPU 0 instructions: 470000002 cycles: 126681069 heartbeat IPC: 3.699 cumulative IPC: 3.678 (Simulation time: 00 hr 29 min 55 sec)
Heartbeat CPU 0 instructions: 480000001 cycles: 129384818 heartbeat IPC: 3.699 cumulative IPC: 3.679 (Simulation time: 00 hr 30 min 31 sec)
Heartbeat CPU 0 instructions: 490000000 cycles: 132088860 heartbeat IPC: 3.698 cumulative IPC: 3.679 (Simulation time: 00 hr 31 min 06 sec)
Heartbeat CPU 0 instructions: 500000002 cycles: 134795403 heartbeat IPC: 3.695 cumulative IPC: 3.68 (Simulation time: 00 hr 31 min 43 sec)
Heartbeat CPU 0 instructions: 510000003 cycles: 137498728 heartbeat IPC: 3.699 cumulative IPC: 3.68 (Simulation time: 00 hr 32 min 18 sec)
Heartbeat CPU 0 instructions: 520000004 cycles: 140202287 heartbeat IPC: 3.699 cumulative IPC: 3.68 (Simulation time: 00 hr 32 min 54 sec)
Heartbeat CPU 0 instructions: 530000000 cycles: 142905944 heartbeat IPC: 3.699 cumulative IPC: 3.681 (Simulation time: 00 hr 33 min 30 sec)
Heartbeat CPU 0 instructions: 540000000 cycles: 145614323 heartbeat IPC: 3.692 cumulative IPC: 3.681 (Simulation time: 00 hr 34 min 06 sec)
Heartbeat CPU 0 instructions: 550000003 cycles: 148318160 heartbeat IPC: 3.698 cumulative IPC: 3.681 (Simulation time: 00 hr 34 min 42 sec)
Heartbeat CPU 0 instructions: 560000003 cycles: 151021950 heartbeat IPC: 3.699 cumulative IPC: 3.682 (Simulation time: 00 hr 35 min 17 sec)
Heartbeat CPU 0 instructions: 570000004 cycles: 153725289 heartbeat IPC: 3.699 cumulative IPC: 3.682 (Simulation time: 00 hr 35 min 53 sec)
Heartbeat CPU 0 instructions: 580000000 cycles: 156428993 heartbeat IPC: 3.699 cumulative IPC: 3.682 (Simulation time: 00 hr 36 min 29 sec)
Heartbeat CPU 0 instructions: 590000002 cycles: 159132576 heartbeat IPC: 3.699 cumulative IPC: 3.683 (Simulation time: 00 hr 37 min 07 sec)
*** Reached end of trace: (0, "traces/convolution.champsimtrace")
Heartbeat CPU 0 instructions: 600000000 cycles: 161845516 heartbeat IPC: 3.686 cumulative IPC: 3.683 (Simulation time: 00 hr 37 min 44 sec)
Heartbeat CPU 0 instructions: 610000001 cycles: 185363975 heartbeat IPC: 0.4252 cumulative IPC: 3.24 (Simulation time: 00 hr 40 min 52 sec)
Heartbeat CPU 0 instructions: 620000001 cycles: 208878647 heartbeat IPC: 0.4253 cumulative IPC: 2.903 (Simulation time: 00 hr 44 min 06 sec)
Heartbeat CPU 0 instructions: 630000001 cycles: 220293736 heartbeat IPC: 0.876 cumulative IPC: 2.791 (Simulation time: 00 hr 45 min 55 sec)
Heartbeat CPU 0 instructions: 640000004 cycles: 230811810 heartbeat IPC: 0.9507 cumulative IPC: 2.703 (Simulation time: 00 hr 47 min 37 sec)
Heartbeat CPU 0 instructions: 650000001 cycles: 241602500 heartbeat IPC: 0.9267 cumulative IPC: 2.619 (Simulation time: 00 hr 49 min 20 sec)
Simulation finished CPU 0 instructions: 600000001 cycles: 229102298 cumulative IPC: 2.619 (Simulation time: 00 hr 49 min 20 sec)
Simulation complete CPU 0 instructions: 600000001 cycles: 229102298 cumulative IPC: 2.619 (Simulation time: 00 hr 49 min 20 sec)

ChampSim completed all CPUs

=== Simulation ===
CPU 0 runs traces/convolution.champsimtrace
Region of Interest Statistics

CPU 0 cumulative IPC: 2.619 instructions: 600000001 cycles: 229102298
CPU 0 Branch Prediction Accuracy: 99.3% MPKI: 1.265 Average ROB Occupancy at Mispredict: 63.98
Branch type MPKI
BRANCH_DIRECT_JUMP: 0.000107
BRANCH_INDIRECT: 4.17e-05
BRANCH_CONDITIONAL: 1.26
BRANCH_DIRECT_CALL: 0.000103
BRANCH_INDIRECT_CALL: 8.33e-06
BRANCH_RETURN: 1.83e-05

LLC TOTAL        ACCESS:    1186477 HIT:     226325 MISS:     960152
LLC LOAD         ACCESS:       2890 HIT:        854 MISS:       2036
LLC RFO          ACCESS:     535120 HIT:         51 MISS:     535069
LLC PREFETCH     ACCESS:       2890 HIT:        267 MISS:       2623
LLC WRITE        ACCESS:     535173 HIT:     224750 MISS:     310423
LLC TRANSLATION  ACCESS:     110404 HIT:        403 MISS:     110001
LLC PREFETCH REQUESTED:       2890 ISSUED:       2890 USEFUL:       1645 USELESS:        376
LLC AVERAGE MISS LATENCY: 736.1 cycles
cpu0_DTLB TOTAL        ACCESS:  121561213 HIT:  121208401 MISS:     352812
cpu0_DTLB LOAD         ACCESS:  121561213 HIT:  121208401 MISS:     352812
cpu0_DTLB RFO          ACCESS:          0 HIT:          0 MISS:          0
cpu0_DTLB PREFETCH     ACCESS:          0 HIT:          0 MISS:          0
cpu0_DTLB WRITE        ACCESS:          0 HIT:          0 MISS:          0
cpu0_DTLB TRANSLATION  ACCESS:          0 HIT:          0 MISS:          0
cpu0_DTLB PREFETCH REQUESTED:          0 ISSUED:          0 USEFUL:          0 USELESS:          0
cpu0_DTLB AVERAGE MISS LATENCY: 667.3 cycles
cpu0_ITLB TOTAL        ACCESS:       2014 HIT:       1981 MISS:         33
cpu0_ITLB LOAD         ACCESS:       2014 HIT:       1981 MISS:         33
cpu0_ITLB RFO          ACCESS:          0 HIT:          0 MISS:          0
cpu0_ITLB PREFETCH     ACCESS:          0 HIT:          0 MISS:          0
cpu0_ITLB WRITE        ACCESS:          0 HIT:          0 MISS:          0
cpu0_ITLB TRANSLATION  ACCESS:          0 HIT:          0 MISS:          0
cpu0_ITLB PREFETCH REQUESTED:          0 ISSUED:          0 USEFUL:          0 USELESS:          0
cpu0_ITLB AVERAGE MISS LATENCY: 930.4 cycles
cpu0_L1D TOTAL        ACCESS:  162711444 HIT:  156556909 MISS:    6154535
cpu0_L1D LOAD         ACCESS:   90495035 HIT:   90488865 MISS:       6170
cpu0_L1D RFO          ACCESS:          0 HIT:          0 MISS:          0
cpu0_L1D PREFETCH     ACCESS:          0 HIT:          0 MISS:          0
cpu0_L1D WRITE        ACCESS:   72035305 HIT:   66029769 MISS:    6005536
cpu0_L1D TRANSLATION  ACCESS:     181104 HIT:      38275 MISS:     142829
cpu0_L1D PREFETCH REQUESTED:          0 ISSUED:          0 USEFUL:          0 USELESS:          0
cpu0_L1D AVERAGE MISS LATENCY: 89.38 cycles
cpu0_L1I TOTAL        ACCESS:       2331 HIT:       1021 MISS:       1310
cpu0_L1I LOAD         ACCESS:       2331 HIT:       1021 MISS:       1310
cpu0_L1I RFO          ACCESS:          0 HIT:          0 MISS:          0
cpu0_L1I PREFETCH     ACCESS:          0 HIT:          0 MISS:          0
cpu0_L1I WRITE        ACCESS:          0 HIT:          0 MISS:          0
cpu0_L1I TRANSLATION  ACCESS:          0 HIT:          0 MISS:          0
cpu0_L1I PREFETCH REQUESTED:          0 ISSUED:          0 USEFUL:          0 USELESS:          0
cpu0_L1I AVERAGE MISS LATENCY: 772.8 cycles
cpu0_L2C TOTAL        ACCESS:    1191601 HIT:     543169 MISS:     648432
cpu0_L2C LOAD         ACCESS:       3313 HIT:        423 MISS:       2890
cpu0_L2C RFO          ACCESS:     538106 HIT:       2986 MISS:     535120
cpu0_L2C PREFETCH     ACCESS:          0 HIT:          0 MISS:          0
cpu0_L2C WRITE        ACCESS:     538224 HIT:     538207 MISS:         17
cpu0_L2C TRANSLATION  ACCESS:     111958 HIT:       1553 MISS:     110405
cpu0_L2C PREFETCH REQUESTED:          0 ISSUED:          0 USEFUL:          0 USELESS:          0
cpu0_L2C AVERAGE MISS LATENCY: 1108 cycles
cpu0_STLB TOTAL        ACCESS:     156158 HIT:         49 MISS:     156109
cpu0_STLB LOAD         ACCESS:     156158 HIT:         49 MISS:     156109
cpu0_STLB RFO          ACCESS:          0 HIT:          0 MISS:          0
cpu0_STLB PREFETCH     ACCESS:          0 HIT:          0 MISS:          0
cpu0_STLB WRITE        ACCESS:          0 HIT:          0 MISS:          0
cpu0_STLB TRANSLATION  ACCESS:          0 HIT:          0 MISS:          0
cpu0_STLB PREFETCH REQUESTED:          0 ISSUED:          0 USEFUL:          0 USELESS:          0
cpu0_STLB AVERAGE MISS LATENCY: 1714 cycles

DRAM Statistics

Channel 0 RQ ROW_BUFFER_HIT:     154167
  ROW_BUFFER_MISS:     494174
 AVG DBUS CONGESTED CYCLE: 3.981
WQ ROW_BUFFER_HIT: Channel 0 
  ROW_BUFFER_MISS:      58936
  FULL:     475458
