WARNING: physical memory size is smaller than virtual memory size.

*** ChampSim Multicore Out-of-Order Simulator ***
Warmup Instructions: 50000000
Simulation Instructions: 600000000
Number of CPUs: 1
Page size: 4096

CPU 0 Tage branch predictor
Off-chip DRAM Size: 4 GiB Channels: 1 Width: 64-bit Data Race: 3200 MT/s
Heartbeat CPU 0 instructions: 10000000 cycles: 2500202 heartbeat IPC: 4 cumulative IPC: 4 (Simulation time: 00 hr 00 min 39 sec)
Heartbeat CPU 0 instructions: 20000000 cycles: 5000202 heartbeat IPC: 4 cumulative IPC: 4 (Simulation time: 00 hr 01 min 21 sec)
Heartbeat CPU 0 instructions: 30000000 cycles: 7500202 heartbeat IPC: 4 cumulative IPC: 4 (Simulation time: 00 hr 02 min 01 sec)
Heartbeat CPU 0 instructions: 40000000 cycles: 10000202 heartbeat IPC: 4 cumulative IPC: 4 (Simulation time: 00 hr 02 min 40 sec)
Heartbeat CPU 0 instructions: 50000000 cycles: 12500202 heartbeat IPC: 4 cumulative IPC: 4 (Simulation time: 00 hr 03 min 21 sec)
Warmup finished CPU 0 instructions: 50000000 cycles: 12500203 cumulative IPC: 4 (Simulation time: 00 hr 03 min 21 sec)
Warmup complete CPU 0 instructions: 50000000 cycles: 12500203 cumulative IPC: 4 (Simulation time: 00 hr 03 min 21 sec)
Heartbeat CPU 0 instructions: 60000002 cycles: 15574765 heartbeat IPC: 3.252 cumulative IPC: 3.252 (Simulation time: 00 hr 04 min 11 sec)
Heartbeat CPU 0 instructions: 70000002 cycles: 18076697 heartbeat IPC: 3.997 cumulative IPC: 3.586 (Simulation time: 00 hr 04 min 58 sec)
Heartbeat CPU 0 instructions: 80000003 cycles: 20576719 heartbeat IPC: 4 cumulative IPC: 3.714 (Simulation time: 00 hr 05 min 44 sec)
Heartbeat CPU 0 instructions: 90000004 cycles: 23076740 heartbeat IPC: 4 cumulative IPC: 3.782 (Simulation time: 00 hr 06 min 31 sec)
Heartbeat CPU 0 instructions: 100000003 cycles: 25578657 heartbeat IPC: 3.997 cumulative IPC: 3.823 (Simulation time: 00 hr 07 min 16 sec)
Heartbeat CPU 0 instructions: 110000000 cycles: 28079137 heartbeat IPC: 3.999 cumulative IPC: 3.851 (Simulation time: 00 hr 08 min 02 sec)
Heartbeat CPU 0 instructions: 120000000 cycles: 30579161 heartbeat IPC: 4 cumulative IPC: 3.872 (Simulation time: 00 hr 08 min 49 sec)
Heartbeat CPU 0 instructions: 130000000 cycles: 33079184 heartbeat IPC: 4 cumulative IPC: 3.887 (Simulation time: 00 hr 09 min 36 sec)
Heartbeat CPU 0 instructions: 140000001 cycles: 35579221 heartbeat IPC: 4 cumulative IPC: 3.9 (Simulation time: 00 hr 10 min 22 sec)
Heartbeat CPU 0 instructions: 150000003 cycles: 38079243 heartbeat IPC: 4 cumulative IPC: 3.909 (Simulation time: 00 hr 11 min 13 sec)
Heartbeat CPU 0 instructions: 160000004 cycles: 40581478 heartbeat IPC: 3.996 cumulative IPC: 3.917 (Simulation time: 00 hr 12 min 00 sec)
Heartbeat CPU 0 instructions: 170000001 cycles: 43082073 heartbeat IPC: 3.999 cumulative IPC: 3.924 (Simulation time: 00 hr 12 min 49 sec)
Heartbeat CPU 0 instructions: 180000001 cycles: 45582094 heartbeat IPC: 4 cumulative IPC: 3.93 (Simulation time: 00 hr 13 min 33 sec)
Heartbeat CPU 0 instructions: 190000002 cycles: 48082951 heartbeat IPC: 3.999 cumulative IPC: 3.934 (Simulation time: 00 hr 14 min 20 sec)
Heartbeat CPU 0 instructions: 200000001 cycles: 50582972 heartbeat IPC: 4 cumulative IPC: 3.939 (Simulation time: 00 hr 15 min 05 sec)
Heartbeat CPU 0 instructions: 210000000 cycles: 53086376 heartbeat IPC: 3.995 cumulative IPC: 3.942 (Simulation time: 00 hr 15 min 52 sec)
Heartbeat CPU 0 instructions: 220000001 cycles: 55586419 heartbeat IPC: 4 cumulative IPC: 3.946 (Simulation time: 00 hr 16 min 36 sec)
Heartbeat CPU 0 instructions: 230000002 cycles: 58086440 heartbeat IPC: 4 cumulative IPC: 3.949 (Simulation time: 00 hr 17 min 21 sec)
Heartbeat CPU 0 instructions: 240000004 cycles: 60586478 heartbeat IPC: 4 cumulative IPC: 3.951 (Simulation time: 00 hr 18 min 08 sec)
Heartbeat CPU 0 instructions: 250000000 cycles: 63088869 heartbeat IPC: 3.996 cumulative IPC: 3.953 (Simulation time: 00 hr 18 min 55 sec)
Heartbeat CPU 0 instructions: 260000000 cycles: 65589342 heartbeat IPC: 3.999 cumulative IPC: 3.956 (Simulation time: 00 hr 19 min 39 sec)
Heartbeat CPU 0 instructions: 270000002 cycles: 68089363 heartbeat IPC: 4 cumulative IPC: 3.958 (Simulation time: 00 hr 20 min 25 sec)
Heartbeat CPU 0 instructions: 280000003 cycles: 70589402 heartbeat IPC: 4 cumulative IPC: 3.959 (Simulation time: 00 hr 21 min 09 sec)
Heartbeat CPU 0 instructions: 290000000 cycles: 73089422 heartbeat IPC: 4 cumulative IPC: 3.961 (Simulation time: 00 hr 21 min 53 sec)
Heartbeat CPU 0 instructions: 300000000 cycles: 75591978 heartbeat IPC: 3.996 cumulative IPC: 3.962 (Simulation time: 00 hr 22 min 35 sec)
Heartbeat CPU 0 instructions: 310000002 cycles: 78092015 heartbeat IPC: 4 cumulative IPC: 3.964 (Simulation time: 00 hr 23 min 18 sec)
Heartbeat CPU 0 instructions: 320000004 cycles: 80592037 heartbeat IPC: 4 cumulative IPC: 3.965 (Simulation time: 00 hr 24 min 02 sec)
Heartbeat CPU 0 instructions: 330000000 cycles: 83092058 heartbeat IPC: 4 cumulative IPC: 3.966 (Simulation time: 00 hr 24 min 48 sec)
Heartbeat CPU 0 instructions: 340000002 cycles: 85593225 heartbeat IPC: 3.998 cumulative IPC: 3.968 (Simulation time: 00 hr 25 min 37 sec)
Heartbeat CPU 0 instructions: 350000002 cycles: 88093247 heartbeat IPC: 4 cumulative IPC: 3.969 (Simulation time: 00 hr 26 min 21 sec)
Heartbeat CPU 0 instructions: 360000000 cycles: 90596069 heartbeat IPC: 3.995 cumulative IPC: 3.969 (Simulation time: 00 hr 27 min 08 sec)
Heartbeat CPU 0 instructions: 370000004 cycles: 93096113 heartbeat IPC: 4 cumulative IPC: 3.97 (Simulation time: 00 hr 27 min 52 sec)
Heartbeat CPU 0 instructions: 380000000 cycles: 95596133 heartbeat IPC: 4 cumulative IPC: 3.971 (Simulation time: 00 hr 28 min 37 sec)
Heartbeat CPU 0 instructions: 390000000 cycles: 98096155 heartbeat IPC: 4 cumulative IPC: 3.972 (Simulation time: 00 hr 29 min 21 sec)
Heartbeat CPU 0 instructions: 400000000 cycles: 100598421 heartbeat IPC: 3.996 cumulative IPC: 3.973 (Simulation time: 00 hr 30 min 05 sec)
Heartbeat CPU 0 instructions: 410000000 cycles: 103098894 heartbeat IPC: 3.999 cumulative IPC: 3.974 (Simulation time: 00 hr 30 min 49 sec)
Heartbeat CPU 0 instructions: 420000001 cycles: 105598916 heartbeat IPC: 4 cumulative IPC: 3.974 (Simulation time: 00 hr 31 min 33 sec)
Heartbeat CPU 0 instructions: 430000003 cycles: 108098937 heartbeat IPC: 4 cumulative IPC: 3.975 (Simulation time: 00 hr 32 min 16 sec)
Heartbeat CPU 0 instructions: 440000003 cycles: 110598959 heartbeat IPC: 4 cumulative IPC: 3.976 (Simulation time: 00 hr 32 min 59 sec)
Heartbeat CPU 0 instructions: 450000000 cycles: 113101551 heartbeat IPC: 3.996 cumulative IPC: 3.976 (Simulation time: 00 hr 33 min 43 sec)
Heartbeat CPU 0 instructions: 460000002 cycles: 115601572 heartbeat IPC: 4 cumulative IPC: 3.977 (Simulation time: 00 hr 34 min 26 sec)
Heartbeat CPU 0 instructions: 470000002 cycles: 118101593 heartbeat IPC: 4 cumulative IPC: 3.977 (Simulation time: 00 hr 35 min 11 sec)
Heartbeat CPU 0 instructions: 480000002 cycles: 120601615 heartbeat IPC: 4 cumulative IPC: 3.978 (Simulation time: 00 hr 35 min 59 sec)
Heartbeat CPU 0 instructions: 490000000 cycles: 123103142 heartbeat IPC: 3.998 cumulative IPC: 3.978 (Simulation time: 00 hr 36 min 45 sec)
Heartbeat CPU 0 instructions: 500000002 cycles: 125605327 heartbeat IPC: 3.997 cumulative IPC: 3.979 (Simulation time: 00 hr 37 min 28 sec)
Heartbeat CPU 0 instructions: 510000003 cycles: 128105348 heartbeat IPC: 4 cumulative IPC: 3.979 (Simulation time: 00 hr 38 min 11 sec)
Heartbeat CPU 0 instructions: 520000004 cycles: 130605369 heartbeat IPC: 4 cumulative IPC: 3.98 (Simulation time: 00 hr 38 min 53 sec)
Heartbeat CPU 0 instructions: 530000000 cycles: 133105412 heartbeat IPC: 4 cumulative IPC: 3.98 (Simulation time: 00 hr 39 min 37 sec)
Heartbeat CPU 0 instructions: 540000001 cycles: 135608077 heartbeat IPC: 3.996 cumulative IPC: 3.98 (Simulation time: 00 hr 40 min 23 sec)
Heartbeat CPU 0 instructions: 550000002 cycles: 138108097 heartbeat IPC: 4 cumulative IPC: 3.981 (Simulation time: 00 hr 41 min 09 sec)
Heartbeat CPU 0 instructions: 560000003 cycles: 140609651 heartbeat IPC: 3.998 cumulative IPC: 3.981 (Simulation time: 00 hr 41 min 53 sec)
Heartbeat CPU 0 instructions: 570000004 cycles: 143109673 heartbeat IPC: 4 cumulative IPC: 3.981 (Simulation time: 00 hr 42 min 37 sec)
Heartbeat CPU 0 instructions: 580000000 cycles: 145609695 heartbeat IPC: 4 cumulative IPC: 3.982 (Simulation time: 00 hr 43 min 21 sec)
Heartbeat CPU 0 instructions: 590000002 cycles: 148109732 heartbeat IPC: 4 cumulative IPC: 3.982 (Simulation time: 00 hr 44 min 08 sec)
*** Reached end of trace: (0, "traces/convolution.champsimtrace")
Heartbeat CPU 0 instructions: 600000000 cycles: 150619323 heartbeat IPC: 3.985 cumulative IPC: 3.982 (Simulation time: 00 hr 44 min 54 sec)
Heartbeat CPU 0 instructions: 610000002 cycles: 174203644 heartbeat IPC: 0.424 cumulative IPC: 3.463 (Simulation time: 00 hr 48 min 18 sec)
Heartbeat CPU 0 instructions: 620000001 cycles: 195114430 heartbeat IPC: 0.4782 cumulative IPC: 3.121 (Simulation time: 00 hr 51 min 26 sec)
Heartbeat CPU 0 instructions: 630000001 cycles: 206297370 heartbeat IPC: 0.8942 cumulative IPC: 2.993 (Simulation time: 00 hr 53 min 17 sec)
Heartbeat CPU 0 instructions: 640000004 cycles: 216741476 heartbeat IPC: 0.9575 cumulative IPC: 2.889 (Simulation time: 00 hr 55 min 02 sec)
Heartbeat CPU 0 instructions: 650000001 cycles: 227184338 heartbeat IPC: 0.9576 cumulative IPC: 2.795 (Simulation time: 00 hr 56 min 50 sec)
Simulation finished CPU 0 instructions: 600000001 cycles: 214684136 cumulative IPC: 2.795 (Simulation time: 00 hr 56 min 50 sec)
Simulation complete CPU 0 instructions: 600000001 cycles: 214684136 cumulative IPC: 2.795 (Simulation time: 00 hr 56 min 50 sec)

ChampSim completed all CPUs

=== Simulation ===
CPU 0 runs traces/convolution.champsimtrace
Region of Interest Statistics

CPU 0 cumulative IPC: 2.795 instructions: 600000001 cycles: 214684136
CPU 0 Branch Prediction Accuracy: 100% MPKI: 0.002858 Average ROB Occupancy at Mispredict: 79.58
Branch type MPKI
BRANCH_DIRECT_JUMP: 0.000107
BRANCH_INDIRECT: 4.17e-05
BRANCH_CONDITIONAL: 0.00258
BRANCH_DIRECT_CALL: 0.000103
BRANCH_INDIRECT_CALL: 8.33e-06
BRANCH_RETURN: 1.83e-05

LLC TOTAL        ACCESS:    1183103 HIT:     535726 MISS:     647377
LLC LOAD         ACCESS:       2886 HIT:          3 MISS:       2883
LLC RFO          ACCESS:     535121 HIT:         19 MISS:     535102
LLC PREFETCH     ACCESS:          0 HIT:          0 MISS:          0
LLC WRITE        ACCESS:     535179 HIT:     535157 MISS:         22
LLC TRANSLATION  ACCESS:     109917 HIT:        547 MISS:     109370
LLC PREFETCH REQUESTED:          0 ISSUED:          0 USEFUL:          0 USELESS:          0
LLC AVERAGE MISS LATENCY: 989.2 cycles
cpu0_DTLB TOTAL        ACCESS:  113109926 HIT:  112756582 MISS:     353344
cpu0_DTLB LOAD         ACCESS:  113109926 HIT:  112756582 MISS:     353344
cpu0_DTLB RFO          ACCESS:          0 HIT:          0 MISS:          0
cpu0_DTLB PREFETCH     ACCESS:          0 HIT:          0 MISS:          0
cpu0_DTLB WRITE        ACCESS:          0 HIT:          0 MISS:          0
cpu0_DTLB TRANSLATION  ACCESS:          0 HIT:          0 MISS:          0
cpu0_DTLB PREFETCH REQUESTED:          0 ISSUED:          0 USEFUL:          0 USELESS:          0
cpu0_DTLB AVERAGE MISS LATENCY: 638.1 cycles
cpu0_ITLB TOTAL        ACCESS:       2119 HIT:       2085 MISS:         34
cpu0_ITLB LOAD         ACCESS:       2119 HIT:       2085 MISS:         34
cpu0_ITLB RFO          ACCESS:          0 HIT:          0 MISS:          0
cpu0_ITLB PREFETCH     ACCESS:          0 HIT:          0 MISS:          0
cpu0_ITLB WRITE        ACCESS:          0 HIT:          0 MISS:          0
cpu0_ITLB TRANSLATION  ACCESS:          0 HIT:          0 MISS:          0
cpu0_ITLB PREFETCH REQUESTED:          0 ISSUED:          0 USEFUL:          0 USELESS:          0
cpu0_ITLB AVERAGE MISS LATENCY: 699.2 cycles
cpu0_L1D TOTAL        ACCESS:  146345192 HIT:  140154339 MISS:    6190853
cpu0_L1D LOAD         ACCESS:   74193110 HIT:   74185324 MISS:       7786
cpu0_L1D RFO          ACCESS:          0 HIT:          0 MISS:          0
cpu0_L1D PREFETCH     ACCESS:          0 HIT:          0 MISS:          0
cpu0_L1D WRITE        ACCESS:   71971300 HIT:   65930710 MISS:    6040590
cpu0_L1D TRANSLATION  ACCESS:     180782 HIT:      38305 MISS:     142477
cpu0_L1D PREFETCH REQUESTED:          0 ISSUED:          0 USEFUL:          0 USELESS:          0
cpu0_L1D AVERAGE MISS LATENCY: 80.22 cycles
cpu0_L1I TOTAL        ACCESS:       2476 HIT:        987 MISS:       1489
cpu0_L1I LOAD         ACCESS:       2476 HIT:        987 MISS:       1489
cpu0_L1I RFO          ACCESS:          0 HIT:          0 MISS:          0
cpu0_L1I PREFETCH     ACCESS:          0 HIT:          0 MISS:          0
cpu0_L1I WRITE        ACCESS:          0 HIT:          0 MISS:          0
cpu0_L1I TRANSLATION  ACCESS:          0 HIT:          0 MISS:          0
cpu0_L1I PREFETCH REQUESTED:          0 ISSUED:          0 USEFUL:          0 USELESS:          0
cpu0_L1I AVERAGE MISS LATENCY: 618.5 cycles
cpu0_L2C TOTAL        ACCESS:    1193413 HIT:     545472 MISS:     647941
cpu0_L2C LOAD         ACCESS:       3311 HIT:        425 MISS:       2886
cpu0_L2C RFO          ACCESS:     539203 HIT:       4082 MISS:     535121
cpu0_L2C PREFETCH     ACCESS:          0 HIT:          0 MISS:          0
cpu0_L2C WRITE        ACCESS:     539649 HIT:     539633 MISS:         16
cpu0_L2C TRANSLATION  ACCESS:     111250 HIT:       1332 MISS:     109918
cpu0_L2C PREFETCH REQUESTED:          0 ISSUED:          0 USEFUL:          0 USELESS:          0
cpu0_L2C AVERAGE MISS LATENCY: 1009 cycles
cpu0_STLB TOTAL        ACCESS:     156159 HIT:         52 MISS:     156107
cpu0_STLB LOAD         ACCESS:     156159 HIT:         52 MISS:     156107
cpu0_STLB RFO          ACCESS:          0 HIT:          0 MISS:          0
cpu0_STLB PREFETCH     ACCESS:          0 HIT:          0 MISS:          0
cpu0_STLB WRITE        ACCESS:          0 HIT:          0 MISS:          0
cpu0_STLB TRANSLATION  ACCESS:          0 HIT:          0 MISS:          0
cpu0_STLB PREFETCH REQUESTED:          0 ISSUED:          0 USEFUL:          0 USELESS:          0
cpu0_STLB AVERAGE MISS LATENCY: 1643 cycles

DRAM Statistics

Channel 0 RQ ROW_BUFFER_HIT:     141071
  ROW_BUFFER_MISS:     506277
 AVG DBUS CONGESTED CYCLE: 3.981
WQ ROW_BUFFER_HIT: Channel 0 
  ROW_BUFFER_MISS:     106588
  FULL:     428523
