WARNING: physical memory size is smaller than virtual memory size.

*** ChampSim Multicore Out-of-Order Simulator ***
Warmup Instructions: 50000000
Simulation Instructions: 600000000
Number of CPUs: 1
Page size: 4096

Off-chip DRAM Size: 4 GiB Channels: 1 Width: 64-bit Data Race: 3200 MT/s
Heartbeat CPU 0 instructions: 10000001 cycles: 2500202 heartbeat IPC: 4 cumulative IPC: 4 (Simulation time: 00 hr 01 min 07 sec)
Heartbeat CPU 0 instructions: 20000001 cycles: 5000202 heartbeat IPC: 4 cumulative IPC: 4 (Simulation time: 00 hr 02 min 31 sec)
Heartbeat CPU 0 instructions: 30000001 cycles: 7500202 heartbeat IPC: 4 cumulative IPC: 4 (Simulation time: 00 hr 03 min 29 sec)
Heartbeat CPU 0 instructions: 40000001 cycles: 10000202 heartbeat IPC: 4 cumulative IPC: 4 (Simulation time: 00 hr 04 min 30 sec)
Heartbeat CPU 0 instructions: 50000001 cycles: 12500202 heartbeat IPC: 4 cumulative IPC: 4 (Simulation time: 00 hr 05 min 25 sec)
Warmup finished CPU 0 instructions: 50000001 cycles: 12500203 cumulative IPC: 4 (Simulation time: 00 hr 05 min 25 sec)
Warmup complete CPU 0 instructions: 50000001 cycles: 12500203 cumulative IPC: 4 (Simulation time: 00 hr 05 min 25 sec)
Heartbeat CPU 0 instructions: 60000004 cycles: 15783627 heartbeat IPC: 3.046 cumulative IPC: 3.046 (Simulation time: 00 hr 06 min 32 sec)
Heartbeat CPU 0 instructions: 70000002 cycles: 18488704 heartbeat IPC: 3.697 cumulative IPC: 3.34 (Simulation time: 00 hr 07 min 32 sec)
Heartbeat CPU 0 instructions: 80000002 cycles: 21192392 heartbeat IPC: 3.699 cumulative IPC: 3.451 (Simulation time: 00 hr 08 min 31 sec)
Heartbeat CPU 0 instructions: 90000004 cycles: 23896052 heartbeat IPC: 3.699 cumulative IPC: 3.51 (Simulation time: 00 hr 09 min 31 sec)
Heartbeat CPU 0 instructions: 100000000 cycles: 26599708 heartbeat IPC: 3.699 cumulative IPC: 3.546 (Simulation time: 00 hr 10 min 30 sec)
Heartbeat CPU 0 instructions: 110000004 cycles: 29303473 heartbeat IPC: 3.699 cumulative IPC: 3.571 (Simulation time: 00 hr 11 min 28 sec)
Heartbeat CPU 0 instructions: 120000001 cycles: 32007794 heartbeat IPC: 3.698 cumulative IPC: 3.588 (Simulation time: 00 hr 12 min 28 sec)
Heartbeat CPU 0 instructions: 130000000 cycles: 34711339 heartbeat IPC: 3.699 cumulative IPC: 3.602 (Simulation time: 00 hr 13 min 26 sec)
Heartbeat CPU 0 instructions: 140000001 cycles: 37414974 heartbeat IPC: 3.699 cumulative IPC: 3.612 (Simulation time: 00 hr 14 min 25 sec)
Heartbeat CPU 0 instructions: 150000002 cycles: 40118590 heartbeat IPC: 3.699 cumulative IPC: 3.621 (Simulation time: 00 hr 15 min 23 sec)
Heartbeat CPU 0 instructions: 160000004 cycles: 42822039 heartbeat IPC: 3.699 cumulative IPC: 3.628 (Simulation time: 00 hr 16 min 22 sec)
Heartbeat CPU 0 instructions: 170000004 cycles: 45526513 heartbeat IPC: 3.698 cumulative IPC: 3.633 (Simulation time: 00 hr 17 min 19 sec)
Heartbeat CPU 0 instructions: 180000002 cycles: 48230642 heartbeat IPC: 3.698 cumulative IPC: 3.638 (Simulation time: 00 hr 18 min 17 sec)
Heartbeat CPU 0 instructions: 190000002 cycles: 50935024 heartbeat IPC: 3.698 cumulative IPC: 3.643 (Simulation time: 00 hr 19 min 13 sec)
Heartbeat CPU 0 instructions: 200000001 cycles: 53638641 heartbeat IPC: 3.699 cumulative IPC: 3.646 (Simulation time: 00 hr 20 min 10 sec)
Heartbeat CPU 0 instructions: 210000000 cycles: 56342054 heartbeat IPC: 3.699 cumulative IPC: 3.649 (Simulation time: 00 hr 21 min 07 sec)
Heartbeat CPU 0 instructions: 220000000 cycles: 59048964 heartbeat IPC: 3.694 cumulative IPC: 3.652 (Simulation time: 00 hr 22 min 04 sec)
Heartbeat CPU 0 instructions: 230000002 cycles: 61752586 heartbeat IPC: 3.699 cumulative IPC: 3.655 (Simulation time: 00 hr 23 min 01 sec)
Heartbeat CPU 0 instructions: 240000003 cycles: 64456200 heartbeat IPC: 3.699 cumulative IPC: 3.657 (Simulation time: 00 hr 23 min 57 sec)
Heartbeat CPU 0 instructions: 250000000 cycles: 67159847 heartbeat IPC: 3.699 cumulative IPC: 3.659 (Simulation time: 00 hr 24 min 54 sec)
Heartbeat CPU 0 instructions: 260000001 cycles: 69863144 heartbeat IPC: 3.699 cumulative IPC: 3.661 (Simulation time: 00 hr 25 min 52 sec)
Heartbeat CPU 0 instructions: 270000003 cycles: 72570741 heartbeat IPC: 3.693 cumulative IPC: 3.662 (Simulation time: 00 hr 26 min 48 sec)
Heartbeat CPU 0 instructions: 280000003 cycles: 75274866 heartbeat IPC: 3.698 cumulative IPC: 3.664 (Simulation time: 00 hr 27 min 45 sec)
Heartbeat CPU 0 instructions: 290000004 cycles: 77978500 heartbeat IPC: 3.699 cumulative IPC: 3.665 (Simulation time: 00 hr 28 min 43 sec)
Heartbeat CPU 0 instructions: 300000004 cycles: 80682033 heartbeat IPC: 3.699 cumulative IPC: 3.667 (Simulation time: 00 hr 29 min 40 sec)
Heartbeat CPU 0 instructions: 310000000 cycles: 83385436 heartbeat IPC: 3.699 cumulative IPC: 3.668 (Simulation time: 00 hr 30 min 38 sec)
Heartbeat CPU 0 instructions: 320000001 cycles: 86090726 heartbeat IPC: 3.696 cumulative IPC: 3.669 (Simulation time: 00 hr 31 min 34 sec)
Heartbeat CPU 0 instructions: 330000000 cycles: 88794302 heartbeat IPC: 3.699 cumulative IPC: 3.67 (Simulation time: 00 hr 32 min 31 sec)
Heartbeat CPU 0 instructions: 340000001 cycles: 91497823 heartbeat IPC: 3.699 cumulative IPC: 3.671 (Simulation time: 00 hr 33 min 27 sec)
Heartbeat CPU 0 instructions: 350000002 cycles: 94201398 heartbeat IPC: 3.699 cumulative IPC: 3.672 (Simulation time: 00 hr 34 min 23 sec)
Heartbeat CPU 0 instructions: 360000003 cycles: 96904722 heartbeat IPC: 3.699 cumulative IPC: 3.673 (Simulation time: 00 hr 35 min 21 sec)
Heartbeat CPU 0 instructions: 370000004 cycles: 99611584 heartbeat IPC: 3.694 cumulative IPC: 3.673 (Simulation time: 00 hr 36 min 16 sec)
Heartbeat CPU 0 instructions: 380000000 cycles: 102315155 heartbeat IPC: 3.699 cumulative IPC: 3.674 (Simulation time: 00 hr 37 min 14 sec)
Heartbeat CPU 0 instructions: 390000004 cycles: 105018743 heartbeat IPC: 3.699 cumulative IPC: 3.675 (Simulation time: 00 hr 38 min 12 sec)
Heartbeat CPU 0 instructions: 400000000 cycles: 107722148 heartbeat IPC: 3.699 cumulative IPC: 3.676 (Simulation time: 00 hr 39 min 09 sec)
Heartbeat CPU 0 instructions: 410000004 cycles: 110428860 heartbeat IPC: 3.695 cumulative IPC: 3.676 (Simulation time: 00 hr 40 min 05 sec)
Heartbeat CPU 0 instructions: 420000001 cycles: 113132438 heartbeat IPC: 3.699 cumulative IPC: 3.677 (Simulation time: 00 hr 41 min 03 sec)
Heartbeat CPU 0 instructions: 430000002 cycles: 115835991 heartbeat IPC: 3.699 cumulative IPC: 3.677 (Simulation time: 00 hr 41 min 59 sec)
Heartbeat CPU 0 instructions: 440000004 cycles: 118539660 heartbeat IPC: 3.699 cumulative IPC: 3.678 (Simulation time: 00 hr 42 min 57 sec)
Heartbeat CPU 0 instructions: 450000004 cycles: 121242974 heartbeat IPC: 3.699 cumulative IPC: 3.678 (Simulation time: 00 hr 43 min 53 sec)
Heartbeat CPU 0 instructions: 460000002 cycles: 123948637 heartbeat IPC: 3.696 cumulative IPC: 3.679 (Simulation time: 00 hr 44 min 51 sec)
Heartbeat CPU 0 instructions: 470000002 cycles: 126652169 heartbeat IPC: 3.699 cumulative IPC: 3.679 (Simulation time: 00 hr 45 min 47 sec)
Heartbeat CPU 0 instructions: 480000003 cycles: 129355818 heartbeat IPC: 3.699 cumulative IPC: 3.68 (Simulation time: 00 hr 46 min 44 sec)
Heartbeat CPU 0 instructions: 490000000 cycles: 132060547 heartbeat IPC: 3.697 cumulative IPC: 3.68 (Simulation time: 00 hr 47 min 42 sec)
Heartbeat CPU 0 instructions: 500000001 cycles: 134763976 heartbeat IPC: 3.699 cumulative IPC: 3.681 (Simulation time: 00 hr 48 min 37 sec)
Heartbeat CPU 0 instructions: 510000003 cycles: 137467392 heartbeat IPC: 3.699 cumulative IPC: 3.681 (Simulation time: 00 hr 49 min 35 sec)
Heartbeat CPU 0 instructions: 520000004 cycles: 140173152 heartbeat IPC: 3.696 cumulative IPC: 3.681 (Simulation time: 00 hr 50 min 30 sec)
Heartbeat CPU 0 instructions: 530000000 cycles: 142876679 heartbeat IPC: 3.699 cumulative IPC: 3.682 (Simulation time: 00 hr 51 min 28 sec)
Heartbeat CPU 0 instructions: 540000001 cycles: 145580225 heartbeat IPC: 3.699 cumulative IPC: 3.682 (Simulation time: 00 hr 52 min 23 sec)
Heartbeat CPU 0 instructions: 550000001 cycles: 148283572 heartbeat IPC: 3.699 cumulative IPC: 3.682 (Simulation time: 00 hr 53 min 22 sec)
Heartbeat CPU 0 instructions: 560000003 cycles: 150989064 heartbeat IPC: 3.696 cumulative IPC: 3.683 (Simulation time: 00 hr 54 min 17 sec)
Heartbeat CPU 0 instructions: 570000004 cycles: 153692579 heartbeat IPC: 3.699 cumulative IPC: 3.683 (Simulation time: 00 hr 55 min 14 sec)
Heartbeat CPU 0 instructions: 580000004 cycles: 156396199 heartbeat IPC: 3.699 cumulative IPC: 3.683 (Simulation time: 00 hr 56 min 10 sec)
Heartbeat CPU 0 instructions: 590000000 cycles: 159099674 heartbeat IPC: 3.699 cumulative IPC: 3.684 (Simulation time: 00 hr 57 min 06 sec)
*** Reached end of trace: (0, "traces/convolution.champsimtrace")
Heartbeat CPU 0 instructions: 600000001 cycles: 161802944 heartbeat IPC: 3.699 cumulative IPC: 3.684 (Simulation time: 00 hr 58 min 02 sec)
Heartbeat CPU 0 instructions: 610000004 cycles: 190924873 heartbeat IPC: 0.3434 cumulative IPC: 3.139 (Simulation time: 01 hr 04 min 10 sec)
Heartbeat CPU 0 instructions: 620000002 cycles: 218081519 heartbeat IPC: 0.3682 cumulative IPC: 2.773 (Simulation time: 01 hr 09 min 55 sec)
Heartbeat CPU 0 instructions: 630000000 cycles: 229552748 heartbeat IPC: 0.8717 cumulative IPC: 2.672 (Simulation time: 01 hr 12 min 40 sec)
Heartbeat CPU 0 instructions: 640000002 cycles: 240290659 heartbeat IPC: 0.9313 cumulative IPC: 2.59 (Simulation time: 01 hr 15 min 16 sec)
Heartbeat CPU 0 instructions: 650000004 cycles: 250867332 heartbeat IPC: 0.9455 cumulative IPC: 2.517 (Simulation time: 01 hr 18 min 21 sec)
Simulation finished CPU 0 instructions: 600000003 cycles: 238367130 cumulative IPC: 2.517 (Simulation time: 01 hr 18 min 21 sec)
Simulation complete CPU 0 instructions: 600000003 cycles: 238367130 cumulative IPC: 2.517 (Simulation time: 01 hr 18 min 21 sec)

ChampSim completed all CPUs

=== Simulation ===
CPU 0 runs traces/convolution.champsimtrace
Region of Interest Statistics

CPU 0 cumulative IPC: 2.517 instructions: 600000003 cycles: 238367130
CPU 0 Branch Prediction Accuracy: 99.3% MPKI: 1.265 Average ROB Occupancy at Mispredict: 63.94
Branch type MPKI
BRANCH_DIRECT_JUMP: 0.000107
BRANCH_INDIRECT: 4e-05
BRANCH_CONDITIONAL: 1.26
BRANCH_DIRECT_CALL: 0.000103
BRANCH_INDIRECT_CALL: 8.33e-06
BRANCH_RETURN: 1.83e-05

LLC TOTAL        ACCESS:    1185692 HIT:     473384 MISS:     712308
LLC LOAD         ACCESS:       2893 HIT:       1672 MISS:       1221
LLC RFO          ACCESS:     535131 HIT:        523 MISS:     534608
LLC PREFETCH     ACCESS:       2116 HIT:       1208 MISS:        908
LLC WRITE        ACCESS:     535181 HIT:     469468 MISS:      65713
LLC TRANSLATION  ACCESS:     110371 HIT:        513 MISS:     109858
LLC PREFETCH REQUESTED:       2116 ISSUED:       2116 USEFUL:        450 USELESS:         24
LLC AVERAGE MISS LATENCY: 1039 cycles
cpu0_DTLB TOTAL        ACCESS:  121561466 HIT:  121208255 MISS:     353211
cpu0_DTLB LOAD         ACCESS:  121561466 HIT:  121208255 MISS:     353211
cpu0_DTLB RFO          ACCESS:          0 HIT:          0 MISS:          0
cpu0_DTLB PREFETCH     ACCESS:          0 HIT:          0 MISS:          0
cpu0_DTLB WRITE        ACCESS:          0 HIT:          0 MISS:          0
cpu0_DTLB TRANSLATION  ACCESS:          0 HIT:          0 MISS:          0
cpu0_DTLB PREFETCH REQUESTED:          0 ISSUED:          0 USEFUL:          0 USELESS:          0
cpu0_DTLB AVERAGE MISS LATENCY: 779.5 cycles
cpu0_ITLB TOTAL        ACCESS:       2029 HIT:       1981 MISS:         48
cpu0_ITLB LOAD         ACCESS:       2029 HIT:       1981 MISS:         48
cpu0_ITLB RFO          ACCESS:          0 HIT:          0 MISS:          0
cpu0_ITLB PREFETCH     ACCESS:          0 HIT:          0 MISS:          0
cpu0_ITLB WRITE        ACCESS:          0 HIT:          0 MISS:          0
cpu0_ITLB TRANSLATION  ACCESS:          0 HIT:          0 MISS:          0
cpu0_ITLB PREFETCH REQUESTED:          0 ISSUED:          0 USEFUL:          0 USELESS:          0
cpu0_ITLB AVERAGE MISS LATENCY: 257.7 cycles
cpu0_L1D TOTAL        ACCESS:  162712178 HIT:  156525850 MISS:    6186328
cpu0_L1D LOAD         ACCESS:   90495771 HIT:   90489021 MISS:       6750
cpu0_L1D RFO          ACCESS:          0 HIT:          0 MISS:          0
cpu0_L1D PREFETCH     ACCESS:          0 HIT:          0 MISS:          0
cpu0_L1D WRITE        ACCESS:   72035314 HIT:   65998644 MISS:    6036670
cpu0_L1D TRANSLATION  ACCESS:     181093 HIT:      38185 MISS:     142908
cpu0_L1D PREFETCH REQUESTED:          0 ISSUED:          0 USEFUL:          0 USELESS:          0
cpu0_L1D AVERAGE MISS LATENCY: 93.15 cycles
cpu0_L1I TOTAL        ACCESS:       2348 HIT:       1043 MISS:       1305
cpu0_L1I LOAD         ACCESS:       2348 HIT:       1043 MISS:       1305
cpu0_L1I RFO          ACCESS:          0 HIT:          0 MISS:          0
cpu0_L1I PREFETCH     ACCESS:          0 HIT:          0 MISS:          0
cpu0_L1I WRITE        ACCESS:          0 HIT:          0 MISS:          0
cpu0_L1I TRANSLATION  ACCESS:          0 HIT:          0 MISS:          0
cpu0_L1I PREFETCH REQUESTED:          0 ISSUED:          0 USEFUL:          0 USELESS:          0
cpu0_L1I AVERAGE MISS LATENCY: 293.6 cycles
cpu0_L2C TOTAL        ACCESS:    1190728 HIT:     542317 MISS:     648411
cpu0_L2C LOAD         ACCESS:       3320 HIT:        427 MISS:       2893
cpu0_L2C RFO          ACCESS:     537773 HIT:       2642 MISS:     535131
cpu0_L2C PREFETCH     ACCESS:          0 HIT:          0 MISS:          0
cpu0_L2C WRITE        ACCESS:     537904 HIT:     537888 MISS:         16
cpu0_L2C TRANSLATION  ACCESS:     111731 HIT:       1360 MISS:     110371
cpu0_L2C PREFETCH REQUESTED:          0 ISSUED:          0 USEFUL:          0 USELESS:          0
cpu0_L2C AVERAGE MISS LATENCY: 1161 cycles
cpu0_STLB TOTAL        ACCESS:     156160 HIT:         47 MISS:     156113
cpu0_STLB LOAD         ACCESS:     156160 HIT:         47 MISS:     156113
cpu0_STLB RFO          ACCESS:          0 HIT:          0 MISS:          0
cpu0_STLB PREFETCH     ACCESS:          0 HIT:          0 MISS:          0
cpu0_STLB WRITE        ACCESS:          0 HIT:          0 MISS:          0
cpu0_STLB TRANSLATION  ACCESS:          0 HIT:          0 MISS:          0
cpu0_STLB PREFETCH REQUESTED:          0 ISSUED:          0 USEFUL:          0 USELESS:          0
cpu0_STLB AVERAGE MISS LATENCY: 1969 cycles

DRAM Statistics

Channel 0 RQ ROW_BUFFER_HIT:     143303
  ROW_BUFFER_MISS:     502677
 AVG DBUS CONGESTED CYCLE: 3.985
WQ ROW_BUFFER_HIT: Channel 0 
  ROW_BUFFER_MISS:       6365
  FULL:     528220
