WARNING: physical memory size is smaller than virtual memory size.

*** ChampSim Multicore Out-of-Order Simulator ***
Warmup Instructions: 50000000
Simulation Instructions: 600000000
Number of CPUs: 1
Page size: 4096

Off-chip DRAM Size: 4 GiB Channels: 1 Width: 64-bit Data Race: 3200 MT/s
Heartbeat CPU 0 instructions: 10000000 cycles: 2500202 heartbeat IPC: 4 cumulative IPC: 4 (Simulation time: 00 hr 00 min 34 sec)
Heartbeat CPU 0 instructions: 20000000 cycles: 5000202 heartbeat IPC: 4 cumulative IPC: 4 (Simulation time: 00 hr 01 min 11 sec)
Heartbeat CPU 0 instructions: 30000000 cycles: 7500202 heartbeat IPC: 4 cumulative IPC: 4 (Simulation time: 00 hr 01 min 50 sec)
Heartbeat CPU 0 instructions: 40000000 cycles: 10000202 heartbeat IPC: 4 cumulative IPC: 4 (Simulation time: 00 hr 02 min 23 sec)
Heartbeat CPU 0 instructions: 50000000 cycles: 12500202 heartbeat IPC: 4 cumulative IPC: 4 (Simulation time: 00 hr 02 min 58 sec)
Warmup finished CPU 0 instructions: 50000000 cycles: 12500203 cumulative IPC: 4 (Simulation time: 00 hr 02 min 58 sec)
Warmup complete CPU 0 instructions: 50000000 cycles: 12500203 cumulative IPC: 4 (Simulation time: 00 hr 02 min 58 sec)
Heartbeat CPU 0 instructions: 60000002 cycles: 15784433 heartbeat IPC: 3.045 cumulative IPC: 3.045 (Simulation time: 00 hr 03 min 38 sec)
Heartbeat CPU 0 instructions: 70000002 cycles: 18490227 heartbeat IPC: 3.696 cumulative IPC: 3.339 (Simulation time: 00 hr 04 min 13 sec)
Heartbeat CPU 0 instructions: 80000003 cycles: 21193824 heartbeat IPC: 3.699 cumulative IPC: 3.451 (Simulation time: 00 hr 04 min 48 sec)
Heartbeat CPU 0 instructions: 90000004 cycles: 23897387 heartbeat IPC: 3.699 cumulative IPC: 3.51 (Simulation time: 00 hr 05 min 23 sec)
Heartbeat CPU 0 instructions: 100000003 cycles: 26602718 heartbeat IPC: 3.696 cumulative IPC: 3.545 (Simulation time: 00 hr 05 min 59 sec)
Heartbeat CPU 0 instructions: 110000000 cycles: 29307464 heartbeat IPC: 3.697 cumulative IPC: 3.57 (Simulation time: 00 hr 06 min 34 sec)
Heartbeat CPU 0 instructions: 120000000 cycles: 32010818 heartbeat IPC: 3.699 cumulative IPC: 3.588 (Simulation time: 00 hr 07 min 08 sec)
Heartbeat CPU 0 instructions: 130000000 cycles: 34714439 heartbeat IPC: 3.699 cumulative IPC: 3.601 (Simulation time: 00 hr 07 min 42 sec)
Heartbeat CPU 0 instructions: 140000001 cycles: 37417988 heartbeat IPC: 3.699 cumulative IPC: 3.612 (Simulation time: 00 hr 08 min 16 sec)
Heartbeat CPU 0 instructions: 150000003 cycles: 40121572 heartbeat IPC: 3.699 cumulative IPC: 3.62 (Simulation time: 00 hr 08 min 49 sec)
Heartbeat CPU 0 instructions: 160000003 cycles: 42827418 heartbeat IPC: 3.696 cumulative IPC: 3.627 (Simulation time: 00 hr 09 min 22 sec)
Heartbeat CPU 0 instructions: 170000001 cycles: 45531176 heartbeat IPC: 3.699 cumulative IPC: 3.633 (Simulation time: 00 hr 09 min 54 sec)
Heartbeat CPU 0 instructions: 180000001 cycles: 48234749 heartbeat IPC: 3.699 cumulative IPC: 3.638 (Simulation time: 00 hr 10 min 26 sec)
Heartbeat CPU 0 instructions: 190000002 cycles: 50940139 heartbeat IPC: 3.696 cumulative IPC: 3.642 (Simulation time: 00 hr 10 min 58 sec)
Heartbeat CPU 0 instructions: 200000001 cycles: 53643725 heartbeat IPC: 3.699 cumulative IPC: 3.646 (Simulation time: 00 hr 11 min 30 sec)
Heartbeat CPU 0 instructions: 210000000 cycles: 56349936 heartbeat IPC: 3.695 cumulative IPC: 3.649 (Simulation time: 00 hr 12 min 01 sec)
Heartbeat CPU 0 instructions: 220000001 cycles: 59053293 heartbeat IPC: 3.699 cumulative IPC: 3.652 (Simulation time: 00 hr 12 min 34 sec)
Heartbeat CPU 0 instructions: 230000002 cycles: 61756915 heartbeat IPC: 3.699 cumulative IPC: 3.654 (Simulation time: 00 hr 13 min 05 sec)
Heartbeat CPU 0 instructions: 240000004 cycles: 64460548 heartbeat IPC: 3.699 cumulative IPC: 3.657 (Simulation time: 00 hr 13 min 38 sec)
Heartbeat CPU 0 instructions: 250000000 cycles: 67166318 heartbeat IPC: 3.696 cumulative IPC: 3.659 (Simulation time: 00 hr 14 min 10 sec)
Heartbeat CPU 0 instructions: 260000000 cycles: 69869923 heartbeat IPC: 3.699 cumulative IPC: 3.66 (Simulation time: 00 hr 14 min 42 sec)
Heartbeat CPU 0 instructions: 270000002 cycles: 72573286 heartbeat IPC: 3.699 cumulative IPC: 3.662 (Simulation time: 00 hr 15 min 15 sec)
Heartbeat CPU 0 instructions: 280000003 cycles: 75276911 heartbeat IPC: 3.699 cumulative IPC: 3.664 (Simulation time: 00 hr 15 min 46 sec)
Heartbeat CPU 0 instructions: 290000003 cycles: 77980566 heartbeat IPC: 3.699 cumulative IPC: 3.665 (Simulation time: 00 hr 16 min 18 sec)
Heartbeat CPU 0 instructions: 300000000 cycles: 80686329 heartbeat IPC: 3.696 cumulative IPC: 3.666 (Simulation time: 00 hr 16 min 50 sec)
Heartbeat CPU 0 instructions: 310000002 cycles: 83389576 heartbeat IPC: 3.699 cumulative IPC: 3.668 (Simulation time: 00 hr 17 min 22 sec)
Heartbeat CPU 0 instructions: 320000004 cycles: 86092953 heartbeat IPC: 3.699 cumulative IPC: 3.669 (Simulation time: 00 hr 17 min 54 sec)
Heartbeat CPU 0 instructions: 330000000 cycles: 88796563 heartbeat IPC: 3.699 cumulative IPC: 3.67 (Simulation time: 00 hr 18 min 26 sec)
Heartbeat CPU 0 instructions: 340000002 cycles: 91500826 heartbeat IPC: 3.698 cumulative IPC: 3.671 (Simulation time: 00 hr 18 min 59 sec)
Heartbeat CPU 0 instructions: 350000002 cycles: 94204271 heartbeat IPC: 3.699 cumulative IPC: 3.672 (Simulation time: 00 hr 19 min 31 sec)
Heartbeat CPU 0 instructions: 360000001 cycles: 96909768 heartbeat IPC: 3.696 cumulative IPC: 3.673 (Simulation time: 00 hr 20 min 04 sec)
Heartbeat CPU 0 instructions: 370000004 cycles: 99613117 heartbeat IPC: 3.699 cumulative IPC: 3.673 (Simulation time: 00 hr 20 min 37 sec)
Heartbeat CPU 0 instructions: 380000000 cycles: 102316685 heartbeat IPC: 3.699 cumulative IPC: 3.674 (Simulation time: 00 hr 21 min 10 sec)
Heartbeat CPU 0 instructions: 390000004 cycles: 105020405 heartbeat IPC: 3.699 cumulative IPC: 3.675 (Simulation time: 00 hr 21 min 43 sec)
Heartbeat CPU 0 instructions: 400000000 cycles: 107726690 heartbeat IPC: 3.695 cumulative IPC: 3.675 (Simulation time: 00 hr 22 min 14 sec)
Heartbeat CPU 0 instructions: 410000000 cycles: 110430348 heartbeat IPC: 3.699 cumulative IPC: 3.676 (Simulation time: 00 hr 22 min 46 sec)
Heartbeat CPU 0 instructions: 420000001 cycles: 113133794 heartbeat IPC: 3.699 cumulative IPC: 3.677 (Simulation time: 00 hr 23 min 18 sec)
Heartbeat CPU 0 instructions: 430000003 cycles: 115837502 heartbeat IPC: 3.699 cumulative IPC: 3.677 (Simulation time: 00 hr 23 min 48 sec)
Heartbeat CPU 0 instructions: 440000003 cycles: 118541195 heartbeat IPC: 3.699 cumulative IPC: 3.678 (Simulation time: 00 hr 24 min 18 sec)
Heartbeat CPU 0 instructions: 450000004 cycles: 121246989 heartbeat IPC: 3.696 cumulative IPC: 3.678 (Simulation time: 00 hr 24 min 48 sec)
Heartbeat CPU 0 instructions: 460000001 cycles: 123950346 heartbeat IPC: 3.699 cumulative IPC: 3.679 (Simulation time: 00 hr 25 min 18 sec)
Heartbeat CPU 0 instructions: 470000002 cycles: 126653822 heartbeat IPC: 3.699 cumulative IPC: 3.679 (Simulation time: 00 hr 25 min 48 sec)
Heartbeat CPU 0 instructions: 480000001 cycles: 129357571 heartbeat IPC: 3.699 cumulative IPC: 3.68 (Simulation time: 00 hr 26 min 18 sec)
Heartbeat CPU 0 instructions: 490000000 cycles: 132061612 heartbeat IPC: 3.698 cumulative IPC: 3.68 (Simulation time: 00 hr 26 min 47 sec)
Heartbeat CPU 0 instructions: 500000002 cycles: 134767642 heartbeat IPC: 3.695 cumulative IPC: 3.68 (Simulation time: 00 hr 27 min 17 sec)
Heartbeat CPU 0 instructions: 510000003 cycles: 137470967 heartbeat IPC: 3.699 cumulative IPC: 3.681 (Simulation time: 00 hr 27 min 46 sec)
Heartbeat CPU 0 instructions: 520000004 cycles: 140174439 heartbeat IPC: 3.699 cumulative IPC: 3.681 (Simulation time: 00 hr 28 min 15 sec)
Heartbeat CPU 0 instructions: 530000000 cycles: 142878096 heartbeat IPC: 3.699 cumulative IPC: 3.682 (Simulation time: 00 hr 28 min 44 sec)
Heartbeat CPU 0 instructions: 540000000 cycles: 145583535 heartbeat IPC: 3.696 cumulative IPC: 3.682 (Simulation time: 00 hr 29 min 13 sec)
Heartbeat CPU 0 instructions: 550000003 cycles: 148286919 heartbeat IPC: 3.699 cumulative IPC: 3.682 (Simulation time: 00 hr 29 min 42 sec)
Heartbeat CPU 0 instructions: 560000003 cycles: 150991361 heartbeat IPC: 3.698 cumulative IPC: 3.683 (Simulation time: 00 hr 30 min 10 sec)
Heartbeat CPU 0 instructions: 570000004 cycles: 153694700 heartbeat IPC: 3.699 cumulative IPC: 3.683 (Simulation time: 00 hr 30 min 39 sec)
Heartbeat CPU 0 instructions: 580000000 cycles: 156398404 heartbeat IPC: 3.699 cumulative IPC: 3.683 (Simulation time: 00 hr 31 min 07 sec)
Heartbeat CPU 0 instructions: 590000002 cycles: 159101987 heartbeat IPC: 3.699 cumulative IPC: 3.683 (Simulation time: 00 hr 31 min 35 sec)
*** Reached end of trace: (0, "traces/convolution.champsimtrace")
Heartbeat CPU 0 instructions: 600000000 cycles: 161816120 heartbeat IPC: 3.684 cumulative IPC: 3.683 (Simulation time: 00 hr 32 min 02 sec)
Heartbeat CPU 0 instructions: 610000002 cycles: 190983317 heartbeat IPC: 0.3429 cumulative IPC: 3.138 (Simulation time: 00 hr 34 min 36 sec)
Heartbeat CPU 0 instructions: 620000001 cycles: 217236432 heartbeat IPC: 0.3809 cumulative IPC: 2.784 (Simulation time: 00 hr 36 min 33 sec)
Heartbeat CPU 0 instructions: 630000001 cycles: 227674863 heartbeat IPC: 0.958 cumulative IPC: 2.695 (Simulation time: 00 hr 37 min 20 sec)
Heartbeat CPU 0 instructions: 640000004 cycles: 238154554 heartbeat IPC: 0.9542 cumulative IPC: 2.615 (Simulation time: 00 hr 38 min 03 sec)
Heartbeat CPU 0 instructions: 650000001 cycles: 248580876 heartbeat IPC: 0.9591 cumulative IPC: 2.542 (Simulation time: 00 hr 38 min 40 sec)
Simulation finished CPU 0 instructions: 600000001 cycles: 236080674 cumulative IPC: 2.542 (Simulation time: 00 hr 38 min 40 sec)
Simulation complete CPU 0 instructions: 600000001 cycles: 236080674 cumulative IPC: 2.542 (Simulation time: 00 hr 38 min 40 sec)

ChampSim completed all CPUs

=== Simulation ===
CPU 0 runs traces/convolution.champsimtrace
Region of Interest Statistics

CPU 0 cumulative IPC: 2.542 instructions: 600000001 cycles: 236080674
CPU 0 Branch Prediction Accuracy: 99.3% MPKI: 1.265 Average ROB Occupancy at Mispredict: 63.99
Branch type MPKI
BRANCH_DIRECT_JUMP: 0.000107
BRANCH_INDIRECT: 4.17e-05
BRANCH_CONDITIONAL: 1.26
BRANCH_DIRECT_CALL: 0.000103
BRANCH_INDIRECT_CALL: 8.33e-06
BRANCH_RETURN: 1.83e-05

LLC TOTAL        ACCESS:    1183238 HIT:     505599 MISS:     677639
LLC LOAD         ACCESS:       2887 HIT:          3 MISS:       2884
LLC RFO          ACCESS:     535121 HIT:         26 MISS:     535095
LLC PREFETCH     ACCESS:          0 HIT:          0 MISS:          0
LLC WRITE        ACCESS:     535171 HIT:     505087 MISS:      30084
LLC TRANSLATION  ACCESS:     110059 HIT:        483 MISS:     109576
LLC PREFETCH REQUESTED:          0 ISSUED:          0 USEFUL:          0 USELESS:          0
LLC AVERAGE MISS LATENCY: 1055 cycles
cpu0_DTLB TOTAL        ACCESS:  121555641 HIT:  121202947 MISS:     352694
cpu0_DTLB LOAD         ACCESS:  121555641 HIT:  121202947 MISS:     352694
cpu0_DTLB RFO          ACCESS:          0 HIT:          0 MISS:          0
cpu0_DTLB PREFETCH     ACCESS:          0 HIT:          0 MISS:          0
cpu0_DTLB WRITE        ACCESS:          0 HIT:          0 MISS:          0
cpu0_DTLB TRANSLATION  ACCESS:          0 HIT:          0 MISS:          0
cpu0_DTLB PREFETCH REQUESTED:          0 ISSUED:          0 USEFUL:          0 USELESS:          0
cpu0_DTLB AVERAGE MISS LATENCY: 752.3 cycles
cpu0_ITLB TOTAL        ACCESS:       2030 HIT:       1995 MISS:         35
cpu0_ITLB LOAD         ACCESS:       2030 HIT:       1995 MISS:         35
cpu0_ITLB RFO          ACCESS:          0 HIT:          0 MISS:          0
cpu0_ITLB PREFETCH     ACCESS:          0 HIT:          0 MISS:          0
cpu0_ITLB WRITE        ACCESS:          0 HIT:          0 MISS:          0
cpu0_ITLB TRANSLATION  ACCESS:          0 HIT:          0 MISS:          0
cpu0_ITLB PREFETCH REQUESTED:          0 ISSUED:          0 USEFUL:          0 USELESS:          0
cpu0_ITLB AVERAGE MISS LATENCY: 668.1 cycles
cpu0_L1D TOTAL        ACCESS:  162707930 HIT:  156507163 MISS:    6200767
cpu0_L1D LOAD         ACCESS:   90492148 HIT:   90486014 MISS:       6134
cpu0_L1D RFO          ACCESS:          0 HIT:          0 MISS:          0
cpu0_L1D PREFETCH     ACCESS:          0 HIT:          0 MISS:          0
cpu0_L1D WRITE        ACCESS:   72034902 HIT:   65982720 MISS:    6052182
cpu0_L1D TRANSLATION  ACCESS:     180880 HIT:      38429 MISS:     142451
cpu0_L1D PREFETCH REQUESTED:          0 ISSUED:          0 USEFUL:          0 USELESS:          0
cpu0_L1D AVERAGE MISS LATENCY: 89.12 cycles
cpu0_L1I TOTAL        ACCESS:       2348 HIT:       1018 MISS:       1330
cpu0_L1I LOAD         ACCESS:       2348 HIT:       1018 MISS:       1330
cpu0_L1I RFO          ACCESS:          0 HIT:          0 MISS:          0
cpu0_L1I PREFETCH     ACCESS:          0 HIT:          0 MISS:          0
cpu0_L1I WRITE        ACCESS:          0 HIT:          0 MISS:          0
cpu0_L1I TRANSLATION  ACCESS:          0 HIT:          0 MISS:          0
cpu0_L1I PREFETCH REQUESTED:          0 ISSUED:          0 USEFUL:          0 USELESS:          0
cpu0_L1I AVERAGE MISS LATENCY: 651 cycles
cpu0_L2C TOTAL        ACCESS:    1191074 HIT:     542989 MISS:     648085
cpu0_L2C LOAD         ACCESS:       3313 HIT:        426 MISS:       2887
cpu0_L2C RFO          ACCESS:     538104 HIT:       2983 MISS:     535121
cpu0_L2C PREFETCH     ACCESS:          0 HIT:          0 MISS:          0
cpu0_L2C WRITE        ACCESS:     538230 HIT:     538213 MISS:         17
cpu0_L2C TRANSLATION  ACCESS:     111427 HIT:       1367 MISS:     110060
cpu0_L2C PREFETCH REQUESTED:          0 ISSUED:          0 USEFUL:          0 USELESS:          0
cpu0_L2C AVERAGE MISS LATENCY: 1124 cycles
cpu0_STLB TOTAL        ACCESS:     156164 HIT:         52 MISS:     156112
cpu0_STLB LOAD         ACCESS:     156164 HIT:         52 MISS:     156112
cpu0_STLB RFO          ACCESS:          0 HIT:          0 MISS:          0
cpu0_STLB PREFETCH     ACCESS:          0 HIT:          0 MISS:          0
cpu0_STLB WRITE        ACCESS:          0 HIT:          0 MISS:          0
cpu0_STLB TRANSLATION  ACCESS:          0 HIT:          0 MISS:          0
cpu0_STLB PREFETCH REQUESTED:          0 ISSUED:          0 USEFUL:          0 USELESS:          0
cpu0_STLB AVERAGE MISS LATENCY: 1894 cycles

DRAM Statistics

Channel 0 RQ ROW_BUFFER_HIT:     140251
  ROW_BUFFER_MISS:     507299
 AVG DBUS CONGESTED CYCLE: 3.983
WQ ROW_BUFFER_HIT: Channel 0 
  ROW_BUFFER_MISS:      28503
  FULL:     506608
