WARNING: physical memory size is smaller than virtual memory size.

*** ChampSim Multicore Out-of-Order Simulator ***
Warmup Instructions: 50000000
Simulation Instructions: 600000000
Number of CPUs: 1
Page size: 4096

CPU 0 Tage branch predictor
Off-chip DRAM Size: 4 GiB Channels: 1 Width: 64-bit Data Race: 3200 MT/s
Heartbeat CPU 0 instructions: 10000000 cycles: 2500202 heartbeat IPC: 4 cumulative IPC: 4 (Simulation time: 00 hr 00 min 42 sec)
Heartbeat CPU 0 instructions: 20000000 cycles: 5000202 heartbeat IPC: 4 cumulative IPC: 4 (Simulation time: 00 hr 01 min 26 sec)
Heartbeat CPU 0 instructions: 30000000 cycles: 7500202 heartbeat IPC: 4 cumulative IPC: 4 (Simulation time: 00 hr 02 min 06 sec)
Heartbeat CPU 0 instructions: 40000000 cycles: 10000202 heartbeat IPC: 4 cumulative IPC: 4 (Simulation time: 00 hr 02 min 46 sec)
Heartbeat CPU 0 instructions: 50000000 cycles: 12500202 heartbeat IPC: 4 cumulative IPC: 4 (Simulation time: 00 hr 03 min 25 sec)
Warmup finished CPU 0 instructions: 50000000 cycles: 12500203 cumulative IPC: 4 (Simulation time: 00 hr 03 min 25 sec)
Warmup complete CPU 0 instructions: 50000000 cycles: 12500203 cumulative IPC: 4 (Simulation time: 00 hr 03 min 25 sec)
Heartbeat CPU 0 instructions: 60000002 cycles: 15593141 heartbeat IPC: 3.233 cumulative IPC: 3.233 (Simulation time: 00 hr 04 min 12 sec)
Heartbeat CPU 0 instructions: 70000002 cycles: 18103704 heartbeat IPC: 3.983 cumulative IPC: 3.569 (Simulation time: 00 hr 04 min 55 sec)
Heartbeat CPU 0 instructions: 80000003 cycles: 20604614 heartbeat IPC: 3.999 cumulative IPC: 3.702 (Simulation time: 00 hr 05 min 37 sec)
Heartbeat CPU 0 instructions: 90000004 cycles: 23108284 heartbeat IPC: 3.994 cumulative IPC: 3.771 (Simulation time: 00 hr 06 min 20 sec)
Heartbeat CPU 0 instructions: 100000003 cycles: 25614671 heartbeat IPC: 3.99 cumulative IPC: 3.813 (Simulation time: 00 hr 07 min 04 sec)
Heartbeat CPU 0 instructions: 110000000 cycles: 28124156 heartbeat IPC: 3.985 cumulative IPC: 3.84 (Simulation time: 00 hr 08 min 00 sec)
Heartbeat CPU 0 instructions: 120000000 cycles: 30631886 heartbeat IPC: 3.988 cumulative IPC: 3.861 (Simulation time: 00 hr 08 min 46 sec)
Heartbeat CPU 0 instructions: 130000000 cycles: 33141567 heartbeat IPC: 3.985 cumulative IPC: 3.876 (Simulation time: 00 hr 09 min 31 sec)
Heartbeat CPU 0 instructions: 140000001 cycles: 35648857 heartbeat IPC: 3.988 cumulative IPC: 3.888 (Simulation time: 00 hr 10 min 14 sec)
Heartbeat CPU 0 instructions: 150000003 cycles: 38156608 heartbeat IPC: 3.988 cumulative IPC: 3.898 (Simulation time: 00 hr 10 min 57 sec)
Heartbeat CPU 0 instructions: 160000003 cycles: 40660306 heartbeat IPC: 3.994 cumulative IPC: 3.906 (Simulation time: 00 hr 11 min 40 sec)
Heartbeat CPU 0 instructions: 170000000 cycles: 43165545 heartbeat IPC: 3.992 cumulative IPC: 3.913 (Simulation time: 00 hr 12 min 26 sec)
Heartbeat CPU 0 instructions: 180000001 cycles: 45669499 heartbeat IPC: 3.994 cumulative IPC: 3.919 (Simulation time: 00 hr 13 min 09 sec)
Heartbeat CPU 0 instructions: 190000002 cycles: 48173166 heartbeat IPC: 3.994 cumulative IPC: 3.925 (Simulation time: 00 hr 13 min 52 sec)
Heartbeat CPU 0 instructions: 200000002 cycles: 50676600 heartbeat IPC: 3.995 cumulative IPC: 3.929 (Simulation time: 00 hr 14 min 35 sec)
Heartbeat CPU 0 instructions: 210000000 cycles: 53181982 heartbeat IPC: 3.991 cumulative IPC: 3.933 (Simulation time: 00 hr 15 min 19 sec)
Heartbeat CPU 0 instructions: 220000001 cycles: 55689525 heartbeat IPC: 3.988 cumulative IPC: 3.936 (Simulation time: 00 hr 16 min 02 sec)
Heartbeat CPU 0 instructions: 230000002 cycles: 58195615 heartbeat IPC: 3.99 cumulative IPC: 3.939 (Simulation time: 00 hr 16 min 46 sec)
Heartbeat CPU 0 instructions: 240000004 cycles: 60701756 heartbeat IPC: 3.99 cumulative IPC: 3.942 (Simulation time: 00 hr 17 min 30 sec)
Heartbeat CPU 0 instructions: 250000000 cycles: 63208201 heartbeat IPC: 3.99 cumulative IPC: 3.944 (Simulation time: 00 hr 18 min 14 sec)
Heartbeat CPU 0 instructions: 260000000 cycles: 65716967 heartbeat IPC: 3.986 cumulative IPC: 3.946 (Simulation time: 00 hr 18 min 57 sec)
Heartbeat CPU 0 instructions: 270000002 cycles: 68220312 heartbeat IPC: 3.995 cumulative IPC: 3.948 (Simulation time: 00 hr 19 min 41 sec)
Heartbeat CPU 0 instructions: 280000003 cycles: 70726767 heartbeat IPC: 3.99 cumulative IPC: 3.95 (Simulation time: 00 hr 20 min 24 sec)
Heartbeat CPU 0 instructions: 290000000 cycles: 73232035 heartbeat IPC: 3.992 cumulative IPC: 3.952 (Simulation time: 00 hr 21 min 08 sec)
Heartbeat CPU 0 instructions: 300000000 cycles: 75738990 heartbeat IPC: 3.989 cumulative IPC: 3.953 (Simulation time: 00 hr 21 min 51 sec)
Heartbeat CPU 0 instructions: 310000002 cycles: 78244986 heartbeat IPC: 3.99 cumulative IPC: 3.955 (Simulation time: 00 hr 22 min 35 sec)
Heartbeat CPU 0 instructions: 320000004 cycles: 80750233 heartbeat IPC: 3.992 cumulative IPC: 3.956 (Simulation time: 00 hr 23 min 18 sec)
Heartbeat CPU 0 instructions: 330000000 cycles: 83261478 heartbeat IPC: 3.982 cumulative IPC: 3.957 (Simulation time: 00 hr 24 min 01 sec)
Heartbeat CPU 0 instructions: 340000002 cycles: 85769197 heartbeat IPC: 3.988 cumulative IPC: 3.958 (Simulation time: 00 hr 24 min 47 sec)
Heartbeat CPU 0 instructions: 350000002 cycles: 88277321 heartbeat IPC: 3.987 cumulative IPC: 3.959 (Simulation time: 00 hr 25 min 33 sec)
Heartbeat CPU 0 instructions: 360000000 cycles: 90787234 heartbeat IPC: 3.984 cumulative IPC: 3.96 (Simulation time: 00 hr 26 min 20 sec)
Heartbeat CPU 0 instructions: 370000004 cycles: 93292586 heartbeat IPC: 3.991 cumulative IPC: 3.961 (Simulation time: 00 hr 27 min 05 sec)
Heartbeat CPU 0 instructions: 380000000 cycles: 95800053 heartbeat IPC: 3.988 cumulative IPC: 3.962 (Simulation time: 00 hr 27 min 48 sec)
Heartbeat CPU 0 instructions: 390000000 cycles: 98302913 heartbeat IPC: 3.995 cumulative IPC: 3.963 (Simulation time: 00 hr 28 min 36 sec)
Heartbeat CPU 0 instructions: 400000000 cycles: 100806351 heartbeat IPC: 3.995 cumulative IPC: 3.963 (Simulation time: 00 hr 29 min 20 sec)
Heartbeat CPU 0 instructions: 410000000 cycles: 103312967 heartbeat IPC: 3.989 cumulative IPC: 3.964 (Simulation time: 00 hr 30 min 06 sec)
Heartbeat CPU 0 instructions: 420000001 cycles: 105816669 heartbeat IPC: 3.994 cumulative IPC: 3.965 (Simulation time: 00 hr 30 min 51 sec)
Heartbeat CPU 0 instructions: 430000003 cycles: 108321956 heartbeat IPC: 3.992 cumulative IPC: 3.966 (Simulation time: 00 hr 31 min 35 sec)
Heartbeat CPU 0 instructions: 440000003 cycles: 110832295 heartbeat IPC: 3.984 cumulative IPC: 3.966 (Simulation time: 00 hr 32 min 21 sec)
Heartbeat CPU 0 instructions: 450000000 cycles: 113343617 heartbeat IPC: 3.982 cumulative IPC: 3.967 (Simulation time: 00 hr 33 min 08 sec)
Heartbeat CPU 0 instructions: 460000001 cycles: 115854859 heartbeat IPC: 3.982 cumulative IPC: 3.967 (Simulation time: 00 hr 33 min 52 sec)
Heartbeat CPU 0 instructions: 470000002 cycles: 118358371 heartbeat IPC: 3.994 cumulative IPC: 3.968 (Simulation time: 00 hr 34 min 39 sec)
Heartbeat CPU 0 instructions: 480000001 cycles: 120862602 heartbeat IPC: 3.993 cumulative IPC: 3.968 (Simulation time: 00 hr 35 min 25 sec)
Heartbeat CPU 0 instructions: 490000000 cycles: 123370613 heartbeat IPC: 3.987 cumulative IPC: 3.969 (Simulation time: 00 hr 36 min 12 sec)
Heartbeat CPU 0 instructions: 500000002 cycles: 125877193 heartbeat IPC: 3.99 cumulative IPC: 3.969 (Simulation time: 00 hr 36 min 56 sec)
Heartbeat CPU 0 instructions: 510000003 cycles: 128387070 heartbeat IPC: 3.984 cumulative IPC: 3.969 (Simulation time: 00 hr 37 min 39 sec)
Heartbeat CPU 0 instructions: 520000004 cycles: 130892106 heartbeat IPC: 3.992 cumulative IPC: 3.97 (Simulation time: 00 hr 38 min 28 sec)
Heartbeat CPU 0 instructions: 530000000 cycles: 133397553 heartbeat IPC: 3.991 cumulative IPC: 3.97 (Simulation time: 00 hr 39 min 17 sec)
Heartbeat CPU 0 instructions: 540000001 cycles: 135903851 heartbeat IPC: 3.99 cumulative IPC: 3.971 (Simulation time: 00 hr 40 min 05 sec)
Heartbeat CPU 0 instructions: 550000002 cycles: 138410990 heartbeat IPC: 3.989 cumulative IPC: 3.971 (Simulation time: 00 hr 40 min 54 sec)
Heartbeat CPU 0 instructions: 560000003 cycles: 140917497 heartbeat IPC: 3.99 cumulative IPC: 3.971 (Simulation time: 00 hr 41 min 41 sec)
Heartbeat CPU 0 instructions: 570000004 cycles: 143432117 heartbeat IPC: 3.977 cumulative IPC: 3.972 (Simulation time: 00 hr 42 min 26 sec)
Heartbeat CPU 0 instructions: 580000000 cycles: 145934942 heartbeat IPC: 3.995 cumulative IPC: 3.972 (Simulation time: 00 hr 43 min 12 sec)
Heartbeat CPU 0 instructions: 590000002 cycles: 148440947 heartbeat IPC: 3.99 cumulative IPC: 3.972 (Simulation time: 00 hr 43 min 57 sec)
*** Reached end of trace: (0, "traces/convolution.champsimtrace")
Heartbeat CPU 0 instructions: 600000000 cycles: 150948639 heartbeat IPC: 3.988 cumulative IPC: 3.973 (Simulation time: 00 hr 44 min 45 sec)
Heartbeat CPU 0 instructions: 610000002 cycles: 172100143 heartbeat IPC: 0.4728 cumulative IPC: 3.509 (Simulation time: 00 hr 47 min 50 sec)
Heartbeat CPU 0 instructions: 620000001 cycles: 191072915 heartbeat IPC: 0.5271 cumulative IPC: 3.192 (Simulation time: 00 hr 50 min 39 sec)
Heartbeat CPU 0 instructions: 630000001 cycles: 197410122 heartbeat IPC: 1.578 cumulative IPC: 3.137 (Simulation time: 00 hr 51 min 53 sec)
Heartbeat CPU 0 instructions: 640000004 cycles: 207949951 heartbeat IPC: 0.9488 cumulative IPC: 3.019 (Simulation time: 00 hr 53 min 36 sec)
Heartbeat CPU 0 instructions: 650000001 cycles: 218738265 heartbeat IPC: 0.9269 cumulative IPC: 2.909 (Simulation time: 00 hr 55 min 21 sec)
Simulation finished CPU 0 instructions: 600000001 cycles: 206238063 cumulative IPC: 2.909 (Simulation time: 00 hr 55 min 21 sec)
Simulation complete CPU 0 instructions: 600000001 cycles: 206238063 cumulative IPC: 2.909 (Simulation time: 00 hr 55 min 21 sec)

ChampSim completed all CPUs

=== Simulation ===
CPU 0 runs traces/convolution.champsimtrace
Region of Interest Statistics

CPU 0 cumulative IPC: 2.909 instructions: 600000001 cycles: 206238063
CPU 0 Branch Prediction Accuracy: 100% MPKI: 0.002858 Average ROB Occupancy at Mispredict: 79.42
Branch type MPKI
BRANCH_DIRECT_JUMP: 0.000107
BRANCH_INDIRECT: 4.17e-05
BRANCH_CONDITIONAL: 0.00258
BRANCH_DIRECT_CALL: 0.000103
BRANCH_INDIRECT_CALL: 8.33e-06
BRANCH_RETURN: 1.83e-05

LLC TOTAL        ACCESS:    1182922 HIT:      64185 MISS:    1118737
LLC LOAD         ACCESS:       2887 HIT:         67 MISS:       2820
LLC RFO          ACCESS:     535121 HIT:      30815 MISS:     504306
LLC PREFETCH     ACCESS:          0 HIT:          0 MISS:          0
LLC WRITE        ACCESS:     535178 HIT:      32862 MISS:     502316
LLC TRANSLATION  ACCESS:     109736 HIT:        441 MISS:     109295
LLC PREFETCH REQUESTED:          0 ISSUED:          0 USEFUL:          0 USELESS:          0
LLC AVERAGE MISS LATENCY: 534 cycles
cpu0_DTLB TOTAL        ACCESS:  113161579 HIT:  112808958 MISS:     352621
cpu0_DTLB LOAD         ACCESS:  113161579 HIT:  112808958 MISS:     352621
cpu0_DTLB RFO          ACCESS:          0 HIT:          0 MISS:          0
cpu0_DTLB PREFETCH     ACCESS:          0 HIT:          0 MISS:          0
cpu0_DTLB WRITE        ACCESS:          0 HIT:          0 MISS:          0
cpu0_DTLB TRANSLATION  ACCESS:          0 HIT:          0 MISS:          0
cpu0_DTLB PREFETCH REQUESTED:          0 ISSUED:          0 USEFUL:          0 USELESS:          0
cpu0_DTLB AVERAGE MISS LATENCY: 575.9 cycles
cpu0_ITLB TOTAL        ACCESS:       2125 HIT:       2090 MISS:         35
cpu0_ITLB LOAD         ACCESS:       2125 HIT:       2090 MISS:         35
cpu0_ITLB RFO          ACCESS:          0 HIT:          0 MISS:          0
cpu0_ITLB PREFETCH     ACCESS:          0 HIT:          0 MISS:          0
cpu0_ITLB WRITE        ACCESS:          0 HIT:          0 MISS:          0
cpu0_ITLB TRANSLATION  ACCESS:          0 HIT:          0 MISS:          0
cpu0_ITLB PREFETCH REQUESTED:          0 ISSUED:          0 USEFUL:          0 USELESS:          0
cpu0_ITLB AVERAGE MISS LATENCY: 806.2 cycles
cpu0_L1D TOTAL        ACCESS:  146372372 HIT:  140209188 MISS:    6163184
cpu0_L1D LOAD         ACCESS:   74231669 HIT:   74223781 MISS:       7888
cpu0_L1D RFO          ACCESS:          0 HIT:          0 MISS:          0
cpu0_L1D PREFETCH     ACCESS:          0 HIT:          0 MISS:          0
cpu0_L1D WRITE        ACCESS:   71959976 HIT:   65946680 MISS:    6013296
cpu0_L1D TRANSLATION  ACCESS:     180727 HIT:      38727 MISS:     142000
cpu0_L1D PREFETCH REQUESTED:          0 ISSUED:          0 USEFUL:          0 USELESS:          0
cpu0_L1D AVERAGE MISS LATENCY: 76.19 cycles
cpu0_L1I TOTAL        ACCESS:       2482 HIT:       1001 MISS:       1481
cpu0_L1I LOAD         ACCESS:       2482 HIT:       1001 MISS:       1481
cpu0_L1I RFO          ACCESS:          0 HIT:          0 MISS:          0
cpu0_L1I PREFETCH     ACCESS:          0 HIT:          0 MISS:          0
cpu0_L1I WRITE        ACCESS:          0 HIT:          0 MISS:          0
cpu0_L1I TRANSLATION  ACCESS:          0 HIT:          0 MISS:          0
cpu0_L1I PREFETCH REQUESTED:          0 ISSUED:          0 USEFUL:          0 USELESS:          0
cpu0_L1I AVERAGE MISS LATENCY: 525.2 cycles
cpu0_L2C TOTAL        ACCESS:    1193232 HIT:     545471 MISS:     647761
cpu0_L2C LOAD         ACCESS:       3311 HIT:        424 MISS:       2887
cpu0_L2C RFO          ACCESS:     539223 HIT:       4102 MISS:     535121
cpu0_L2C PREFETCH     ACCESS:          0 HIT:          0 MISS:          0
cpu0_L2C WRITE        ACCESS:     539627 HIT:     539611 MISS:         16
cpu0_L2C TRANSLATION  ACCESS:     111071 HIT:       1334 MISS:     109737
cpu0_L2C PREFETCH REQUESTED:          0 ISSUED:          0 USEFUL:          0 USELESS:          0
cpu0_L2C AVERAGE MISS LATENCY: 943.1 cycles
cpu0_STLB TOTAL        ACCESS:     156149 HIT:         42 MISS:     156107
cpu0_STLB LOAD         ACCESS:     156149 HIT:         42 MISS:     156107
cpu0_STLB RFO          ACCESS:          0 HIT:          0 MISS:          0
cpu0_STLB PREFETCH     ACCESS:          0 HIT:          0 MISS:          0
cpu0_STLB WRITE        ACCESS:          0 HIT:          0 MISS:          0
cpu0_STLB TRANSLATION  ACCESS:          0 HIT:          0 MISS:          0
cpu0_STLB PREFETCH REQUESTED:          0 ISSUED:          0 USEFUL:          0 USELESS:          0
cpu0_STLB AVERAGE MISS LATENCY: 1470 cycles

DRAM Statistics

Channel 0 RQ ROW_BUFFER_HIT:     141903
  ROW_BUFFER_MISS:     474513
 AVG DBUS CONGESTED CYCLE: 3.977
WQ ROW_BUFFER_HIT: Channel 0 
  ROW_BUFFER_MISS:     123549
  FULL:     380712
