WARNING: physical memory size is smaller than virtual memory size.

*** ChampSim Multicore Out-of-Order Simulator ***
Warmup Instructions: 50000000
Simulation Instructions: 600000000
Number of CPUs: 1
Page size: 4096

CPU 0 Tage branch predictor
Off-chip DRAM Size: 4 GiB Channels: 1 Width: 64-bit Data Race: 3200 MT/s
Heartbeat CPU 0 instructions: 10000000 cycles: 2500202 heartbeat IPC: 4 cumulative IPC: 4 (Simulation time: 00 hr 00 min 39 sec)
Heartbeat CPU 0 instructions: 20000000 cycles: 5000202 heartbeat IPC: 4 cumulative IPC: 4 (Simulation time: 00 hr 01 min 19 sec)
Heartbeat CPU 0 instructions: 30000000 cycles: 7500202 heartbeat IPC: 4 cumulative IPC: 4 (Simulation time: 00 hr 01 min 59 sec)
Heartbeat CPU 0 instructions: 40000000 cycles: 10000202 heartbeat IPC: 4 cumulative IPC: 4 (Simulation time: 00 hr 02 min 37 sec)
Heartbeat CPU 0 instructions: 50000000 cycles: 12500202 heartbeat IPC: 4 cumulative IPC: 4 (Simulation time: 00 hr 03 min 18 sec)
Warmup finished CPU 0 instructions: 50000000 cycles: 12500203 cumulative IPC: 4 (Simulation time: 00 hr 03 min 18 sec)
Warmup complete CPU 0 instructions: 50000000 cycles: 12500203 cumulative IPC: 4 (Simulation time: 00 hr 03 min 18 sec)
Heartbeat CPU 0 instructions: 60000002 cycles: 15584528 heartbeat IPC: 3.242 cumulative IPC: 3.242 (Simulation time: 00 hr 04 min 07 sec)
Heartbeat CPU 0 instructions: 70000002 cycles: 18092751 heartbeat IPC: 3.987 cumulative IPC: 3.576 (Simulation time: 00 hr 04 min 58 sec)
Heartbeat CPU 0 instructions: 80000003 cycles: 20598706 heartbeat IPC: 3.99 cumulative IPC: 3.704 (Simulation time: 00 hr 05 min 48 sec)
Heartbeat CPU 0 instructions: 90000004 cycles: 23105821 heartbeat IPC: 3.989 cumulative IPC: 3.772 (Simulation time: 00 hr 06 min 37 sec)
Heartbeat CPU 0 instructions: 100000003 cycles: 25613670 heartbeat IPC: 3.987 cumulative IPC: 3.813 (Simulation time: 00 hr 07 min 23 sec)
Heartbeat CPU 0 instructions: 110000000 cycles: 28123850 heartbeat IPC: 3.984 cumulative IPC: 3.84 (Simulation time: 00 hr 08 min 09 sec)
Heartbeat CPU 0 instructions: 120000000 cycles: 30629636 heartbeat IPC: 3.991 cumulative IPC: 3.861 (Simulation time: 00 hr 08 min 58 sec)
Heartbeat CPU 0 instructions: 130000000 cycles: 33135994 heartbeat IPC: 3.99 cumulative IPC: 3.877 (Simulation time: 00 hr 09 min 43 sec)
Heartbeat CPU 0 instructions: 140000001 cycles: 35643869 heartbeat IPC: 3.987 cumulative IPC: 3.889 (Simulation time: 00 hr 10 min 37 sec)
Heartbeat CPU 0 instructions: 150000003 cycles: 38152340 heartbeat IPC: 3.986 cumulative IPC: 3.898 (Simulation time: 00 hr 11 min 30 sec)
Heartbeat CPU 0 instructions: 160000003 cycles: 40658217 heartbeat IPC: 3.991 cumulative IPC: 3.907 (Simulation time: 00 hr 12 min 19 sec)
Heartbeat CPU 0 instructions: 170000000 cycles: 43161652 heartbeat IPC: 3.995 cumulative IPC: 3.914 (Simulation time: 00 hr 13 min 02 sec)
Heartbeat CPU 0 instructions: 180000001 cycles: 45665323 heartbeat IPC: 3.994 cumulative IPC: 3.92 (Simulation time: 00 hr 13 min 50 sec)
Heartbeat CPU 0 instructions: 190000002 cycles: 48169465 heartbeat IPC: 3.993 cumulative IPC: 3.925 (Simulation time: 00 hr 14 min 33 sec)
Heartbeat CPU 0 instructions: 200000002 cycles: 50677149 heartbeat IPC: 3.988 cumulative IPC: 3.929 (Simulation time: 00 hr 15 min 19 sec)
Heartbeat CPU 0 instructions: 210000000 cycles: 53183920 heartbeat IPC: 3.989 cumulative IPC: 3.933 (Simulation time: 00 hr 16 min 03 sec)
Heartbeat CPU 0 instructions: 220000001 cycles: 55690818 heartbeat IPC: 3.989 cumulative IPC: 3.936 (Simulation time: 00 hr 16 min 46 sec)
Heartbeat CPU 0 instructions: 230000002 cycles: 58199441 heartbeat IPC: 3.986 cumulative IPC: 3.939 (Simulation time: 00 hr 17 min 31 sec)
Heartbeat CPU 0 instructions: 240000004 cycles: 60704894 heartbeat IPC: 3.991 cumulative IPC: 3.942 (Simulation time: 00 hr 18 min 18 sec)
Heartbeat CPU 0 instructions: 250000000 cycles: 63215394 heartbeat IPC: 3.983 cumulative IPC: 3.944 (Simulation time: 00 hr 19 min 02 sec)
Heartbeat CPU 0 instructions: 260000000 cycles: 65726403 heartbeat IPC: 3.982 cumulative IPC: 3.945 (Simulation time: 00 hr 19 min 46 sec)
Heartbeat CPU 0 instructions: 270000002 cycles: 68229165 heartbeat IPC: 3.996 cumulative IPC: 3.948 (Simulation time: 00 hr 20 min 28 sec)
Heartbeat CPU 0 instructions: 280000003 cycles: 70734374 heartbeat IPC: 3.992 cumulative IPC: 3.95 (Simulation time: 00 hr 21 min 11 sec)
Heartbeat CPU 0 instructions: 290000000 cycles: 73236752 heartbeat IPC: 3.996 cumulative IPC: 3.951 (Simulation time: 00 hr 21 min 53 sec)
Heartbeat CPU 0 instructions: 300000000 cycles: 75746596 heartbeat IPC: 3.984 cumulative IPC: 3.953 (Simulation time: 00 hr 22 min 36 sec)
Heartbeat CPU 0 instructions: 310000002 cycles: 78254415 heartbeat IPC: 3.988 cumulative IPC: 3.954 (Simulation time: 00 hr 23 min 19 sec)
Heartbeat CPU 0 instructions: 320000004 cycles: 80760632 heartbeat IPC: 3.99 cumulative IPC: 3.955 (Simulation time: 00 hr 24 min 01 sec)
Heartbeat CPU 0 instructions: 330000000 cycles: 83271843 heartbeat IPC: 3.982 cumulative IPC: 3.956 (Simulation time: 00 hr 24 min 43 sec)
Heartbeat CPU 0 instructions: 340000002 cycles: 85781091 heartbeat IPC: 3.985 cumulative IPC: 3.957 (Simulation time: 00 hr 25 min 25 sec)
Heartbeat CPU 0 instructions: 350000002 cycles: 88286228 heartbeat IPC: 3.992 cumulative IPC: 3.959 (Simulation time: 00 hr 26 min 08 sec)
Heartbeat CPU 0 instructions: 360000004 cycles: 90793887 heartbeat IPC: 3.988 cumulative IPC: 3.959 (Simulation time: 00 hr 26 min 50 sec)
Heartbeat CPU 0 instructions: 370000004 cycles: 93296601 heartbeat IPC: 3.996 cumulative IPC: 3.961 (Simulation time: 00 hr 27 min 32 sec)
Heartbeat CPU 0 instructions: 380000000 cycles: 95803837 heartbeat IPC: 3.988 cumulative IPC: 3.961 (Simulation time: 00 hr 28 min 15 sec)
Heartbeat CPU 0 instructions: 390000000 cycles: 98306036 heartbeat IPC: 3.996 cumulative IPC: 3.962 (Simulation time: 00 hr 28 min 57 sec)
Heartbeat CPU 0 instructions: 400000000 cycles: 100808607 heartbeat IPC: 3.996 cumulative IPC: 3.963 (Simulation time: 00 hr 29 min 40 sec)
Heartbeat CPU 0 instructions: 410000000 cycles: 103318386 heartbeat IPC: 3.984 cumulative IPC: 3.964 (Simulation time: 00 hr 30 min 22 sec)
Heartbeat CPU 0 instructions: 420000001 cycles: 105820574 heartbeat IPC: 3.997 cumulative IPC: 3.965 (Simulation time: 00 hr 31 min 04 sec)
Heartbeat CPU 0 instructions: 430000003 cycles: 108323566 heartbeat IPC: 3.995 cumulative IPC: 3.966 (Simulation time: 00 hr 31 min 46 sec)
Heartbeat CPU 0 instructions: 440000003 cycles: 110828262 heartbeat IPC: 3.993 cumulative IPC: 3.966 (Simulation time: 00 hr 32 min 28 sec)
Heartbeat CPU 0 instructions: 450000000 cycles: 113337635 heartbeat IPC: 3.985 cumulative IPC: 3.967 (Simulation time: 00 hr 33 min 10 sec)
Heartbeat CPU 0 instructions: 460000001 cycles: 115842824 heartbeat IPC: 3.992 cumulative IPC: 3.967 (Simulation time: 00 hr 33 min 55 sec)
Heartbeat CPU 0 instructions: 470000002 cycles: 118348382 heartbeat IPC: 3.991 cumulative IPC: 3.968 (Simulation time: 00 hr 34 min 40 sec)
Heartbeat CPU 0 instructions: 480000001 cycles: 120852566 heartbeat IPC: 3.993 cumulative IPC: 3.969 (Simulation time: 00 hr 35 min 26 sec)
Heartbeat CPU 0 instructions: 490000000 cycles: 123359930 heartbeat IPC: 3.988 cumulative IPC: 3.969 (Simulation time: 00 hr 36 min 10 sec)
Heartbeat CPU 0 instructions: 500000002 cycles: 125869234 heartbeat IPC: 3.985 cumulative IPC: 3.969 (Simulation time: 00 hr 36 min 51 sec)
Heartbeat CPU 0 instructions: 510000003 cycles: 128374331 heartbeat IPC: 3.992 cumulative IPC: 3.97 (Simulation time: 00 hr 37 min 33 sec)
Heartbeat CPU 0 instructions: 520000004 cycles: 130885939 heartbeat IPC: 3.982 cumulative IPC: 3.97 (Simulation time: 00 hr 38 min 16 sec)
Heartbeat CPU 0 instructions: 530000000 cycles: 133390741 heartbeat IPC: 3.992 cumulative IPC: 3.971 (Simulation time: 00 hr 38 min 58 sec)
Heartbeat CPU 0 instructions: 540000001 cycles: 135898861 heartbeat IPC: 3.987 cumulative IPC: 3.971 (Simulation time: 00 hr 39 min 41 sec)
Heartbeat CPU 0 instructions: 550000002 cycles: 138404682 heartbeat IPC: 3.991 cumulative IPC: 3.971 (Simulation time: 00 hr 40 min 25 sec)
Heartbeat CPU 0 instructions: 560000003 cycles: 140910338 heartbeat IPC: 3.991 cumulative IPC: 3.972 (Simulation time: 00 hr 41 min 06 sec)
Heartbeat CPU 0 instructions: 570000004 cycles: 143420713 heartbeat IPC: 3.983 cumulative IPC: 3.972 (Simulation time: 00 hr 41 min 50 sec)
Heartbeat CPU 0 instructions: 580000000 cycles: 145931965 heartbeat IPC: 3.982 cumulative IPC: 3.972 (Simulation time: 00 hr 42 min 34 sec)
Heartbeat CPU 0 instructions: 590000002 cycles: 148437777 heartbeat IPC: 3.991 cumulative IPC: 3.972 (Simulation time: 00 hr 43 min 19 sec)
*** Reached end of trace: (0, "traces/convolution.champsimtrace")
Heartbeat CPU 0 instructions: 600000000 cycles: 150947361 heartbeat IPC: 3.985 cumulative IPC: 3.973 (Simulation time: 00 hr 44 min 03 sec)
Heartbeat CPU 0 instructions: 610000002 cycles: 173005258 heartbeat IPC: 0.4534 cumulative IPC: 3.489 (Simulation time: 00 hr 47 min 14 sec)
Heartbeat CPU 0 instructions: 620000001 cycles: 192058668 heartbeat IPC: 0.5248 cumulative IPC: 3.174 (Simulation time: 00 hr 50 min 08 sec)
Heartbeat CPU 0 instructions: 630000001 cycles: 200619976 heartbeat IPC: 1.168 cumulative IPC: 3.083 (Simulation time: 00 hr 51 min 41 sec)
Heartbeat CPU 0 instructions: 640000004 cycles: 211425165 heartbeat IPC: 0.9255 cumulative IPC: 2.966 (Simulation time: 00 hr 53 min 33 sec)
Heartbeat CPU 0 instructions: 650000001 cycles: 222194511 heartbeat IPC: 0.9286 cumulative IPC: 2.861 (Simulation time: 00 hr 55 min 27 sec)
Simulation finished CPU 0 instructions: 600000001 cycles: 209694309 cumulative IPC: 2.861 (Simulation time: 00 hr 55 min 27 sec)
Simulation complete CPU 0 instructions: 600000001 cycles: 209694309 cumulative IPC: 2.861 (Simulation time: 00 hr 55 min 27 sec)

ChampSim completed all CPUs

=== Simulation ===
CPU 0 runs traces/convolution.champsimtrace
Region of Interest Statistics

CPU 0 cumulative IPC: 2.861 instructions: 600000001 cycles: 209694309
CPU 0 Branch Prediction Accuracy: 100% MPKI: 0.002858 Average ROB Occupancy at Mispredict: 78.77
Branch type MPKI
BRANCH_DIRECT_JUMP: 0.000107
BRANCH_INDIRECT: 4.17e-05
BRANCH_CONDITIONAL: 0.00258
BRANCH_DIRECT_CALL: 0.000103
BRANCH_INDIRECT_CALL: 8.33e-06
BRANCH_RETURN: 1.83e-05

LLC TOTAL        ACCESS:    1184805 HIT:      52649 MISS:    1132156
LLC LOAD         ACCESS:       2888 HIT:       1731 MISS:       1157
LLC RFO          ACCESS:     535119 HIT:      16382 MISS:     518737
LLC PREFETCH     ACCESS:       2052 HIT:       2027 MISS:         25
LLC WRITE        ACCESS:     535165 HIT:      19264 MISS:     515901
LLC TRANSLATION  ACCESS:     109581 HIT:      13245 MISS:      96336
LLC PREFETCH REQUESTED:       2052 ISSUED:       2052 USEFUL:          6 USELESS:         14
LLC AVERAGE MISS LATENCY: 557.7 cycles
cpu0_DTLB TOTAL        ACCESS:  113236544 HIT:  112899384 MISS:     337160
cpu0_DTLB LOAD         ACCESS:  113236544 HIT:  112899384 MISS:     337160
cpu0_DTLB RFO          ACCESS:          0 HIT:          0 MISS:          0
cpu0_DTLB PREFETCH     ACCESS:          0 HIT:          0 MISS:          0
cpu0_DTLB WRITE        ACCESS:          0 HIT:          0 MISS:          0
cpu0_DTLB TRANSLATION  ACCESS:          0 HIT:          0 MISS:          0
cpu0_DTLB PREFETCH REQUESTED:          0 ISSUED:          0 USEFUL:          0 USELESS:          0
cpu0_DTLB AVERAGE MISS LATENCY: 637.1 cycles
cpu0_ITLB TOTAL        ACCESS:       2110 HIT:       2076 MISS:         34
cpu0_ITLB LOAD         ACCESS:       2110 HIT:       2076 MISS:         34
cpu0_ITLB RFO          ACCESS:          0 HIT:          0 MISS:          0
cpu0_ITLB PREFETCH     ACCESS:          0 HIT:          0 MISS:          0
cpu0_ITLB WRITE        ACCESS:          0 HIT:          0 MISS:          0
cpu0_ITLB TRANSLATION  ACCESS:          0 HIT:          0 MISS:          0
cpu0_ITLB PREFETCH REQUESTED:          0 ISSUED:          0 USEFUL:          0 USELESS:          0
cpu0_ITLB AVERAGE MISS LATENCY: 553.4 cycles
cpu0_L1D TOTAL        ACCESS:  146431948 HIT:  140268398 MISS:    6163550
cpu0_L1D LOAD         ACCESS:   74278755 HIT:   74270844 MISS:       7911
cpu0_L1D RFO          ACCESS:          0 HIT:          0 MISS:          0
cpu0_L1D PREFETCH     ACCESS:          0 HIT:          0 MISS:          0
cpu0_L1D WRITE        ACCESS:   71972642 HIT:   65961414 MISS:    6011228
cpu0_L1D TRANSLATION  ACCESS:     180551 HIT:      36140 MISS:     144411
cpu0_L1D PREFETCH REQUESTED:          0 ISSUED:          0 USEFUL:          0 USELESS:          0
cpu0_L1D AVERAGE MISS LATENCY: 82.12 cycles
cpu0_L1I TOTAL        ACCESS:       2460 HIT:       1022 MISS:       1438
cpu0_L1I LOAD         ACCESS:       2460 HIT:       1022 MISS:       1438
cpu0_L1I RFO          ACCESS:          0 HIT:          0 MISS:          0
cpu0_L1I PREFETCH     ACCESS:          0 HIT:          0 MISS:          0
cpu0_L1I WRITE        ACCESS:          0 HIT:          0 MISS:          0
cpu0_L1I TRANSLATION  ACCESS:          0 HIT:          0 MISS:          0
cpu0_L1I PREFETCH REQUESTED:          0 ISSUED:          0 USEFUL:          0 USELESS:          0
cpu0_L1I AVERAGE MISS LATENCY: 387.2 cycles
cpu0_L2C TOTAL        ACCESS:    1193078 HIT:     545473 MISS:     647605
cpu0_L2C LOAD         ACCESS:       3313 HIT:        425 MISS:       2888
cpu0_L2C RFO          ACCESS:     539228 HIT:       4109 MISS:     535119
cpu0_L2C PREFETCH     ACCESS:          0 HIT:          0 MISS:          0
cpu0_L2C WRITE        ACCESS:     539628 HIT:     539612 MISS:         16
cpu0_L2C TRANSLATION  ACCESS:     110909 HIT:       1327 MISS:     109582
cpu0_L2C PREFETCH REQUESTED:          0 ISSUED:          0 USEFUL:          0 USELESS:          0
cpu0_L2C AVERAGE MISS LATENCY: 995.9 cycles
cpu0_STLB TOTAL        ACCESS:     156145 HIT:         37 MISS:     156108
cpu0_STLB LOAD         ACCESS:     156145 HIT:         37 MISS:     156108
cpu0_STLB RFO          ACCESS:          0 HIT:          0 MISS:          0
cpu0_STLB PREFETCH     ACCESS:          0 HIT:          0 MISS:          0
cpu0_STLB WRITE        ACCESS:          0 HIT:          0 MISS:          0
cpu0_STLB TRANSLATION  ACCESS:          0 HIT:          0 MISS:          0
cpu0_STLB PREFETCH REQUESTED:          0 ISSUED:          0 USEFUL:          0 USELESS:          0
cpu0_STLB AVERAGE MISS LATENCY: 1552 cycles

DRAM Statistics

Channel 0 RQ ROW_BUFFER_HIT:     138339
  ROW_BUFFER_MISS:     477898
 AVG DBUS CONGESTED CYCLE: 3.978
WQ ROW_BUFFER_HIT: Channel 0 
  ROW_BUFFER_MISS:     120073
  FULL:     398637
