WARNING: physical memory size is smaller than virtual memory size.

*** ChampSim Multicore Out-of-Order Simulator ***
Warmup Instructions: 50000000
Simulation Instructions: 600000000
Number of CPUs: 1
Page size: 4096

CPU 0 Tage branch predictor
Off-chip DRAM Size: 4 GiB Channels: 1 Width: 64-bit Data Race: 3200 MT/s
Heartbeat CPU 0 instructions: 10000000 cycles: 2500202 heartbeat IPC: 4 cumulative IPC: 4 (Simulation time: 00 hr 00 min 41 sec)
Heartbeat CPU 0 instructions: 20000000 cycles: 5000202 heartbeat IPC: 4 cumulative IPC: 4 (Simulation time: 00 hr 01 min 21 sec)
Heartbeat CPU 0 instructions: 30000000 cycles: 7500202 heartbeat IPC: 4 cumulative IPC: 4 (Simulation time: 00 hr 02 min 02 sec)
Heartbeat CPU 0 instructions: 40000000 cycles: 10000202 heartbeat IPC: 4 cumulative IPC: 4 (Simulation time: 00 hr 02 min 42 sec)
Heartbeat CPU 0 instructions: 50000000 cycles: 12500202 heartbeat IPC: 4 cumulative IPC: 4 (Simulation time: 00 hr 03 min 22 sec)
Warmup finished CPU 0 instructions: 50000000 cycles: 12500203 cumulative IPC: 4 (Simulation time: 00 hr 03 min 22 sec)
Warmup complete CPU 0 instructions: 50000000 cycles: 12500203 cumulative IPC: 4 (Simulation time: 00 hr 03 min 22 sec)
Heartbeat CPU 0 instructions: 60000002 cycles: 15582154 heartbeat IPC: 3.245 cumulative IPC: 3.245 (Simulation time: 00 hr 04 min 12 sec)
Heartbeat CPU 0 instructions: 70000002 cycles: 18092581 heartbeat IPC: 3.983 cumulative IPC: 3.576 (Simulation time: 00 hr 04 min 56 sec)
Heartbeat CPU 0 instructions: 80000003 cycles: 20596456 heartbeat IPC: 3.994 cumulative IPC: 3.705 (Simulation time: 00 hr 05 min 40 sec)
Heartbeat CPU 0 instructions: 90000004 cycles: 23103571 heartbeat IPC: 3.989 cumulative IPC: 3.772 (Simulation time: 00 hr 06 min 23 sec)
Heartbeat CPU 0 instructions: 100000003 cycles: 25615918 heartbeat IPC: 3.98 cumulative IPC: 3.812 (Simulation time: 00 hr 07 min 08 sec)
Heartbeat CPU 0 instructions: 110000000 cycles: 28124207 heartbeat IPC: 3.987 cumulative IPC: 3.84 (Simulation time: 00 hr 07 min 55 sec)
Heartbeat CPU 0 instructions: 120000000 cycles: 30632757 heartbeat IPC: 3.986 cumulative IPC: 3.86 (Simulation time: 00 hr 08 min 41 sec)
Heartbeat CPU 0 instructions: 130000000 cycles: 33139182 heartbeat IPC: 3.99 cumulative IPC: 3.876 (Simulation time: 00 hr 09 min 26 sec)
Heartbeat CPU 0 instructions: 140000001 cycles: 35644262 heartbeat IPC: 3.992 cumulative IPC: 3.889 (Simulation time: 00 hr 10 min 10 sec)
Heartbeat CPU 0 instructions: 150000003 cycles: 38148421 heartbeat IPC: 3.993 cumulative IPC: 3.899 (Simulation time: 00 hr 10 min 57 sec)
Heartbeat CPU 0 instructions: 160000003 cycles: 40651654 heartbeat IPC: 3.995 cumulative IPC: 3.907 (Simulation time: 00 hr 11 min 45 sec)
Heartbeat CPU 0 instructions: 170000000 cycles: 43154535 heartbeat IPC: 3.995 cumulative IPC: 3.915 (Simulation time: 00 hr 12 min 33 sec)
Heartbeat CPU 0 instructions: 180000001 cycles: 45656136 heartbeat IPC: 3.997 cumulative IPC: 3.921 (Simulation time: 00 hr 13 min 21 sec)
Heartbeat CPU 0 instructions: 190000002 cycles: 48162936 heartbeat IPC: 3.989 cumulative IPC: 3.926 (Simulation time: 00 hr 14 min 09 sec)
Heartbeat CPU 0 instructions: 200000002 cycles: 50668998 heartbeat IPC: 3.99 cumulative IPC: 3.93 (Simulation time: 00 hr 14 min 51 sec)
Heartbeat CPU 0 instructions: 210000000 cycles: 53180099 heartbeat IPC: 3.982 cumulative IPC: 3.933 (Simulation time: 00 hr 15 min 40 sec)
Heartbeat CPU 0 instructions: 220000001 cycles: 55684880 heartbeat IPC: 3.992 cumulative IPC: 3.937 (Simulation time: 00 hr 16 min 26 sec)
Heartbeat CPU 0 instructions: 230000002 cycles: 58193243 heartbeat IPC: 3.987 cumulative IPC: 3.939 (Simulation time: 00 hr 17 min 14 sec)
Heartbeat CPU 0 instructions: 240000004 cycles: 60700486 heartbeat IPC: 3.988 cumulative IPC: 3.942 (Simulation time: 00 hr 18 min 01 sec)
Heartbeat CPU 0 instructions: 250000000 cycles: 63209616 heartbeat IPC: 3.985 cumulative IPC: 3.944 (Simulation time: 00 hr 18 min 47 sec)
Heartbeat CPU 0 instructions: 260000000 cycles: 65717702 heartbeat IPC: 3.987 cumulative IPC: 3.946 (Simulation time: 00 hr 19 min 28 sec)
Heartbeat CPU 0 instructions: 270000002 cycles: 68221499 heartbeat IPC: 3.994 cumulative IPC: 3.948 (Simulation time: 00 hr 20 min 14 sec)
Heartbeat CPU 0 instructions: 280000003 cycles: 70726563 heartbeat IPC: 3.992 cumulative IPC: 3.95 (Simulation time: 00 hr 20 min 58 sec)
Heartbeat CPU 0 instructions: 290000000 cycles: 73233869 heartbeat IPC: 3.988 cumulative IPC: 3.952 (Simulation time: 00 hr 21 min 43 sec)
Heartbeat CPU 0 instructions: 300000000 cycles: 75747161 heartbeat IPC: 3.979 cumulative IPC: 3.953 (Simulation time: 00 hr 22 min 27 sec)
Heartbeat CPU 0 instructions: 310000002 cycles: 78251811 heartbeat IPC: 3.993 cumulative IPC: 3.954 (Simulation time: 00 hr 23 min 10 sec)
Heartbeat CPU 0 instructions: 320000004 cycles: 80759428 heartbeat IPC: 3.988 cumulative IPC: 3.956 (Simulation time: 00 hr 23 min 55 sec)
Heartbeat CPU 0 instructions: 330000000 cycles: 83272926 heartbeat IPC: 3.979 cumulative IPC: 3.956 (Simulation time: 00 hr 24 min 42 sec)
Heartbeat CPU 0 instructions: 340000002 cycles: 85781511 heartbeat IPC: 3.986 cumulative IPC: 3.957 (Simulation time: 00 hr 25 min 27 sec)
Heartbeat CPU 0 instructions: 350000002 cycles: 88289051 heartbeat IPC: 3.988 cumulative IPC: 3.958 (Simulation time: 00 hr 26 min 10 sec)
Heartbeat CPU 0 instructions: 360000000 cycles: 90794377 heartbeat IPC: 3.991 cumulative IPC: 3.959 (Simulation time: 00 hr 26 min 54 sec)
Heartbeat CPU 0 instructions: 370000004 cycles: 93301943 heartbeat IPC: 3.988 cumulative IPC: 3.96 (Simulation time: 00 hr 27 min 37 sec)
Heartbeat CPU 0 instructions: 380000000 cycles: 95810414 heartbeat IPC: 3.986 cumulative IPC: 3.961 (Simulation time: 00 hr 28 min 19 sec)
Heartbeat CPU 0 instructions: 390000000 cycles: 98313120 heartbeat IPC: 3.996 cumulative IPC: 3.962 (Simulation time: 00 hr 29 min 02 sec)
Heartbeat CPU 0 instructions: 400000000 cycles: 100816667 heartbeat IPC: 3.994 cumulative IPC: 3.963 (Simulation time: 00 hr 29 min 45 sec)
Heartbeat CPU 0 instructions: 410000000 cycles: 103326397 heartbeat IPC: 3.984 cumulative IPC: 3.964 (Simulation time: 00 hr 30 min 26 sec)
Heartbeat CPU 0 instructions: 420000001 cycles: 105828886 heartbeat IPC: 3.996 cumulative IPC: 3.964 (Simulation time: 00 hr 31 min 09 sec)
Heartbeat CPU 0 instructions: 430000003 cycles: 108336473 heartbeat IPC: 3.988 cumulative IPC: 3.965 (Simulation time: 00 hr 31 min 51 sec)
Heartbeat CPU 0 instructions: 440000003 cycles: 110841242 heartbeat IPC: 3.992 cumulative IPC: 3.966 (Simulation time: 00 hr 32 min 34 sec)
Heartbeat CPU 0 instructions: 450000004 cycles: 113350267 heartbeat IPC: 3.986 cumulative IPC: 3.966 (Simulation time: 00 hr 33 min 16 sec)
Heartbeat CPU 0 instructions: 460000001 cycles: 115858414 heartbeat IPC: 3.987 cumulative IPC: 3.967 (Simulation time: 00 hr 33 min 59 sec)
Heartbeat CPU 0 instructions: 470000002 cycles: 118364566 heartbeat IPC: 3.99 cumulative IPC: 3.967 (Simulation time: 00 hr 34 min 41 sec)
Heartbeat CPU 0 instructions: 480000001 cycles: 120868479 heartbeat IPC: 3.994 cumulative IPC: 3.968 (Simulation time: 00 hr 35 min 23 sec)
Heartbeat CPU 0 instructions: 490000000 cycles: 123380525 heartbeat IPC: 3.981 cumulative IPC: 3.968 (Simulation time: 00 hr 36 min 06 sec)
Heartbeat CPU 0 instructions: 500000002 cycles: 125887901 heartbeat IPC: 3.988 cumulative IPC: 3.969 (Simulation time: 00 hr 36 min 48 sec)
Heartbeat CPU 0 instructions: 510000003 cycles: 128394661 heartbeat IPC: 3.989 cumulative IPC: 3.969 (Simulation time: 00 hr 37 min 29 sec)
Heartbeat CPU 0 instructions: 520000004 cycles: 130910036 heartbeat IPC: 3.976 cumulative IPC: 3.969 (Simulation time: 00 hr 38 min 10 sec)
Heartbeat CPU 0 instructions: 530000000 cycles: 133416629 heartbeat IPC: 3.989 cumulative IPC: 3.97 (Simulation time: 00 hr 38 min 53 sec)
Heartbeat CPU 0 instructions: 540000001 cycles: 135921563 heartbeat IPC: 3.992 cumulative IPC: 3.97 (Simulation time: 00 hr 39 min 35 sec)
Heartbeat CPU 0 instructions: 550000002 cycles: 138425632 heartbeat IPC: 3.994 cumulative IPC: 3.971 (Simulation time: 00 hr 40 min 17 sec)
Heartbeat CPU 0 instructions: 560000003 cycles: 140930898 heartbeat IPC: 3.992 cumulative IPC: 3.971 (Simulation time: 00 hr 41 min 00 sec)
Heartbeat CPU 0 instructions: 570000004 cycles: 143441315 heartbeat IPC: 3.983 cumulative IPC: 3.971 (Simulation time: 00 hr 41 min 43 sec)
Heartbeat CPU 0 instructions: 580000000 cycles: 145951743 heartbeat IPC: 3.983 cumulative IPC: 3.971 (Simulation time: 00 hr 42 min 24 sec)
Heartbeat CPU 0 instructions: 590000002 cycles: 148459261 heartbeat IPC: 3.988 cumulative IPC: 3.972 (Simulation time: 00 hr 43 min 06 sec)
*** Reached end of trace: (0, "traces/convolution.champsimtrace")
Heartbeat CPU 0 instructions: 600000001 cycles: 150968843 heartbeat IPC: 3.985 cumulative IPC: 3.972 (Simulation time: 00 hr 43 min 48 sec)
Heartbeat CPU 0 instructions: 610000002 cycles: 172771999 heartbeat IPC: 0.4586 cumulative IPC: 3.494 (Simulation time: 00 hr 46 min 48 sec)
Heartbeat CPU 0 instructions: 620000001 cycles: 191827661 heartbeat IPC: 0.5248 cumulative IPC: 3.179 (Simulation time: 00 hr 49 min 34 sec)
Heartbeat CPU 0 instructions: 630000001 cycles: 200440007 heartbeat IPC: 1.161 cumulative IPC: 3.086 (Simulation time: 00 hr 51 min 11 sec)
Heartbeat CPU 0 instructions: 640000004 cycles: 211186149 heartbeat IPC: 0.9306 cumulative IPC: 2.97 (Simulation time: 00 hr 53 min 02 sec)
Heartbeat CPU 0 instructions: 650000001 cycles: 221952535 heartbeat IPC: 0.9288 cumulative IPC: 2.865 (Simulation time: 00 hr 54 min 48 sec)
Simulation finished CPU 0 instructions: 600000001 cycles: 209452333 cumulative IPC: 2.865 (Simulation time: 00 hr 54 min 48 sec)
Simulation complete CPU 0 instructions: 600000001 cycles: 209452333 cumulative IPC: 2.865 (Simulation time: 00 hr 54 min 48 sec)

ChampSim completed all CPUs

=== Simulation ===
CPU 0 runs traces/convolution.champsimtrace
Region of Interest Statistics

CPU 0 cumulative IPC: 2.865 instructions: 600000001 cycles: 209452333
CPU 0 Branch Prediction Accuracy: 100% MPKI: 0.002858 Average ROB Occupancy at Mispredict: 77.23
Branch type MPKI
BRANCH_DIRECT_JUMP: 0.000107
BRANCH_INDIRECT: 4.17e-05
BRANCH_CONDITIONAL: 0.00258
BRANCH_DIRECT_CALL: 0.000103
BRANCH_INDIRECT_CALL: 8.33e-06
BRANCH_RETURN: 1.83e-05

LLC TOTAL        ACCESS:    1185645 HIT:      52911 MISS:    1132734
LLC LOAD         ACCESS:       2887 HIT:       2587 MISS:        300
LLC RFO          ACCESS:     535120 HIT:      15704 MISS:     519416
LLC PREFETCH     ACCESS:       2887 HIT:       2588 MISS:        299
LLC WRITE        ACCESS:     535163 HIT:      19076 MISS:     516087
LLC TRANSLATION  ACCESS:     109588 HIT:      12956 MISS:      96632
LLC PREFETCH REQUESTED:       2887 ISSUED:       2887 USEFUL:         20 USELESS:        255
LLC AVERAGE MISS LATENCY: 558.2 cycles
cpu0_DTLB TOTAL        ACCESS:  113232252 HIT:  112894722 MISS:     337530
cpu0_DTLB LOAD         ACCESS:  113232252 HIT:  112894722 MISS:     337530
cpu0_DTLB RFO          ACCESS:          0 HIT:          0 MISS:          0
cpu0_DTLB PREFETCH     ACCESS:          0 HIT:          0 MISS:          0
cpu0_DTLB WRITE        ACCESS:          0 HIT:          0 MISS:          0
cpu0_DTLB TRANSLATION  ACCESS:          0 HIT:          0 MISS:          0
cpu0_DTLB PREFETCH REQUESTED:          0 ISSUED:          0 USEFUL:          0 USELESS:          0
cpu0_DTLB AVERAGE MISS LATENCY: 636.4 cycles
cpu0_ITLB TOTAL        ACCESS:       2072 HIT:       2038 MISS:         34
cpu0_ITLB LOAD         ACCESS:       2072 HIT:       2038 MISS:         34
cpu0_ITLB RFO          ACCESS:          0 HIT:          0 MISS:          0
cpu0_ITLB PREFETCH     ACCESS:          0 HIT:          0 MISS:          0
cpu0_ITLB WRITE        ACCESS:          0 HIT:          0 MISS:          0
cpu0_ITLB TRANSLATION  ACCESS:          0 HIT:          0 MISS:          0
cpu0_ITLB PREFETCH REQUESTED:          0 ISSUED:          0 USEFUL:          0 USELESS:          0
cpu0_ITLB AVERAGE MISS LATENCY: 586.4 cycles
cpu0_L1D TOTAL        ACCESS:  146428679 HIT:  140262476 MISS:    6166203
cpu0_L1D LOAD         ACCESS:   74276464 HIT:   74269146 MISS:       7318
cpu0_L1D RFO          ACCESS:          0 HIT:          0 MISS:          0
cpu0_L1D PREFETCH     ACCESS:          0 HIT:          0 MISS:          0
cpu0_L1D WRITE        ACCESS:   71971656 HIT:   65957129 MISS:    6014527
cpu0_L1D TRANSLATION  ACCESS:     180559 HIT:      36201 MISS:     144358
cpu0_L1D PREFETCH REQUESTED:          0 ISSUED:          0 USEFUL:          0 USELESS:          0
cpu0_L1D AVERAGE MISS LATENCY: 82.04 cycles
cpu0_L1I TOTAL        ACCESS:       2423 HIT:       1049 MISS:       1374
cpu0_L1I LOAD         ACCESS:       2423 HIT:       1049 MISS:       1374
cpu0_L1I RFO          ACCESS:          0 HIT:          0 MISS:          0
cpu0_L1I PREFETCH     ACCESS:          0 HIT:          0 MISS:          0
cpu0_L1I WRITE        ACCESS:          0 HIT:          0 MISS:          0
cpu0_L1I TRANSLATION  ACCESS:          0 HIT:          0 MISS:          0
cpu0_L1I PREFETCH REQUESTED:          0 ISSUED:          0 USEFUL:          0 USELESS:          0
cpu0_L1I AVERAGE MISS LATENCY: 207.3 cycles
cpu0_L2C TOTAL        ACCESS:    1193077 HIT:     545464 MISS:     647613
cpu0_L2C LOAD         ACCESS:       3312 HIT:        425 MISS:       2887
cpu0_L2C RFO          ACCESS:     539224 HIT:       4103 MISS:     535121
cpu0_L2C PREFETCH     ACCESS:          0 HIT:          0 MISS:          0
cpu0_L2C WRITE        ACCESS:     539629 HIT:     539613 MISS:         16
cpu0_L2C TRANSLATION  ACCESS:     110912 HIT:       1323 MISS:     109589
cpu0_L2C PREFETCH REQUESTED:          0 ISSUED:          0 USEFUL:          0 USELESS:          0
cpu0_L2C AVERAGE MISS LATENCY: 996.5 cycles
cpu0_STLB TOTAL        ACCESS:     156153 HIT:         47 MISS:     156106
cpu0_STLB LOAD         ACCESS:     156153 HIT:         47 MISS:     156106
cpu0_STLB RFO          ACCESS:          0 HIT:          0 MISS:          0
cpu0_STLB PREFETCH     ACCESS:          0 HIT:          0 MISS:          0
cpu0_STLB WRITE        ACCESS:          0 HIT:          0 MISS:          0
cpu0_STLB TRANSLATION  ACCESS:          0 HIT:          0 MISS:          0
cpu0_STLB PREFETCH REQUESTED:          0 ISSUED:          0 USEFUL:          0 USELESS:          0
cpu0_STLB AVERAGE MISS LATENCY: 1554 cycles

DRAM Statistics

Channel 0 RQ ROW_BUFFER_HIT:     138382
  ROW_BUFFER_MISS:     478224
 AVG DBUS CONGESTED CYCLE: 3.978
WQ ROW_BUFFER_HIT: Channel 0 
  ROW_BUFFER_MISS:     120095
  FULL:     399275
