WARNING: physical memory size is smaller than virtual memory size.

*** ChampSim Multicore Out-of-Order Simulator ***
Warmup Instructions: 50000000
Simulation Instructions: 600000000
Number of CPUs: 1
Page size: 4096

CPU 0 Tage branch predictor
Off-chip DRAM Size: 4 GiB Channels: 1 Width: 64-bit Data Race: 3200 MT/s
Heartbeat CPU 0 instructions: 10000000 cycles: 2500202 heartbeat IPC: 4 cumulative IPC: 4 (Simulation time: 00 hr 00 min 40 sec)
Heartbeat CPU 0 instructions: 20000000 cycles: 5000202 heartbeat IPC: 4 cumulative IPC: 4 (Simulation time: 00 hr 01 min 20 sec)
Heartbeat CPU 0 instructions: 30000000 cycles: 7500202 heartbeat IPC: 4 cumulative IPC: 4 (Simulation time: 00 hr 01 min 57 sec)
Heartbeat CPU 0 instructions: 40000000 cycles: 10000202 heartbeat IPC: 4 cumulative IPC: 4 (Simulation time: 00 hr 02 min 34 sec)
Heartbeat CPU 0 instructions: 50000000 cycles: 12500202 heartbeat IPC: 4 cumulative IPC: 4 (Simulation time: 00 hr 03 min 10 sec)
Warmup finished CPU 0 instructions: 50000000 cycles: 12500203 cumulative IPC: 4 (Simulation time: 00 hr 03 min 10 sec)
Warmup complete CPU 0 instructions: 50000000 cycles: 12500203 cumulative IPC: 4 (Simulation time: 00 hr 03 min 10 sec)
Heartbeat CPU 0 instructions: 60000002 cycles: 15594366 heartbeat IPC: 3.232 cumulative IPC: 3.232 (Simulation time: 00 hr 03 min 55 sec)
Heartbeat CPU 0 instructions: 70000002 cycles: 18096385 heartbeat IPC: 3.997 cumulative IPC: 3.574 (Simulation time: 00 hr 04 min 36 sec)
Heartbeat CPU 0 instructions: 80000003 cycles: 20596407 heartbeat IPC: 4 cumulative IPC: 3.705 (Simulation time: 00 hr 05 min 16 sec)
Heartbeat CPU 0 instructions: 90000004 cycles: 23096428 heartbeat IPC: 4 cumulative IPC: 3.775 (Simulation time: 00 hr 05 min 56 sec)
Heartbeat CPU 0 instructions: 100000003 cycles: 25598818 heartbeat IPC: 3.996 cumulative IPC: 3.817 (Simulation time: 00 hr 06 min 35 sec)
Heartbeat CPU 0 instructions: 110000000 cycles: 28100371 heartbeat IPC: 3.998 cumulative IPC: 3.846 (Simulation time: 00 hr 07 min 15 sec)
Heartbeat CPU 0 instructions: 120000000 cycles: 30600395 heartbeat IPC: 4 cumulative IPC: 3.867 (Simulation time: 00 hr 07 min 53 sec)
Heartbeat CPU 0 instructions: 130000000 cycles: 33100418 heartbeat IPC: 4 cumulative IPC: 3.883 (Simulation time: 00 hr 08 min 31 sec)
Heartbeat CPU 0 instructions: 140000001 cycles: 35600455 heartbeat IPC: 4 cumulative IPC: 3.896 (Simulation time: 00 hr 09 min 09 sec)
Heartbeat CPU 0 instructions: 150000003 cycles: 38100477 heartbeat IPC: 4 cumulative IPC: 3.906 (Simulation time: 00 hr 09 min 47 sec)
Heartbeat CPU 0 instructions: 160000004 cycles: 40604219 heartbeat IPC: 3.994 cumulative IPC: 3.914 (Simulation time: 00 hr 10 min 25 sec)
Heartbeat CPU 0 instructions: 170000001 cycles: 43104742 heartbeat IPC: 3.999 cumulative IPC: 3.921 (Simulation time: 00 hr 11 min 03 sec)
Heartbeat CPU 0 instructions: 180000001 cycles: 45604763 heartbeat IPC: 4 cumulative IPC: 3.927 (Simulation time: 00 hr 11 min 41 sec)
Heartbeat CPU 0 instructions: 190000002 cycles: 48106652 heartbeat IPC: 3.997 cumulative IPC: 3.932 (Simulation time: 00 hr 12 min 18 sec)
Heartbeat CPU 0 instructions: 200000001 cycles: 50606673 heartbeat IPC: 4 cumulative IPC: 3.936 (Simulation time: 00 hr 12 min 56 sec)
Heartbeat CPU 0 instructions: 210000000 cycles: 53109631 heartbeat IPC: 3.995 cumulative IPC: 3.94 (Simulation time: 00 hr 13 min 34 sec)
Heartbeat CPU 0 instructions: 220000001 cycles: 55609674 heartbeat IPC: 4 cumulative IPC: 3.943 (Simulation time: 00 hr 14 min 12 sec)
Heartbeat CPU 0 instructions: 230000002 cycles: 58109695 heartbeat IPC: 4 cumulative IPC: 3.947 (Simulation time: 00 hr 14 min 50 sec)
Heartbeat CPU 0 instructions: 240000004 cycles: 60609733 heartbeat IPC: 4 cumulative IPC: 3.949 (Simulation time: 00 hr 15 min 27 sec)
Heartbeat CPU 0 instructions: 250000000 cycles: 63111802 heartbeat IPC: 3.997 cumulative IPC: 3.952 (Simulation time: 00 hr 16 min 05 sec)
Heartbeat CPU 0 instructions: 260000000 cycles: 65612275 heartbeat IPC: 3.999 cumulative IPC: 3.954 (Simulation time: 00 hr 16 min 43 sec)
Heartbeat CPU 0 instructions: 270000002 cycles: 68112296 heartbeat IPC: 4 cumulative IPC: 3.956 (Simulation time: 00 hr 17 min 20 sec)
Heartbeat CPU 0 instructions: 280000003 cycles: 70612335 heartbeat IPC: 4 cumulative IPC: 3.958 (Simulation time: 00 hr 17 min 58 sec)
Heartbeat CPU 0 instructions: 290000000 cycles: 73112355 heartbeat IPC: 4 cumulative IPC: 3.96 (Simulation time: 00 hr 18 min 36 sec)
Heartbeat CPU 0 instructions: 300000000 cycles: 75614804 heartbeat IPC: 3.996 cumulative IPC: 3.961 (Simulation time: 00 hr 19 min 13 sec)
Heartbeat CPU 0 instructions: 310000002 cycles: 78114841 heartbeat IPC: 4 cumulative IPC: 3.963 (Simulation time: 00 hr 19 min 50 sec)
Heartbeat CPU 0 instructions: 320000004 cycles: 80614863 heartbeat IPC: 4 cumulative IPC: 3.964 (Simulation time: 00 hr 20 min 27 sec)
Heartbeat CPU 0 instructions: 330000000 cycles: 83114884 heartbeat IPC: 4 cumulative IPC: 3.965 (Simulation time: 00 hr 21 min 04 sec)
Heartbeat CPU 0 instructions: 340000002 cycles: 85615349 heartbeat IPC: 3.999 cumulative IPC: 3.966 (Simulation time: 00 hr 21 min 40 sec)
Heartbeat CPU 0 instructions: 350000002 cycles: 88115371 heartbeat IPC: 4 cumulative IPC: 3.967 (Simulation time: 00 hr 22 min 16 sec)
Heartbeat CPU 0 instructions: 360000000 cycles: 90618389 heartbeat IPC: 3.995 cumulative IPC: 3.968 (Simulation time: 00 hr 22 min 52 sec)
Heartbeat CPU 0 instructions: 370000004 cycles: 93118433 heartbeat IPC: 4 cumulative IPC: 3.969 (Simulation time: 00 hr 23 min 28 sec)
Heartbeat CPU 0 instructions: 380000000 cycles: 95618453 heartbeat IPC: 4 cumulative IPC: 3.97 (Simulation time: 00 hr 24 min 04 sec)
Heartbeat CPU 0 instructions: 390000000 cycles: 98118475 heartbeat IPC: 4 cumulative IPC: 3.971 (Simulation time: 00 hr 24 min 39 sec)
Heartbeat CPU 0 instructions: 400000000 cycles: 100621946 heartbeat IPC: 3.994 cumulative IPC: 3.972 (Simulation time: 00 hr 25 min 15 sec)
Heartbeat CPU 0 instructions: 410000000 cycles: 103122764 heartbeat IPC: 3.999 cumulative IPC: 3.973 (Simulation time: 00 hr 25 min 50 sec)
Heartbeat CPU 0 instructions: 420000001 cycles: 105622786 heartbeat IPC: 4 cumulative IPC: 3.973 (Simulation time: 00 hr 26 min 25 sec)
Heartbeat CPU 0 instructions: 430000003 cycles: 108122851 heartbeat IPC: 4 cumulative IPC: 3.974 (Simulation time: 00 hr 26 min 59 sec)
Heartbeat CPU 0 instructions: 440000003 cycles: 110622873 heartbeat IPC: 4 cumulative IPC: 3.975 (Simulation time: 00 hr 27 min 33 sec)
Heartbeat CPU 0 instructions: 450000000 cycles: 113125806 heartbeat IPC: 3.995 cumulative IPC: 3.975 (Simulation time: 00 hr 28 min 08 sec)
Heartbeat CPU 0 instructions: 460000002 cycles: 115625827 heartbeat IPC: 4 cumulative IPC: 3.976 (Simulation time: 00 hr 28 min 43 sec)
Heartbeat CPU 0 instructions: 470000002 cycles: 118125848 heartbeat IPC: 4 cumulative IPC: 3.976 (Simulation time: 00 hr 29 min 16 sec)
Heartbeat CPU 0 instructions: 480000002 cycles: 120625870 heartbeat IPC: 4 cumulative IPC: 3.977 (Simulation time: 00 hr 29 min 49 sec)
Heartbeat CPU 0 instructions: 490000000 cycles: 123126339 heartbeat IPC: 3.999 cumulative IPC: 3.977 (Simulation time: 00 hr 30 min 20 sec)
Heartbeat CPU 0 instructions: 500000002 cycles: 125628029 heartbeat IPC: 3.997 cumulative IPC: 3.978 (Simulation time: 00 hr 30 min 52 sec)
Heartbeat CPU 0 instructions: 510000003 cycles: 128128114 heartbeat IPC: 4 cumulative IPC: 3.978 (Simulation time: 00 hr 31 min 23 sec)
Heartbeat CPU 0 instructions: 520000004 cycles: 130628136 heartbeat IPC: 4 cumulative IPC: 3.979 (Simulation time: 00 hr 31 min 52 sec)
Heartbeat CPU 0 instructions: 530000000 cycles: 133128179 heartbeat IPC: 4 cumulative IPC: 3.979 (Simulation time: 00 hr 32 min 21 sec)
Heartbeat CPU 0 instructions: 540000001 cycles: 135630096 heartbeat IPC: 3.997 cumulative IPC: 3.98 (Simulation time: 00 hr 32 min 48 sec)
Heartbeat CPU 0 instructions: 550000002 cycles: 138130116 heartbeat IPC: 4 cumulative IPC: 3.98 (Simulation time: 00 hr 33 min 16 sec)
Heartbeat CPU 0 instructions: 560000003 cycles: 140632032 heartbeat IPC: 3.997 cumulative IPC: 3.98 (Simulation time: 00 hr 33 min 41 sec)
Heartbeat CPU 0 instructions: 570000004 cycles: 143132054 heartbeat IPC: 4 cumulative IPC: 3.981 (Simulation time: 00 hr 34 min 07 sec)
Heartbeat CPU 0 instructions: 580000000 cycles: 145632076 heartbeat IPC: 4 cumulative IPC: 3.981 (Simulation time: 00 hr 34 min 30 sec)
Heartbeat CPU 0 instructions: 590000002 cycles: 148132113 heartbeat IPC: 4 cumulative IPC: 3.981 (Simulation time: 00 hr 34 min 52 sec)
*** Reached end of trace: (0, "traces/convolution.champsimtrace")
Heartbeat CPU 0 instructions: 600000000 cycles: 150641068 heartbeat IPC: 3.986 cumulative IPC: 3.981 (Simulation time: 00 hr 35 min 14 sec)
Heartbeat CPU 0 instructions: 610000002 cycles: 179533675 heartbeat IPC: 0.3461 cumulative IPC: 3.353 (Simulation time: 00 hr 36 min 49 sec)
Heartbeat CPU 0 instructions: 620000001 cycles: 205830442 heartbeat IPC: 0.3803 cumulative IPC: 2.948 (Simulation time: 00 hr 38 min 07 sec)
Heartbeat CPU 0 instructions: 630000001 cycles: 216266526 heartbeat IPC: 0.9582 cumulative IPC: 2.846 (Simulation time: 00 hr 38 min 46 sec)
Heartbeat CPU 0 instructions: 640000004 cycles: 226714174 heartbeat IPC: 0.9572 cumulative IPC: 2.754 (Simulation time: 00 hr 39 min 25 sec)
Heartbeat CPU 0 instructions: 650000001 cycles: 237140623 heartbeat IPC: 0.9591 cumulative IPC: 2.671 (Simulation time: 00 hr 40 min 04 sec)
Simulation finished CPU 0 instructions: 600000001 cycles: 224640421 cumulative IPC: 2.671 (Simulation time: 00 hr 40 min 04 sec)
Simulation complete CPU 0 instructions: 600000001 cycles: 224640421 cumulative IPC: 2.671 (Simulation time: 00 hr 40 min 04 sec)

ChampSim completed all CPUs

=== Simulation ===
CPU 0 runs traces/convolution.champsimtrace
Region of Interest Statistics

CPU 0 cumulative IPC: 2.671 instructions: 600000001 cycles: 224640421
CPU 0 Branch Prediction Accuracy: 100% MPKI: 0.002858 Average ROB Occupancy at Mispredict: 79.62
Branch type MPKI
BRANCH_DIRECT_JUMP: 0.000107
BRANCH_INDIRECT: 4.17e-05
BRANCH_CONDITIONAL: 0.00258
BRANCH_DIRECT_CALL: 0.000103
BRANCH_INDIRECT_CALL: 8.33e-06
BRANCH_RETURN: 1.83e-05

LLC TOTAL        ACCESS:    1183250 HIT:     505552 MISS:     677698
LLC LOAD         ACCESS:       2886 HIT:          3 MISS:       2883
LLC RFO          ACCESS:     535121 HIT:         26 MISS:     535095
LLC PREFETCH     ACCESS:          0 HIT:          0 MISS:          0
LLC WRITE        ACCESS:     535174 HIT:     505043 MISS:      30131
LLC TRANSLATION  ACCESS:     110069 HIT:        480 MISS:     109589
LLC PREFETCH REQUESTED:          0 ISSUED:          0 USEFUL:          0 USELESS:          0
LLC AVERAGE MISS LATENCY: 1065 cycles
cpu0_DTLB TOTAL        ACCESS:  113109740 HIT:  112756544 MISS:     353196
cpu0_DTLB LOAD         ACCESS:  113109740 HIT:  112756544 MISS:     353196
cpu0_DTLB RFO          ACCESS:          0 HIT:          0 MISS:          0
cpu0_DTLB PREFETCH     ACCESS:          0 HIT:          0 MISS:          0
cpu0_DTLB WRITE        ACCESS:          0 HIT:          0 MISS:          0
cpu0_DTLB TRANSLATION  ACCESS:          0 HIT:          0 MISS:          0
cpu0_DTLB PREFETCH REQUESTED:          0 ISSUED:          0 USEFUL:          0 USELESS:          0
cpu0_DTLB AVERAGE MISS LATENCY: 750.9 cycles
cpu0_ITLB TOTAL        ACCESS:       2122 HIT:       2087 MISS:         35
cpu0_ITLB LOAD         ACCESS:       2122 HIT:       2087 MISS:         35
cpu0_ITLB RFO          ACCESS:          0 HIT:          0 MISS:          0
cpu0_ITLB PREFETCH     ACCESS:          0 HIT:          0 MISS:          0
cpu0_ITLB WRITE        ACCESS:          0 HIT:          0 MISS:          0
cpu0_ITLB TRANSLATION  ACCESS:          0 HIT:          0 MISS:          0
cpu0_ITLB PREFETCH REQUESTED:          0 ISSUED:          0 USEFUL:          0 USELESS:          0
cpu0_ITLB AVERAGE MISS LATENCY: 775.9 cycles
cpu0_L1D TOTAL        ACCESS:  146346517 HIT:  140120521 MISS:    6225996
cpu0_L1D LOAD         ACCESS:   74194626 HIT:   74186839 MISS:       7787
cpu0_L1D RFO          ACCESS:          0 HIT:          0 MISS:          0
cpu0_L1D PREFETCH     ACCESS:          0 HIT:          0 MISS:          0
cpu0_L1D WRITE        ACCESS:   71971003 HIT:   65895260 MISS:    6075743
cpu0_L1D TRANSLATION  ACCESS:     180888 HIT:      38422 MISS:     142466
cpu0_L1D PREFETCH REQUESTED:          0 ISSUED:          0 USEFUL:          0 USELESS:          0
cpu0_L1D AVERAGE MISS LATENCY: 91.39 cycles
cpu0_L1I TOTAL        ACCESS:       2476 HIT:        983 MISS:       1493
cpu0_L1I LOAD         ACCESS:       2476 HIT:        983 MISS:       1493
cpu0_L1I RFO          ACCESS:          0 HIT:          0 MISS:          0
cpu0_L1I PREFETCH     ACCESS:          0 HIT:          0 MISS:          0
cpu0_L1I WRITE        ACCESS:          0 HIT:          0 MISS:          0
cpu0_L1I TRANSLATION  ACCESS:          0 HIT:          0 MISS:          0
cpu0_L1I PREFETCH REQUESTED:          0 ISSUED:          0 USEFUL:          0 USELESS:          0
cpu0_L1I AVERAGE MISS LATENCY: 632.3 cycles
cpu0_L2C TOTAL        ACCESS:    1193683 HIT:     545590 MISS:     648093
cpu0_L2C LOAD         ACCESS:       3311 HIT:        425 MISS:       2886
cpu0_L2C RFO          ACCESS:     539289 HIT:       4167 MISS:     535122
cpu0_L2C PREFETCH     ACCESS:          0 HIT:          0 MISS:          0
cpu0_L2C WRITE        ACCESS:     539646 HIT:     539631 MISS:         15
cpu0_L2C TRANSLATION  ACCESS:     111437 HIT:       1367 MISS:     110070
cpu0_L2C PREFETCH REQUESTED:          0 ISSUED:          0 USEFUL:          0 USELESS:          0
cpu0_L2C AVERAGE MISS LATENCY: 1135 cycles
cpu0_STLB TOTAL        ACCESS:     156159 HIT:         50 MISS:     156109
cpu0_STLB LOAD         ACCESS:     156159 HIT:         50 MISS:     156109
cpu0_STLB RFO          ACCESS:          0 HIT:          0 MISS:          0
cpu0_STLB PREFETCH     ACCESS:          0 HIT:          0 MISS:          0
cpu0_STLB WRITE        ACCESS:          0 HIT:          0 MISS:          0
cpu0_STLB TRANSLATION  ACCESS:          0 HIT:          0 MISS:          0
cpu0_STLB PREFETCH REQUESTED:          0 ISSUED:          0 USEFUL:          0 USELESS:          0
cpu0_STLB AVERAGE MISS LATENCY: 1893 cycles

DRAM Statistics

Channel 0 RQ ROW_BUFFER_HIT:     140344
  ROW_BUFFER_MISS:     507219
 AVG DBUS CONGESTED CYCLE: 3.985
WQ ROW_BUFFER_HIT: Channel 0 
  ROW_BUFFER_MISS:      28534
  FULL:     506560
