WARNING: physical memory size is smaller than virtual memory size.

*** ChampSim Multicore Out-of-Order Simulator ***
Warmup Instructions: 50000000
Simulation Instructions: 600000000
Number of CPUs: 1
Page size: 4096

Off-chip DRAM Size: 4 GiB Channels: 1 Width: 64-bit Data Race: 3200 MT/s
Heartbeat CPU 0 instructions: 10000000 cycles: 2500202 heartbeat IPC: 4 cumulative IPC: 4 (Simulation time: 00 hr 00 min 28 sec)
Heartbeat CPU 0 instructions: 20000000 cycles: 5000202 heartbeat IPC: 4 cumulative IPC: 4 (Simulation time: 00 hr 00 min 58 sec)
Heartbeat CPU 0 instructions: 30000000 cycles: 7500202 heartbeat IPC: 4 cumulative IPC: 4 (Simulation time: 00 hr 01 min 29 sec)
Heartbeat CPU 0 instructions: 40000000 cycles: 10000202 heartbeat IPC: 4 cumulative IPC: 4 (Simulation time: 00 hr 01 min 59 sec)
Heartbeat CPU 0 instructions: 50000000 cycles: 12500202 heartbeat IPC: 4 cumulative IPC: 4 (Simulation time: 00 hr 02 min 34 sec)
Warmup finished CPU 0 instructions: 50000000 cycles: 12500203 cumulative IPC: 4 (Simulation time: 00 hr 02 min 34 sec)
Warmup complete CPU 0 instructions: 50000000 cycles: 12500203 cumulative IPC: 4 (Simulation time: 00 hr 02 min 34 sec)
Heartbeat CPU 0 instructions: 60000002 cycles: 15716833 heartbeat IPC: 3.109 cumulative IPC: 3.109 (Simulation time: 00 hr 03 min 15 sec)
Heartbeat CPU 0 instructions: 70000002 cycles: 18370594 heartbeat IPC: 3.768 cumulative IPC: 3.407 (Simulation time: 00 hr 03 min 51 sec)
Heartbeat CPU 0 instructions: 80000003 cycles: 21022816 heartbeat IPC: 3.77 cumulative IPC: 3.52 (Simulation time: 00 hr 04 min 30 sec)
Heartbeat CPU 0 instructions: 90000004 cycles: 23675015 heartbeat IPC: 3.77 cumulative IPC: 3.579 (Simulation time: 00 hr 05 min 10 sec)
Heartbeat CPU 0 instructions: 100000003 cycles: 26329213 heartbeat IPC: 3.768 cumulative IPC: 3.616 (Simulation time: 00 hr 05 min 47 sec)
Heartbeat CPU 0 instructions: 110000000 cycles: 28981621 heartbeat IPC: 3.77 cumulative IPC: 3.64 (Simulation time: 00 hr 06 min 24 sec)
Heartbeat CPU 0 instructions: 120000000 cycles: 31633622 heartbeat IPC: 3.771 cumulative IPC: 3.659 (Simulation time: 00 hr 07 min 02 sec)
Heartbeat CPU 0 instructions: 130000000 cycles: 34285867 heartbeat IPC: 3.77 cumulative IPC: 3.672 (Simulation time: 00 hr 07 min 37 sec)
Heartbeat CPU 0 instructions: 140000001 cycles: 36938055 heartbeat IPC: 3.77 cumulative IPC: 3.683 (Simulation time: 00 hr 08 min 14 sec)
Heartbeat CPU 0 instructions: 150000003 cycles: 39590284 heartbeat IPC: 3.77 cumulative IPC: 3.691 (Simulation time: 00 hr 08 min 50 sec)
Heartbeat CPU 0 instructions: 160000003 cycles: 42244352 heartbeat IPC: 3.768 cumulative IPC: 3.698 (Simulation time: 00 hr 09 min 25 sec)
Heartbeat CPU 0 instructions: 170000001 cycles: 44896789 heartbeat IPC: 3.77 cumulative IPC: 3.704 (Simulation time: 00 hr 10 min 00 sec)
Heartbeat CPU 0 instructions: 180000001 cycles: 47548958 heartbeat IPC: 3.77 cumulative IPC: 3.709 (Simulation time: 00 hr 10 min 34 sec)
Heartbeat CPU 0 instructions: 190000002 cycles: 50201968 heartbeat IPC: 3.769 cumulative IPC: 3.713 (Simulation time: 00 hr 11 min 10 sec)
Heartbeat CPU 0 instructions: 200000001 cycles: 52854188 heartbeat IPC: 3.77 cumulative IPC: 3.717 (Simulation time: 00 hr 11 min 45 sec)
Heartbeat CPU 0 instructions: 210000000 cycles: 55509865 heartbeat IPC: 3.766 cumulative IPC: 3.72 (Simulation time: 00 hr 12 min 20 sec)
Heartbeat CPU 0 instructions: 220000001 cycles: 58161891 heartbeat IPC: 3.771 cumulative IPC: 3.723 (Simulation time: 00 hr 12 min 55 sec)
Heartbeat CPU 0 instructions: 230000002 cycles: 60814107 heartbeat IPC: 3.77 cumulative IPC: 3.726 (Simulation time: 00 hr 13 min 30 sec)
Heartbeat CPU 0 instructions: 240000004 cycles: 63466391 heartbeat IPC: 3.77 cumulative IPC: 3.728 (Simulation time: 00 hr 14 min 05 sec)
Heartbeat CPU 0 instructions: 250000000 cycles: 66121336 heartbeat IPC: 3.767 cumulative IPC: 3.73 (Simulation time: 00 hr 14 min 40 sec)
Heartbeat CPU 0 instructions: 260000000 cycles: 68773675 heartbeat IPC: 3.77 cumulative IPC: 3.732 (Simulation time: 00 hr 15 min 15 sec)
Heartbeat CPU 0 instructions: 270000002 cycles: 71425682 heartbeat IPC: 3.771 cumulative IPC: 3.734 (Simulation time: 00 hr 15 min 50 sec)
Heartbeat CPU 0 instructions: 280000003 cycles: 74077926 heartbeat IPC: 3.77 cumulative IPC: 3.735 (Simulation time: 00 hr 16 min 25 sec)
Heartbeat CPU 0 instructions: 290000002 cycles: 76730203 heartbeat IPC: 3.77 cumulative IPC: 3.737 (Simulation time: 00 hr 16 min 59 sec)
Heartbeat CPU 0 instructions: 300000000 cycles: 79385307 heartbeat IPC: 3.766 cumulative IPC: 3.738 (Simulation time: 00 hr 17 min 35 sec)
Heartbeat CPU 0 instructions: 310000002 cycles: 82037309 heartbeat IPC: 3.771 cumulative IPC: 3.739 (Simulation time: 00 hr 18 min 11 sec)
Heartbeat CPU 0 instructions: 320000004 cycles: 84689350 heartbeat IPC: 3.771 cumulative IPC: 3.74 (Simulation time: 00 hr 18 min 47 sec)
Heartbeat CPU 0 instructions: 330000000 cycles: 87341539 heartbeat IPC: 3.77 cumulative IPC: 3.741 (Simulation time: 00 hr 19 min 22 sec)
Heartbeat CPU 0 instructions: 340000002 cycles: 89994261 heartbeat IPC: 3.77 cumulative IPC: 3.742 (Simulation time: 00 hr 19 min 57 sec)
Heartbeat CPU 0 instructions: 350000002 cycles: 92646377 heartbeat IPC: 3.771 cumulative IPC: 3.743 (Simulation time: 00 hr 20 min 36 sec)
Heartbeat CPU 0 instructions: 360000001 cycles: 95301200 heartbeat IPC: 3.767 cumulative IPC: 3.744 (Simulation time: 00 hr 21 min 12 sec)
Heartbeat CPU 0 instructions: 370000004 cycles: 97953177 heartbeat IPC: 3.771 cumulative IPC: 3.745 (Simulation time: 00 hr 21 min 48 sec)
Heartbeat CPU 0 instructions: 380000000 cycles: 100605354 heartbeat IPC: 3.77 cumulative IPC: 3.746 (Simulation time: 00 hr 22 min 26 sec)
Heartbeat CPU 0 instructions: 390000003 cycles: 103257701 heartbeat IPC: 3.77 cumulative IPC: 3.746 (Simulation time: 00 hr 23 min 01 sec)
Heartbeat CPU 0 instructions: 400000000 cycles: 105913065 heartbeat IPC: 3.766 cumulative IPC: 3.747 (Simulation time: 00 hr 23 min 36 sec)
Heartbeat CPU 0 instructions: 410000000 cycles: 108565402 heartbeat IPC: 3.77 cumulative IPC: 3.747 (Simulation time: 00 hr 24 min 12 sec)
Heartbeat CPU 0 instructions: 420000001 cycles: 111217488 heartbeat IPC: 3.771 cumulative IPC: 3.748 (Simulation time: 00 hr 24 min 47 sec)
Heartbeat CPU 0 instructions: 430000003 cycles: 113869809 heartbeat IPC: 3.77 cumulative IPC: 3.749 (Simulation time: 00 hr 25 min 21 sec)
Heartbeat CPU 0 instructions: 440000003 cycles: 116522151 heartbeat IPC: 3.77 cumulative IPC: 3.749 (Simulation time: 00 hr 25 min 56 sec)
Heartbeat CPU 0 instructions: 450000004 cycles: 119177459 heartbeat IPC: 3.766 cumulative IPC: 3.75 (Simulation time: 00 hr 26 min 32 sec)
Heartbeat CPU 0 instructions: 460000001 cycles: 121829473 heartbeat IPC: 3.771 cumulative IPC: 3.75 (Simulation time: 00 hr 27 min 08 sec)
Heartbeat CPU 0 instructions: 470000002 cycles: 124481572 heartbeat IPC: 3.771 cumulative IPC: 3.751 (Simulation time: 00 hr 27 min 44 sec)
Heartbeat CPU 0 instructions: 480000001 cycles: 127133923 heartbeat IPC: 3.77 cumulative IPC: 3.751 (Simulation time: 00 hr 28 min 21 sec)
Heartbeat CPU 0 instructions: 490000000 cycles: 129786613 heartbeat IPC: 3.77 cumulative IPC: 3.752 (Simulation time: 00 hr 28 min 59 sec)
Heartbeat CPU 0 instructions: 500000002 cycles: 132440983 heartbeat IPC: 3.767 cumulative IPC: 3.752 (Simulation time: 00 hr 29 min 35 sec)
Heartbeat CPU 0 instructions: 510000003 cycles: 135092992 heartbeat IPC: 3.771 cumulative IPC: 3.752 (Simulation time: 00 hr 30 min 11 sec)
Heartbeat CPU 0 instructions: 520000004 cycles: 137745124 heartbeat IPC: 3.771 cumulative IPC: 3.753 (Simulation time: 00 hr 30 min 46 sec)
Heartbeat CPU 0 instructions: 530000000 cycles: 140397434 heartbeat IPC: 3.77 cumulative IPC: 3.753 (Simulation time: 00 hr 31 min 21 sec)
Heartbeat CPU 0 instructions: 540000000 cycles: 143052486 heartbeat IPC: 3.766 cumulative IPC: 3.753 (Simulation time: 00 hr 31 min 57 sec)
Heartbeat CPU 0 instructions: 550000003 cycles: 145704597 heartbeat IPC: 3.771 cumulative IPC: 3.754 (Simulation time: 00 hr 32 min 32 sec)
Heartbeat CPU 0 instructions: 560000003 cycles: 148357062 heartbeat IPC: 3.77 cumulative IPC: 3.754 (Simulation time: 00 hr 33 min 07 sec)
Heartbeat CPU 0 instructions: 570000004 cycles: 151009048 heartbeat IPC: 3.771 cumulative IPC: 3.754 (Simulation time: 00 hr 33 min 43 sec)
Heartbeat CPU 0 instructions: 580000000 cycles: 153661343 heartbeat IPC: 3.77 cumulative IPC: 3.755 (Simulation time: 00 hr 34 min 18 sec)
Heartbeat CPU 0 instructions: 590000002 cycles: 156313614 heartbeat IPC: 3.77 cumulative IPC: 3.755 (Simulation time: 00 hr 34 min 53 sec)
*** Reached end of trace: (0, "traces/convolution.champsimtrace")
Heartbeat CPU 0 instructions: 600000000 cycles: 158974916 heartbeat IPC: 3.758 cumulative IPC: 3.755 (Simulation time: 00 hr 35 min 29 sec)
Heartbeat CPU 0 instructions: 610000002 cycles: 182966050 heartbeat IPC: 0.4168 cumulative IPC: 3.285 (Simulation time: 00 hr 38 min 45 sec)
Heartbeat CPU 0 instructions: 620000001 cycles: 203922438 heartbeat IPC: 0.4772 cumulative IPC: 2.978 (Simulation time: 00 hr 41 min 42 sec)
Heartbeat CPU 0 instructions: 630000001 cycles: 215064603 heartbeat IPC: 0.8975 cumulative IPC: 2.863 (Simulation time: 00 hr 43 min 29 sec)
Heartbeat CPU 0 instructions: 640000004 cycles: 225542781 heartbeat IPC: 0.9544 cumulative IPC: 2.769 (Simulation time: 00 hr 45 min 05 sec)
Heartbeat CPU 0 instructions: 650000001 cycles: 235963752 heartbeat IPC: 0.9596 cumulative IPC: 2.685 (Simulation time: 00 hr 46 min 48 sec)
Simulation finished CPU 0 instructions: 600000001 cycles: 223463550 cumulative IPC: 2.685 (Simulation time: 00 hr 46 min 48 sec)
Simulation complete CPU 0 instructions: 600000001 cycles: 223463550 cumulative IPC: 2.685 (Simulation time: 00 hr 46 min 48 sec)

ChampSim completed all CPUs

=== Simulation ===
CPU 0 runs traces/convolution.champsimtrace
Region of Interest Statistics

CPU 0 cumulative IPC: 2.685 instructions: 600000001 cycles: 223463550
CPU 0 Branch Prediction Accuracy: 99.47% MPKI: 0.9507 Average ROB Occupancy at Mispredict: 68.95
Branch type MPKI
BRANCH_DIRECT_JUMP: 0.000107
BRANCH_INDIRECT: 4.17e-05
BRANCH_CONDITIONAL: 0.95
BRANCH_DIRECT_CALL: 0.000103
BRANCH_INDIRECT_CALL: 8.33e-06
BRANCH_RETURN: 1.83e-05

LLC TOTAL        ACCESS:    1183163 HIT:     535723 MISS:     647440
LLC LOAD         ACCESS:       2887 HIT:          3 MISS:       2884
LLC RFO          ACCESS:     535120 HIT:         19 MISS:     535101
LLC PREFETCH     ACCESS:          0 HIT:          0 MISS:          0
LLC WRITE        ACCESS:     535175 HIT:     535152 MISS:         23
LLC TRANSLATION  ACCESS:     109981 HIT:        549 MISS:     109432
LLC PREFETCH REQUESTED:          0 ISSUED:          0 USEFUL:          0 USELESS:          0
LLC AVERAGE MISS LATENCY: 982.9 cycles
cpu0_DTLB TOTAL        ACCESS:  120043313 HIT:  119689808 MISS:     353505
cpu0_DTLB LOAD         ACCESS:  120043313 HIT:  119689808 MISS:     353505
cpu0_DTLB RFO          ACCESS:          0 HIT:          0 MISS:          0
cpu0_DTLB PREFETCH     ACCESS:          0 HIT:          0 MISS:          0
cpu0_DTLB WRITE        ACCESS:          0 HIT:          0 MISS:          0
cpu0_DTLB TRANSLATION  ACCESS:          0 HIT:          0 MISS:          0
cpu0_DTLB PREFETCH REQUESTED:          0 ISSUED:          0 USEFUL:          0 USELESS:          0
cpu0_DTLB AVERAGE MISS LATENCY: 639 cycles
cpu0_ITLB TOTAL        ACCESS:       2020 HIT:       1988 MISS:         32
cpu0_ITLB LOAD         ACCESS:       2020 HIT:       1988 MISS:         32
cpu0_ITLB RFO          ACCESS:          0 HIT:          0 MISS:          0
cpu0_ITLB PREFETCH     ACCESS:          0 HIT:          0 MISS:          0
cpu0_ITLB WRITE        ACCESS:          0 HIT:          0 MISS:          0
cpu0_ITLB TRANSLATION  ACCESS:          0 HIT:          0 MISS:          0
cpu0_ITLB PREFETCH REQUESTED:          0 ISSUED:          0 USEFUL:          0 USELESS:          0
cpu0_ITLB AVERAGE MISS LATENCY: 781.3 cycles
cpu0_L1D TOTAL        ACCESS:  161173941 HIT:  155001698 MISS:    6172243
cpu0_L1D LOAD         ACCESS:   88956949 HIT:   88951032 MISS:       5917
cpu0_L1D RFO          ACCESS:          0 HIT:          0 MISS:          0
cpu0_L1D PREFETCH     ACCESS:          0 HIT:          0 MISS:          0
cpu0_L1D WRITE        ACCESS:   72036166 HIT:   66012449 MISS:    6023717
cpu0_L1D TRANSLATION  ACCESS:     180826 HIT:      38217 MISS:     142609
cpu0_L1D PREFETCH REQUESTED:          0 ISSUED:          0 USEFUL:          0 USELESS:          0
cpu0_L1D AVERAGE MISS LATENCY: 78.62 cycles
cpu0_L1I TOTAL        ACCESS:       2317 HIT:       1005 MISS:       1312
cpu0_L1I LOAD         ACCESS:       2317 HIT:       1005 MISS:       1312
cpu0_L1I RFO          ACCESS:          0 HIT:          0 MISS:          0
cpu0_L1I PREFETCH     ACCESS:          0 HIT:          0 MISS:          0
cpu0_L1I WRITE        ACCESS:          0 HIT:          0 MISS:          0
cpu0_L1I TRANSLATION  ACCESS:          0 HIT:          0 MISS:          0
cpu0_L1I PREFETCH REQUESTED:          0 ISSUED:          0 USEFUL:          0 USELESS:          0
cpu0_L1I AVERAGE MISS LATENCY: 672.2 cycles
cpu0_L2C TOTAL        ACCESS:    1190979 HIT:     542971 MISS:     648008
cpu0_L2C LOAD         ACCESS:       3313 HIT:        426 MISS:       2887
cpu0_L2C RFO          ACCESS:     538104 HIT:       2983 MISS:     535121
cpu0_L2C PREFETCH     ACCESS:          0 HIT:          0 MISS:          0
cpu0_L2C WRITE        ACCESS:     538234 HIT:     538216 MISS:         18
cpu0_L2C TRANSLATION  ACCESS:     111328 HIT:       1346 MISS:     109982
cpu0_L2C PREFETCH REQUESTED:          0 ISSUED:          0 USEFUL:          0 USELESS:          0
cpu0_L2C AVERAGE MISS LATENCY: 1003 cycles
cpu0_STLB TOTAL        ACCESS:     156147 HIT:         42 MISS:     156105
cpu0_STLB LOAD         ACCESS:     156147 HIT:         42 MISS:     156105
cpu0_STLB RFO          ACCESS:          0 HIT:          0 MISS:          0
cpu0_STLB PREFETCH     ACCESS:          0 HIT:          0 MISS:          0
cpu0_STLB WRITE        ACCESS:          0 HIT:          0 MISS:          0
cpu0_STLB TRANSLATION  ACCESS:          0 HIT:          0 MISS:          0
cpu0_STLB PREFETCH REQUESTED:          0 ISSUED:          0 USEFUL:          0 USELESS:          0
cpu0_STLB AVERAGE MISS LATENCY: 1646 cycles

DRAM Statistics

Channel 0 RQ ROW_BUFFER_HIT:     140809
  ROW_BUFFER_MISS:     506604
 AVG DBUS CONGESTED CYCLE: 3.978
WQ ROW_BUFFER_HIT: Channel 0 
  ROW_BUFFER_MISS:     105280
  FULL:     429840
