WARNING: physical memory size is smaller than virtual memory size.

*** ChampSim Multicore Out-of-Order Simulator ***
Warmup Instructions: 50000000
Simulation Instructions: 600000000
Number of CPUs: 1
Page size: 4096

Off-chip DRAM Size: 4 GiB Channels: 1 Width: 64-bit Data Race: 3200 MT/s
Heartbeat CPU 0 instructions: 10000000 cycles: 2500202 heartbeat IPC: 4 cumulative IPC: 4 (Simulation time: 00 hr 00 min 20 sec)
Heartbeat CPU 0 instructions: 20000000 cycles: 5000202 heartbeat IPC: 4 cumulative IPC: 4 (Simulation time: 00 hr 00 min 41 sec)
Heartbeat CPU 0 instructions: 30000000 cycles: 7500202 heartbeat IPC: 4 cumulative IPC: 4 (Simulation time: 00 hr 01 min 04 sec)
Heartbeat CPU 0 instructions: 40000000 cycles: 10000202 heartbeat IPC: 4 cumulative IPC: 4 (Simulation time: 00 hr 01 min 28 sec)
Heartbeat CPU 0 instructions: 50000000 cycles: 12500202 heartbeat IPC: 4 cumulative IPC: 4 (Simulation time: 00 hr 01 min 53 sec)
Warmup finished CPU 0 instructions: 50000000 cycles: 12500203 cumulative IPC: 4 (Simulation time: 00 hr 01 min 53 sec)
Warmup complete CPU 0 instructions: 50000000 cycles: 12500203 cumulative IPC: 4 (Simulation time: 00 hr 01 min 53 sec)
Heartbeat CPU 0 instructions: 60000002 cycles: 15762424 heartbeat IPC: 3.065 cumulative IPC: 3.065 (Simulation time: 00 hr 02 min 24 sec)
Heartbeat CPU 0 instructions: 70000002 cycles: 18467702 heartbeat IPC: 3.696 cumulative IPC: 3.351 (Simulation time: 00 hr 02 min 55 sec)
Heartbeat CPU 0 instructions: 80000003 cycles: 21171299 heartbeat IPC: 3.699 cumulative IPC: 3.46 (Simulation time: 00 hr 03 min 26 sec)
Heartbeat CPU 0 instructions: 90000004 cycles: 23874862 heartbeat IPC: 3.699 cumulative IPC: 3.517 (Simulation time: 00 hr 03 min 59 sec)
Heartbeat CPU 0 instructions: 100000003 cycles: 26580064 heartbeat IPC: 3.697 cumulative IPC: 3.551 (Simulation time: 00 hr 04 min 33 sec)
Heartbeat CPU 0 instructions: 110000000 cycles: 29284871 heartbeat IPC: 3.697 cumulative IPC: 3.575 (Simulation time: 00 hr 05 min 07 sec)
Heartbeat CPU 0 instructions: 120000000 cycles: 31988225 heartbeat IPC: 3.699 cumulative IPC: 3.592 (Simulation time: 00 hr 05 min 50 sec)
Heartbeat CPU 0 instructions: 130000000 cycles: 34691846 heartbeat IPC: 3.699 cumulative IPC: 3.605 (Simulation time: 00 hr 06 min 27 sec)
Heartbeat CPU 0 instructions: 140000001 cycles: 37395395 heartbeat IPC: 3.699 cumulative IPC: 3.615 (Simulation time: 00 hr 07 min 09 sec)
Heartbeat CPU 0 instructions: 150000003 cycles: 40098979 heartbeat IPC: 3.699 cumulative IPC: 3.623 (Simulation time: 00 hr 07 min 49 sec)
Heartbeat CPU 0 instructions: 160000003 cycles: 42804651 heartbeat IPC: 3.696 cumulative IPC: 3.63 (Simulation time: 00 hr 08 min 30 sec)
Heartbeat CPU 0 instructions: 170000001 cycles: 45508408 heartbeat IPC: 3.699 cumulative IPC: 3.635 (Simulation time: 00 hr 09 min 05 sec)
Heartbeat CPU 0 instructions: 180000001 cycles: 48211981 heartbeat IPC: 3.699 cumulative IPC: 3.64 (Simulation time: 00 hr 09 min 41 sec)
Heartbeat CPU 0 instructions: 190000002 cycles: 50916340 heartbeat IPC: 3.698 cumulative IPC: 3.644 (Simulation time: 00 hr 10 min 20 sec)
Heartbeat CPU 0 instructions: 200000001 cycles: 53619926 heartbeat IPC: 3.699 cumulative IPC: 3.648 (Simulation time: 00 hr 10 min 56 sec)
Heartbeat CPU 0 instructions: 210000000 cycles: 56326451 heartbeat IPC: 3.695 cumulative IPC: 3.651 (Simulation time: 00 hr 11 min 32 sec)
Heartbeat CPU 0 instructions: 220000001 cycles: 59029808 heartbeat IPC: 3.699 cumulative IPC: 3.654 (Simulation time: 00 hr 12 min 08 sec)
Heartbeat CPU 0 instructions: 230000002 cycles: 61733430 heartbeat IPC: 3.699 cumulative IPC: 3.656 (Simulation time: 00 hr 12 min 43 sec)
Heartbeat CPU 0 instructions: 240000004 cycles: 64437063 heartbeat IPC: 3.699 cumulative IPC: 3.658 (Simulation time: 00 hr 13 min 20 sec)
Heartbeat CPU 0 instructions: 250000000 cycles: 67142458 heartbeat IPC: 3.696 cumulative IPC: 3.66 (Simulation time: 00 hr 13 min 55 sec)
Heartbeat CPU 0 instructions: 260000000 cycles: 69846980 heartbeat IPC: 3.698 cumulative IPC: 3.662 (Simulation time: 00 hr 14 min 31 sec)
Heartbeat CPU 0 instructions: 270000002 cycles: 72550343 heartbeat IPC: 3.699 cumulative IPC: 3.664 (Simulation time: 00 hr 15 min 07 sec)
Heartbeat CPU 0 instructions: 280000003 cycles: 75253968 heartbeat IPC: 3.699 cumulative IPC: 3.665 (Simulation time: 00 hr 15 min 42 sec)
Heartbeat CPU 0 instructions: 290000003 cycles: 77957623 heartbeat IPC: 3.699 cumulative IPC: 3.667 (Simulation time: 00 hr 16 min 17 sec)
Heartbeat CPU 0 instructions: 300000000 cycles: 80664309 heartbeat IPC: 3.695 cumulative IPC: 3.668 (Simulation time: 00 hr 16 min 53 sec)
Heartbeat CPU 0 instructions: 310000002 cycles: 83367556 heartbeat IPC: 3.699 cumulative IPC: 3.669 (Simulation time: 00 hr 17 min 28 sec)
Heartbeat CPU 0 instructions: 320000004 cycles: 86070933 heartbeat IPC: 3.699 cumulative IPC: 3.67 (Simulation time: 00 hr 18 min 04 sec)
Heartbeat CPU 0 instructions: 330000000 cycles: 88774543 heartbeat IPC: 3.699 cumulative IPC: 3.671 (Simulation time: 00 hr 18 min 40 sec)
Heartbeat CPU 0 instructions: 340000002 cycles: 91478637 heartbeat IPC: 3.698 cumulative IPC: 3.672 (Simulation time: 00 hr 19 min 15 sec)
Heartbeat CPU 0 instructions: 350000002 cycles: 94182082 heartbeat IPC: 3.699 cumulative IPC: 3.673 (Simulation time: 00 hr 19 min 50 sec)
Heartbeat CPU 0 instructions: 360000001 cycles: 96888281 heartbeat IPC: 3.695 cumulative IPC: 3.674 (Simulation time: 00 hr 20 min 28 sec)
Heartbeat CPU 0 instructions: 370000004 cycles: 99591630 heartbeat IPC: 3.699 cumulative IPC: 3.674 (Simulation time: 00 hr 21 min 09 sec)
Heartbeat CPU 0 instructions: 380000000 cycles: 102295198 heartbeat IPC: 3.699 cumulative IPC: 3.675 (Simulation time: 00 hr 21 min 47 sec)
Heartbeat CPU 0 instructions: 390000004 cycles: 104998918 heartbeat IPC: 3.699 cumulative IPC: 3.676 (Simulation time: 00 hr 22 min 22 sec)
Heartbeat CPU 0 instructions: 400000000 cycles: 107705520 heartbeat IPC: 3.695 cumulative IPC: 3.676 (Simulation time: 00 hr 22 min 57 sec)
Heartbeat CPU 0 instructions: 410000000 cycles: 110409178 heartbeat IPC: 3.699 cumulative IPC: 3.677 (Simulation time: 00 hr 23 min 33 sec)
Heartbeat CPU 0 instructions: 420000001 cycles: 113112624 heartbeat IPC: 3.699 cumulative IPC: 3.677 (Simulation time: 00 hr 24 min 11 sec)
Heartbeat CPU 0 instructions: 430000003 cycles: 115816332 heartbeat IPC: 3.699 cumulative IPC: 3.678 (Simulation time: 00 hr 24 min 48 sec)
Heartbeat CPU 0 instructions: 440000003 cycles: 118520025 heartbeat IPC: 3.699 cumulative IPC: 3.679 (Simulation time: 00 hr 25 min 25 sec)
Heartbeat CPU 0 instructions: 450000004 cycles: 121225943 heartbeat IPC: 3.696 cumulative IPC: 3.679 (Simulation time: 00 hr 26 min 04 sec)
Heartbeat CPU 0 instructions: 460000001 cycles: 123929300 heartbeat IPC: 3.699 cumulative IPC: 3.679 (Simulation time: 00 hr 26 min 41 sec)
Heartbeat CPU 0 instructions: 470000002 cycles: 126632776 heartbeat IPC: 3.699 cumulative IPC: 3.68 (Simulation time: 00 hr 27 min 18 sec)
Heartbeat CPU 0 instructions: 480000001 cycles: 129336525 heartbeat IPC: 3.699 cumulative IPC: 3.68 (Simulation time: 00 hr 27 min 53 sec)
Heartbeat CPU 0 instructions: 490000000 cycles: 132041670 heartbeat IPC: 3.697 cumulative IPC: 3.681 (Simulation time: 00 hr 28 min 28 sec)
Heartbeat CPU 0 instructions: 500000002 cycles: 134747597 heartbeat IPC: 3.696 cumulative IPC: 3.681 (Simulation time: 00 hr 29 min 04 sec)
Heartbeat CPU 0 instructions: 510000003 cycles: 137450922 heartbeat IPC: 3.699 cumulative IPC: 3.681 (Simulation time: 00 hr 29 min 39 sec)
Heartbeat CPU 0 instructions: 520000004 cycles: 140154394 heartbeat IPC: 3.699 cumulative IPC: 3.682 (Simulation time: 00 hr 30 min 15 sec)
Heartbeat CPU 0 instructions: 530000000 cycles: 142858051 heartbeat IPC: 3.699 cumulative IPC: 3.682 (Simulation time: 00 hr 30 min 50 sec)
Heartbeat CPU 0 instructions: 540000000 cycles: 145563973 heartbeat IPC: 3.696 cumulative IPC: 3.682 (Simulation time: 00 hr 31 min 26 sec)
Heartbeat CPU 0 instructions: 550000003 cycles: 148267357 heartbeat IPC: 3.699 cumulative IPC: 3.683 (Simulation time: 00 hr 32 min 02 sec)
Heartbeat CPU 0 instructions: 560000003 cycles: 150971147 heartbeat IPC: 3.699 cumulative IPC: 3.683 (Simulation time: 00 hr 32 min 37 sec)
Heartbeat CPU 0 instructions: 570000004 cycles: 153674486 heartbeat IPC: 3.699 cumulative IPC: 3.683 (Simulation time: 00 hr 33 min 12 sec)
Heartbeat CPU 0 instructions: 580000000 cycles: 156378190 heartbeat IPC: 3.699 cumulative IPC: 3.684 (Simulation time: 00 hr 33 min 48 sec)
Heartbeat CPU 0 instructions: 590000002 cycles: 159081773 heartbeat IPC: 3.699 cumulative IPC: 3.684 (Simulation time: 00 hr 34 min 24 sec)
*** Reached end of trace: (0, "traces/convolution.champsimtrace")
Heartbeat CPU 0 instructions: 600000000 cycles: 161793546 heartbeat IPC: 3.688 cumulative IPC: 3.684 (Simulation time: 00 hr 34 min 59 sec)
Heartbeat CPU 0 instructions: 610000002 cycles: 185392089 heartbeat IPC: 0.4238 cumulative IPC: 3.239 (Simulation time: 00 hr 38 min 02 sec)
Heartbeat CPU 0 instructions: 620000001 cycles: 206351520 heartbeat IPC: 0.4771 cumulative IPC: 2.94 (Simulation time: 00 hr 40 min 58 sec)
Heartbeat CPU 0 instructions: 630000001 cycles: 217471358 heartbeat IPC: 0.8993 cumulative IPC: 2.83 (Simulation time: 00 hr 42 min 47 sec)
Heartbeat CPU 0 instructions: 640000004 cycles: 227906300 heartbeat IPC: 0.9583 cumulative IPC: 2.739 (Simulation time: 00 hr 44 min 25 sec)
Heartbeat CPU 0 instructions: 650000001 cycles: 238345352 heartbeat IPC: 0.9579 cumulative IPC: 2.657 (Simulation time: 00 hr 46 min 06 sec)
Simulation finished CPU 0 instructions: 600000001 cycles: 225845150 cumulative IPC: 2.657 (Simulation time: 00 hr 46 min 06 sec)
Simulation complete CPU 0 instructions: 600000001 cycles: 225845150 cumulative IPC: 2.657 (Simulation time: 00 hr 46 min 06 sec)

ChampSim completed all CPUs

=== Simulation ===
CPU 0 runs traces/convolution.champsimtrace
Region of Interest Statistics

CPU 0 cumulative IPC: 2.657 instructions: 600000001 cycles: 225845150
CPU 0 Branch Prediction Accuracy: 99.3% MPKI: 1.265 Average ROB Occupancy at Mispredict: 63.97
Branch type MPKI
BRANCH_DIRECT_JUMP: 0.000107
BRANCH_INDIRECT: 4.17e-05
BRANCH_CONDITIONAL: 1.26
BRANCH_DIRECT_CALL: 0.000103
BRANCH_INDIRECT_CALL: 8.33e-06
BRANCH_RETURN: 1.83e-05

LLC TOTAL        ACCESS:    1186069 HIT:     536880 MISS:     649189
LLC LOAD         ACCESS:       2889 HIT:        859 MISS:       2030
LLC RFO          ACCESS:     535120 HIT:         30 MISS:     535090
LLC PREFETCH     ACCESS:       2889 HIT:        277 MISS:       2612
LLC WRITE        ACCESS:     535175 HIT:     535152 MISS:         23
LLC TRANSLATION  ACCESS:     109996 HIT:        562 MISS:     109434
LLC PREFETCH REQUESTED:       2889 ISSUED:       2889 USEFUL:       1644 USELESS:        358
LLC AVERAGE MISS LATENCY: 980.6 cycles
cpu0_DTLB TOTAL        ACCESS:  121561480 HIT:  121208157 MISS:     353323
cpu0_DTLB LOAD         ACCESS:  121561480 HIT:  121208157 MISS:     353323
cpu0_DTLB RFO          ACCESS:          0 HIT:          0 MISS:          0
cpu0_DTLB PREFETCH     ACCESS:          0 HIT:          0 MISS:          0
cpu0_DTLB WRITE        ACCESS:          0 HIT:          0 MISS:          0
cpu0_DTLB TRANSLATION  ACCESS:          0 HIT:          0 MISS:          0
cpu0_DTLB PREFETCH REQUESTED:          0 ISSUED:          0 USEFUL:          0 USELESS:          0
cpu0_DTLB AVERAGE MISS LATENCY: 638.8 cycles
cpu0_ITLB TOTAL        ACCESS:       2020 HIT:       1986 MISS:         34
cpu0_ITLB LOAD         ACCESS:       2020 HIT:       1986 MISS:         34
cpu0_ITLB RFO          ACCESS:          0 HIT:          0 MISS:          0
cpu0_ITLB PREFETCH     ACCESS:          0 HIT:          0 MISS:          0
cpu0_ITLB WRITE        ACCESS:          0 HIT:          0 MISS:          0
cpu0_ITLB TRANSLATION  ACCESS:          0 HIT:          0 MISS:          0
cpu0_ITLB PREFETCH REQUESTED:          0 ISSUED:          0 USEFUL:          0 USELESS:          0
cpu0_ITLB AVERAGE MISS LATENCY: 732.4 cycles
cpu0_L1D TOTAL        ACCESS:  162713021 HIT:  156545288 MISS:    6167733
cpu0_L1D LOAD         ACCESS:   90495512 HIT:   90489328 MISS:       6184
cpu0_L1D RFO          ACCESS:          0 HIT:          0 MISS:          0
cpu0_L1D PREFETCH     ACCESS:          0 HIT:          0 MISS:          0
cpu0_L1D WRITE        ACCESS:   72036689 HIT:   66017712 MISS:    6018977
cpu0_L1D TRANSLATION  ACCESS:     180820 HIT:      38248 MISS:     142572
cpu0_L1D PREFETCH REQUESTED:          0 ISSUED:          0 USEFUL:          0 USELESS:          0
cpu0_L1D AVERAGE MISS LATENCY: 78.08 cycles
cpu0_L1I TOTAL        ACCESS:       2336 HIT:       1017 MISS:       1319
cpu0_L1I LOAD         ACCESS:       2336 HIT:       1017 MISS:       1319
cpu0_L1I RFO          ACCESS:          0 HIT:          0 MISS:          0
cpu0_L1I PREFETCH     ACCESS:          0 HIT:          0 MISS:          0
cpu0_L1I WRITE        ACCESS:          0 HIT:          0 MISS:          0
cpu0_L1I TRANSLATION  ACCESS:          0 HIT:          0 MISS:          0
cpu0_L1I PREFETCH REQUESTED:          0 ISSUED:          0 USEFUL:          0 USELESS:          0
cpu0_L1I AVERAGE MISS LATENCY: 606.7 cycles
cpu0_L2C TOTAL        ACCESS:    1190966 HIT:     542942 MISS:     648024
cpu0_L2C LOAD         ACCESS:       3313 HIT:        424 MISS:       2889
cpu0_L2C RFO          ACCESS:     538089 HIT:       2969 MISS:     535120
cpu0_L2C PREFETCH     ACCESS:          0 HIT:          0 MISS:          0
cpu0_L2C WRITE        ACCESS:     538231 HIT:     538213 MISS:         18
cpu0_L2C TRANSLATION  ACCESS:     111333 HIT:       1336 MISS:     109997
cpu0_L2C PREFETCH REQUESTED:          0 ISSUED:          0 USEFUL:          0 USELESS:          0
cpu0_L2C AVERAGE MISS LATENCY: 1001 cycles
cpu0_STLB TOTAL        ACCESS:     156151 HIT:         46 MISS:     156105
cpu0_STLB LOAD         ACCESS:     156151 HIT:         46 MISS:     156105
cpu0_STLB RFO          ACCESS:          0 HIT:          0 MISS:          0
cpu0_STLB PREFETCH     ACCESS:          0 HIT:          0 MISS:          0
cpu0_STLB WRITE        ACCESS:          0 HIT:          0 MISS:          0
cpu0_STLB TRANSLATION  ACCESS:          0 HIT:          0 MISS:          0
cpu0_STLB PREFETCH REQUESTED:          0 ISSUED:          0 USEFUL:          0 USELESS:          0
cpu0_STLB AVERAGE MISS LATENCY: 1645 cycles

DRAM Statistics

Channel 0 RQ ROW_BUFFER_HIT:     140979
  ROW_BUFFER_MISS:     506793
 AVG DBUS CONGESTED CYCLE: 3.979
WQ ROW_BUFFER_HIT: Channel 0 
  ROW_BUFFER_MISS:     104919
  FULL:     430191
