WARNING: physical memory size is smaller than virtual memory size.

*** ChampSim Multicore Out-of-Order Simulator ***
Warmup Instructions: 50000000
Simulation Instructions: 600000000
Number of CPUs: 1
Page size: 4096

Off-chip DRAM Size: 4 GiB Channels: 1 Width: 64-bit Data Race: 3200 MT/s
Heartbeat CPU 0 instructions: 10000002 cycles: 2500202 heartbeat IPC: 4 cumulative IPC: 4 (Simulation time: 00 hr 00 min 57 sec)
Heartbeat CPU 0 instructions: 20000002 cycles: 5000202 heartbeat IPC: 4 cumulative IPC: 4 (Simulation time: 00 hr 01 min 40 sec)
Heartbeat CPU 0 instructions: 30000002 cycles: 7500202 heartbeat IPC: 4 cumulative IPC: 4 (Simulation time: 00 hr 02 min 20 sec)
Heartbeat CPU 0 instructions: 40000002 cycles: 10000202 heartbeat IPC: 4 cumulative IPC: 4 (Simulation time: 00 hr 02 min 59 sec)
Heartbeat CPU 0 instructions: 50000002 cycles: 12500202 heartbeat IPC: 4 cumulative IPC: 4 (Simulation time: 00 hr 03 min 38 sec)
Warmup finished CPU 0 instructions: 50000002 cycles: 12500203 cumulative IPC: 4 (Simulation time: 00 hr 03 min 38 sec)
Warmup complete CPU 0 instructions: 50000002 cycles: 12500203 cumulative IPC: 4 (Simulation time: 00 hr 03 min 38 sec)
Heartbeat CPU 0 instructions: 60000000 cycles: 16955540 heartbeat IPC: 2.244 cumulative IPC: 2.244 (Simulation time: 00 hr 04 min 46 sec)
Heartbeat CPU 0 instructions: 70000002 cycles: 21410988 heartbeat IPC: 2.244 cumulative IPC: 2.244 (Simulation time: 00 hr 05 min 54 sec)
Heartbeat CPU 0 instructions: 80000002 cycles: 25866436 heartbeat IPC: 2.244 cumulative IPC: 2.244 (Simulation time: 00 hr 07 min 02 sec)
Heartbeat CPU 0 instructions: 90000002 cycles: 30322575 heartbeat IPC: 2.244 cumulative IPC: 2.244 (Simulation time: 00 hr 08 min 10 sec)
Heartbeat CPU 0 instructions: 100000001 cycles: 34778022 heartbeat IPC: 2.244 cumulative IPC: 2.244 (Simulation time: 00 hr 09 min 19 sec)
Heartbeat CPU 0 instructions: 110000000 cycles: 39233465 heartbeat IPC: 2.244 cumulative IPC: 2.244 (Simulation time: 00 hr 10 min 27 sec)
Heartbeat CPU 0 instructions: 120000001 cycles: 43688907 heartbeat IPC: 2.244 cumulative IPC: 2.244 (Simulation time: 00 hr 11 min 35 sec)
Heartbeat CPU 0 instructions: 130000000 cycles: 48144353 heartbeat IPC: 2.244 cumulative IPC: 2.244 (Simulation time: 00 hr 12 min 43 sec)
Heartbeat CPU 0 instructions: 140000001 cycles: 52599799 heartbeat IPC: 2.244 cumulative IPC: 2.244 (Simulation time: 00 hr 13 min 52 sec)
Heartbeat CPU 0 instructions: 150000001 cycles: 57055247 heartbeat IPC: 2.244 cumulative IPC: 2.244 (Simulation time: 00 hr 15 min 00 sec)
Heartbeat CPU 0 instructions: 160000000 cycles: 61510690 heartbeat IPC: 2.244 cumulative IPC: 2.244 (Simulation time: 00 hr 16 min 09 sec)
Heartbeat CPU 0 instructions: 170000000 cycles: 65966132 heartbeat IPC: 2.244 cumulative IPC: 2.244 (Simulation time: 00 hr 17 min 17 sec)
Heartbeat CPU 0 instructions: 180000001 cycles: 70421579 heartbeat IPC: 2.244 cumulative IPC: 2.244 (Simulation time: 00 hr 18 min 25 sec)
Heartbeat CPU 0 instructions: 190000003 cycles: 74877026 heartbeat IPC: 2.244 cumulative IPC: 2.244 (Simulation time: 00 hr 19 min 33 sec)
Heartbeat CPU 0 instructions: 200000001 cycles: 79333163 heartbeat IPC: 2.244 cumulative IPC: 2.244 (Simulation time: 00 hr 20 min 40 sec)
Heartbeat CPU 0 instructions: 210000000 cycles: 83788607 heartbeat IPC: 2.244 cumulative IPC: 2.244 (Simulation time: 00 hr 21 min 48 sec)
Heartbeat CPU 0 instructions: 220000000 cycles: 88244049 heartbeat IPC: 2.244 cumulative IPC: 2.244 (Simulation time: 00 hr 22 min 56 sec)
Heartbeat CPU 0 instructions: 230000001 cycles: 92699496 heartbeat IPC: 2.244 cumulative IPC: 2.244 (Simulation time: 00 hr 24 min 04 sec)
Heartbeat CPU 0 instructions: 240000002 cycles: 97154942 heartbeat IPC: 2.244 cumulative IPC: 2.244 (Simulation time: 00 hr 25 min 12 sec)
Heartbeat CPU 0 instructions: 250000002 cycles: 101610390 heartbeat IPC: 2.244 cumulative IPC: 2.244 (Simulation time: 00 hr 26 min 22 sec)
Heartbeat CPU 0 instructions: 260000001 cycles: 106065833 heartbeat IPC: 2.244 cumulative IPC: 2.244 (Simulation time: 00 hr 27 min 30 sec)
Heartbeat CPU 0 instructions: 270000000 cycles: 110521279 heartbeat IPC: 2.244 cumulative IPC: 2.244 (Simulation time: 00 hr 28 min 39 sec)
Heartbeat CPU 0 instructions: 280000000 cycles: 114976727 heartbeat IPC: 2.244 cumulative IPC: 2.244 (Simulation time: 00 hr 29 min 48 sec)
Heartbeat CPU 0 instructions: 290000000 cycles: 119432175 heartbeat IPC: 2.244 cumulative IPC: 2.244 (Simulation time: 00 hr 30 min 57 sec)
Heartbeat CPU 0 instructions: 300000000 cycles: 123888313 heartbeat IPC: 2.244 cumulative IPC: 2.244 (Simulation time: 00 hr 32 min 07 sec)
Heartbeat CPU 0 instructions: 310000000 cycles: 128343756 heartbeat IPC: 2.244 cumulative IPC: 2.244 (Simulation time: 00 hr 33 min 15 sec)
Heartbeat CPU 0 instructions: 320000000 cycles: 132799198 heartbeat IPC: 2.244 cumulative IPC: 2.244 (Simulation time: 00 hr 34 min 24 sec)
Heartbeat CPU 0 instructions: 330000003 cycles: 137254644 heartbeat IPC: 2.244 cumulative IPC: 2.244 (Simulation time: 00 hr 35 min 36 sec)
Heartbeat CPU 0 instructions: 340000001 cycles: 141710090 heartbeat IPC: 2.244 cumulative IPC: 2.244 (Simulation time: 00 hr 36 min 46 sec)
Heartbeat CPU 0 instructions: 350000004 cycles: 146165538 heartbeat IPC: 2.244 cumulative IPC: 2.244 (Simulation time: 00 hr 37 min 57 sec)
Heartbeat CPU 0 instructions: 360000001 cycles: 150620982 heartbeat IPC: 2.244 cumulative IPC: 2.244 (Simulation time: 00 hr 39 min 11 sec)
Heartbeat CPU 0 instructions: 370000000 cycles: 155076423 heartbeat IPC: 2.244 cumulative IPC: 2.244 (Simulation time: 00 hr 40 min 26 sec)
Heartbeat CPU 0 instructions: 380000004 cycles: 159531870 heartbeat IPC: 2.244 cumulative IPC: 2.244 (Simulation time: 00 hr 41 min 41 sec)
Heartbeat CPU 0 instructions: 390000001 cycles: 163987316 heartbeat IPC: 2.244 cumulative IPC: 2.244 (Simulation time: 00 hr 42 min 57 sec)
Heartbeat CPU 0 instructions: 400000001 cycles: 168442764 heartbeat IPC: 2.244 cumulative IPC: 2.244 (Simulation time: 00 hr 44 min 14 sec)
Heartbeat CPU 0 instructions: 410000001 cycles: 172898899 heartbeat IPC: 2.244 cumulative IPC: 2.244 (Simulation time: 00 hr 45 min 31 sec)
Heartbeat CPU 0 instructions: 420000000 cycles: 177354340 heartbeat IPC: 2.244 cumulative IPC: 2.244 (Simulation time: 00 hr 46 min 47 sec)
Heartbeat CPU 0 instructions: 430000004 cycles: 181809787 heartbeat IPC: 2.244 cumulative IPC: 2.244 (Simulation time: 00 hr 48 min 03 sec)
Heartbeat CPU 0 instructions: 440000000 cycles: 186265232 heartbeat IPC: 2.244 cumulative IPC: 2.244 (Simulation time: 00 hr 49 min 18 sec)
Heartbeat CPU 0 instructions: 450000000 cycles: 190720680 heartbeat IPC: 2.244 cumulative IPC: 2.244 (Simulation time: 00 hr 50 min 34 sec)
Heartbeat CPU 0 instructions: 460000000 cycles: 195176124 heartbeat IPC: 2.244 cumulative IPC: 2.244 (Simulation time: 00 hr 51 min 51 sec)
Heartbeat CPU 0 instructions: 470000003 cycles: 199631570 heartbeat IPC: 2.244 cumulative IPC: 2.244 (Simulation time: 00 hr 53 min 06 sec)
Heartbeat CPU 0 instructions: 480000003 cycles: 204087018 heartbeat IPC: 2.244 cumulative IPC: 2.244 (Simulation time: 00 hr 54 min 23 sec)
Heartbeat CPU 0 instructions: 490000003 cycles: 208542466 heartbeat IPC: 2.244 cumulative IPC: 2.244 (Simulation time: 00 hr 55 min 40 sec)
Heartbeat CPU 0 instructions: 500000003 cycles: 212997914 heartbeat IPC: 2.244 cumulative IPC: 2.244 (Simulation time: 00 hr 56 min 56 sec)
Heartbeat CPU 0 instructions: 510000000 cycles: 217453358 heartbeat IPC: 2.244 cumulative IPC: 2.244 (Simulation time: 00 hr 58 min 11 sec)
Heartbeat CPU 0 instructions: 520000000 cycles: 221909490 heartbeat IPC: 2.244 cumulative IPC: 2.244 (Simulation time: 00 hr 59 min 26 sec)
Heartbeat CPU 0 instructions: 530000001 cycles: 226364934 heartbeat IPC: 2.244 cumulative IPC: 2.244 (Simulation time: 01 hr 00 min 40 sec)
Heartbeat CPU 0 instructions: 540000000 cycles: 230820381 heartbeat IPC: 2.244 cumulative IPC: 2.244 (Simulation time: 01 hr 01 min 55 sec)
Heartbeat CPU 0 instructions: 550000002 cycles: 235275828 heartbeat IPC: 2.244 cumulative IPC: 2.244 (Simulation time: 01 hr 03 min 10 sec)
Heartbeat CPU 0 instructions: 560000000 cycles: 239731273 heartbeat IPC: 2.244 cumulative IPC: 2.244 (Simulation time: 01 hr 04 min 26 sec)
Heartbeat CPU 0 instructions: 570000000 cycles: 244186715 heartbeat IPC: 2.244 cumulative IPC: 2.244 (Simulation time: 01 hr 05 min 41 sec)
Heartbeat CPU 0 instructions: 580000002 cycles: 248642160 heartbeat IPC: 2.244 cumulative IPC: 2.244 (Simulation time: 01 hr 06 min 57 sec)
Heartbeat CPU 0 instructions: 590000001 cycles: 253097607 heartbeat IPC: 2.244 cumulative IPC: 2.244 (Simulation time: 01 hr 08 min 12 sec)
*** Reached end of trace: (0, "traces/is.A.champsimtrace")
Heartbeat CPU 0 instructions: 600000001 cycles: 257553384 heartbeat IPC: 2.244 cumulative IPC: 2.244 (Simulation time: 01 hr 09 min 26 sec)
Heartbeat CPU 0 instructions: 610000000 cycles: 263877133 heartbeat IPC: 1.581 cumulative IPC: 2.228 (Simulation time: 01 hr 11 min 00 sec)
Heartbeat CPU 0 instructions: 620000000 cycles: 268332575 heartbeat IPC: 2.244 cumulative IPC: 2.228 (Simulation time: 01 hr 12 min 15 sec)
Heartbeat CPU 0 instructions: 630000002 cycles: 272788023 heartbeat IPC: 2.244 cumulative IPC: 2.228 (Simulation time: 01 hr 13 min 30 sec)
Heartbeat CPU 0 instructions: 640000003 cycles: 277243469 heartbeat IPC: 2.244 cumulative IPC: 2.229 (Simulation time: 01 hr 14 min 45 sec)
Heartbeat CPU 0 instructions: 650000003 cycles: 281698917 heartbeat IPC: 2.244 cumulative IPC: 2.229 (Simulation time: 01 hr 16 min 00 sec)
Simulation finished CPU 0 instructions: 600000001 cycles: 269198715 cumulative IPC: 2.229 (Simulation time: 01 hr 16 min 00 sec)
Simulation complete CPU 0 instructions: 600000001 cycles: 269198715 cumulative IPC: 2.229 (Simulation time: 01 hr 16 min 00 sec)

ChampSim completed all CPUs

=== Simulation ===
CPU 0 runs traces/is.A.champsimtrace
Region of Interest Statistics

CPU 0 cumulative IPC: 2.229 instructions: 600000001 cycles: 269198715
CPU 0 Branch Prediction Accuracy: 99.98% MPKI: 0.006815 Average ROB Occupancy at Mispredict: 38.94
Branch type MPKI
BRANCH_DIRECT_JUMP: 3.33e-06
BRANCH_INDIRECT: 8.5e-05
BRANCH_CONDITIONAL: 0.00667
BRANCH_DIRECT_CALL: 0
BRANCH_INDIRECT_CALL: 3.5e-05
BRANCH_RETURN: 2e-05

LLC TOTAL        ACCESS:     379147 HIT:      43756 MISS:     335391
LLC LOAD         ACCESS:       3293 HIT:       1020 MISS:       2273
LLC RFO          ACCESS:     186186 HIT:      12715 MISS:     173471
LLC PREFETCH     ACCESS:       3293 HIT:        288 MISS:       3005
LLC WRITE        ACCESS:     186247 HIT:      29733 MISS:     156514
LLC TRANSLATION  ACCESS:        128 HIT:          0 MISS:        128
LLC PREFETCH REQUESTED:       3293 ISSUED:       3293 USEFUL:       1795 USELESS:        441
LLC AVERAGE MISS LATENCY: 260.3 cycles
cpu0_DTLB TOTAL        ACCESS:   71303240 HIT:   71294657 MISS:       8583
cpu0_DTLB LOAD         ACCESS:   71303240 HIT:   71294657 MISS:       8583
cpu0_DTLB RFO          ACCESS:          0 HIT:          0 MISS:          0
cpu0_DTLB PREFETCH     ACCESS:          0 HIT:          0 MISS:          0
cpu0_DTLB WRITE        ACCESS:          0 HIT:          0 MISS:          0
cpu0_DTLB TRANSLATION  ACCESS:          0 HIT:          0 MISS:          0
cpu0_DTLB PREFETCH REQUESTED:          0 ISSUED:          0 USEFUL:          0 USELESS:          0
cpu0_DTLB AVERAGE MISS LATENCY: 25.68 cycles
cpu0_ITLB TOTAL        ACCESS:       2840 HIT:       2698 MISS:        142
cpu0_ITLB LOAD         ACCESS:       2840 HIT:       2698 MISS:        142
cpu0_ITLB RFO          ACCESS:          0 HIT:          0 MISS:          0
cpu0_ITLB PREFETCH     ACCESS:          0 HIT:          0 MISS:          0
cpu0_ITLB WRITE        ACCESS:          0 HIT:          0 MISS:          0
cpu0_ITLB TRANSLATION  ACCESS:          0 HIT:          0 MISS:          0
cpu0_ITLB PREFETCH REQUESTED:          0 ISSUED:          0 USEFUL:          0 USELESS:          0
cpu0_ITLB AVERAGE MISS LATENCY: 712.3 cycles
cpu0_L1D TOTAL        ACCESS:   83193004 HIT:   82191370 MISS:    1001634
cpu0_L1D LOAD         ACCESS:   47544284 HIT:   47537563 MISS:       6721
cpu0_L1D RFO          ACCESS:          0 HIT:          0 MISS:          0
cpu0_L1D PREFETCH     ACCESS:          0 HIT:          0 MISS:          0
cpu0_L1D WRITE        ACCESS:   35645660 HIT:   34650890 MISS:     994770
cpu0_L1D TRANSLATION  ACCESS:       3060 HIT:       2917 MISS:        143
cpu0_L1D PREFETCH REQUESTED:          0 ISSUED:          0 USEFUL:          0 USELESS:          0
cpu0_L1D AVERAGE MISS LATENCY: 16.76 cycles
cpu0_L1I TOTAL        ACCESS:       3287 HIT:       1662 MISS:       1625
cpu0_L1I LOAD         ACCESS:       3287 HIT:       1662 MISS:       1625
cpu0_L1I RFO          ACCESS:          0 HIT:          0 MISS:          0
cpu0_L1I PREFETCH     ACCESS:          0 HIT:          0 MISS:          0
cpu0_L1I WRITE        ACCESS:          0 HIT:          0 MISS:          0
cpu0_L1I TRANSLATION  ACCESS:          0 HIT:          0 MISS:          0
cpu0_L1I PREFETCH REQUESTED:          0 ISSUED:          0 USEFUL:          0 USELESS:          0
cpu0_L1I AVERAGE MISS LATENCY: 895 cycles
cpu0_L2C TOTAL        ACCESS:     376554 HIT:     186945 MISS:     189609
cpu0_L2C LOAD         ACCESS:       3811 HIT:        518 MISS:       3293
cpu0_L2C RFO          ACCESS:     186257 HIT:         71 MISS:     186186
cpu0_L2C PREFETCH     ACCESS:          0 HIT:          0 MISS:          0
cpu0_L2C WRITE        ACCESS:     186344 HIT:     186342 MISS:          2
cpu0_L2C TRANSLATION  ACCESS:        142 HIT:         14 MISS:        128
cpu0_L2C PREFETCH REQUESTED:          0 ISSUED:          0 USEFUL:          0 USELESS:          0
cpu0_L2C AVERAGE MISS LATENCY: 466.5 cycles
cpu0_STLB TOTAL        ACCESS:       3073 HIT:         18 MISS:       3055
cpu0_STLB LOAD         ACCESS:       3073 HIT:         18 MISS:       3055
cpu0_STLB RFO          ACCESS:          0 HIT:          0 MISS:          0
cpu0_STLB PREFETCH     ACCESS:          0 HIT:          0 MISS:          0
cpu0_STLB WRITE        ACCESS:          0 HIT:          0 MISS:          0
cpu0_STLB TRANSLATION  ACCESS:          0 HIT:          0 MISS:          0
cpu0_STLB PREFETCH REQUESTED:          0 ISSUED:          0 USEFUL:          0 USELESS:          0
cpu0_STLB AVERAGE MISS LATENCY: 262.1 cycles

DRAM Statistics

Channel 0 RQ ROW_BUFFER_HIT:      22620
  ROW_BUFFER_MISS:     154769
 AVG DBUS CONGESTED CYCLE: 3.966
WQ ROW_BUFFER_HIT: Channel 0 
  ROW_BUFFER_MISS:       1505
  FULL:     157582
Final OPTGen Hits: 160
Final OPTGen Access: 3274
Final OPTGEN Hit Rate: 4.88699
