WARNING: physical memory size is smaller than virtual memory size.

*** ChampSim Multicore Out-of-Order Simulator ***
Warmup Instructions: 50000000
Simulation Instructions: 600000000
Number of CPUs: 1
Page size: 4096

Off-chip DRAM Size: 4 GiB Channels: 1 Width: 64-bit Data Race: 3200 MT/s
Heartbeat CPU 0 instructions: 10000002 cycles: 2500202 heartbeat IPC: 4 cumulative IPC: 4 (Simulation time: 00 hr 00 min 29 sec)
Heartbeat CPU 0 instructions: 20000002 cycles: 5000202 heartbeat IPC: 4 cumulative IPC: 4 (Simulation time: 00 hr 00 min 59 sec)
Heartbeat CPU 0 instructions: 30000002 cycles: 7500202 heartbeat IPC: 4 cumulative IPC: 4 (Simulation time: 00 hr 01 min 29 sec)
Heartbeat CPU 0 instructions: 40000002 cycles: 10000202 heartbeat IPC: 4 cumulative IPC: 4 (Simulation time: 00 hr 01 min 57 sec)
Heartbeat CPU 0 instructions: 50000002 cycles: 12500202 heartbeat IPC: 4 cumulative IPC: 4 (Simulation time: 00 hr 02 min 27 sec)
Warmup finished CPU 0 instructions: 50000002 cycles: 12500203 cumulative IPC: 4 (Simulation time: 00 hr 02 min 27 sec)
Warmup complete CPU 0 instructions: 50000002 cycles: 12500203 cumulative IPC: 4 (Simulation time: 00 hr 02 min 27 sec)
Heartbeat CPU 0 instructions: 60000000 cycles: 16955545 heartbeat IPC: 2.244 cumulative IPC: 2.244 (Simulation time: 00 hr 03 min 19 sec)
Heartbeat CPU 0 instructions: 70000000 cycles: 21411677 heartbeat IPC: 2.244 cumulative IPC: 2.244 (Simulation time: 00 hr 04 min 08 sec)
Heartbeat CPU 0 instructions: 80000000 cycles: 25867120 heartbeat IPC: 2.244 cumulative IPC: 2.244 (Simulation time: 00 hr 04 min 57 sec)
Heartbeat CPU 0 instructions: 90000000 cycles: 30322568 heartbeat IPC: 2.244 cumulative IPC: 2.244 (Simulation time: 00 hr 05 min 46 sec)
Heartbeat CPU 0 instructions: 100000002 cycles: 34778015 heartbeat IPC: 2.244 cumulative IPC: 2.244 (Simulation time: 00 hr 06 min 35 sec)
Heartbeat CPU 0 instructions: 110000000 cycles: 39233462 heartbeat IPC: 2.244 cumulative IPC: 2.244 (Simulation time: 00 hr 07 min 26 sec)
Heartbeat CPU 0 instructions: 120000000 cycles: 43688904 heartbeat IPC: 2.244 cumulative IPC: 2.244 (Simulation time: 00 hr 08 min 17 sec)
Heartbeat CPU 0 instructions: 130000000 cycles: 48144347 heartbeat IPC: 2.244 cumulative IPC: 2.244 (Simulation time: 00 hr 09 min 06 sec)
Heartbeat CPU 0 instructions: 140000000 cycles: 52599795 heartbeat IPC: 2.244 cumulative IPC: 2.244 (Simulation time: 00 hr 09 min 56 sec)
Heartbeat CPU 0 instructions: 150000001 cycles: 57055241 heartbeat IPC: 2.244 cumulative IPC: 2.244 (Simulation time: 00 hr 10 min 46 sec)
Heartbeat CPU 0 instructions: 160000000 cycles: 61510687 heartbeat IPC: 2.244 cumulative IPC: 2.244 (Simulation time: 00 hr 11 min 35 sec)
Heartbeat CPU 0 instructions: 170000002 cycles: 65966131 heartbeat IPC: 2.244 cumulative IPC: 2.244 (Simulation time: 00 hr 12 min 23 sec)
Heartbeat CPU 0 instructions: 180000004 cycles: 70421774 heartbeat IPC: 2.244 cumulative IPC: 2.244 (Simulation time: 00 hr 13 min 12 sec)
Heartbeat CPU 0 instructions: 190000004 cycles: 74877222 heartbeat IPC: 2.244 cumulative IPC: 2.244 (Simulation time: 00 hr 14 min 00 sec)
Heartbeat CPU 0 instructions: 200000004 cycles: 79332670 heartbeat IPC: 2.244 cumulative IPC: 2.244 (Simulation time: 00 hr 14 min 52 sec)
Heartbeat CPU 0 instructions: 210000000 cycles: 83788115 heartbeat IPC: 2.244 cumulative IPC: 2.244 (Simulation time: 00 hr 15 min 43 sec)
Heartbeat CPU 0 instructions: 220000000 cycles: 88243558 heartbeat IPC: 2.244 cumulative IPC: 2.244 (Simulation time: 00 hr 16 min 33 sec)
Heartbeat CPU 0 instructions: 230000000 cycles: 92699000 heartbeat IPC: 2.244 cumulative IPC: 2.244 (Simulation time: 00 hr 17 min 22 sec)
Heartbeat CPU 0 instructions: 240000002 cycles: 97154448 heartbeat IPC: 2.244 cumulative IPC: 2.244 (Simulation time: 00 hr 18 min 11 sec)
Heartbeat CPU 0 instructions: 250000003 cycles: 101609894 heartbeat IPC: 2.244 cumulative IPC: 2.244 (Simulation time: 00 hr 19 min 01 sec)
Heartbeat CPU 0 instructions: 260000001 cycles: 106065341 heartbeat IPC: 2.244 cumulative IPC: 2.244 (Simulation time: 00 hr 19 min 53 sec)
Heartbeat CPU 0 instructions: 270000001 cycles: 110520784 heartbeat IPC: 2.244 cumulative IPC: 2.244 (Simulation time: 00 hr 20 min 43 sec)
Heartbeat CPU 0 instructions: 280000001 cycles: 114976421 heartbeat IPC: 2.244 cumulative IPC: 2.244 (Simulation time: 00 hr 21 min 32 sec)
Heartbeat CPU 0 instructions: 290000003 cycles: 119431869 heartbeat IPC: 2.244 cumulative IPC: 2.244 (Simulation time: 00 hr 22 min 21 sec)
Heartbeat CPU 0 instructions: 300000000 cycles: 123887315 heartbeat IPC: 2.244 cumulative IPC: 2.244 (Simulation time: 00 hr 23 min 09 sec)
Heartbeat CPU 0 instructions: 310000003 cycles: 128342763 heartbeat IPC: 2.244 cumulative IPC: 2.244 (Simulation time: 00 hr 23 min 57 sec)
Heartbeat CPU 0 instructions: 320000001 cycles: 132798206 heartbeat IPC: 2.244 cumulative IPC: 2.244 (Simulation time: 00 hr 24 min 45 sec)
Heartbeat CPU 0 instructions: 330000001 cycles: 137253648 heartbeat IPC: 2.244 cumulative IPC: 2.244 (Simulation time: 00 hr 25 min 33 sec)
Heartbeat CPU 0 instructions: 340000003 cycles: 141709096 heartbeat IPC: 2.244 cumulative IPC: 2.244 (Simulation time: 00 hr 26 min 24 sec)
Heartbeat CPU 0 instructions: 350000004 cycles: 146164542 heartbeat IPC: 2.244 cumulative IPC: 2.244 (Simulation time: 00 hr 27 min 20 sec)
Heartbeat CPU 0 instructions: 360000000 cycles: 150619989 heartbeat IPC: 2.244 cumulative IPC: 2.244 (Simulation time: 00 hr 28 min 18 sec)
Heartbeat CPU 0 instructions: 370000000 cycles: 155075431 heartbeat IPC: 2.244 cumulative IPC: 2.244 (Simulation time: 00 hr 29 min 15 sec)
Heartbeat CPU 0 instructions: 380000002 cycles: 159530879 heartbeat IPC: 2.244 cumulative IPC: 2.244 (Simulation time: 00 hr 30 min 13 sec)
Heartbeat CPU 0 instructions: 390000002 cycles: 163986522 heartbeat IPC: 2.244 cumulative IPC: 2.244 (Simulation time: 00 hr 31 min 11 sec)
Heartbeat CPU 0 instructions: 400000002 cycles: 168441970 heartbeat IPC: 2.244 cumulative IPC: 2.244 (Simulation time: 00 hr 32 min 08 sec)
Heartbeat CPU 0 instructions: 410000001 cycles: 172897417 heartbeat IPC: 2.244 cumulative IPC: 2.244 (Simulation time: 00 hr 33 min 05 sec)
Heartbeat CPU 0 instructions: 420000000 cycles: 177352860 heartbeat IPC: 2.244 cumulative IPC: 2.244 (Simulation time: 00 hr 34 min 00 sec)
Heartbeat CPU 0 instructions: 430000001 cycles: 181808302 heartbeat IPC: 2.244 cumulative IPC: 2.244 (Simulation time: 00 hr 34 min 53 sec)
Heartbeat CPU 0 instructions: 440000000 cycles: 186263748 heartbeat IPC: 2.244 cumulative IPC: 2.244 (Simulation time: 00 hr 35 min 46 sec)
Heartbeat CPU 0 instructions: 450000001 cycles: 190719194 heartbeat IPC: 2.244 cumulative IPC: 2.244 (Simulation time: 00 hr 36 min 39 sec)
Heartbeat CPU 0 instructions: 460000001 cycles: 195174642 heartbeat IPC: 2.244 cumulative IPC: 2.244 (Simulation time: 00 hr 37 min 32 sec)
Heartbeat CPU 0 instructions: 470000000 cycles: 199630085 heartbeat IPC: 2.244 cumulative IPC: 2.244 (Simulation time: 00 hr 38 min 22 sec)
Heartbeat CPU 0 instructions: 480000000 cycles: 204085527 heartbeat IPC: 2.244 cumulative IPC: 2.244 (Simulation time: 00 hr 39 min 13 sec)
Heartbeat CPU 0 instructions: 490000001 cycles: 208540974 heartbeat IPC: 2.244 cumulative IPC: 2.244 (Simulation time: 00 hr 40 min 02 sec)
Heartbeat CPU 0 instructions: 500000003 cycles: 212996616 heartbeat IPC: 2.244 cumulative IPC: 2.244 (Simulation time: 00 hr 40 min 51 sec)
Heartbeat CPU 0 instructions: 510000001 cycles: 217452063 heartbeat IPC: 2.244 cumulative IPC: 2.244 (Simulation time: 00 hr 41 min 39 sec)
Heartbeat CPU 0 instructions: 520000000 cycles: 221907507 heartbeat IPC: 2.244 cumulative IPC: 2.244 (Simulation time: 00 hr 42 min 29 sec)
Heartbeat CPU 0 instructions: 530000000 cycles: 226362949 heartbeat IPC: 2.244 cumulative IPC: 2.244 (Simulation time: 00 hr 43 min 20 sec)
Heartbeat CPU 0 instructions: 540000001 cycles: 230818396 heartbeat IPC: 2.244 cumulative IPC: 2.244 (Simulation time: 00 hr 44 min 12 sec)
Heartbeat CPU 0 instructions: 550000002 cycles: 235273842 heartbeat IPC: 2.244 cumulative IPC: 2.244 (Simulation time: 00 hr 45 min 03 sec)
Heartbeat CPU 0 instructions: 560000002 cycles: 239729290 heartbeat IPC: 2.244 cumulative IPC: 2.244 (Simulation time: 00 hr 45 min 54 sec)
Heartbeat CPU 0 instructions: 570000001 cycles: 244184733 heartbeat IPC: 2.244 cumulative IPC: 2.244 (Simulation time: 00 hr 46 min 46 sec)
Heartbeat CPU 0 instructions: 580000000 cycles: 248640179 heartbeat IPC: 2.244 cumulative IPC: 2.244 (Simulation time: 00 hr 47 min 37 sec)
Heartbeat CPU 0 instructions: 590000000 cycles: 253095627 heartbeat IPC: 2.244 cumulative IPC: 2.244 (Simulation time: 00 hr 48 min 28 sec)
*** Reached end of trace: (0, "traces/is.A.champsimtrace")
Heartbeat CPU 0 instructions: 600000001 cycles: 257551593 heartbeat IPC: 2.244 cumulative IPC: 2.244 (Simulation time: 00 hr 49 min 19 sec)
Heartbeat CPU 0 instructions: 610000001 cycles: 263346635 heartbeat IPC: 1.726 cumulative IPC: 2.232 (Simulation time: 00 hr 50 min 17 sec)
Heartbeat CPU 0 instructions: 620000001 cycles: 267802078 heartbeat IPC: 2.244 cumulative IPC: 2.233 (Simulation time: 00 hr 51 min 07 sec)
Heartbeat CPU 0 instructions: 630000001 cycles: 272257520 heartbeat IPC: 2.244 cumulative IPC: 2.233 (Simulation time: 00 hr 51 min 57 sec)
Heartbeat CPU 0 instructions: 640000003 cycles: 276712968 heartbeat IPC: 2.244 cumulative IPC: 2.233 (Simulation time: 00 hr 52 min 46 sec)
Heartbeat CPU 0 instructions: 650000004 cycles: 281168414 heartbeat IPC: 2.244 cumulative IPC: 2.233 (Simulation time: 00 hr 53 min 37 sec)
Simulation finished CPU 0 instructions: 600000002 cycles: 268668212 cumulative IPC: 2.233 (Simulation time: 00 hr 53 min 37 sec)
Simulation complete CPU 0 instructions: 600000002 cycles: 268668212 cumulative IPC: 2.233 (Simulation time: 00 hr 53 min 37 sec)

ChampSim completed all CPUs

=== Simulation ===
CPU 0 runs traces/is.A.champsimtrace
Region of Interest Statistics

CPU 0 cumulative IPC: 2.233 instructions: 600000002 cycles: 268668212
CPU 0 Branch Prediction Accuracy: 99.98% MPKI: 0.006835 Average ROB Occupancy at Mispredict: 38.37
Branch type MPKI
BRANCH_DIRECT_JUMP: 3.33e-06
BRANCH_INDIRECT: 8.67e-05
BRANCH_CONDITIONAL: 0.00669
BRANCH_DIRECT_CALL: 0
BRANCH_INDIRECT_CALL: 3.67e-05
BRANCH_RETURN: 2e-05

LLC TOTAL        ACCESS:     379106 HIT:     187570 MISS:     191536
LLC LOAD         ACCESS:       3282 HIT:        978 MISS:       2304
LLC RFO          ACCESS:     186179 HIT:         14 MISS:     186165
LLC PREFETCH     ACCESS:       3282 HIT:        345 MISS:       2937
LLC WRITE        ACCESS:     186230 HIT:     186228 MISS:          2
LLC TRANSLATION  ACCESS:        133 HIT:          5 MISS:        128
LLC PREFETCH REQUESTED:       3282 ISSUED:       3282 USEFUL:       1809 USELESS:        441
LLC AVERAGE MISS LATENCY: 427.3 cycles
cpu0_DTLB TOTAL        ACCESS:   71302899 HIT:   71294360 MISS:       8539
cpu0_DTLB LOAD         ACCESS:   71302899 HIT:   71294360 MISS:       8539
cpu0_DTLB RFO          ACCESS:          0 HIT:          0 MISS:          0
cpu0_DTLB PREFETCH     ACCESS:          0 HIT:          0 MISS:          0
cpu0_DTLB WRITE        ACCESS:          0 HIT:          0 MISS:          0
cpu0_DTLB TRANSLATION  ACCESS:          0 HIT:          0 MISS:          0
cpu0_DTLB PREFETCH REQUESTED:          0 ISSUED:          0 USEFUL:          0 USELESS:          0
cpu0_DTLB AVERAGE MISS LATENCY: 21.46 cycles
cpu0_ITLB TOTAL        ACCESS:       2813 HIT:       2663 MISS:        150
cpu0_ITLB LOAD         ACCESS:       2813 HIT:       2663 MISS:        150
cpu0_ITLB RFO          ACCESS:          0 HIT:          0 MISS:          0
cpu0_ITLB PREFETCH     ACCESS:          0 HIT:          0 MISS:          0
cpu0_ITLB WRITE        ACCESS:          0 HIT:          0 MISS:          0
cpu0_ITLB TRANSLATION  ACCESS:          0 HIT:          0 MISS:          0
cpu0_ITLB PREFETCH REQUESTED:          0 ISSUED:          0 USEFUL:          0 USELESS:          0
cpu0_ITLB AVERAGE MISS LATENCY: 541.9 cycles
cpu0_L1D TOTAL        ACCESS:   83192604 HIT:   82208881 MISS:     983723
cpu0_L1D LOAD         ACCESS:   47543938 HIT:   47537257 MISS:       6681
cpu0_L1D RFO          ACCESS:          0 HIT:          0 MISS:          0
cpu0_L1D PREFETCH     ACCESS:          0 HIT:          0 MISS:          0
cpu0_L1D WRITE        ACCESS:   35645606 HIT:   34668710 MISS:     976896
cpu0_L1D TRANSLATION  ACCESS:       3060 HIT:       2914 MISS:        146
cpu0_L1D PREFETCH REQUESTED:          0 ISSUED:          0 USEFUL:          0 USELESS:          0
cpu0_L1D AVERAGE MISS LATENCY: 14.67 cycles
cpu0_L1I TOTAL        ACCESS:       3248 HIT:       1621 MISS:       1627
cpu0_L1I LOAD         ACCESS:       3248 HIT:       1621 MISS:       1627
cpu0_L1I RFO          ACCESS:          0 HIT:          0 MISS:          0
cpu0_L1I PREFETCH     ACCESS:          0 HIT:          0 MISS:          0
cpu0_L1I WRITE        ACCESS:          0 HIT:          0 MISS:          0
cpu0_L1I TRANSLATION  ACCESS:          0 HIT:          0 MISS:          0
cpu0_L1I PREFETCH REQUESTED:          0 ISSUED:          0 USEFUL:          0 USELESS:          0
cpu0_L1I AVERAGE MISS LATENCY: 619.8 cycles
cpu0_L2C TOTAL        ACCESS:     377236 HIT:     187640 MISS:     189596
cpu0_L2C LOAD         ACCESS:       3802 HIT:        520 MISS:       3282
cpu0_L2C RFO          ACCESS:     186603 HIT:        424 MISS:     186179
cpu0_L2C PREFETCH     ACCESS:          0 HIT:          0 MISS:          0
cpu0_L2C WRITE        ACCESS:     186686 HIT:     186684 MISS:          2
cpu0_L2C TRANSLATION  ACCESS:        145 HIT:         12 MISS:        133
cpu0_L2C PREFETCH REQUESTED:          0 ISSUED:          0 USEFUL:          0 USELESS:          0
cpu0_L2C AVERAGE MISS LATENCY: 442.5 cycles
cpu0_STLB TOTAL        ACCESS:       3065 HIT:         11 MISS:       3054
cpu0_STLB LOAD         ACCESS:       3065 HIT:         11 MISS:       3054
cpu0_STLB RFO          ACCESS:          0 HIT:          0 MISS:          0
cpu0_STLB PREFETCH     ACCESS:          0 HIT:          0 MISS:          0
cpu0_STLB WRITE        ACCESS:          0 HIT:          0 MISS:          0
cpu0_STLB TRANSLATION  ACCESS:          0 HIT:          0 MISS:          0
cpu0_STLB PREFETCH REQUESTED:          0 ISSUED:          0 USEFUL:          0 USELESS:          0
cpu0_STLB AVERAGE MISS LATENCY: 240.8 cycles

DRAM Statistics

Channel 0 RQ ROW_BUFFER_HIT:      49894
  ROW_BUFFER_MISS:     140124
 AVG DBUS CONGESTED CYCLE: 3.973
WQ ROW_BUFFER_HIT: Channel 0 
  ROW_BUFFER_MISS:        830
  FULL:     139712
