WARNING: physical memory size is smaller than virtual memory size.

*** ChampSim Multicore Out-of-Order Simulator ***
Warmup Instructions: 50000000
Simulation Instructions: 600000000
Number of CPUs: 1
Page size: 4096

Off-chip DRAM Size: 4 GiB Channels: 1 Width: 64-bit Data Race: 3200 MT/s
Heartbeat CPU 0 instructions: 10000002 cycles: 2500203 heartbeat IPC: 4 cumulative IPC: 4 (Simulation time: 00 hr 00 min 43 sec)
Heartbeat CPU 0 instructions: 20000002 cycles: 5000203 heartbeat IPC: 4 cumulative IPC: 4 (Simulation time: 00 hr 01 min 35 sec)
Heartbeat CPU 0 instructions: 30000002 cycles: 7500203 heartbeat IPC: 4 cumulative IPC: 4 (Simulation time: 00 hr 02 min 17 sec)
Heartbeat CPU 0 instructions: 40000002 cycles: 10000203 heartbeat IPC: 4 cumulative IPC: 4 (Simulation time: 00 hr 02 min 59 sec)
Heartbeat CPU 0 instructions: 50000002 cycles: 12500203 heartbeat IPC: 4 cumulative IPC: 4 (Simulation time: 00 hr 03 min 41 sec)
Warmup finished CPU 0 instructions: 50000002 cycles: 12500204 cumulative IPC: 4 (Simulation time: 00 hr 03 min 41 sec)
Warmup complete CPU 0 instructions: 50000002 cycles: 12500204 cumulative IPC: 4 (Simulation time: 00 hr 03 min 41 sec)
Heartbeat CPU 0 instructions: 60000000 cycles: 16955541 heartbeat IPC: 2.244 cumulative IPC: 2.244 (Simulation time: 00 hr 04 min 54 sec)
Heartbeat CPU 0 instructions: 70000002 cycles: 21410989 heartbeat IPC: 2.244 cumulative IPC: 2.244 (Simulation time: 00 hr 06 min 07 sec)
Heartbeat CPU 0 instructions: 80000002 cycles: 25866437 heartbeat IPC: 2.244 cumulative IPC: 2.244 (Simulation time: 00 hr 07 min 20 sec)
Heartbeat CPU 0 instructions: 90000002 cycles: 30322575 heartbeat IPC: 2.244 cumulative IPC: 2.244 (Simulation time: 00 hr 08 min 33 sec)
Heartbeat CPU 0 instructions: 100000001 cycles: 34778022 heartbeat IPC: 2.244 cumulative IPC: 2.244 (Simulation time: 00 hr 09 min 46 sec)
Heartbeat CPU 0 instructions: 110000000 cycles: 39233465 heartbeat IPC: 2.244 cumulative IPC: 2.244 (Simulation time: 00 hr 11 min 01 sec)
Heartbeat CPU 0 instructions: 120000001 cycles: 43688907 heartbeat IPC: 2.244 cumulative IPC: 2.244 (Simulation time: 00 hr 12 min 14 sec)
Heartbeat CPU 0 instructions: 130000000 cycles: 48144353 heartbeat IPC: 2.244 cumulative IPC: 2.244 (Simulation time: 00 hr 13 min 27 sec)
Heartbeat CPU 0 instructions: 140000001 cycles: 52599799 heartbeat IPC: 2.244 cumulative IPC: 2.244 (Simulation time: 00 hr 14 min 39 sec)
Heartbeat CPU 0 instructions: 150000001 cycles: 57055247 heartbeat IPC: 2.244 cumulative IPC: 2.244 (Simulation time: 00 hr 15 min 53 sec)
Heartbeat CPU 0 instructions: 160000000 cycles: 61510690 heartbeat IPC: 2.244 cumulative IPC: 2.244 (Simulation time: 00 hr 17 min 06 sec)
Heartbeat CPU 0 instructions: 170000000 cycles: 65966132 heartbeat IPC: 2.244 cumulative IPC: 2.244 (Simulation time: 00 hr 18 min 19 sec)
Heartbeat CPU 0 instructions: 180000001 cycles: 70421579 heartbeat IPC: 2.244 cumulative IPC: 2.244 (Simulation time: 00 hr 19 min 30 sec)
Heartbeat CPU 0 instructions: 190000003 cycles: 74877026 heartbeat IPC: 2.244 cumulative IPC: 2.244 (Simulation time: 00 hr 20 min 44 sec)
Heartbeat CPU 0 instructions: 200000001 cycles: 79333163 heartbeat IPC: 2.244 cumulative IPC: 2.244 (Simulation time: 00 hr 21 min 56 sec)
Heartbeat CPU 0 instructions: 210000000 cycles: 83788607 heartbeat IPC: 2.244 cumulative IPC: 2.244 (Simulation time: 00 hr 23 min 08 sec)
Heartbeat CPU 0 instructions: 220000000 cycles: 88244049 heartbeat IPC: 2.244 cumulative IPC: 2.244 (Simulation time: 00 hr 24 min 22 sec)
Heartbeat CPU 0 instructions: 230000001 cycles: 92699496 heartbeat IPC: 2.244 cumulative IPC: 2.244 (Simulation time: 00 hr 25 min 34 sec)
Heartbeat CPU 0 instructions: 240000002 cycles: 97154942 heartbeat IPC: 2.244 cumulative IPC: 2.244 (Simulation time: 00 hr 26 min 47 sec)
Heartbeat CPU 0 instructions: 250000002 cycles: 101610390 heartbeat IPC: 2.244 cumulative IPC: 2.244 (Simulation time: 00 hr 28 min 00 sec)
Heartbeat CPU 0 instructions: 260000001 cycles: 106065833 heartbeat IPC: 2.244 cumulative IPC: 2.244 (Simulation time: 00 hr 29 min 13 sec)
Heartbeat CPU 0 instructions: 270000000 cycles: 110521279 heartbeat IPC: 2.244 cumulative IPC: 2.244 (Simulation time: 00 hr 30 min 25 sec)
Heartbeat CPU 0 instructions: 280000000 cycles: 114976727 heartbeat IPC: 2.244 cumulative IPC: 2.244 (Simulation time: 00 hr 31 min 38 sec)
Heartbeat CPU 0 instructions: 290000000 cycles: 119432175 heartbeat IPC: 2.244 cumulative IPC: 2.244 (Simulation time: 00 hr 32 min 52 sec)
Heartbeat CPU 0 instructions: 300000000 cycles: 123888313 heartbeat IPC: 2.244 cumulative IPC: 2.244 (Simulation time: 00 hr 34 min 05 sec)
Heartbeat CPU 0 instructions: 310000000 cycles: 128343756 heartbeat IPC: 2.244 cumulative IPC: 2.244 (Simulation time: 00 hr 35 min 19 sec)
Heartbeat CPU 0 instructions: 320000000 cycles: 132799198 heartbeat IPC: 2.244 cumulative IPC: 2.244 (Simulation time: 00 hr 36 min 33 sec)
Heartbeat CPU 0 instructions: 330000003 cycles: 137254644 heartbeat IPC: 2.244 cumulative IPC: 2.244 (Simulation time: 00 hr 37 min 46 sec)
Heartbeat CPU 0 instructions: 340000001 cycles: 141710090 heartbeat IPC: 2.244 cumulative IPC: 2.244 (Simulation time: 00 hr 38 min 59 sec)
Heartbeat CPU 0 instructions: 350000004 cycles: 146165538 heartbeat IPC: 2.244 cumulative IPC: 2.244 (Simulation time: 00 hr 40 min 12 sec)
Heartbeat CPU 0 instructions: 360000001 cycles: 150620982 heartbeat IPC: 2.244 cumulative IPC: 2.244 (Simulation time: 00 hr 41 min 24 sec)
Heartbeat CPU 0 instructions: 370000000 cycles: 155076423 heartbeat IPC: 2.244 cumulative IPC: 2.244 (Simulation time: 00 hr 42 min 38 sec)
Heartbeat CPU 0 instructions: 380000004 cycles: 159531870 heartbeat IPC: 2.244 cumulative IPC: 2.244 (Simulation time: 00 hr 43 min 49 sec)
Heartbeat CPU 0 instructions: 390000001 cycles: 163987316 heartbeat IPC: 2.244 cumulative IPC: 2.244 (Simulation time: 00 hr 45 min 04 sec)
Heartbeat CPU 0 instructions: 400000001 cycles: 168442764 heartbeat IPC: 2.244 cumulative IPC: 2.244 (Simulation time: 00 hr 46 min 18 sec)
Heartbeat CPU 0 instructions: 410000001 cycles: 172898899 heartbeat IPC: 2.244 cumulative IPC: 2.244 (Simulation time: 00 hr 47 min 32 sec)
Heartbeat CPU 0 instructions: 420000000 cycles: 177354340 heartbeat IPC: 2.244 cumulative IPC: 2.244 (Simulation time: 00 hr 48 min 46 sec)
Heartbeat CPU 0 instructions: 430000004 cycles: 181809787 heartbeat IPC: 2.244 cumulative IPC: 2.244 (Simulation time: 00 hr 49 min 59 sec)
Heartbeat CPU 0 instructions: 440000000 cycles: 186265232 heartbeat IPC: 2.244 cumulative IPC: 2.244 (Simulation time: 00 hr 51 min 12 sec)
Heartbeat CPU 0 instructions: 450000000 cycles: 190720680 heartbeat IPC: 2.244 cumulative IPC: 2.244 (Simulation time: 00 hr 52 min 26 sec)
Heartbeat CPU 0 instructions: 460000000 cycles: 195176124 heartbeat IPC: 2.244 cumulative IPC: 2.244 (Simulation time: 00 hr 53 min 39 sec)
Heartbeat CPU 0 instructions: 470000003 cycles: 199631570 heartbeat IPC: 2.244 cumulative IPC: 2.244 (Simulation time: 00 hr 54 min 52 sec)
Heartbeat CPU 0 instructions: 480000003 cycles: 204087018 heartbeat IPC: 2.244 cumulative IPC: 2.244 (Simulation time: 00 hr 56 min 04 sec)
Heartbeat CPU 0 instructions: 490000003 cycles: 208542466 heartbeat IPC: 2.244 cumulative IPC: 2.244 (Simulation time: 00 hr 57 min 18 sec)
Heartbeat CPU 0 instructions: 500000003 cycles: 212997914 heartbeat IPC: 2.244 cumulative IPC: 2.244 (Simulation time: 00 hr 58 min 31 sec)
Heartbeat CPU 0 instructions: 510000000 cycles: 217453358 heartbeat IPC: 2.244 cumulative IPC: 2.244 (Simulation time: 00 hr 59 min 45 sec)
Heartbeat CPU 0 instructions: 520000000 cycles: 221909490 heartbeat IPC: 2.244 cumulative IPC: 2.244 (Simulation time: 01 hr 00 min 59 sec)
Heartbeat CPU 0 instructions: 530000001 cycles: 226364934 heartbeat IPC: 2.244 cumulative IPC: 2.244 (Simulation time: 01 hr 02 min 12 sec)
Heartbeat CPU 0 instructions: 540000000 cycles: 230820381 heartbeat IPC: 2.244 cumulative IPC: 2.244 (Simulation time: 01 hr 03 min 24 sec)
Heartbeat CPU 0 instructions: 550000002 cycles: 235275828 heartbeat IPC: 2.244 cumulative IPC: 2.244 (Simulation time: 01 hr 04 min 37 sec)
Heartbeat CPU 0 instructions: 560000000 cycles: 239731273 heartbeat IPC: 2.244 cumulative IPC: 2.244 (Simulation time: 01 hr 05 min 51 sec)
Heartbeat CPU 0 instructions: 570000000 cycles: 244186715 heartbeat IPC: 2.244 cumulative IPC: 2.244 (Simulation time: 01 hr 07 min 05 sec)
Heartbeat CPU 0 instructions: 580000002 cycles: 248642160 heartbeat IPC: 2.244 cumulative IPC: 2.244 (Simulation time: 01 hr 08 min 18 sec)
Heartbeat CPU 0 instructions: 590000001 cycles: 253097607 heartbeat IPC: 2.244 cumulative IPC: 2.244 (Simulation time: 01 hr 09 min 31 sec)
*** Reached end of trace: (0, "traces/is.A.champsimtrace")
Heartbeat CPU 0 instructions: 600000001 cycles: 257553384 heartbeat IPC: 2.244 cumulative IPC: 2.244 (Simulation time: 01 hr 10 min 43 sec)
Heartbeat CPU 0 instructions: 610000000 cycles: 264248278 heartbeat IPC: 1.494 cumulative IPC: 2.224 (Simulation time: 01 hr 12 min 29 sec)
Heartbeat CPU 0 instructions: 620000000 cycles: 268703720 heartbeat IPC: 2.244 cumulative IPC: 2.225 (Simulation time: 01 hr 13 min 43 sec)
Heartbeat CPU 0 instructions: 630000002 cycles: 273159168 heartbeat IPC: 2.244 cumulative IPC: 2.225 (Simulation time: 01 hr 14 min 58 sec)
Heartbeat CPU 0 instructions: 640000003 cycles: 277614614 heartbeat IPC: 2.244 cumulative IPC: 2.225 (Simulation time: 01 hr 16 min 13 sec)
Heartbeat CPU 0 instructions: 650000003 cycles: 282070062 heartbeat IPC: 2.244 cumulative IPC: 2.226 (Simulation time: 01 hr 17 min 26 sec)
Simulation finished CPU 0 instructions: 600000001 cycles: 269569859 cumulative IPC: 2.226 (Simulation time: 01 hr 17 min 26 sec)
Simulation complete CPU 0 instructions: 600000001 cycles: 269569859 cumulative IPC: 2.226 (Simulation time: 01 hr 17 min 26 sec)

ChampSim completed all CPUs

=== Simulation ===
CPU 0 runs traces/is.A.champsimtrace
Region of Interest Statistics

CPU 0 cumulative IPC: 2.226 instructions: 600000001 cycles: 269569859
CPU 0 Branch Prediction Accuracy: 99.98% MPKI: 0.00741 Average ROB Occupancy at Mispredict: 36.15
Branch type MPKI
BRANCH_DIRECT_JUMP: 3.33e-06
BRANCH_INDIRECT: 8.5e-05
BRANCH_CONDITIONAL: 0.00727
BRANCH_DIRECT_CALL: 0
BRANCH_INDIRECT_CALL: 3.5e-05
BRANCH_RETURN: 2e-05

LLC TOTAL        ACCESS:     375847 HIT:      44052 MISS:     331795
LLC LOAD         ACCESS:       3284 HIT:         13 MISS:       3271
LLC RFO          ACCESS:     186186 HIT:      13043 MISS:     173143
LLC PREFETCH     ACCESS:          0 HIT:          0 MISS:          0
LLC WRITE        ACCESS:     186249 HIT:      30996 MISS:     155253
LLC TRANSLATION  ACCESS:        128 HIT:          0 MISS:        128
LLC PREFETCH REQUESTED:          0 ISSUED:          0 USEFUL:          0 USELESS:          0
LLC AVERAGE MISS LATENCY: 255.8 cycles
cpu0_DTLB TOTAL        ACCESS:   71303261 HIT:   71294702 MISS:       8559
cpu0_DTLB LOAD         ACCESS:   71303261 HIT:   71294702 MISS:       8559
cpu0_DTLB RFO          ACCESS:          0 HIT:          0 MISS:          0
cpu0_DTLB PREFETCH     ACCESS:          0 HIT:          0 MISS:          0
cpu0_DTLB WRITE        ACCESS:          0 HIT:          0 MISS:          0
cpu0_DTLB TRANSLATION  ACCESS:          0 HIT:          0 MISS:          0
cpu0_DTLB PREFETCH REQUESTED:          0 ISSUED:          0 USEFUL:          0 USELESS:          0
cpu0_DTLB AVERAGE MISS LATENCY: 23.19 cycles
cpu0_ITLB TOTAL        ACCESS:       2811 HIT:       2658 MISS:        153
cpu0_ITLB LOAD         ACCESS:       2811 HIT:       2658 MISS:        153
cpu0_ITLB RFO          ACCESS:          0 HIT:          0 MISS:          0
cpu0_ITLB PREFETCH     ACCESS:          0 HIT:          0 MISS:          0
cpu0_ITLB WRITE        ACCESS:          0 HIT:          0 MISS:          0
cpu0_ITLB TRANSLATION  ACCESS:          0 HIT:          0 MISS:          0
cpu0_ITLB PREFETCH REQUESTED:          0 ISSUED:          0 USEFUL:          0 USELESS:          0
cpu0_ITLB AVERAGE MISS LATENCY: 533.3 cycles
cpu0_L1D TOTAL        ACCESS:   83193056 HIT:   82191806 MISS:    1001250
cpu0_L1D LOAD         ACCESS:   47544341 HIT:   47537905 MISS:       6436
cpu0_L1D RFO          ACCESS:          0 HIT:          0 MISS:          0
cpu0_L1D PREFETCH     ACCESS:          0 HIT:          0 MISS:          0
cpu0_L1D WRITE        ACCESS:   35645655 HIT:   34650983 MISS:     994672
cpu0_L1D TRANSLATION  ACCESS:       3060 HIT:       2918 MISS:        142
cpu0_L1D PREFETCH REQUESTED:          0 ISSUED:          0 USEFUL:          0 USELESS:          0
cpu0_L1D AVERAGE MISS LATENCY: 17.13 cycles
cpu0_L1I TOTAL        ACCESS:       3223 HIT:       1589 MISS:       1634
cpu0_L1I LOAD         ACCESS:       3223 HIT:       1589 MISS:       1634
cpu0_L1I RFO          ACCESS:          0 HIT:          0 MISS:          0
cpu0_L1I PREFETCH     ACCESS:          0 HIT:          0 MISS:          0
cpu0_L1I WRITE        ACCESS:          0 HIT:          0 MISS:          0
cpu0_L1I TRANSLATION  ACCESS:          0 HIT:          0 MISS:          0
cpu0_L1I PREFETCH REQUESTED:          0 ISSUED:          0 USEFUL:          0 USELESS:          0
cpu0_L1I AVERAGE MISS LATENCY: 911.3 cycles
cpu0_L2C TOTAL        ACCESS:     376556 HIT:     186956 MISS:     189600
cpu0_L2C LOAD         ACCESS:       3811 HIT:        527 MISS:       3284
cpu0_L2C RFO          ACCESS:     186257 HIT:         71 MISS:     186186
cpu0_L2C PREFETCH     ACCESS:          0 HIT:          0 MISS:          0
cpu0_L2C WRITE        ACCESS:     186347 HIT:     186345 MISS:          2
cpu0_L2C TRANSLATION  ACCESS:        141 HIT:         13 MISS:        128
cpu0_L2C PREFETCH REQUESTED:          0 ISSUED:          0 USEFUL:          0 USELESS:          0
cpu0_L2C AVERAGE MISS LATENCY: 468.5 cycles
cpu0_STLB TOTAL        ACCESS:       3073 HIT:         18 MISS:       3055
cpu0_STLB LOAD         ACCESS:       3073 HIT:         18 MISS:       3055
cpu0_STLB RFO          ACCESS:          0 HIT:          0 MISS:          0
cpu0_STLB PREFETCH     ACCESS:          0 HIT:          0 MISS:          0
cpu0_STLB WRITE        ACCESS:          0 HIT:          0 MISS:          0
cpu0_STLB TRANSLATION  ACCESS:          0 HIT:          0 MISS:          0
cpu0_STLB PREFETCH REQUESTED:          0 ISSUED:          0 USEFUL:          0 USELESS:          0
cpu0_STLB AVERAGE MISS LATENCY: 247.5 cycles

DRAM Statistics

Channel 0 RQ ROW_BUFFER_HIT:      21902
  ROW_BUFFER_MISS:     154640
 AVG DBUS CONGESTED CYCLE: 3.965
WQ ROW_BUFFER_HIT: Channel 0 
  ROW_BUFFER_MISS:        977
  FULL:     157082
Final OPTGen Hits: 98
Final OPTGen Access: 3272
Final OPTGEN Hit Rate: 2.99512
