WARNING: physical memory size is smaller than virtual memory size.

*** ChampSim Multicore Out-of-Order Simulator ***
Warmup Instructions: 50000000
Simulation Instructions: 600000000
Number of CPUs: 1
Page size: 4096

CPU 0 Tage branch predictor
Off-chip DRAM Size: 4 GiB Channels: 1 Width: 64-bit Data Race: 3200 MT/s
Heartbeat CPU 0 instructions: 10000002 cycles: 2500203 heartbeat IPC: 4 cumulative IPC: 4 (Simulation time: 00 hr 00 min 34 sec)
Heartbeat CPU 0 instructions: 20000002 cycles: 5000203 heartbeat IPC: 4 cumulative IPC: 4 (Simulation time: 00 hr 01 min 07 sec)
Heartbeat CPU 0 instructions: 30000002 cycles: 7500203 heartbeat IPC: 4 cumulative IPC: 4 (Simulation time: 00 hr 01 min 41 sec)
Heartbeat CPU 0 instructions: 40000002 cycles: 10000203 heartbeat IPC: 4 cumulative IPC: 4 (Simulation time: 00 hr 02 min 14 sec)
Heartbeat CPU 0 instructions: 50000002 cycles: 12500203 heartbeat IPC: 4 cumulative IPC: 4 (Simulation time: 00 hr 02 min 43 sec)
Warmup finished CPU 0 instructions: 50000002 cycles: 12500204 cumulative IPC: 4 (Simulation time: 00 hr 02 min 43 sec)
Warmup complete CPU 0 instructions: 50000002 cycles: 12500204 cumulative IPC: 4 (Simulation time: 00 hr 02 min 43 sec)
Heartbeat CPU 0 instructions: 60000000 cycles: 16955541 heartbeat IPC: 2.244 cumulative IPC: 2.244 (Simulation time: 00 hr 03 min 33 sec)
Heartbeat CPU 0 instructions: 70000002 cycles: 21410989 heartbeat IPC: 2.244 cumulative IPC: 2.244 (Simulation time: 00 hr 04 min 23 sec)
Heartbeat CPU 0 instructions: 80000002 cycles: 25866437 heartbeat IPC: 2.244 cumulative IPC: 2.244 (Simulation time: 00 hr 05 min 14 sec)
Heartbeat CPU 0 instructions: 90000002 cycles: 30322575 heartbeat IPC: 2.244 cumulative IPC: 2.244 (Simulation time: 00 hr 06 min 06 sec)
Heartbeat CPU 0 instructions: 100000001 cycles: 34778022 heartbeat IPC: 2.244 cumulative IPC: 2.244 (Simulation time: 00 hr 06 min 55 sec)
Heartbeat CPU 0 instructions: 110000000 cycles: 39233465 heartbeat IPC: 2.244 cumulative IPC: 2.244 (Simulation time: 00 hr 07 min 45 sec)
Heartbeat CPU 0 instructions: 120000001 cycles: 43688907 heartbeat IPC: 2.244 cumulative IPC: 2.244 (Simulation time: 00 hr 08 min 35 sec)
Heartbeat CPU 0 instructions: 130000000 cycles: 48144353 heartbeat IPC: 2.244 cumulative IPC: 2.244 (Simulation time: 00 hr 09 min 26 sec)
Heartbeat CPU 0 instructions: 140000001 cycles: 52599799 heartbeat IPC: 2.244 cumulative IPC: 2.244 (Simulation time: 00 hr 10 min 17 sec)
Heartbeat CPU 0 instructions: 150000001 cycles: 57055247 heartbeat IPC: 2.244 cumulative IPC: 2.244 (Simulation time: 00 hr 11 min 08 sec)
Heartbeat CPU 0 instructions: 160000000 cycles: 61510690 heartbeat IPC: 2.244 cumulative IPC: 2.244 (Simulation time: 00 hr 11 min 58 sec)
Heartbeat CPU 0 instructions: 170000000 cycles: 65966132 heartbeat IPC: 2.244 cumulative IPC: 2.244 (Simulation time: 00 hr 12 min 48 sec)
Heartbeat CPU 0 instructions: 180000001 cycles: 70421579 heartbeat IPC: 2.244 cumulative IPC: 2.244 (Simulation time: 00 hr 13 min 37 sec)
Heartbeat CPU 0 instructions: 190000003 cycles: 74877026 heartbeat IPC: 2.244 cumulative IPC: 2.244 (Simulation time: 00 hr 14 min 25 sec)
Heartbeat CPU 0 instructions: 200000001 cycles: 79333163 heartbeat IPC: 2.244 cumulative IPC: 2.244 (Simulation time: 00 hr 15 min 14 sec)
Heartbeat CPU 0 instructions: 210000000 cycles: 83788607 heartbeat IPC: 2.244 cumulative IPC: 2.244 (Simulation time: 00 hr 16 min 04 sec)
Heartbeat CPU 0 instructions: 220000000 cycles: 88244049 heartbeat IPC: 2.244 cumulative IPC: 2.244 (Simulation time: 00 hr 16 min 55 sec)
Heartbeat CPU 0 instructions: 230000001 cycles: 92699496 heartbeat IPC: 2.244 cumulative IPC: 2.244 (Simulation time: 00 hr 17 min 43 sec)
Heartbeat CPU 0 instructions: 240000002 cycles: 97154942 heartbeat IPC: 2.244 cumulative IPC: 2.244 (Simulation time: 00 hr 18 min 33 sec)
Heartbeat CPU 0 instructions: 250000002 cycles: 101610390 heartbeat IPC: 2.244 cumulative IPC: 2.244 (Simulation time: 00 hr 19 min 23 sec)
Heartbeat CPU 0 instructions: 260000001 cycles: 106065833 heartbeat IPC: 2.244 cumulative IPC: 2.244 (Simulation time: 00 hr 20 min 14 sec)
Heartbeat CPU 0 instructions: 270000000 cycles: 110521279 heartbeat IPC: 2.244 cumulative IPC: 2.244 (Simulation time: 00 hr 21 min 04 sec)
Heartbeat CPU 0 instructions: 280000000 cycles: 114976727 heartbeat IPC: 2.244 cumulative IPC: 2.244 (Simulation time: 00 hr 21 min 56 sec)
Heartbeat CPU 0 instructions: 290000000 cycles: 119432175 heartbeat IPC: 2.244 cumulative IPC: 2.244 (Simulation time: 00 hr 22 min 45 sec)
Heartbeat CPU 0 instructions: 300000000 cycles: 123888313 heartbeat IPC: 2.244 cumulative IPC: 2.244 (Simulation time: 00 hr 23 min 35 sec)
Heartbeat CPU 0 instructions: 310000000 cycles: 128343756 heartbeat IPC: 2.244 cumulative IPC: 2.244 (Simulation time: 00 hr 24 min 25 sec)
Heartbeat CPU 0 instructions: 320000000 cycles: 132799198 heartbeat IPC: 2.244 cumulative IPC: 2.244 (Simulation time: 00 hr 25 min 17 sec)
Heartbeat CPU 0 instructions: 330000003 cycles: 137254644 heartbeat IPC: 2.244 cumulative IPC: 2.244 (Simulation time: 00 hr 26 min 06 sec)
Heartbeat CPU 0 instructions: 340000001 cycles: 141710090 heartbeat IPC: 2.244 cumulative IPC: 2.244 (Simulation time: 00 hr 26 min 56 sec)
Heartbeat CPU 0 instructions: 350000004 cycles: 146165538 heartbeat IPC: 2.244 cumulative IPC: 2.244 (Simulation time: 00 hr 27 min 45 sec)
Heartbeat CPU 0 instructions: 360000001 cycles: 150620982 heartbeat IPC: 2.244 cumulative IPC: 2.244 (Simulation time: 00 hr 28 min 34 sec)
Heartbeat CPU 0 instructions: 370000000 cycles: 155076423 heartbeat IPC: 2.244 cumulative IPC: 2.244 (Simulation time: 00 hr 29 min 24 sec)
Heartbeat CPU 0 instructions: 380000004 cycles: 159531870 heartbeat IPC: 2.244 cumulative IPC: 2.244 (Simulation time: 00 hr 30 min 11 sec)
Heartbeat CPU 0 instructions: 390000001 cycles: 163987316 heartbeat IPC: 2.244 cumulative IPC: 2.244 (Simulation time: 00 hr 31 min 00 sec)
Heartbeat CPU 0 instructions: 400000001 cycles: 168442764 heartbeat IPC: 2.244 cumulative IPC: 2.244 (Simulation time: 00 hr 31 min 49 sec)
Heartbeat CPU 0 instructions: 410000001 cycles: 172898899 heartbeat IPC: 2.244 cumulative IPC: 2.244 (Simulation time: 00 hr 32 min 38 sec)
Heartbeat CPU 0 instructions: 420000000 cycles: 177354340 heartbeat IPC: 2.244 cumulative IPC: 2.244 (Simulation time: 00 hr 33 min 28 sec)
Heartbeat CPU 0 instructions: 430000004 cycles: 181809787 heartbeat IPC: 2.244 cumulative IPC: 2.244 (Simulation time: 00 hr 34 min 19 sec)
Heartbeat CPU 0 instructions: 440000000 cycles: 186265232 heartbeat IPC: 2.244 cumulative IPC: 2.244 (Simulation time: 00 hr 35 min 10 sec)
Heartbeat CPU 0 instructions: 450000000 cycles: 190720680 heartbeat IPC: 2.244 cumulative IPC: 2.244 (Simulation time: 00 hr 35 min 57 sec)
Heartbeat CPU 0 instructions: 460000000 cycles: 195176124 heartbeat IPC: 2.244 cumulative IPC: 2.244 (Simulation time: 00 hr 36 min 46 sec)
Heartbeat CPU 0 instructions: 470000003 cycles: 199631570 heartbeat IPC: 2.244 cumulative IPC: 2.244 (Simulation time: 00 hr 37 min 34 sec)
Heartbeat CPU 0 instructions: 480000003 cycles: 204087018 heartbeat IPC: 2.244 cumulative IPC: 2.244 (Simulation time: 00 hr 38 min 28 sec)
Heartbeat CPU 0 instructions: 490000003 cycles: 208542466 heartbeat IPC: 2.244 cumulative IPC: 2.244 (Simulation time: 00 hr 39 min 18 sec)
Heartbeat CPU 0 instructions: 500000003 cycles: 212997914 heartbeat IPC: 2.244 cumulative IPC: 2.244 (Simulation time: 00 hr 40 min 08 sec)
Heartbeat CPU 0 instructions: 510000000 cycles: 217453358 heartbeat IPC: 2.244 cumulative IPC: 2.244 (Simulation time: 00 hr 40 min 57 sec)
Heartbeat CPU 0 instructions: 520000000 cycles: 221909490 heartbeat IPC: 2.244 cumulative IPC: 2.244 (Simulation time: 00 hr 41 min 46 sec)
Heartbeat CPU 0 instructions: 530000001 cycles: 226364934 heartbeat IPC: 2.244 cumulative IPC: 2.244 (Simulation time: 00 hr 42 min 35 sec)
Heartbeat CPU 0 instructions: 540000000 cycles: 230820381 heartbeat IPC: 2.244 cumulative IPC: 2.244 (Simulation time: 00 hr 43 min 24 sec)
Heartbeat CPU 0 instructions: 550000002 cycles: 235275828 heartbeat IPC: 2.244 cumulative IPC: 2.244 (Simulation time: 00 hr 44 min 14 sec)
Heartbeat CPU 0 instructions: 560000000 cycles: 239731273 heartbeat IPC: 2.244 cumulative IPC: 2.244 (Simulation time: 00 hr 45 min 03 sec)
Heartbeat CPU 0 instructions: 570000000 cycles: 244186715 heartbeat IPC: 2.244 cumulative IPC: 2.244 (Simulation time: 00 hr 45 min 51 sec)
Heartbeat CPU 0 instructions: 580000002 cycles: 248642160 heartbeat IPC: 2.244 cumulative IPC: 2.244 (Simulation time: 00 hr 46 min 39 sec)
Heartbeat CPU 0 instructions: 590000001 cycles: 253097607 heartbeat IPC: 2.244 cumulative IPC: 2.244 (Simulation time: 00 hr 47 min 28 sec)
*** Reached end of trace: (0, "traces/is.A.champsimtrace")
Heartbeat CPU 0 instructions: 600000001 cycles: 257553384 heartbeat IPC: 2.244 cumulative IPC: 2.244 (Simulation time: 00 hr 48 min 17 sec)
Heartbeat CPU 0 instructions: 610000000 cycles: 263399789 heartbeat IPC: 1.71 cumulative IPC: 2.232 (Simulation time: 00 hr 49 min 12 sec)
Heartbeat CPU 0 instructions: 620000000 cycles: 267855231 heartbeat IPC: 2.244 cumulative IPC: 2.232 (Simulation time: 00 hr 50 min 00 sec)
Heartbeat CPU 0 instructions: 630000002 cycles: 272310679 heartbeat IPC: 2.244 cumulative IPC: 2.232 (Simulation time: 00 hr 50 min 49 sec)
Heartbeat CPU 0 instructions: 640000003 cycles: 276766125 heartbeat IPC: 2.244 cumulative IPC: 2.233 (Simulation time: 00 hr 51 min 39 sec)
Heartbeat CPU 0 instructions: 650000003 cycles: 281221573 heartbeat IPC: 2.244 cumulative IPC: 2.233 (Simulation time: 00 hr 52 min 27 sec)
Simulation finished CPU 0 instructions: 600000001 cycles: 268721370 cumulative IPC: 2.233 (Simulation time: 00 hr 52 min 27 sec)
Simulation complete CPU 0 instructions: 600000001 cycles: 268721370 cumulative IPC: 2.233 (Simulation time: 00 hr 52 min 27 sec)

ChampSim completed all CPUs

=== Simulation ===
CPU 0 runs traces/is.A.champsimtrace
Region of Interest Statistics

CPU 0 cumulative IPC: 2.233 instructions: 600000001 cycles: 268721370
CPU 0 Branch Prediction Accuracy: 99.99% MPKI: 0.002962 Average ROB Occupancy at Mispredict: 68.13
Branch type MPKI
BRANCH_DIRECT_JUMP: 3.33e-06
BRANCH_INDIRECT: 8.5e-05
BRANCH_CONDITIONAL: 0.00282
BRANCH_DIRECT_CALL: 0
BRANCH_INDIRECT_CALL: 3.5e-05
BRANCH_RETURN: 2e-05

LLC TOTAL        ACCESS:     375849 HIT:      45422 MISS:     330427
LLC LOAD         ACCESS:       3286 HIT:         12 MISS:       3274
LLC RFO          ACCESS:     186184 HIT:          1 MISS:     186183
LLC PREFETCH     ACCESS:          0 HIT:          0 MISS:          0
LLC WRITE        ACCESS:     186250 HIT:      45409 MISS:     140841
LLC TRANSLATION  ACCESS:        129 HIT:          0 MISS:        129
LLC PREFETCH REQUESTED:          0 ISSUED:          0 USEFUL:          0 USELESS:          0
LLC AVERAGE MISS LATENCY: 268.1 cycles
cpu0_DTLB TOTAL        ACCESS:   71301563 HIT:   71292972 MISS:       8591
cpu0_DTLB LOAD         ACCESS:   71301563 HIT:   71292972 MISS:       8591
cpu0_DTLB RFO          ACCESS:          0 HIT:          0 MISS:          0
cpu0_DTLB PREFETCH     ACCESS:          0 HIT:          0 MISS:          0
cpu0_DTLB WRITE        ACCESS:          0 HIT:          0 MISS:          0
cpu0_DTLB TRANSLATION  ACCESS:          0 HIT:          0 MISS:          0
cpu0_DTLB PREFETCH REQUESTED:          0 ISSUED:          0 USEFUL:          0 USELESS:          0
cpu0_DTLB AVERAGE MISS LATENCY: 20.68 cycles
cpu0_ITLB TOTAL        ACCESS:       2948 HIT:       2794 MISS:        154
cpu0_ITLB LOAD         ACCESS:       2948 HIT:       2794 MISS:        154
cpu0_ITLB RFO          ACCESS:          0 HIT:          0 MISS:          0
cpu0_ITLB PREFETCH     ACCESS:          0 HIT:          0 MISS:          0
cpu0_ITLB WRITE        ACCESS:          0 HIT:          0 MISS:          0
cpu0_ITLB TRANSLATION  ACCESS:          0 HIT:          0 MISS:          0
cpu0_ITLB PREFETCH REQUESTED:          0 ISSUED:          0 USEFUL:          0 USELESS:          0
cpu0_ITLB AVERAGE MISS LATENCY: 345.8 cycles
cpu0_L1D TOTAL        ACCESS:   83191268 HIT:   82129925 MISS:    1061343
cpu0_L1D LOAD         ACCESS:   47542553 HIT:   47534222 MISS:       8331
cpu0_L1D RFO          ACCESS:          0 HIT:          0 MISS:          0
cpu0_L1D PREFETCH     ACCESS:          0 HIT:          0 MISS:          0
cpu0_L1D WRITE        ACCESS:   35645655 HIT:   34592786 MISS:    1052869
cpu0_L1D TRANSLATION  ACCESS:       3060 HIT:       2917 MISS:        143
cpu0_L1D PREFETCH REQUESTED:          0 ISSUED:          0 USEFUL:          0 USELESS:          0
cpu0_L1D AVERAGE MISS LATENCY: 15.25 cycles
cpu0_L1I TOTAL        ACCESS:       3438 HIT:       1588 MISS:       1850
cpu0_L1I LOAD         ACCESS:       3438 HIT:       1588 MISS:       1850
cpu0_L1I RFO          ACCESS:          0 HIT:          0 MISS:          0
cpu0_L1I PREFETCH     ACCESS:          0 HIT:          0 MISS:          0
cpu0_L1I WRITE        ACCESS:          0 HIT:          0 MISS:          0
cpu0_L1I TRANSLATION  ACCESS:          0 HIT:          0 MISS:          0
cpu0_L1I PREFETCH REQUESTED:          0 ISSUED:          0 USEFUL:          0 USELESS:          0
cpu0_L1I AVERAGE MISS LATENCY: 568.4 cycles
cpu0_L2C TOTAL        ACCESS:     376558 HIT:     186957 MISS:     189601
cpu0_L2C LOAD         ACCESS:       3813 HIT:        527 MISS:       3286
cpu0_L2C RFO          ACCESS:     186255 HIT:         71 MISS:     186184
cpu0_L2C PREFETCH     ACCESS:          0 HIT:          0 MISS:          0
cpu0_L2C WRITE        ACCESS:     186348 HIT:     186346 MISS:          2
cpu0_L2C TRANSLATION  ACCESS:        142 HIT:         13 MISS:        129
cpu0_L2C PREFETCH REQUESTED:          0 ISSUED:          0 USEFUL:          0 USELESS:          0
cpu0_L2C AVERAGE MISS LATENCY: 488.3 cycles
cpu0_STLB TOTAL        ACCESS:       3073 HIT:         18 MISS:       3055
cpu0_STLB LOAD         ACCESS:       3073 HIT:         18 MISS:       3055
cpu0_STLB RFO          ACCESS:          0 HIT:          0 MISS:          0
cpu0_STLB PREFETCH     ACCESS:          0 HIT:          0 MISS:          0
cpu0_STLB WRITE        ACCESS:          0 HIT:          0 MISS:          0
cpu0_STLB TRANSLATION  ACCESS:          0 HIT:          0 MISS:          0
cpu0_STLB PREFETCH REQUESTED:          0 ISSUED:          0 USEFUL:          0 USELESS:          0
cpu0_STLB AVERAGE MISS LATENCY: 229.9 cycles

DRAM Statistics

Channel 0 RQ ROW_BUFFER_HIT:      24469
  ROW_BUFFER_MISS:     165117
 AVG DBUS CONGESTED CYCLE: 3.816
WQ ROW_BUFFER_HIT: Channel 0 
  ROW_BUFFER_MISS:        728
  FULL:     166599
