WARNING: physical memory size is smaller than virtual memory size.

*** ChampSim Multicore Out-of-Order Simulator ***
Warmup Instructions: 50000000
Simulation Instructions: 600000000
Number of CPUs: 1
Page size: 4096

Off-chip DRAM Size: 4 GiB Channels: 1 Width: 64-bit Data Race: 3200 MT/s
Heartbeat CPU 0 instructions: 10000003 cycles: 2500203 heartbeat IPC: 4 cumulative IPC: 4 (Simulation time: 00 hr 00 min 45 sec)
Heartbeat CPU 0 instructions: 20000003 cycles: 5000203 heartbeat IPC: 4 cumulative IPC: 4 (Simulation time: 00 hr 01 min 28 sec)
Heartbeat CPU 0 instructions: 30000003 cycles: 7500203 heartbeat IPC: 4 cumulative IPC: 4 (Simulation time: 00 hr 02 min 12 sec)
Heartbeat CPU 0 instructions: 40000003 cycles: 10000203 heartbeat IPC: 4 cumulative IPC: 4 (Simulation time: 00 hr 02 min 53 sec)
Heartbeat CPU 0 instructions: 50000003 cycles: 12500203 heartbeat IPC: 4 cumulative IPC: 4 (Simulation time: 00 hr 03 min 38 sec)
Warmup finished CPU 0 instructions: 50000003 cycles: 12500204 cumulative IPC: 4 (Simulation time: 00 hr 03 min 38 sec)
Warmup complete CPU 0 instructions: 50000003 cycles: 12500204 cumulative IPC: 4 (Simulation time: 00 hr 03 min 38 sec)
Heartbeat CPU 0 instructions: 60000001 cycles: 16955546 heartbeat IPC: 2.244 cumulative IPC: 2.244 (Simulation time: 00 hr 04 min 57 sec)
Heartbeat CPU 0 instructions: 70000002 cycles: 21410992 heartbeat IPC: 2.244 cumulative IPC: 2.244 (Simulation time: 00 hr 06 min 18 sec)
Heartbeat CPU 0 instructions: 80000002 cycles: 25866440 heartbeat IPC: 2.244 cumulative IPC: 2.244 (Simulation time: 00 hr 07 min 39 sec)
Heartbeat CPU 0 instructions: 90000001 cycles: 30322078 heartbeat IPC: 2.244 cumulative IPC: 2.244 (Simulation time: 00 hr 09 min 01 sec)
Heartbeat CPU 0 instructions: 100000000 cycles: 34777524 heartbeat IPC: 2.244 cumulative IPC: 2.244 (Simulation time: 00 hr 10 min 24 sec)
Heartbeat CPU 0 instructions: 110000000 cycles: 39232972 heartbeat IPC: 2.244 cumulative IPC: 2.244 (Simulation time: 00 hr 11 min 48 sec)
Heartbeat CPU 0 instructions: 120000000 cycles: 43688420 heartbeat IPC: 2.244 cumulative IPC: 2.244 (Simulation time: 00 hr 13 min 10 sec)
Heartbeat CPU 0 instructions: 130000000 cycles: 48143868 heartbeat IPC: 2.244 cumulative IPC: 2.244 (Simulation time: 00 hr 14 min 34 sec)
Heartbeat CPU 0 instructions: 140000000 cycles: 52599311 heartbeat IPC: 2.244 cumulative IPC: 2.244 (Simulation time: 00 hr 15 min 56 sec)
Heartbeat CPU 0 instructions: 150000000 cycles: 57054753 heartbeat IPC: 2.244 cumulative IPC: 2.244 (Simulation time: 00 hr 17 min 20 sec)
Heartbeat CPU 0 instructions: 160000003 cycles: 61510199 heartbeat IPC: 2.244 cumulative IPC: 2.244 (Simulation time: 00 hr 18 min 43 sec)
Heartbeat CPU 0 instructions: 170000001 cycles: 65965645 heartbeat IPC: 2.244 cumulative IPC: 2.244 (Simulation time: 00 hr 20 min 05 sec)
Heartbeat CPU 0 instructions: 180000004 cycles: 70421093 heartbeat IPC: 2.244 cumulative IPC: 2.244 (Simulation time: 00 hr 21 min 27 sec)
Heartbeat CPU 0 instructions: 190000001 cycles: 74876537 heartbeat IPC: 2.244 cumulative IPC: 2.244 (Simulation time: 00 hr 22 min 50 sec)
Heartbeat CPU 0 instructions: 200000000 cycles: 79332173 heartbeat IPC: 2.244 cumulative IPC: 2.244 (Simulation time: 00 hr 24 min 06 sec)
Heartbeat CPU 0 instructions: 210000004 cycles: 83787620 heartbeat IPC: 2.244 cumulative IPC: 2.244 (Simulation time: 00 hr 25 min 21 sec)
Heartbeat CPU 0 instructions: 220000001 cycles: 88243066 heartbeat IPC: 2.244 cumulative IPC: 2.244 (Simulation time: 00 hr 26 min 34 sec)
Heartbeat CPU 0 instructions: 230000001 cycles: 92698514 heartbeat IPC: 2.244 cumulative IPC: 2.244 (Simulation time: 00 hr 27 min 49 sec)
Heartbeat CPU 0 instructions: 240000001 cycles: 97153959 heartbeat IPC: 2.244 cumulative IPC: 2.244 (Simulation time: 00 hr 29 min 02 sec)
Heartbeat CPU 0 instructions: 250000000 cycles: 101609400 heartbeat IPC: 2.244 cumulative IPC: 2.244 (Simulation time: 00 hr 30 min 14 sec)
Heartbeat CPU 0 instructions: 260000004 cycles: 106064847 heartbeat IPC: 2.244 cumulative IPC: 2.244 (Simulation time: 00 hr 31 min 34 sec)
Heartbeat CPU 0 instructions: 270000000 cycles: 110520292 heartbeat IPC: 2.244 cumulative IPC: 2.244 (Simulation time: 00 hr 32 min 50 sec)
Heartbeat CPU 0 instructions: 280000000 cycles: 114975740 heartbeat IPC: 2.244 cumulative IPC: 2.244 (Simulation time: 00 hr 34 min 06 sec)
Heartbeat CPU 0 instructions: 290000000 cycles: 119431184 heartbeat IPC: 2.244 cumulative IPC: 2.244 (Simulation time: 00 hr 35 min 21 sec)
Heartbeat CPU 0 instructions: 300000003 cycles: 123887320 heartbeat IPC: 2.244 cumulative IPC: 2.244 (Simulation time: 00 hr 36 min 40 sec)
Heartbeat CPU 0 instructions: 310000003 cycles: 128342768 heartbeat IPC: 2.244 cumulative IPC: 2.244 (Simulation time: 00 hr 37 min 56 sec)
Heartbeat CPU 0 instructions: 320000003 cycles: 132798216 heartbeat IPC: 2.244 cumulative IPC: 2.244 (Simulation time: 00 hr 39 min 12 sec)
Heartbeat CPU 0 instructions: 330000003 cycles: 137253664 heartbeat IPC: 2.244 cumulative IPC: 2.244 (Simulation time: 00 hr 40 min 28 sec)
Heartbeat CPU 0 instructions: 340000000 cycles: 141709108 heartbeat IPC: 2.244 cumulative IPC: 2.244 (Simulation time: 00 hr 41 min 42 sec)
Heartbeat CPU 0 instructions: 350000000 cycles: 146164550 heartbeat IPC: 2.244 cumulative IPC: 2.244 (Simulation time: 00 hr 42 min 57 sec)
Heartbeat CPU 0 instructions: 360000001 cycles: 150619994 heartbeat IPC: 2.244 cumulative IPC: 2.244 (Simulation time: 00 hr 44 min 13 sec)
Heartbeat CPU 0 instructions: 370000000 cycles: 155075441 heartbeat IPC: 2.244 cumulative IPC: 2.244 (Simulation time: 00 hr 45 min 35 sec)
Heartbeat CPU 0 instructions: 380000002 cycles: 159530888 heartbeat IPC: 2.244 cumulative IPC: 2.244 (Simulation time: 00 hr 46 min 55 sec)
Heartbeat CPU 0 instructions: 390000000 cycles: 163986333 heartbeat IPC: 2.244 cumulative IPC: 2.244 (Simulation time: 00 hr 48 min 15 sec)
Heartbeat CPU 0 instructions: 400000000 cycles: 168441775 heartbeat IPC: 2.244 cumulative IPC: 2.244 (Simulation time: 00 hr 49 min 33 sec)
Heartbeat CPU 0 instructions: 410000002 cycles: 172897910 heartbeat IPC: 2.244 cumulative IPC: 2.244 (Simulation time: 00 hr 50 min 50 sec)
Heartbeat CPU 0 instructions: 420000001 cycles: 177353357 heartbeat IPC: 2.244 cumulative IPC: 2.244 (Simulation time: 00 hr 52 min 08 sec)
Heartbeat CPU 0 instructions: 430000004 cycles: 181808805 heartbeat IPC: 2.244 cumulative IPC: 2.244 (Simulation time: 00 hr 53 min 26 sec)
Heartbeat CPU 0 instructions: 440000000 cycles: 186264250 heartbeat IPC: 2.244 cumulative IPC: 2.244 (Simulation time: 00 hr 54 min 44 sec)
Heartbeat CPU 0 instructions: 450000000 cycles: 190719692 heartbeat IPC: 2.244 cumulative IPC: 2.244 (Simulation time: 00 hr 56 min 09 sec)
Heartbeat CPU 0 instructions: 460000002 cycles: 195175137 heartbeat IPC: 2.244 cumulative IPC: 2.244 (Simulation time: 00 hr 57 min 30 sec)
Heartbeat CPU 0 instructions: 470000000 cycles: 199630583 heartbeat IPC: 2.244 cumulative IPC: 2.244 (Simulation time: 00 hr 58 min 50 sec)
Heartbeat CPU 0 instructions: 480000003 cycles: 204086031 heartbeat IPC: 2.244 cumulative IPC: 2.244 (Simulation time: 01 hr 00 min 17 sec)
Heartbeat CPU 0 instructions: 490000001 cycles: 208541476 heartbeat IPC: 2.244 cumulative IPC: 2.244 (Simulation time: 01 hr 01 min 37 sec)
Heartbeat CPU 0 instructions: 500000001 cycles: 212996920 heartbeat IPC: 2.244 cumulative IPC: 2.244 (Simulation time: 01 hr 03 min 05 sec)
Heartbeat CPU 0 instructions: 510000001 cycles: 217452368 heartbeat IPC: 2.244 cumulative IPC: 2.244 (Simulation time: 01 hr 04 min 24 sec)
Heartbeat CPU 0 instructions: 520000001 cycles: 221908506 heartbeat IPC: 2.244 cumulative IPC: 2.244 (Simulation time: 01 hr 05 min 37 sec)
Heartbeat CPU 0 instructions: 530000001 cycles: 226363954 heartbeat IPC: 2.244 cumulative IPC: 2.244 (Simulation time: 01 hr 06 min 49 sec)
Heartbeat CPU 0 instructions: 540000002 cycles: 230819400 heartbeat IPC: 2.244 cumulative IPC: 2.244 (Simulation time: 01 hr 08 min 10 sec)
Heartbeat CPU 0 instructions: 550000000 cycles: 235274842 heartbeat IPC: 2.244 cumulative IPC: 2.244 (Simulation time: 01 hr 09 min 36 sec)
Heartbeat CPU 0 instructions: 560000002 cycles: 239730285 heartbeat IPC: 2.244 cumulative IPC: 2.244 (Simulation time: 01 hr 11 min 00 sec)
Heartbeat CPU 0 instructions: 570000004 cycles: 244185733 heartbeat IPC: 2.244 cumulative IPC: 2.244 (Simulation time: 01 hr 12 min 14 sec)
Heartbeat CPU 0 instructions: 580000000 cycles: 248641178 heartbeat IPC: 2.244 cumulative IPC: 2.244 (Simulation time: 01 hr 13 min 26 sec)
Heartbeat CPU 0 instructions: 590000000 cycles: 253096625 heartbeat IPC: 2.244 cumulative IPC: 2.244 (Simulation time: 01 hr 14 min 41 sec)
*** Reached end of trace: (0, "traces/is.A.champsimtrace")
Heartbeat CPU 0 instructions: 600000001 cycles: 257552393 heartbeat IPC: 2.244 cumulative IPC: 2.244 (Simulation time: 01 hr 15 min 56 sec)
Heartbeat CPU 0 instructions: 610000000 cycles: 264035968 heartbeat IPC: 1.542 cumulative IPC: 2.226 (Simulation time: 01 hr 17 min 26 sec)
Heartbeat CPU 0 instructions: 620000002 cycles: 268491415 heartbeat IPC: 2.244 cumulative IPC: 2.227 (Simulation time: 01 hr 18 min 38 sec)
Heartbeat CPU 0 instructions: 630000000 cycles: 272946862 heartbeat IPC: 2.244 cumulative IPC: 2.227 (Simulation time: 01 hr 19 min 51 sec)
Heartbeat CPU 0 instructions: 640000000 cycles: 277402307 heartbeat IPC: 2.244 cumulative IPC: 2.227 (Simulation time: 01 hr 21 min 03 sec)
Heartbeat CPU 0 instructions: 650000001 cycles: 281857749 heartbeat IPC: 2.244 cumulative IPC: 2.228 (Simulation time: 01 hr 22 min 16 sec)
Simulation finished CPU 0 instructions: 600000000 cycles: 269357548 cumulative IPC: 2.228 (Simulation time: 01 hr 22 min 16 sec)
Simulation complete CPU 0 instructions: 600000000 cycles: 269357548 cumulative IPC: 2.228 (Simulation time: 01 hr 22 min 16 sec)

ChampSim completed all CPUs

=== Simulation ===
CPU 0 runs traces/is.A.champsimtrace
Region of Interest Statistics

CPU 0 cumulative IPC: 2.228 instructions: 600000000 cycles: 269357548
CPU 0 Branch Prediction Accuracy: 99.98% MPKI: 0.006875 Average ROB Occupancy at Mispredict: 42
Branch type MPKI
BRANCH_DIRECT_JUMP: 3.33e-06
BRANCH_INDIRECT: 9.33e-05
BRANCH_CONDITIONAL: 0.00672
BRANCH_DIRECT_CALL: 0
BRANCH_INDIRECT_CALL: 3.67e-05
BRANCH_RETURN: 1.83e-05

LLC TOTAL        ACCESS:     377867 HIT:     151801 MISS:     226066
LLC LOAD         ACCESS:       3266 HIT:        570 MISS:       2696
LLC RFO          ACCESS:     186180 HIT:          7 MISS:     186173
LLC PREFETCH     ACCESS:       2054 HIT:        550 MISS:       1504
LLC WRITE        ACCESS:     186235 HIT:     150672 MISS:      35563
LLC TRANSLATION  ACCESS:        132 HIT:          2 MISS:        130
LLC PREFETCH REQUESTED:       2054 ISSUED:       2054 USEFUL:        789 USELESS:         33
LLC AVERAGE MISS LATENCY: 403.8 cycles
cpu0_DTLB TOTAL        ACCESS:   71303522 HIT:   71294923 MISS:       8599
cpu0_DTLB LOAD         ACCESS:   71303522 HIT:   71294923 MISS:       8599
cpu0_DTLB RFO          ACCESS:          0 HIT:          0 MISS:          0
cpu0_DTLB PREFETCH     ACCESS:          0 HIT:          0 MISS:          0
cpu0_DTLB WRITE        ACCESS:          0 HIT:          0 MISS:          0
cpu0_DTLB TRANSLATION  ACCESS:          0 HIT:          0 MISS:          0
cpu0_DTLB PREFETCH REQUESTED:          0 ISSUED:          0 USEFUL:          0 USELESS:          0
cpu0_DTLB AVERAGE MISS LATENCY: 21.62 cycles
cpu0_ITLB TOTAL        ACCESS:       2774 HIT:       2629 MISS:        145
cpu0_ITLB LOAD         ACCESS:       2774 HIT:       2629 MISS:        145
cpu0_ITLB RFO          ACCESS:          0 HIT:          0 MISS:          0
cpu0_ITLB PREFETCH     ACCESS:          0 HIT:          0 MISS:          0
cpu0_ITLB WRITE        ACCESS:          0 HIT:          0 MISS:          0
cpu0_ITLB TRANSLATION  ACCESS:          0 HIT:          0 MISS:          0
cpu0_ITLB PREFETCH REQUESTED:          0 ISSUED:          0 USEFUL:          0 USELESS:          0
cpu0_ITLB AVERAGE MISS LATENCY: 642.2 cycles
cpu0_L1D TOTAL        ACCESS:   83193380 HIT:   82134471 MISS:    1058909
cpu0_L1D LOAD         ACCESS:   47544787 HIT:   47537763 MISS:       7024
cpu0_L1D RFO          ACCESS:          0 HIT:          0 MISS:          0
cpu0_L1D PREFETCH     ACCESS:          0 HIT:          0 MISS:          0
cpu0_L1D WRITE        ACCESS:   35645531 HIT:   34593793 MISS:    1051738
cpu0_L1D TRANSLATION  ACCESS:       3062 HIT:       2915 MISS:        147
cpu0_L1D PREFETCH REQUESTED:          0 ISSUED:          0 USEFUL:          0 USELESS:          0
cpu0_L1D AVERAGE MISS LATENCY: 16.09 cycles
cpu0_L1I TOTAL        ACCESS:       3203 HIT:       1645 MISS:       1558
cpu0_L1I LOAD         ACCESS:       3203 HIT:       1645 MISS:       1558
cpu0_L1I RFO          ACCESS:          0 HIT:          0 MISS:          0
cpu0_L1I PREFETCH     ACCESS:          0 HIT:          0 MISS:          0
cpu0_L1I WRITE        ACCESS:          0 HIT:          0 MISS:          0
cpu0_L1I TRANSLATION  ACCESS:          0 HIT:          0 MISS:          0
cpu0_L1I PREFETCH REQUESTED:          0 ISSUED:          0 USEFUL:          0 USELESS:          0
cpu0_L1I AVERAGE MISS LATENCY: 1007 cycles
cpu0_L2C TOTAL        ACCESS:     376512 HIT:     186931 MISS:     189581
cpu0_L2C LOAD         ACCESS:       3802 HIT:        536 MISS:       3266
cpu0_L2C RFO          ACCESS:     186237 HIT:         56 MISS:     186181
cpu0_L2C PREFETCH     ACCESS:          0 HIT:          0 MISS:          0
cpu0_L2C WRITE        ACCESS:     186327 HIT:     186325 MISS:          2
cpu0_L2C TRANSLATION  ACCESS:        146 HIT:         14 MISS:        132
cpu0_L2C PREFETCH REQUESTED:          0 ISSUED:          0 USEFUL:          0 USELESS:          0
cpu0_L2C AVERAGE MISS LATENCY: 495.3 cycles
cpu0_STLB TOTAL        ACCESS:       3104 HIT:         47 MISS:       3057
cpu0_STLB LOAD         ACCESS:       3104 HIT:         47 MISS:       3057
cpu0_STLB RFO          ACCESS:          0 HIT:          0 MISS:          0
cpu0_STLB PREFETCH     ACCESS:          0 HIT:          0 MISS:          0
cpu0_STLB WRITE        ACCESS:          0 HIT:          0 MISS:          0
cpu0_STLB TRANSLATION  ACCESS:          0 HIT:          0 MISS:          0
cpu0_STLB PREFETCH REQUESTED:          0 ISSUED:          0 USEFUL:          0 USELESS:          0
cpu0_STLB AVERAGE MISS LATENCY: 248.4 cycles

DRAM Statistics

Channel 0 RQ ROW_BUFFER_HIT:      24837
  ROW_BUFFER_MISS:     164792
 AVG DBUS CONGESTED CYCLE: 3.982
WQ ROW_BUFFER_HIT: Channel 0 
  ROW_BUFFER_MISS:        615
  FULL:     166738
