WARNING: physical memory size is smaller than virtual memory size.

*** ChampSim Multicore Out-of-Order Simulator ***
Warmup Instructions: 50000000
Simulation Instructions: 600000000
Number of CPUs: 1
Page size: 4096

CPU 0 Tage branch predictor
Off-chip DRAM Size: 4 GiB Channels: 1 Width: 64-bit Data Race: 3200 MT/s
Heartbeat CPU 0 instructions: 10000002 cycles: 2500203 heartbeat IPC: 4 cumulative IPC: 4 (Simulation time: 00 hr 00 min 45 sec)
Heartbeat CPU 0 instructions: 20000002 cycles: 5000203 heartbeat IPC: 4 cumulative IPC: 4 (Simulation time: 00 hr 01 min 33 sec)
Heartbeat CPU 0 instructions: 30000002 cycles: 7500203 heartbeat IPC: 4 cumulative IPC: 4 (Simulation time: 00 hr 02 min 20 sec)
Heartbeat CPU 0 instructions: 40000002 cycles: 10000203 heartbeat IPC: 4 cumulative IPC: 4 (Simulation time: 00 hr 03 min 07 sec)
Heartbeat CPU 0 instructions: 50000002 cycles: 12500203 heartbeat IPC: 4 cumulative IPC: 4 (Simulation time: 00 hr 03 min 53 sec)
Warmup finished CPU 0 instructions: 50000002 cycles: 12500204 cumulative IPC: 4 (Simulation time: 00 hr 03 min 53 sec)
Warmup complete CPU 0 instructions: 50000002 cycles: 12500204 cumulative IPC: 4 (Simulation time: 00 hr 03 min 53 sec)
Heartbeat CPU 0 instructions: 60000000 cycles: 16955541 heartbeat IPC: 2.244 cumulative IPC: 2.244 (Simulation time: 00 hr 05 min 12 sec)
Heartbeat CPU 0 instructions: 70000002 cycles: 21410989 heartbeat IPC: 2.244 cumulative IPC: 2.244 (Simulation time: 00 hr 06 min 28 sec)
Heartbeat CPU 0 instructions: 80000002 cycles: 25866437 heartbeat IPC: 2.244 cumulative IPC: 2.244 (Simulation time: 00 hr 07 min 45 sec)
Heartbeat CPU 0 instructions: 90000002 cycles: 30322575 heartbeat IPC: 2.244 cumulative IPC: 2.244 (Simulation time: 00 hr 09 min 03 sec)
Heartbeat CPU 0 instructions: 100000001 cycles: 34778022 heartbeat IPC: 2.244 cumulative IPC: 2.244 (Simulation time: 00 hr 10 min 30 sec)
Heartbeat CPU 0 instructions: 110000000 cycles: 39233465 heartbeat IPC: 2.244 cumulative IPC: 2.244 (Simulation time: 00 hr 11 min 46 sec)
Heartbeat CPU 0 instructions: 120000001 cycles: 43688907 heartbeat IPC: 2.244 cumulative IPC: 2.244 (Simulation time: 00 hr 13 min 02 sec)
Heartbeat CPU 0 instructions: 130000000 cycles: 48144353 heartbeat IPC: 2.244 cumulative IPC: 2.244 (Simulation time: 00 hr 14 min 19 sec)
Heartbeat CPU 0 instructions: 140000001 cycles: 52599799 heartbeat IPC: 2.244 cumulative IPC: 2.244 (Simulation time: 00 hr 15 min 37 sec)
Heartbeat CPU 0 instructions: 150000001 cycles: 57055247 heartbeat IPC: 2.244 cumulative IPC: 2.244 (Simulation time: 00 hr 16 min 52 sec)
Heartbeat CPU 0 instructions: 160000000 cycles: 61510690 heartbeat IPC: 2.244 cumulative IPC: 2.244 (Simulation time: 00 hr 18 min 09 sec)
Heartbeat CPU 0 instructions: 170000000 cycles: 65966132 heartbeat IPC: 2.244 cumulative IPC: 2.244 (Simulation time: 00 hr 19 min 25 sec)
Heartbeat CPU 0 instructions: 180000001 cycles: 70421579 heartbeat IPC: 2.244 cumulative IPC: 2.244 (Simulation time: 00 hr 20 min 43 sec)
Heartbeat CPU 0 instructions: 190000003 cycles: 74877026 heartbeat IPC: 2.244 cumulative IPC: 2.244 (Simulation time: 00 hr 21 min 59 sec)
Heartbeat CPU 0 instructions: 200000001 cycles: 79332668 heartbeat IPC: 2.244 cumulative IPC: 2.244 (Simulation time: 00 hr 23 min 15 sec)
Heartbeat CPU 0 instructions: 210000000 cycles: 83788112 heartbeat IPC: 2.244 cumulative IPC: 2.244 (Simulation time: 00 hr 24 min 33 sec)
Heartbeat CPU 0 instructions: 220000000 cycles: 88243554 heartbeat IPC: 2.244 cumulative IPC: 2.244 (Simulation time: 00 hr 25 min 48 sec)
Heartbeat CPU 0 instructions: 230000001 cycles: 92699001 heartbeat IPC: 2.244 cumulative IPC: 2.244 (Simulation time: 00 hr 27 min 06 sec)
Heartbeat CPU 0 instructions: 240000002 cycles: 97154447 heartbeat IPC: 2.244 cumulative IPC: 2.244 (Simulation time: 00 hr 28 min 22 sec)
Heartbeat CPU 0 instructions: 250000002 cycles: 101609895 heartbeat IPC: 2.244 cumulative IPC: 2.244 (Simulation time: 00 hr 29 min 41 sec)
Heartbeat CPU 0 instructions: 260000001 cycles: 106065338 heartbeat IPC: 2.244 cumulative IPC: 2.244 (Simulation time: 00 hr 30 min 59 sec)
Heartbeat CPU 0 instructions: 270000000 cycles: 110520784 heartbeat IPC: 2.244 cumulative IPC: 2.244 (Simulation time: 00 hr 32 min 17 sec)
Heartbeat CPU 0 instructions: 280000000 cycles: 114976232 heartbeat IPC: 2.244 cumulative IPC: 2.244 (Simulation time: 00 hr 33 min 34 sec)
Heartbeat CPU 0 instructions: 290000000 cycles: 119431680 heartbeat IPC: 2.244 cumulative IPC: 2.244 (Simulation time: 00 hr 34 min 52 sec)
Heartbeat CPU 0 instructions: 300000000 cycles: 123887323 heartbeat IPC: 2.244 cumulative IPC: 2.244 (Simulation time: 00 hr 36 min 10 sec)
Heartbeat CPU 0 instructions: 310000000 cycles: 128342766 heartbeat IPC: 2.244 cumulative IPC: 2.244 (Simulation time: 00 hr 37 min 27 sec)
Heartbeat CPU 0 instructions: 320000000 cycles: 132798208 heartbeat IPC: 2.244 cumulative IPC: 2.244 (Simulation time: 00 hr 38 min 47 sec)
Heartbeat CPU 0 instructions: 330000003 cycles: 137253654 heartbeat IPC: 2.244 cumulative IPC: 2.244 (Simulation time: 00 hr 40 min 04 sec)
Heartbeat CPU 0 instructions: 340000001 cycles: 141709100 heartbeat IPC: 2.244 cumulative IPC: 2.244 (Simulation time: 00 hr 41 min 21 sec)
Heartbeat CPU 0 instructions: 350000004 cycles: 146164548 heartbeat IPC: 2.244 cumulative IPC: 2.244 (Simulation time: 00 hr 42 min 39 sec)
Heartbeat CPU 0 instructions: 360000001 cycles: 150619992 heartbeat IPC: 2.244 cumulative IPC: 2.244 (Simulation time: 00 hr 43 min 55 sec)
Heartbeat CPU 0 instructions: 370000000 cycles: 155075433 heartbeat IPC: 2.244 cumulative IPC: 2.244 (Simulation time: 00 hr 45 min 12 sec)
Heartbeat CPU 0 instructions: 380000004 cycles: 159530880 heartbeat IPC: 2.244 cumulative IPC: 2.244 (Simulation time: 00 hr 46 min 29 sec)
Heartbeat CPU 0 instructions: 390000001 cycles: 163986326 heartbeat IPC: 2.244 cumulative IPC: 2.244 (Simulation time: 00 hr 47 min 46 sec)
Heartbeat CPU 0 instructions: 400000001 cycles: 168441774 heartbeat IPC: 2.244 cumulative IPC: 2.244 (Simulation time: 00 hr 49 min 03 sec)
Heartbeat CPU 0 instructions: 410000001 cycles: 172897414 heartbeat IPC: 2.244 cumulative IPC: 2.244 (Simulation time: 00 hr 50 min 19 sec)
Heartbeat CPU 0 instructions: 420000000 cycles: 177352855 heartbeat IPC: 2.244 cumulative IPC: 2.244 (Simulation time: 00 hr 51 min 36 sec)
Heartbeat CPU 0 instructions: 430000004 cycles: 181808302 heartbeat IPC: 2.244 cumulative IPC: 2.244 (Simulation time: 00 hr 52 min 54 sec)
Heartbeat CPU 0 instructions: 440000000 cycles: 186263747 heartbeat IPC: 2.244 cumulative IPC: 2.244 (Simulation time: 00 hr 54 min 10 sec)
Heartbeat CPU 0 instructions: 450000000 cycles: 190719195 heartbeat IPC: 2.244 cumulative IPC: 2.244 (Simulation time: 00 hr 55 min 27 sec)
Heartbeat CPU 0 instructions: 460000000 cycles: 195174639 heartbeat IPC: 2.244 cumulative IPC: 2.244 (Simulation time: 00 hr 56 min 45 sec)
Heartbeat CPU 0 instructions: 470000003 cycles: 199630085 heartbeat IPC: 2.244 cumulative IPC: 2.244 (Simulation time: 00 hr 58 min 00 sec)
Heartbeat CPU 0 instructions: 480000003 cycles: 204085533 heartbeat IPC: 2.244 cumulative IPC: 2.244 (Simulation time: 00 hr 59 min 18 sec)
Heartbeat CPU 0 instructions: 490000003 cycles: 208540981 heartbeat IPC: 2.244 cumulative IPC: 2.244 (Simulation time: 01 hr 00 min 34 sec)
Heartbeat CPU 0 instructions: 500000003 cycles: 212996429 heartbeat IPC: 2.244 cumulative IPC: 2.244 (Simulation time: 01 hr 01 min 51 sec)
Heartbeat CPU 0 instructions: 510000000 cycles: 217451873 heartbeat IPC: 2.244 cumulative IPC: 2.244 (Simulation time: 01 hr 03 min 07 sec)
Heartbeat CPU 0 instructions: 520000000 cycles: 221907510 heartbeat IPC: 2.244 cumulative IPC: 2.244 (Simulation time: 01 hr 04 min 23 sec)
Heartbeat CPU 0 instructions: 530000001 cycles: 226362954 heartbeat IPC: 2.244 cumulative IPC: 2.244 (Simulation time: 01 hr 05 min 40 sec)
Heartbeat CPU 0 instructions: 540000000 cycles: 230818401 heartbeat IPC: 2.244 cumulative IPC: 2.244 (Simulation time: 01 hr 06 min 59 sec)
Heartbeat CPU 0 instructions: 550000002 cycles: 235273848 heartbeat IPC: 2.244 cumulative IPC: 2.244 (Simulation time: 01 hr 08 min 14 sec)
Heartbeat CPU 0 instructions: 560000000 cycles: 239729293 heartbeat IPC: 2.244 cumulative IPC: 2.244 (Simulation time: 01 hr 09 min 32 sec)
Heartbeat CPU 0 instructions: 570000000 cycles: 244184735 heartbeat IPC: 2.244 cumulative IPC: 2.244 (Simulation time: 01 hr 10 min 47 sec)
Heartbeat CPU 0 instructions: 580000002 cycles: 248640180 heartbeat IPC: 2.244 cumulative IPC: 2.244 (Simulation time: 01 hr 12 min 06 sec)
Heartbeat CPU 0 instructions: 590000001 cycles: 253095627 heartbeat IPC: 2.244 cumulative IPC: 2.244 (Simulation time: 01 hr 13 min 21 sec)
*** Reached end of trace: (0, "traces/is.A.champsimtrace")
Heartbeat CPU 0 instructions: 600000001 cycles: 257551404 heartbeat IPC: 2.244 cumulative IPC: 2.244 (Simulation time: 01 hr 14 min 40 sec)
Heartbeat CPU 0 instructions: 610000000 cycles: 262939957 heartbeat IPC: 1.856 cumulative IPC: 2.236 (Simulation time: 01 hr 16 min 04 sec)
Heartbeat CPU 0 instructions: 620000000 cycles: 267395399 heartbeat IPC: 2.244 cumulative IPC: 2.236 (Simulation time: 01 hr 17 min 22 sec)
Heartbeat CPU 0 instructions: 630000002 cycles: 271850847 heartbeat IPC: 2.244 cumulative IPC: 2.236 (Simulation time: 01 hr 18 min 40 sec)
Heartbeat CPU 0 instructions: 640000003 cycles: 276306293 heartbeat IPC: 2.244 cumulative IPC: 2.236 (Simulation time: 01 hr 19 min 58 sec)
Heartbeat CPU 0 instructions: 650000003 cycles: 280761741 heartbeat IPC: 2.244 cumulative IPC: 2.237 (Simulation time: 01 hr 21 min 15 sec)
Simulation finished CPU 0 instructions: 600000001 cycles: 268261538 cumulative IPC: 2.237 (Simulation time: 01 hr 21 min 15 sec)
Simulation complete CPU 0 instructions: 600000001 cycles: 268261538 cumulative IPC: 2.237 (Simulation time: 01 hr 21 min 15 sec)

ChampSim completed all CPUs

=== Simulation ===
CPU 0 runs traces/is.A.champsimtrace
Region of Interest Statistics

CPU 0 cumulative IPC: 2.237 instructions: 600000001 cycles: 268261538
CPU 0 Branch Prediction Accuracy: 99.99% MPKI: 0.002962 Average ROB Occupancy at Mispredict: 66.14
Branch type MPKI
BRANCH_DIRECT_JUMP: 3.33e-06
BRANCH_INDIRECT: 8.5e-05
BRANCH_CONDITIONAL: 0.00282
BRANCH_DIRECT_CALL: 0
BRANCH_INDIRECT_CALL: 3.5e-05
BRANCH_RETURN: 2e-05

LLC TOTAL        ACCESS:     377931 HIT:      47784 MISS:     330147
LLC LOAD         ACCESS:       3287 HIT:       2038 MISS:       1249
LLC RFO          ACCESS:     186183 HIT:      15526 MISS:     170657
LLC PREFETCH     ACCESS:       2084 HIT:       1281 MISS:        803
LLC WRITE        ACCESS:     186248 HIT:      28865 MISS:     157383
LLC TRANSLATION  ACCESS:        129 HIT:         74 MISS:         55
LLC PREFETCH REQUESTED:       2084 ISSUED:       2084 USEFUL:        362 USELESS:         40
LLC AVERAGE MISS LATENCY: 247.6 cycles
cpu0_DTLB TOTAL        ACCESS:   71301848 HIT:   71293282 MISS:       8566
cpu0_DTLB LOAD         ACCESS:   71301848 HIT:   71293282 MISS:       8566
cpu0_DTLB RFO          ACCESS:          0 HIT:          0 MISS:          0
cpu0_DTLB PREFETCH     ACCESS:          0 HIT:          0 MISS:          0
cpu0_DTLB WRITE        ACCESS:          0 HIT:          0 MISS:          0
cpu0_DTLB TRANSLATION  ACCESS:          0 HIT:          0 MISS:          0
cpu0_DTLB PREFETCH REQUESTED:          0 ISSUED:          0 USEFUL:          0 USELESS:          0
cpu0_DTLB AVERAGE MISS LATENCY: 17.98 cycles
cpu0_ITLB TOTAL        ACCESS:       2922 HIT:       2778 MISS:        144
cpu0_ITLB LOAD         ACCESS:       2922 HIT:       2778 MISS:        144
cpu0_ITLB RFO          ACCESS:          0 HIT:          0 MISS:          0
cpu0_ITLB PREFETCH     ACCESS:          0 HIT:          0 MISS:          0
cpu0_ITLB WRITE        ACCESS:          0 HIT:          0 MISS:          0
cpu0_ITLB TRANSLATION  ACCESS:          0 HIT:          0 MISS:          0
cpu0_ITLB PREFETCH REQUESTED:          0 ISSUED:          0 USEFUL:          0 USELESS:          0
cpu0_ITLB AVERAGE MISS LATENCY: 207.7 cycles
cpu0_L1D TOTAL        ACCESS:   83191439 HIT:   82192629 MISS:     998810
cpu0_L1D LOAD         ACCESS:   47542731 HIT:   47534139 MISS:       8592
cpu0_L1D RFO          ACCESS:          0 HIT:          0 MISS:          0
cpu0_L1D PREFETCH     ACCESS:          0 HIT:          0 MISS:          0
cpu0_L1D WRITE        ACCESS:   35645648 HIT:   34655573 MISS:     990075
cpu0_L1D TRANSLATION  ACCESS:       3060 HIT:       2917 MISS:        143
cpu0_L1D PREFETCH REQUESTED:          0 ISSUED:          0 USEFUL:          0 USELESS:          0
cpu0_L1D AVERAGE MISS LATENCY: 14.81 cycles
cpu0_L1I TOTAL        ACCESS:       3415 HIT:       1649 MISS:       1766
cpu0_L1I LOAD         ACCESS:       3415 HIT:       1649 MISS:       1766
cpu0_L1I RFO          ACCESS:          0 HIT:          0 MISS:          0
cpu0_L1I PREFETCH     ACCESS:          0 HIT:          0 MISS:          0
cpu0_L1I WRITE        ACCESS:          0 HIT:          0 MISS:          0
cpu0_L1I TRANSLATION  ACCESS:          0 HIT:          0 MISS:          0
cpu0_L1I PREFETCH REQUESTED:          0 ISSUED:          0 USEFUL:          0 USELESS:          0
cpu0_L1I AVERAGE MISS LATENCY: 424.1 cycles
cpu0_L2C TOTAL        ACCESS:     376556 HIT:     186955 MISS:     189601
cpu0_L2C LOAD         ACCESS:       3814 HIT:        527 MISS:       3287
cpu0_L2C RFO          ACCESS:     186254 HIT:         71 MISS:     186183
cpu0_L2C PREFETCH     ACCESS:          0 HIT:          0 MISS:          0
cpu0_L2C WRITE        ACCESS:     186346 HIT:     186344 MISS:          2
cpu0_L2C TRANSLATION  ACCESS:        142 HIT:         13 MISS:        129
cpu0_L2C PREFETCH REQUESTED:          0 ISSUED:          0 USEFUL:          0 USELESS:          0
cpu0_L2C AVERAGE MISS LATENCY: 449.3 cycles
cpu0_STLB TOTAL        ACCESS:       3073 HIT:         18 MISS:       3055
cpu0_STLB LOAD         ACCESS:       3073 HIT:         18 MISS:       3055
cpu0_STLB RFO          ACCESS:          0 HIT:          0 MISS:          0
cpu0_STLB PREFETCH     ACCESS:          0 HIT:          0 MISS:          0
cpu0_STLB WRITE        ACCESS:          0 HIT:          0 MISS:          0
cpu0_STLB TRANSLATION  ACCESS:          0 HIT:          0 MISS:          0
cpu0_STLB PREFETCH REQUESTED:          0 ISSUED:          0 USEFUL:          0 USELESS:          0
cpu0_STLB AVERAGE MISS LATENCY: 210.1 cycles

DRAM Statistics

Channel 0 RQ ROW_BUFFER_HIT:      19341
  ROW_BUFFER_MISS:     152879
 AVG DBUS CONGESTED CYCLE: 3.934
WQ ROW_BUFFER_HIT: Channel 0 
  ROW_BUFFER_MISS:       1336
  FULL:     154716
