WARNING: physical memory size is smaller than virtual memory size.

*** ChampSim Multicore Out-of-Order Simulator ***
Warmup Instructions: 50000000
Simulation Instructions: 600000000
Number of CPUs: 1
Page size: 4096

Off-chip DRAM Size: 4 GiB Channels: 1 Width: 64-bit Data Race: 3200 MT/s
Heartbeat CPU 0 instructions: 10000002 cycles: 2500202 heartbeat IPC: 4 cumulative IPC: 4 (Simulation time: 00 hr 00 min 29 sec)
Heartbeat CPU 0 instructions: 20000002 cycles: 5000202 heartbeat IPC: 4 cumulative IPC: 4 (Simulation time: 00 hr 01 min 01 sec)
Heartbeat CPU 0 instructions: 30000002 cycles: 7500202 heartbeat IPC: 4 cumulative IPC: 4 (Simulation time: 00 hr 01 min 31 sec)
Heartbeat CPU 0 instructions: 40000002 cycles: 10000202 heartbeat IPC: 4 cumulative IPC: 4 (Simulation time: 00 hr 02 min 01 sec)
Heartbeat CPU 0 instructions: 50000002 cycles: 12500202 heartbeat IPC: 4 cumulative IPC: 4 (Simulation time: 00 hr 02 min 32 sec)
Warmup finished CPU 0 instructions: 50000002 cycles: 12500203 cumulative IPC: 4 (Simulation time: 00 hr 02 min 32 sec)
Warmup complete CPU 0 instructions: 50000002 cycles: 12500203 cumulative IPC: 4 (Simulation time: 00 hr 02 min 32 sec)
Heartbeat CPU 0 instructions: 60000000 cycles: 16955545 heartbeat IPC: 2.244 cumulative IPC: 2.244 (Simulation time: 00 hr 03 min 25 sec)
Heartbeat CPU 0 instructions: 70000000 cycles: 21411677 heartbeat IPC: 2.244 cumulative IPC: 2.244 (Simulation time: 00 hr 04 min 17 sec)
Heartbeat CPU 0 instructions: 80000000 cycles: 25867120 heartbeat IPC: 2.244 cumulative IPC: 2.244 (Simulation time: 00 hr 05 min 10 sec)
Heartbeat CPU 0 instructions: 90000000 cycles: 30322568 heartbeat IPC: 2.244 cumulative IPC: 2.244 (Simulation time: 00 hr 06 min 02 sec)
Heartbeat CPU 0 instructions: 100000002 cycles: 34778015 heartbeat IPC: 2.244 cumulative IPC: 2.244 (Simulation time: 00 hr 06 min 56 sec)
Heartbeat CPU 0 instructions: 110000000 cycles: 39233462 heartbeat IPC: 2.244 cumulative IPC: 2.244 (Simulation time: 00 hr 07 min 50 sec)
Heartbeat CPU 0 instructions: 120000000 cycles: 43688904 heartbeat IPC: 2.244 cumulative IPC: 2.244 (Simulation time: 00 hr 08 min 45 sec)
Heartbeat CPU 0 instructions: 130000000 cycles: 48144347 heartbeat IPC: 2.244 cumulative IPC: 2.244 (Simulation time: 00 hr 09 min 38 sec)
Heartbeat CPU 0 instructions: 140000000 cycles: 52599795 heartbeat IPC: 2.244 cumulative IPC: 2.244 (Simulation time: 00 hr 10 min 31 sec)
Heartbeat CPU 0 instructions: 150000001 cycles: 57055241 heartbeat IPC: 2.244 cumulative IPC: 2.244 (Simulation time: 00 hr 11 min 24 sec)
Heartbeat CPU 0 instructions: 160000000 cycles: 61510687 heartbeat IPC: 2.244 cumulative IPC: 2.244 (Simulation time: 00 hr 12 min 16 sec)
Heartbeat CPU 0 instructions: 170000002 cycles: 65966131 heartbeat IPC: 2.244 cumulative IPC: 2.244 (Simulation time: 00 hr 13 min 09 sec)
Heartbeat CPU 0 instructions: 180000004 cycles: 70421774 heartbeat IPC: 2.244 cumulative IPC: 2.244 (Simulation time: 00 hr 14 min 01 sec)
Heartbeat CPU 0 instructions: 190000004 cycles: 74877222 heartbeat IPC: 2.244 cumulative IPC: 2.244 (Simulation time: 00 hr 14 min 53 sec)
Heartbeat CPU 0 instructions: 200000004 cycles: 79332670 heartbeat IPC: 2.244 cumulative IPC: 2.244 (Simulation time: 00 hr 15 min 47 sec)
Heartbeat CPU 0 instructions: 210000000 cycles: 83788115 heartbeat IPC: 2.244 cumulative IPC: 2.244 (Simulation time: 00 hr 16 min 40 sec)
Heartbeat CPU 0 instructions: 220000000 cycles: 88243558 heartbeat IPC: 2.244 cumulative IPC: 2.244 (Simulation time: 00 hr 17 min 34 sec)
Heartbeat CPU 0 instructions: 230000000 cycles: 92699000 heartbeat IPC: 2.244 cumulative IPC: 2.244 (Simulation time: 00 hr 18 min 28 sec)
Heartbeat CPU 0 instructions: 240000002 cycles: 97154448 heartbeat IPC: 2.244 cumulative IPC: 2.244 (Simulation time: 00 hr 19 min 24 sec)
Heartbeat CPU 0 instructions: 250000003 cycles: 101609894 heartbeat IPC: 2.244 cumulative IPC: 2.244 (Simulation time: 00 hr 20 min 15 sec)
Heartbeat CPU 0 instructions: 260000001 cycles: 106065341 heartbeat IPC: 2.244 cumulative IPC: 2.244 (Simulation time: 00 hr 21 min 07 sec)
Heartbeat CPU 0 instructions: 270000001 cycles: 110520784 heartbeat IPC: 2.244 cumulative IPC: 2.244 (Simulation time: 00 hr 21 min 59 sec)
Heartbeat CPU 0 instructions: 280000001 cycles: 114976421 heartbeat IPC: 2.244 cumulative IPC: 2.244 (Simulation time: 00 hr 22 min 52 sec)
Heartbeat CPU 0 instructions: 290000003 cycles: 119431869 heartbeat IPC: 2.244 cumulative IPC: 2.244 (Simulation time: 00 hr 23 min 45 sec)
Heartbeat CPU 0 instructions: 300000000 cycles: 123887315 heartbeat IPC: 2.244 cumulative IPC: 2.244 (Simulation time: 00 hr 24 min 39 sec)
Heartbeat CPU 0 instructions: 310000003 cycles: 128342763 heartbeat IPC: 2.244 cumulative IPC: 2.244 (Simulation time: 00 hr 25 min 33 sec)
Heartbeat CPU 0 instructions: 320000001 cycles: 132798206 heartbeat IPC: 2.244 cumulative IPC: 2.244 (Simulation time: 00 hr 26 min 26 sec)
Heartbeat CPU 0 instructions: 330000001 cycles: 137253648 heartbeat IPC: 2.244 cumulative IPC: 2.244 (Simulation time: 00 hr 27 min 19 sec)
Heartbeat CPU 0 instructions: 340000003 cycles: 141709096 heartbeat IPC: 2.244 cumulative IPC: 2.244 (Simulation time: 00 hr 28 min 13 sec)
Heartbeat CPU 0 instructions: 350000004 cycles: 146164542 heartbeat IPC: 2.244 cumulative IPC: 2.244 (Simulation time: 00 hr 29 min 07 sec)
Heartbeat CPU 0 instructions: 360000000 cycles: 150619989 heartbeat IPC: 2.244 cumulative IPC: 2.244 (Simulation time: 00 hr 30 min 00 sec)
Heartbeat CPU 0 instructions: 370000000 cycles: 155075431 heartbeat IPC: 2.244 cumulative IPC: 2.244 (Simulation time: 00 hr 30 min 55 sec)
Heartbeat CPU 0 instructions: 380000002 cycles: 159530879 heartbeat IPC: 2.244 cumulative IPC: 2.244 (Simulation time: 00 hr 31 min 48 sec)
Heartbeat CPU 0 instructions: 390000002 cycles: 163987017 heartbeat IPC: 2.244 cumulative IPC: 2.244 (Simulation time: 00 hr 32 min 43 sec)
Heartbeat CPU 0 instructions: 400000002 cycles: 168442465 heartbeat IPC: 2.244 cumulative IPC: 2.244 (Simulation time: 00 hr 33 min 36 sec)
Heartbeat CPU 0 instructions: 410000001 cycles: 172897912 heartbeat IPC: 2.244 cumulative IPC: 2.244 (Simulation time: 00 hr 34 min 30 sec)
Heartbeat CPU 0 instructions: 420000000 cycles: 177353355 heartbeat IPC: 2.244 cumulative IPC: 2.244 (Simulation time: 00 hr 35 min 22 sec)
Heartbeat CPU 0 instructions: 430000001 cycles: 181808797 heartbeat IPC: 2.244 cumulative IPC: 2.244 (Simulation time: 00 hr 36 min 15 sec)
Heartbeat CPU 0 instructions: 440000000 cycles: 186264243 heartbeat IPC: 2.244 cumulative IPC: 2.244 (Simulation time: 00 hr 37 min 08 sec)
Heartbeat CPU 0 instructions: 450000001 cycles: 190719689 heartbeat IPC: 2.244 cumulative IPC: 2.244 (Simulation time: 00 hr 38 min 01 sec)
Heartbeat CPU 0 instructions: 460000001 cycles: 195175137 heartbeat IPC: 2.244 cumulative IPC: 2.244 (Simulation time: 00 hr 38 min 53 sec)
Heartbeat CPU 0 instructions: 470000000 cycles: 199630580 heartbeat IPC: 2.244 cumulative IPC: 2.244 (Simulation time: 00 hr 39 min 46 sec)
Heartbeat CPU 0 instructions: 480000000 cycles: 204086022 heartbeat IPC: 2.244 cumulative IPC: 2.244 (Simulation time: 00 hr 40 min 39 sec)
Heartbeat CPU 0 instructions: 490000001 cycles: 208541469 heartbeat IPC: 2.244 cumulative IPC: 2.244 (Simulation time: 00 hr 41 min 32 sec)
Heartbeat CPU 0 instructions: 500000003 cycles: 212997111 heartbeat IPC: 2.244 cumulative IPC: 2.244 (Simulation time: 00 hr 42 min 25 sec)
Heartbeat CPU 0 instructions: 510000001 cycles: 217452558 heartbeat IPC: 2.244 cumulative IPC: 2.244 (Simulation time: 00 hr 43 min 18 sec)
Heartbeat CPU 0 instructions: 520000000 cycles: 221908002 heartbeat IPC: 2.244 cumulative IPC: 2.244 (Simulation time: 00 hr 44 min 11 sec)
Heartbeat CPU 0 instructions: 530000000 cycles: 226363444 heartbeat IPC: 2.244 cumulative IPC: 2.244 (Simulation time: 00 hr 45 min 04 sec)
Heartbeat CPU 0 instructions: 540000001 cycles: 230818891 heartbeat IPC: 2.244 cumulative IPC: 2.244 (Simulation time: 00 hr 45 min 55 sec)
Heartbeat CPU 0 instructions: 550000002 cycles: 235274337 heartbeat IPC: 2.244 cumulative IPC: 2.244 (Simulation time: 00 hr 46 min 47 sec)
Heartbeat CPU 0 instructions: 560000002 cycles: 239729785 heartbeat IPC: 2.244 cumulative IPC: 2.244 (Simulation time: 00 hr 47 min 38 sec)
Heartbeat CPU 0 instructions: 570000001 cycles: 244185228 heartbeat IPC: 2.244 cumulative IPC: 2.244 (Simulation time: 00 hr 48 min 31 sec)
Heartbeat CPU 0 instructions: 580000000 cycles: 248640674 heartbeat IPC: 2.244 cumulative IPC: 2.244 (Simulation time: 00 hr 49 min 22 sec)
Heartbeat CPU 0 instructions: 590000000 cycles: 253096122 heartbeat IPC: 2.244 cumulative IPC: 2.244 (Simulation time: 00 hr 50 min 14 sec)
*** Reached end of trace: (0, "traces/is.A.champsimtrace")
Heartbeat CPU 0 instructions: 600000000 cycles: 257551765 heartbeat IPC: 2.244 cumulative IPC: 2.244 (Simulation time: 00 hr 51 min 07 sec)
Heartbeat CPU 0 instructions: 610000001 cycles: 262373309 heartbeat IPC: 2.074 cumulative IPC: 2.241 (Simulation time: 00 hr 52 min 02 sec)
Heartbeat CPU 0 instructions: 620000001 cycles: 266828752 heartbeat IPC: 2.244 cumulative IPC: 2.241 (Simulation time: 00 hr 52 min 57 sec)
Heartbeat CPU 0 instructions: 630000001 cycles: 271284194 heartbeat IPC: 2.244 cumulative IPC: 2.241 (Simulation time: 00 hr 53 min 50 sec)
Heartbeat CPU 0 instructions: 640000003 cycles: 275739642 heartbeat IPC: 2.244 cumulative IPC: 2.241 (Simulation time: 00 hr 54 min 42 sec)
Heartbeat CPU 0 instructions: 650000004 cycles: 280195088 heartbeat IPC: 2.244 cumulative IPC: 2.241 (Simulation time: 00 hr 55 min 35 sec)
Simulation finished CPU 0 instructions: 600000002 cycles: 267694886 cumulative IPC: 2.241 (Simulation time: 00 hr 55 min 35 sec)
Simulation complete CPU 0 instructions: 600000002 cycles: 267694886 cumulative IPC: 2.241 (Simulation time: 00 hr 55 min 35 sec)

ChampSim completed all CPUs

=== Simulation ===
CPU 0 runs traces/is.A.champsimtrace
Region of Interest Statistics

CPU 0 cumulative IPC: 2.241 instructions: 600000002 cycles: 267694886
CPU 0 Branch Prediction Accuracy: 99.98% MPKI: 0.007395 Average ROB Occupancy at Mispredict: 23.66
Branch type MPKI
BRANCH_DIRECT_JUMP: 3.33e-06
BRANCH_INDIRECT: 8.67e-05
BRANCH_CONDITIONAL: 0.00725
BRANCH_DIRECT_CALL: 0
BRANCH_INDIRECT_CALL: 3.67e-05
BRANCH_RETURN: 2e-05

LLC TOTAL        ACCESS:     379104 HIT:     184538 MISS:     194566
LLC LOAD         ACCESS:       3279 HIT:       2571 MISS:        708
LLC RFO          ACCESS:     186181 HIT:       2733 MISS:     183448
LLC PREFETCH     ACCESS:       3279 HIT:       2442 MISS:        837
LLC WRITE        ACCESS:     186232 HIT:     176690 MISS:       9542
LLC TRANSLATION  ACCESS:        133 HIT:        102 MISS:         31
LLC PREFETCH REQUESTED:       3279 ISSUED:       3279 USEFUL:        467 USELESS:        166
LLC AVERAGE MISS LATENCY: 394 cycles
cpu0_DTLB TOTAL        ACCESS:   71304024 HIT:   71295478 MISS:       8546
cpu0_DTLB LOAD         ACCESS:   71304024 HIT:   71295478 MISS:       8546
cpu0_DTLB RFO          ACCESS:          0 HIT:          0 MISS:          0
cpu0_DTLB PREFETCH     ACCESS:          0 HIT:          0 MISS:          0
cpu0_DTLB WRITE        ACCESS:          0 HIT:          0 MISS:          0
cpu0_DTLB TRANSLATION  ACCESS:          0 HIT:          0 MISS:          0
cpu0_DTLB PREFETCH REQUESTED:          0 ISSUED:          0 USEFUL:          0 USELESS:          0
cpu0_DTLB AVERAGE MISS LATENCY: 13.41 cycles
cpu0_ITLB TOTAL        ACCESS:       2759 HIT:       2614 MISS:        145
cpu0_ITLB LOAD         ACCESS:       2759 HIT:       2614 MISS:        145
cpu0_ITLB RFO          ACCESS:          0 HIT:          0 MISS:          0
cpu0_ITLB PREFETCH     ACCESS:          0 HIT:          0 MISS:          0
cpu0_ITLB WRITE        ACCESS:          0 HIT:          0 MISS:          0
cpu0_ITLB TRANSLATION  ACCESS:          0 HIT:          0 MISS:          0
cpu0_ITLB PREFETCH REQUESTED:          0 ISSUED:          0 USEFUL:          0 USELESS:          0
cpu0_ITLB AVERAGE MISS LATENCY: 97.95 cycles
cpu0_L1D TOTAL        ACCESS:   83193898 HIT:   82215903 MISS:     977995
cpu0_L1D LOAD         ACCESS:   47545226 HIT:   47538179 MISS:       7047
cpu0_L1D RFO          ACCESS:          0 HIT:          0 MISS:          0
cpu0_L1D PREFETCH     ACCESS:          0 HIT:          0 MISS:          0
cpu0_L1D WRITE        ACCESS:   35645612 HIT:   34674810 MISS:     970802
cpu0_L1D TRANSLATION  ACCESS:       3060 HIT:       2914 MISS:        146
cpu0_L1D PREFETCH REQUESTED:          0 ISSUED:          0 USEFUL:          0 USELESS:          0
cpu0_L1D AVERAGE MISS LATENCY: 12.48 cycles
cpu0_L1I TOTAL        ACCESS:       3156 HIT:       1602 MISS:       1554
cpu0_L1I LOAD         ACCESS:       3156 HIT:       1602 MISS:       1554
cpu0_L1I RFO          ACCESS:          0 HIT:          0 MISS:          0
cpu0_L1I PREFETCH     ACCESS:          0 HIT:          0 MISS:          0
cpu0_L1I WRITE        ACCESS:          0 HIT:          0 MISS:          0
cpu0_L1I TRANSLATION  ACCESS:          0 HIT:          0 MISS:          0
cpu0_L1I PREFETCH REQUESTED:          0 ISSUED:          0 USEFUL:          0 USELESS:          0
cpu0_L1I AVERAGE MISS LATENCY: 213.9 cycles
cpu0_L2C TOTAL        ACCESS:     377239 HIT:     187644 MISS:     189595
cpu0_L2C LOAD         ACCESS:       3800 HIT:        521 MISS:       3279
cpu0_L2C RFO          ACCESS:     186605 HIT:        424 MISS:     186181
cpu0_L2C PREFETCH     ACCESS:          0 HIT:          0 MISS:          0
cpu0_L2C WRITE        ACCESS:     186689 HIT:     186687 MISS:          2
cpu0_L2C TRANSLATION  ACCESS:        145 HIT:         12 MISS:        133
cpu0_L2C PREFETCH REQUESTED:          0 ISSUED:          0 USEFUL:          0 USELESS:          0
cpu0_L2C AVERAGE MISS LATENCY: 423.6 cycles
cpu0_STLB TOTAL        ACCESS:       3065 HIT:         11 MISS:       3054
cpu0_STLB LOAD         ACCESS:       3065 HIT:         11 MISS:       3054
cpu0_STLB RFO          ACCESS:          0 HIT:          0 MISS:          0
cpu0_STLB PREFETCH     ACCESS:          0 HIT:          0 MISS:          0
cpu0_STLB WRITE        ACCESS:          0 HIT:          0 MISS:          0
cpu0_STLB TRANSLATION  ACCESS:          0 HIT:          0 MISS:          0
cpu0_STLB PREFETCH REQUESTED:          0 ISSUED:          0 USEFUL:          0 USELESS:          0
cpu0_STLB AVERAGE MISS LATENCY: 191.1 cycles

DRAM Statistics

Channel 0 RQ ROW_BUFFER_HIT:      47519
  ROW_BUFFER_MISS:     136998
 AVG DBUS CONGESTED CYCLE: 3.848
WQ ROW_BUFFER_HIT: Channel 0 
  ROW_BUFFER_MISS:         59
  FULL:     137514
