WARNING: physical memory size is smaller than virtual memory size.

*** ChampSim Multicore Out-of-Order Simulator ***
Warmup Instructions: 50000000
Simulation Instructions: 600000000
Number of CPUs: 1
Page size: 4096

CPU 0 Tage branch predictor
Off-chip DRAM Size: 4 GiB Channels: 1 Width: 64-bit Data Race: 3200 MT/s
Heartbeat CPU 0 instructions: 10000003 cycles: 2500203 heartbeat IPC: 4 cumulative IPC: 4 (Simulation time: 00 hr 00 min 52 sec)
Heartbeat CPU 0 instructions: 20000003 cycles: 5000203 heartbeat IPC: 4 cumulative IPC: 4 (Simulation time: 00 hr 01 min 47 sec)
Heartbeat CPU 0 instructions: 30000003 cycles: 7500203 heartbeat IPC: 4 cumulative IPC: 4 (Simulation time: 00 hr 02 min 47 sec)
Heartbeat CPU 0 instructions: 40000003 cycles: 10000203 heartbeat IPC: 4 cumulative IPC: 4 (Simulation time: 00 hr 03 min 50 sec)
Heartbeat CPU 0 instructions: 50000003 cycles: 12500203 heartbeat IPC: 4 cumulative IPC: 4 (Simulation time: 00 hr 05 min 18 sec)
Warmup finished CPU 0 instructions: 50000003 cycles: 12500204 cumulative IPC: 4 (Simulation time: 00 hr 05 min 18 sec)
Warmup complete CPU 0 instructions: 50000003 cycles: 12500204 cumulative IPC: 4 (Simulation time: 00 hr 05 min 18 sec)
Heartbeat CPU 0 instructions: 60000001 cycles: 16955546 heartbeat IPC: 2.244 cumulative IPC: 2.244 (Simulation time: 00 hr 06 min 47 sec)
Heartbeat CPU 0 instructions: 70000002 cycles: 21410992 heartbeat IPC: 2.244 cumulative IPC: 2.244 (Simulation time: 00 hr 08 min 28 sec)
Heartbeat CPU 0 instructions: 80000002 cycles: 25866440 heartbeat IPC: 2.244 cumulative IPC: 2.244 (Simulation time: 00 hr 10 min 13 sec)
Heartbeat CPU 0 instructions: 90000001 cycles: 30322078 heartbeat IPC: 2.244 cumulative IPC: 2.244 (Simulation time: 00 hr 11 min 47 sec)
Heartbeat CPU 0 instructions: 100000000 cycles: 34777524 heartbeat IPC: 2.244 cumulative IPC: 2.244 (Simulation time: 00 hr 13 min 19 sec)
Heartbeat CPU 0 instructions: 110000000 cycles: 39232972 heartbeat IPC: 2.244 cumulative IPC: 2.244 (Simulation time: 00 hr 14 min 53 sec)
Heartbeat CPU 0 instructions: 120000000 cycles: 43688420 heartbeat IPC: 2.244 cumulative IPC: 2.244 (Simulation time: 00 hr 16 min 24 sec)
Heartbeat CPU 0 instructions: 130000000 cycles: 48143868 heartbeat IPC: 2.244 cumulative IPC: 2.244 (Simulation time: 00 hr 17 min 51 sec)
Heartbeat CPU 0 instructions: 140000000 cycles: 52599311 heartbeat IPC: 2.244 cumulative IPC: 2.244 (Simulation time: 00 hr 19 min 17 sec)
Heartbeat CPU 0 instructions: 150000000 cycles: 57054753 heartbeat IPC: 2.244 cumulative IPC: 2.244 (Simulation time: 00 hr 20 min 52 sec)
Heartbeat CPU 0 instructions: 160000003 cycles: 61510199 heartbeat IPC: 2.244 cumulative IPC: 2.244 (Simulation time: 00 hr 22 min 20 sec)
Heartbeat CPU 0 instructions: 170000001 cycles: 65965645 heartbeat IPC: 2.244 cumulative IPC: 2.244 (Simulation time: 00 hr 23 min 52 sec)
Heartbeat CPU 0 instructions: 180000004 cycles: 70421093 heartbeat IPC: 2.244 cumulative IPC: 2.244 (Simulation time: 00 hr 25 min 23 sec)
Heartbeat CPU 0 instructions: 190000001 cycles: 74876537 heartbeat IPC: 2.244 cumulative IPC: 2.244 (Simulation time: 00 hr 26 min 52 sec)
Heartbeat CPU 0 instructions: 200000000 cycles: 79332173 heartbeat IPC: 2.244 cumulative IPC: 2.244 (Simulation time: 00 hr 28 min 18 sec)
Heartbeat CPU 0 instructions: 210000004 cycles: 83787620 heartbeat IPC: 2.244 cumulative IPC: 2.244 (Simulation time: 00 hr 29 min 43 sec)
Heartbeat CPU 0 instructions: 220000001 cycles: 88243066 heartbeat IPC: 2.244 cumulative IPC: 2.244 (Simulation time: 00 hr 31 min 10 sec)
Heartbeat CPU 0 instructions: 230000001 cycles: 92698514 heartbeat IPC: 2.244 cumulative IPC: 2.244 (Simulation time: 00 hr 32 min 40 sec)
Heartbeat CPU 0 instructions: 240000001 cycles: 97153959 heartbeat IPC: 2.244 cumulative IPC: 2.244 (Simulation time: 00 hr 34 min 07 sec)
Heartbeat CPU 0 instructions: 250000000 cycles: 101609400 heartbeat IPC: 2.244 cumulative IPC: 2.244 (Simulation time: 00 hr 35 min 31 sec)
Heartbeat CPU 0 instructions: 260000004 cycles: 106064847 heartbeat IPC: 2.244 cumulative IPC: 2.244 (Simulation time: 00 hr 36 min 56 sec)
Heartbeat CPU 0 instructions: 270000000 cycles: 110520292 heartbeat IPC: 2.244 cumulative IPC: 2.244 (Simulation time: 00 hr 38 min 25 sec)
Heartbeat CPU 0 instructions: 280000000 cycles: 114975740 heartbeat IPC: 2.244 cumulative IPC: 2.244 (Simulation time: 00 hr 39 min 51 sec)
Heartbeat CPU 0 instructions: 290000000 cycles: 119431184 heartbeat IPC: 2.244 cumulative IPC: 2.244 (Simulation time: 00 hr 41 min 19 sec)
Heartbeat CPU 0 instructions: 300000003 cycles: 123886825 heartbeat IPC: 2.244 cumulative IPC: 2.244 (Simulation time: 00 hr 42 min 46 sec)
Heartbeat CPU 0 instructions: 310000003 cycles: 128342273 heartbeat IPC: 2.244 cumulative IPC: 2.244 (Simulation time: 00 hr 44 min 12 sec)
Heartbeat CPU 0 instructions: 320000003 cycles: 132797721 heartbeat IPC: 2.244 cumulative IPC: 2.244 (Simulation time: 00 hr 45 min 44 sec)
Heartbeat CPU 0 instructions: 330000003 cycles: 137253169 heartbeat IPC: 2.244 cumulative IPC: 2.244 (Simulation time: 00 hr 47 min 17 sec)
Heartbeat CPU 0 instructions: 340000000 cycles: 141708613 heartbeat IPC: 2.244 cumulative IPC: 2.244 (Simulation time: 00 hr 48 min 40 sec)
Heartbeat CPU 0 instructions: 350000000 cycles: 146164055 heartbeat IPC: 2.244 cumulative IPC: 2.244 (Simulation time: 00 hr 50 min 03 sec)
Heartbeat CPU 0 instructions: 360000001 cycles: 150619499 heartbeat IPC: 2.244 cumulative IPC: 2.244 (Simulation time: 00 hr 51 min 28 sec)
Heartbeat CPU 0 instructions: 370000000 cycles: 155074946 heartbeat IPC: 2.244 cumulative IPC: 2.244 (Simulation time: 00 hr 52 min 53 sec)
Heartbeat CPU 0 instructions: 380000002 cycles: 159530393 heartbeat IPC: 2.244 cumulative IPC: 2.244 (Simulation time: 00 hr 54 min 17 sec)
Heartbeat CPU 0 instructions: 390000000 cycles: 163985838 heartbeat IPC: 2.244 cumulative IPC: 2.244 (Simulation time: 00 hr 55 min 41 sec)
Heartbeat CPU 0 instructions: 400000000 cycles: 168441280 heartbeat IPC: 2.244 cumulative IPC: 2.244 (Simulation time: 00 hr 57 min 02 sec)
Heartbeat CPU 0 instructions: 410000002 cycles: 172896920 heartbeat IPC: 2.244 cumulative IPC: 2.244 (Simulation time: 00 hr 58 min 24 sec)
Heartbeat CPU 0 instructions: 420000001 cycles: 177352367 heartbeat IPC: 2.244 cumulative IPC: 2.244 (Simulation time: 00 hr 59 min 46 sec)
Heartbeat CPU 0 instructions: 430000004 cycles: 181807815 heartbeat IPC: 2.244 cumulative IPC: 2.244 (Simulation time: 01 hr 01 min 09 sec)
Heartbeat CPU 0 instructions: 440000000 cycles: 186263260 heartbeat IPC: 2.244 cumulative IPC: 2.244 (Simulation time: 01 hr 02 min 33 sec)
Heartbeat CPU 0 instructions: 450000000 cycles: 190718702 heartbeat IPC: 2.244 cumulative IPC: 2.244 (Simulation time: 01 hr 03 min 55 sec)
Heartbeat CPU 0 instructions: 460000002 cycles: 195174147 heartbeat IPC: 2.244 cumulative IPC: 2.244 (Simulation time: 01 hr 05 min 19 sec)
Heartbeat CPU 0 instructions: 470000000 cycles: 199629593 heartbeat IPC: 2.244 cumulative IPC: 2.244 (Simulation time: 01 hr 06 min 45 sec)
Heartbeat CPU 0 instructions: 480000003 cycles: 204085041 heartbeat IPC: 2.244 cumulative IPC: 2.244 (Simulation time: 01 hr 08 min 11 sec)
Heartbeat CPU 0 instructions: 490000001 cycles: 208540486 heartbeat IPC: 2.244 cumulative IPC: 2.244 (Simulation time: 01 hr 09 min 38 sec)
Heartbeat CPU 0 instructions: 500000001 cycles: 212995930 heartbeat IPC: 2.244 cumulative IPC: 2.244 (Simulation time: 01 hr 11 min 08 sec)
Heartbeat CPU 0 instructions: 510000001 cycles: 217451378 heartbeat IPC: 2.244 cumulative IPC: 2.244 (Simulation time: 01 hr 13 min 01 sec)
Heartbeat CPU 0 instructions: 520000001 cycles: 221907021 heartbeat IPC: 2.244 cumulative IPC: 2.244 (Simulation time: 01 hr 14 min 36 sec)
Heartbeat CPU 0 instructions: 530000001 cycles: 226362469 heartbeat IPC: 2.244 cumulative IPC: 2.244 (Simulation time: 01 hr 16 min 04 sec)
Heartbeat CPU 0 instructions: 540000002 cycles: 230817915 heartbeat IPC: 2.244 cumulative IPC: 2.244 (Simulation time: 01 hr 17 min 34 sec)
Heartbeat CPU 0 instructions: 550000000 cycles: 235273357 heartbeat IPC: 2.244 cumulative IPC: 2.244 (Simulation time: 01 hr 19 min 06 sec)
Heartbeat CPU 0 instructions: 560000002 cycles: 239728800 heartbeat IPC: 2.244 cumulative IPC: 2.244 (Simulation time: 01 hr 20 min 43 sec)
Heartbeat CPU 0 instructions: 570000004 cycles: 244184248 heartbeat IPC: 2.244 cumulative IPC: 2.244 (Simulation time: 01 hr 22 min 12 sec)
Heartbeat CPU 0 instructions: 580000000 cycles: 248639693 heartbeat IPC: 2.244 cumulative IPC: 2.244 (Simulation time: 01 hr 23 min 40 sec)
Heartbeat CPU 0 instructions: 590000000 cycles: 253095140 heartbeat IPC: 2.244 cumulative IPC: 2.244 (Simulation time: 01 hr 25 min 48 sec)
*** Reached end of trace: (0, "traces/is.A.champsimtrace")
Heartbeat CPU 0 instructions: 600000003 cycles: 257550581 heartbeat IPC: 2.244 cumulative IPC: 2.244 (Simulation time: 01 hr 28 min 04 sec)
Heartbeat CPU 0 instructions: 610000000 cycles: 262032141 heartbeat IPC: 2.231 cumulative IPC: 2.244 (Simulation time: 01 hr 29 min 28 sec)
Heartbeat CPU 0 instructions: 620000002 cycles: 266487588 heartbeat IPC: 2.244 cumulative IPC: 2.244 (Simulation time: 01 hr 30 min 54 sec)
Heartbeat CPU 0 instructions: 630000000 cycles: 270943035 heartbeat IPC: 2.244 cumulative IPC: 2.244 (Simulation time: 01 hr 32 min 18 sec)
Heartbeat CPU 0 instructions: 640000000 cycles: 275398480 heartbeat IPC: 2.244 cumulative IPC: 2.244 (Simulation time: 01 hr 33 min 37 sec)
Heartbeat CPU 0 instructions: 650000001 cycles: 279853922 heartbeat IPC: 2.244 cumulative IPC: 2.244 (Simulation time: 01 hr 34 min 57 sec)
Simulation finished CPU 0 instructions: 600000000 cycles: 267353721 cumulative IPC: 2.244 (Simulation time: 01 hr 34 min 57 sec)
Simulation complete CPU 0 instructions: 600000000 cycles: 267353721 cumulative IPC: 2.244 (Simulation time: 01 hr 34 min 57 sec)

ChampSim completed all CPUs

=== Simulation ===
CPU 0 runs traces/is.A.champsimtrace
Region of Interest Statistics

CPU 0 cumulative IPC: 2.244 instructions: 600000000 cycles: 267353721
CPU 0 Branch Prediction Accuracy: 99.99% MPKI: 0.002988 Average ROB Occupancy at Mispredict: 54.03
Branch type MPKI
BRANCH_DIRECT_JUMP: 3.33e-06
BRANCH_INDIRECT: 9.33e-05
BRANCH_CONDITIONAL: 0.00284
BRANCH_DIRECT_CALL: 0
BRANCH_INDIRECT_CALL: 3.67e-05
BRANCH_RETURN: 1.83e-05

LLC TOTAL        ACCESS:     377878 HIT:     207075 MISS:     170803
LLC LOAD         ACCESS:       3267 HIT:       3267 MISS:          0
LLC RFO          ACCESS:     186179 HIT:      15463 MISS:     170716
LLC PREFETCH     ACCESS:       2066 HIT:       2042 MISS:         24
LLC WRITE        ACCESS:     186236 HIT:     186188 MISS:         48
LLC TRANSLATION  ACCESS:        130 HIT:        115 MISS:         15
LLC PREFETCH REQUESTED:       2066 ISSUED:       2066 USEFUL:          0 USELESS:         45
LLC AVERAGE MISS LATENCY: 469.5 cycles
cpu0_DTLB TOTAL        ACCESS:   71303095 HIT:   71294442 MISS:       8653
cpu0_DTLB LOAD         ACCESS:   71303095 HIT:   71294442 MISS:       8653
cpu0_DTLB RFO          ACCESS:          0 HIT:          0 MISS:          0
cpu0_DTLB PREFETCH     ACCESS:          0 HIT:          0 MISS:          0
cpu0_DTLB WRITE        ACCESS:          0 HIT:          0 MISS:          0
cpu0_DTLB TRANSLATION  ACCESS:          0 HIT:          0 MISS:          0
cpu0_DTLB PREFETCH REQUESTED:          0 ISSUED:          0 USEFUL:          0 USELESS:          0
cpu0_DTLB AVERAGE MISS LATENCY: 12.23 cycles
cpu0_ITLB TOTAL        ACCESS:       2823 HIT:       2667 MISS:        156
cpu0_ITLB LOAD         ACCESS:       2823 HIT:       2667 MISS:        156
cpu0_ITLB RFO          ACCESS:          0 HIT:          0 MISS:          0
cpu0_ITLB PREFETCH     ACCESS:          0 HIT:          0 MISS:          0
cpu0_ITLB WRITE        ACCESS:          0 HIT:          0 MISS:          0
cpu0_ITLB TRANSLATION  ACCESS:          0 HIT:          0 MISS:          0
cpu0_ITLB PREFETCH REQUESTED:          0 ISSUED:          0 USEFUL:          0 USELESS:          0
cpu0_ITLB AVERAGE MISS LATENCY: 15.46 cycles
cpu0_L1D TOTAL        ACCESS:   83192779 HIT:   82173726 MISS:    1019053
cpu0_L1D LOAD         ACCESS:   47544185 HIT:   47534792 MISS:       9393
cpu0_L1D RFO          ACCESS:          0 HIT:          0 MISS:          0
cpu0_L1D PREFETCH     ACCESS:          0 HIT:          0 MISS:          0
cpu0_L1D WRITE        ACCESS:   35645532 HIT:   34636018 MISS:    1009514
cpu0_L1D TRANSLATION  ACCESS:       3062 HIT:       2916 MISS:        146
cpu0_L1D PREFETCH REQUESTED:          0 ISSUED:          0 USEFUL:          0 USELESS:          0
cpu0_L1D AVERAGE MISS LATENCY: 12.61 cycles
cpu0_L1I TOTAL        ACCESS:       3292 HIT:       1585 MISS:       1707
cpu0_L1I LOAD         ACCESS:       3292 HIT:       1585 MISS:       1707
cpu0_L1I RFO          ACCESS:          0 HIT:          0 MISS:          0
cpu0_L1I PREFETCH     ACCESS:          0 HIT:          0 MISS:          0
cpu0_L1I WRITE        ACCESS:          0 HIT:          0 MISS:          0
cpu0_L1I TRANSLATION  ACCESS:          0 HIT:          0 MISS:          0
cpu0_L1I PREFETCH REQUESTED:          0 ISSUED:          0 USEFUL:          0 USELESS:          0
cpu0_L1I AVERAGE MISS LATENCY: 18.34 cycles
cpu0_L2C TOTAL        ACCESS:     376511 HIT:     186932 MISS:     189579
cpu0_L2C LOAD         ACCESS:       3801 HIT:        534 MISS:       3267
cpu0_L2C RFO          ACCESS:     186236 HIT:         56 MISS:     186180
cpu0_L2C PREFETCH     ACCESS:          0 HIT:          0 MISS:          0
cpu0_L2C WRITE        ACCESS:     186329 HIT:     186327 MISS:          2
cpu0_L2C TRANSLATION  ACCESS:        145 HIT:         15 MISS:        130
cpu0_L2C PREFETCH REQUESTED:          0 ISSUED:          0 USEFUL:          0 USELESS:          0
cpu0_L2C AVERAGE MISS LATENCY: 443.8 cycles
cpu0_STLB TOTAL        ACCESS:       3103 HIT:         46 MISS:       3057
cpu0_STLB LOAD         ACCESS:       3103 HIT:         46 MISS:       3057
cpu0_STLB RFO          ACCESS:          0 HIT:          0 MISS:          0
cpu0_STLB PREFETCH     ACCESS:          0 HIT:          0 MISS:          0
cpu0_STLB WRITE        ACCESS:          0 HIT:          0 MISS:          0
cpu0_STLB TRANSLATION  ACCESS:          0 HIT:          0 MISS:          0
cpu0_STLB PREFETCH REQUESTED:          0 ISSUED:          0 USEFUL:          0 USELESS:          0
cpu0_STLB AVERAGE MISS LATENCY: 184.2 cycles

DRAM Statistics

Channel 0 RQ ROW_BUFFER_HIT:      13410
  ROW_BUFFER_MISS:     157345
 AVG DBUS CONGESTED CYCLE: 3.889
WQ ROW_BUFFER_HIT: Channel 0 
  ROW_BUFFER_MISS:          5
  FULL:     157216
