WARNING: physical memory size is smaller than virtual memory size.

*** ChampSim Multicore Out-of-Order Simulator ***
Warmup Instructions: 50000000
Simulation Instructions: 600000000
Number of CPUs: 1
Page size: 4096

Off-chip DRAM Size: 4 GiB Channels: 1 Width: 64-bit Data Race: 3200 MT/s
Heartbeat CPU 0 instructions: 10000002 cycles: 2500203 heartbeat IPC: 4 cumulative IPC: 4 (Simulation time: 00 hr 00 min 30 sec)
Heartbeat CPU 0 instructions: 20000002 cycles: 5000203 heartbeat IPC: 4 cumulative IPC: 4 (Simulation time: 00 hr 00 min 59 sec)
Heartbeat CPU 0 instructions: 30000002 cycles: 7500203 heartbeat IPC: 4 cumulative IPC: 4 (Simulation time: 00 hr 01 min 29 sec)
Heartbeat CPU 0 instructions: 40000002 cycles: 10000203 heartbeat IPC: 4 cumulative IPC: 4 (Simulation time: 00 hr 01 min 59 sec)
Heartbeat CPU 0 instructions: 50000002 cycles: 12500203 heartbeat IPC: 4 cumulative IPC: 4 (Simulation time: 00 hr 02 min 29 sec)
Warmup finished CPU 0 instructions: 50000002 cycles: 12500204 cumulative IPC: 4 (Simulation time: 00 hr 02 min 29 sec)
Warmup complete CPU 0 instructions: 50000002 cycles: 12500204 cumulative IPC: 4 (Simulation time: 00 hr 02 min 29 sec)
Heartbeat CPU 0 instructions: 60000000 cycles: 16955546 heartbeat IPC: 2.244 cumulative IPC: 2.244 (Simulation time: 00 hr 03 min 21 sec)
Heartbeat CPU 0 instructions: 70000000 cycles: 21411679 heartbeat IPC: 2.244 cumulative IPC: 2.244 (Simulation time: 00 hr 04 min 13 sec)
Heartbeat CPU 0 instructions: 80000000 cycles: 25867122 heartbeat IPC: 2.244 cumulative IPC: 2.244 (Simulation time: 00 hr 05 min 06 sec)
Heartbeat CPU 0 instructions: 90000000 cycles: 30322570 heartbeat IPC: 2.244 cumulative IPC: 2.244 (Simulation time: 00 hr 06 min 01 sec)
Heartbeat CPU 0 instructions: 100000002 cycles: 34778017 heartbeat IPC: 2.244 cumulative IPC: 2.244 (Simulation time: 00 hr 06 min 55 sec)
Heartbeat CPU 0 instructions: 110000000 cycles: 39233464 heartbeat IPC: 2.244 cumulative IPC: 2.244 (Simulation time: 00 hr 07 min 47 sec)
Heartbeat CPU 0 instructions: 120000000 cycles: 43688906 heartbeat IPC: 2.244 cumulative IPC: 2.244 (Simulation time: 00 hr 08 min 39 sec)
Heartbeat CPU 0 instructions: 130000000 cycles: 48144349 heartbeat IPC: 2.244 cumulative IPC: 2.244 (Simulation time: 00 hr 09 min 31 sec)
Heartbeat CPU 0 instructions: 140000000 cycles: 52599797 heartbeat IPC: 2.244 cumulative IPC: 2.244 (Simulation time: 00 hr 10 min 22 sec)
Heartbeat CPU 0 instructions: 150000001 cycles: 57055243 heartbeat IPC: 2.244 cumulative IPC: 2.244 (Simulation time: 00 hr 11 min 14 sec)
Heartbeat CPU 0 instructions: 160000000 cycles: 61510689 heartbeat IPC: 2.244 cumulative IPC: 2.244 (Simulation time: 00 hr 12 min 08 sec)
Heartbeat CPU 0 instructions: 170000002 cycles: 65966133 heartbeat IPC: 2.244 cumulative IPC: 2.244 (Simulation time: 00 hr 13 min 02 sec)
Heartbeat CPU 0 instructions: 180000004 cycles: 70421776 heartbeat IPC: 2.244 cumulative IPC: 2.244 (Simulation time: 00 hr 13 min 55 sec)
Heartbeat CPU 0 instructions: 190000004 cycles: 74877224 heartbeat IPC: 2.244 cumulative IPC: 2.244 (Simulation time: 00 hr 14 min 47 sec)
Heartbeat CPU 0 instructions: 200000004 cycles: 79332672 heartbeat IPC: 2.244 cumulative IPC: 2.244 (Simulation time: 00 hr 15 min 39 sec)
Heartbeat CPU 0 instructions: 210000000 cycles: 83788117 heartbeat IPC: 2.244 cumulative IPC: 2.244 (Simulation time: 00 hr 16 min 31 sec)
Heartbeat CPU 0 instructions: 220000000 cycles: 88243560 heartbeat IPC: 2.244 cumulative IPC: 2.244 (Simulation time: 00 hr 17 min 24 sec)
Heartbeat CPU 0 instructions: 230000000 cycles: 92699002 heartbeat IPC: 2.244 cumulative IPC: 2.244 (Simulation time: 00 hr 18 min 17 sec)
Heartbeat CPU 0 instructions: 240000002 cycles: 97154450 heartbeat IPC: 2.244 cumulative IPC: 2.244 (Simulation time: 00 hr 19 min 09 sec)
Heartbeat CPU 0 instructions: 250000003 cycles: 101609896 heartbeat IPC: 2.244 cumulative IPC: 2.244 (Simulation time: 00 hr 20 min 02 sec)
Heartbeat CPU 0 instructions: 260000001 cycles: 106065343 heartbeat IPC: 2.244 cumulative IPC: 2.244 (Simulation time: 00 hr 20 min 56 sec)
Heartbeat CPU 0 instructions: 270000001 cycles: 110520786 heartbeat IPC: 2.244 cumulative IPC: 2.244 (Simulation time: 00 hr 21 min 49 sec)
Heartbeat CPU 0 instructions: 280000001 cycles: 114976919 heartbeat IPC: 2.244 cumulative IPC: 2.244 (Simulation time: 00 hr 22 min 43 sec)
Heartbeat CPU 0 instructions: 290000003 cycles: 119432367 heartbeat IPC: 2.244 cumulative IPC: 2.244 (Simulation time: 00 hr 23 min 37 sec)
Heartbeat CPU 0 instructions: 300000000 cycles: 123887813 heartbeat IPC: 2.244 cumulative IPC: 2.244 (Simulation time: 00 hr 24 min 29 sec)
Heartbeat CPU 0 instructions: 310000003 cycles: 128343261 heartbeat IPC: 2.244 cumulative IPC: 2.244 (Simulation time: 00 hr 25 min 22 sec)
Heartbeat CPU 0 instructions: 320000001 cycles: 132798704 heartbeat IPC: 2.244 cumulative IPC: 2.244 (Simulation time: 00 hr 26 min 16 sec)
Heartbeat CPU 0 instructions: 330000001 cycles: 137254146 heartbeat IPC: 2.244 cumulative IPC: 2.244 (Simulation time: 00 hr 27 min 12 sec)
Heartbeat CPU 0 instructions: 340000003 cycles: 141709594 heartbeat IPC: 2.244 cumulative IPC: 2.244 (Simulation time: 00 hr 28 min 04 sec)
Heartbeat CPU 0 instructions: 350000004 cycles: 146165040 heartbeat IPC: 2.244 cumulative IPC: 2.244 (Simulation time: 00 hr 28 min 56 sec)
Heartbeat CPU 0 instructions: 360000000 cycles: 150620487 heartbeat IPC: 2.244 cumulative IPC: 2.244 (Simulation time: 00 hr 29 min 50 sec)
Heartbeat CPU 0 instructions: 370000000 cycles: 155075929 heartbeat IPC: 2.244 cumulative IPC: 2.244 (Simulation time: 00 hr 30 min 43 sec)
Heartbeat CPU 0 instructions: 380000002 cycles: 159531377 heartbeat IPC: 2.244 cumulative IPC: 2.244 (Simulation time: 00 hr 31 min 36 sec)
Heartbeat CPU 0 instructions: 390000002 cycles: 163987515 heartbeat IPC: 2.244 cumulative IPC: 2.244 (Simulation time: 00 hr 32 min 28 sec)
Heartbeat CPU 0 instructions: 400000002 cycles: 168442963 heartbeat IPC: 2.244 cumulative IPC: 2.244 (Simulation time: 00 hr 33 min 19 sec)
Heartbeat CPU 0 instructions: 410000001 cycles: 172898410 heartbeat IPC: 2.244 cumulative IPC: 2.244 (Simulation time: 00 hr 34 min 11 sec)
Heartbeat CPU 0 instructions: 420000000 cycles: 177353853 heartbeat IPC: 2.244 cumulative IPC: 2.244 (Simulation time: 00 hr 35 min 04 sec)
Heartbeat CPU 0 instructions: 430000001 cycles: 181809295 heartbeat IPC: 2.244 cumulative IPC: 2.244 (Simulation time: 00 hr 36 min 00 sec)
Heartbeat CPU 0 instructions: 440000000 cycles: 186264741 heartbeat IPC: 2.244 cumulative IPC: 2.244 (Simulation time: 00 hr 36 min 52 sec)
Heartbeat CPU 0 instructions: 450000001 cycles: 190720187 heartbeat IPC: 2.244 cumulative IPC: 2.244 (Simulation time: 00 hr 37 min 45 sec)
Heartbeat CPU 0 instructions: 460000001 cycles: 195175635 heartbeat IPC: 2.244 cumulative IPC: 2.244 (Simulation time: 00 hr 38 min 38 sec)
Heartbeat CPU 0 instructions: 470000000 cycles: 199631078 heartbeat IPC: 2.244 cumulative IPC: 2.244 (Simulation time: 00 hr 39 min 30 sec)
Heartbeat CPU 0 instructions: 480000000 cycles: 204086520 heartbeat IPC: 2.244 cumulative IPC: 2.244 (Simulation time: 00 hr 40 min 23 sec)
Heartbeat CPU 0 instructions: 490000001 cycles: 208541967 heartbeat IPC: 2.244 cumulative IPC: 2.244 (Simulation time: 00 hr 41 min 17 sec)
Heartbeat CPU 0 instructions: 500000003 cycles: 212997609 heartbeat IPC: 2.244 cumulative IPC: 2.244 (Simulation time: 00 hr 42 min 11 sec)
Heartbeat CPU 0 instructions: 510000001 cycles: 217453056 heartbeat IPC: 2.244 cumulative IPC: 2.244 (Simulation time: 00 hr 43 min 05 sec)
Heartbeat CPU 0 instructions: 520000000 cycles: 221908500 heartbeat IPC: 2.244 cumulative IPC: 2.244 (Simulation time: 00 hr 43 min 57 sec)
Heartbeat CPU 0 instructions: 530000000 cycles: 226363942 heartbeat IPC: 2.244 cumulative IPC: 2.244 (Simulation time: 00 hr 44 min 49 sec)
Heartbeat CPU 0 instructions: 540000001 cycles: 230819389 heartbeat IPC: 2.244 cumulative IPC: 2.244 (Simulation time: 00 hr 45 min 41 sec)
Heartbeat CPU 0 instructions: 550000002 cycles: 235274835 heartbeat IPC: 2.244 cumulative IPC: 2.244 (Simulation time: 00 hr 46 min 33 sec)
Heartbeat CPU 0 instructions: 560000002 cycles: 239730283 heartbeat IPC: 2.244 cumulative IPC: 2.244 (Simulation time: 00 hr 47 min 25 sec)
Heartbeat CPU 0 instructions: 570000001 cycles: 244185726 heartbeat IPC: 2.244 cumulative IPC: 2.244 (Simulation time: 00 hr 48 min 17 sec)
Heartbeat CPU 0 instructions: 580000000 cycles: 248641172 heartbeat IPC: 2.244 cumulative IPC: 2.244 (Simulation time: 00 hr 49 min 09 sec)
Heartbeat CPU 0 instructions: 590000000 cycles: 253096620 heartbeat IPC: 2.244 cumulative IPC: 2.244 (Simulation time: 00 hr 50 min 00 sec)
*** Reached end of trace: (0, "traces/is.A.champsimtrace")
Heartbeat CPU 0 instructions: 600000000 cycles: 257552263 heartbeat IPC: 2.244 cumulative IPC: 2.244 (Simulation time: 00 hr 50 min 54 sec)
Heartbeat CPU 0 instructions: 610000001 cycles: 262360432 heartbeat IPC: 2.08 cumulative IPC: 2.241 (Simulation time: 00 hr 51 min 49 sec)
Heartbeat CPU 0 instructions: 620000001 cycles: 266815875 heartbeat IPC: 2.244 cumulative IPC: 2.241 (Simulation time: 00 hr 52 min 41 sec)
Heartbeat CPU 0 instructions: 630000001 cycles: 271271317 heartbeat IPC: 2.244 cumulative IPC: 2.241 (Simulation time: 00 hr 53 min 34 sec)
Heartbeat CPU 0 instructions: 640000003 cycles: 275726765 heartbeat IPC: 2.244 cumulative IPC: 2.241 (Simulation time: 00 hr 54 min 27 sec)
Heartbeat CPU 0 instructions: 650000004 cycles: 280182211 heartbeat IPC: 2.244 cumulative IPC: 2.241 (Simulation time: 00 hr 55 min 20 sec)
Simulation finished CPU 0 instructions: 600000002 cycles: 267682008 cumulative IPC: 2.241 (Simulation time: 00 hr 55 min 20 sec)
Simulation complete CPU 0 instructions: 600000002 cycles: 267682008 cumulative IPC: 2.241 (Simulation time: 00 hr 55 min 20 sec)

ChampSim completed all CPUs

=== Simulation ===
CPU 0 runs traces/is.A.champsimtrace
Region of Interest Statistics

CPU 0 cumulative IPC: 2.241 instructions: 600000002 cycles: 267682008
CPU 0 Branch Prediction Accuracy: 99.98% MPKI: 0.007395 Average ROB Occupancy at Mispredict: 23.82
Branch type MPKI
BRANCH_DIRECT_JUMP: 3.33e-06
BRANCH_INDIRECT: 8.67e-05
BRANCH_CONDITIONAL: 0.00725
BRANCH_DIRECT_CALL: 0
BRANCH_INDIRECT_CALL: 3.67e-05
BRANCH_RETURN: 2e-05

LLC TOTAL        ACCESS:     377932 HIT:     183773 MISS:     194159
LLC LOAD         ACCESS:       3279 HIT:       2603 MISS:        676
LLC RFO          ACCESS:     186181 HIT:       2886 MISS:     183295
LLC PREFETCH     ACCESS:       2107 HIT:       1608 MISS:        499
LLC WRITE        ACCESS:     186232 HIT:     176573 MISS:       9659
LLC TRANSLATION  ACCESS:        133 HIT:        103 MISS:         30
LLC PREFETCH REQUESTED:       2107 ISSUED:       2107 USEFUL:        223 USELESS:         11
LLC AVERAGE MISS LATENCY: 392.2 cycles
cpu0_DTLB TOTAL        ACCESS:   71304186 HIT:   71295642 MISS:       8544
cpu0_DTLB LOAD         ACCESS:   71304186 HIT:   71295642 MISS:       8544
cpu0_DTLB RFO          ACCESS:          0 HIT:          0 MISS:          0
cpu0_DTLB PREFETCH     ACCESS:          0 HIT:          0 MISS:          0
cpu0_DTLB WRITE        ACCESS:          0 HIT:          0 MISS:          0
cpu0_DTLB TRANSLATION  ACCESS:          0 HIT:          0 MISS:          0
cpu0_DTLB PREFETCH REQUESTED:          0 ISSUED:          0 USEFUL:          0 USELESS:          0
cpu0_DTLB AVERAGE MISS LATENCY: 13.06 cycles
cpu0_ITLB TOTAL        ACCESS:       2756 HIT:       2613 MISS:        143
cpu0_ITLB LOAD         ACCESS:       2756 HIT:       2613 MISS:        143
cpu0_ITLB RFO          ACCESS:          0 HIT:          0 MISS:          0
cpu0_ITLB PREFETCH     ACCESS:          0 HIT:          0 MISS:          0
cpu0_ITLB WRITE        ACCESS:          0 HIT:          0 MISS:          0
cpu0_ITLB TRANSLATION  ACCESS:          0 HIT:          0 MISS:          0
cpu0_ITLB PREFETCH REQUESTED:          0 ISSUED:          0 USEFUL:          0 USELESS:          0
cpu0_ITLB AVERAGE MISS LATENCY: 64.22 cycles
cpu0_L1D TOTAL        ACCESS:   83194008 HIT:   82216951 MISS:     977057
cpu0_L1D LOAD         ACCESS:   47545336 HIT:   47538206 MISS:       7130
cpu0_L1D RFO          ACCESS:          0 HIT:          0 MISS:          0
cpu0_L1D PREFETCH     ACCESS:          0 HIT:          0 MISS:          0
cpu0_L1D WRITE        ACCESS:   35645612 HIT:   34675831 MISS:     969781
cpu0_L1D TRANSLATION  ACCESS:       3060 HIT:       2914 MISS:        146
cpu0_L1D PREFETCH REQUESTED:          0 ISSUED:          0 USEFUL:          0 USELESS:          0
cpu0_L1D AVERAGE MISS LATENCY: 12.35 cycles
cpu0_L1I TOTAL        ACCESS:       3153 HIT:       1596 MISS:       1557
cpu0_L1I LOAD         ACCESS:       3153 HIT:       1596 MISS:       1557
cpu0_L1I RFO          ACCESS:          0 HIT:          0 MISS:          0
cpu0_L1I PREFETCH     ACCESS:          0 HIT:          0 MISS:          0
cpu0_L1I WRITE        ACCESS:          0 HIT:          0 MISS:          0
cpu0_L1I TRANSLATION  ACCESS:          0 HIT:          0 MISS:          0
cpu0_L1I PREFETCH REQUESTED:          0 ISSUED:          0 USEFUL:          0 USELESS:          0
cpu0_L1I AVERAGE MISS LATENCY: 166.8 cycles
cpu0_L2C TOTAL        ACCESS:     377240 HIT:     187645 MISS:     189595
cpu0_L2C LOAD         ACCESS:       3800 HIT:        521 MISS:       3279
cpu0_L2C RFO          ACCESS:     186605 HIT:        424 MISS:     186181
cpu0_L2C PREFETCH     ACCESS:          0 HIT:          0 MISS:          0
cpu0_L2C WRITE        ACCESS:     186690 HIT:     186688 MISS:          2
cpu0_L2C TRANSLATION  ACCESS:        145 HIT:         12 MISS:        133
cpu0_L2C PREFETCH REQUESTED:          0 ISSUED:          0 USEFUL:          0 USELESS:          0
cpu0_L2C AVERAGE MISS LATENCY: 421.9 cycles
cpu0_STLB TOTAL        ACCESS:       3065 HIT:         11 MISS:       3054
cpu0_STLB LOAD         ACCESS:       3065 HIT:         11 MISS:       3054
cpu0_STLB RFO          ACCESS:          0 HIT:          0 MISS:          0
cpu0_STLB PREFETCH     ACCESS:          0 HIT:          0 MISS:          0
cpu0_STLB WRITE        ACCESS:          0 HIT:          0 MISS:          0
cpu0_STLB TRANSLATION  ACCESS:          0 HIT:          0 MISS:          0
cpu0_STLB PREFETCH REQUESTED:          0 ISSUED:          0 USEFUL:          0 USELESS:          0
cpu0_STLB AVERAGE MISS LATENCY: 188.5 cycles

DRAM Statistics

Channel 0 RQ ROW_BUFFER_HIT:      47586
  ROW_BUFFER_MISS:     136532
 AVG DBUS CONGESTED CYCLE: 3.981
WQ ROW_BUFFER_HIT: Channel 0 
  ROW_BUFFER_MISS:         59
  FULL:     137015
