WARNING: physical memory size is smaller than virtual memory size.

*** ChampSim Multicore Out-of-Order Simulator ***
Warmup Instructions: 50000000
Simulation Instructions: 600000000
Number of CPUs: 1
Page size: 4096

Off-chip DRAM Size: 4 GiB Channels: 1 Width: 64-bit Data Race: 3200 MT/s
Heartbeat CPU 0 instructions: 10000002 cycles: 2500203 heartbeat IPC: 4 cumulative IPC: 4 (Simulation time: 00 hr 00 min 41 sec)
Heartbeat CPU 0 instructions: 20000002 cycles: 5000203 heartbeat IPC: 4 cumulative IPC: 4 (Simulation time: 00 hr 01 min 20 sec)
Heartbeat CPU 0 instructions: 30000002 cycles: 7500203 heartbeat IPC: 4 cumulative IPC: 4 (Simulation time: 00 hr 01 min 59 sec)
Heartbeat CPU 0 instructions: 40000002 cycles: 10000203 heartbeat IPC: 4 cumulative IPC: 4 (Simulation time: 00 hr 02 min 42 sec)
Heartbeat CPU 0 instructions: 50000002 cycles: 12500203 heartbeat IPC: 4 cumulative IPC: 4 (Simulation time: 00 hr 03 min 22 sec)
Warmup finished CPU 0 instructions: 50000002 cycles: 12500204 cumulative IPC: 4 (Simulation time: 00 hr 03 min 22 sec)
Warmup complete CPU 0 instructions: 50000002 cycles: 12500204 cumulative IPC: 4 (Simulation time: 00 hr 03 min 22 sec)
Heartbeat CPU 0 instructions: 60000000 cycles: 16955541 heartbeat IPC: 2.244 cumulative IPC: 2.244 (Simulation time: 00 hr 04 min 32 sec)
Heartbeat CPU 0 instructions: 70000002 cycles: 21410989 heartbeat IPC: 2.244 cumulative IPC: 2.244 (Simulation time: 00 hr 05 min 54 sec)
Heartbeat CPU 0 instructions: 80000002 cycles: 25866437 heartbeat IPC: 2.244 cumulative IPC: 2.244 (Simulation time: 00 hr 07 min 03 sec)
Heartbeat CPU 0 instructions: 90000002 cycles: 30322575 heartbeat IPC: 2.244 cumulative IPC: 2.244 (Simulation time: 00 hr 08 min 14 sec)
Heartbeat CPU 0 instructions: 100000001 cycles: 34778022 heartbeat IPC: 2.244 cumulative IPC: 2.244 (Simulation time: 00 hr 09 min 26 sec)
Heartbeat CPU 0 instructions: 110000000 cycles: 39233465 heartbeat IPC: 2.244 cumulative IPC: 2.244 (Simulation time: 00 hr 10 min 36 sec)
Heartbeat CPU 0 instructions: 120000001 cycles: 43688907 heartbeat IPC: 2.244 cumulative IPC: 2.244 (Simulation time: 00 hr 11 min 46 sec)
Heartbeat CPU 0 instructions: 130000000 cycles: 48144353 heartbeat IPC: 2.244 cumulative IPC: 2.244 (Simulation time: 00 hr 12 min 56 sec)
Heartbeat CPU 0 instructions: 140000001 cycles: 52599799 heartbeat IPC: 2.244 cumulative IPC: 2.244 (Simulation time: 00 hr 14 min 05 sec)
Heartbeat CPU 0 instructions: 150000001 cycles: 57055247 heartbeat IPC: 2.244 cumulative IPC: 2.244 (Simulation time: 00 hr 15 min 15 sec)
Heartbeat CPU 0 instructions: 160000000 cycles: 61510690 heartbeat IPC: 2.244 cumulative IPC: 2.244 (Simulation time: 00 hr 16 min 29 sec)
Heartbeat CPU 0 instructions: 170000000 cycles: 65966132 heartbeat IPC: 2.244 cumulative IPC: 2.244 (Simulation time: 00 hr 17 min 38 sec)
Heartbeat CPU 0 instructions: 180000001 cycles: 70421579 heartbeat IPC: 2.244 cumulative IPC: 2.244 (Simulation time: 00 hr 18 min 50 sec)
Heartbeat CPU 0 instructions: 190000003 cycles: 74877026 heartbeat IPC: 2.244 cumulative IPC: 2.244 (Simulation time: 00 hr 20 min 00 sec)
Heartbeat CPU 0 instructions: 200000001 cycles: 79332668 heartbeat IPC: 2.244 cumulative IPC: 2.244 (Simulation time: 00 hr 21 min 09 sec)
Heartbeat CPU 0 instructions: 210000000 cycles: 83788112 heartbeat IPC: 2.244 cumulative IPC: 2.244 (Simulation time: 00 hr 22 min 21 sec)
Heartbeat CPU 0 instructions: 220000000 cycles: 88243554 heartbeat IPC: 2.244 cumulative IPC: 2.244 (Simulation time: 00 hr 23 min 31 sec)
Heartbeat CPU 0 instructions: 230000001 cycles: 92699001 heartbeat IPC: 2.244 cumulative IPC: 2.244 (Simulation time: 00 hr 24 min 41 sec)
Heartbeat CPU 0 instructions: 240000002 cycles: 97154447 heartbeat IPC: 2.244 cumulative IPC: 2.244 (Simulation time: 00 hr 25 min 51 sec)
Heartbeat CPU 0 instructions: 250000002 cycles: 101609895 heartbeat IPC: 2.244 cumulative IPC: 2.244 (Simulation time: 00 hr 27 min 01 sec)
Heartbeat CPU 0 instructions: 260000001 cycles: 106065338 heartbeat IPC: 2.244 cumulative IPC: 2.244 (Simulation time: 00 hr 28 min 13 sec)
Heartbeat CPU 0 instructions: 270000000 cycles: 110520784 heartbeat IPC: 2.244 cumulative IPC: 2.244 (Simulation time: 00 hr 29 min 22 sec)
Heartbeat CPU 0 instructions: 280000000 cycles: 114976232 heartbeat IPC: 2.244 cumulative IPC: 2.244 (Simulation time: 00 hr 30 min 34 sec)
Heartbeat CPU 0 instructions: 290000000 cycles: 119431680 heartbeat IPC: 2.244 cumulative IPC: 2.244 (Simulation time: 00 hr 31 min 43 sec)
Heartbeat CPU 0 instructions: 300000000 cycles: 123887323 heartbeat IPC: 2.244 cumulative IPC: 2.244 (Simulation time: 00 hr 32 min 55 sec)
Heartbeat CPU 0 instructions: 310000000 cycles: 128342766 heartbeat IPC: 2.244 cumulative IPC: 2.244 (Simulation time: 00 hr 34 min 04 sec)
Heartbeat CPU 0 instructions: 320000000 cycles: 132798208 heartbeat IPC: 2.244 cumulative IPC: 2.244 (Simulation time: 00 hr 35 min 16 sec)
Heartbeat CPU 0 instructions: 330000003 cycles: 137253654 heartbeat IPC: 2.244 cumulative IPC: 2.244 (Simulation time: 00 hr 36 min 26 sec)
Heartbeat CPU 0 instructions: 340000001 cycles: 141709100 heartbeat IPC: 2.244 cumulative IPC: 2.244 (Simulation time: 00 hr 37 min 36 sec)
Heartbeat CPU 0 instructions: 350000004 cycles: 146164548 heartbeat IPC: 2.244 cumulative IPC: 2.244 (Simulation time: 00 hr 38 min 46 sec)
Heartbeat CPU 0 instructions: 360000001 cycles: 150619992 heartbeat IPC: 2.244 cumulative IPC: 2.244 (Simulation time: 00 hr 39 min 57 sec)
Heartbeat CPU 0 instructions: 370000000 cycles: 155075433 heartbeat IPC: 2.244 cumulative IPC: 2.244 (Simulation time: 00 hr 41 min 06 sec)
Heartbeat CPU 0 instructions: 380000004 cycles: 159530880 heartbeat IPC: 2.244 cumulative IPC: 2.244 (Simulation time: 00 hr 42 min 16 sec)
Heartbeat CPU 0 instructions: 390000001 cycles: 163986326 heartbeat IPC: 2.244 cumulative IPC: 2.244 (Simulation time: 00 hr 43 min 26 sec)
Heartbeat CPU 0 instructions: 400000001 cycles: 168441774 heartbeat IPC: 2.244 cumulative IPC: 2.244 (Simulation time: 00 hr 44 min 37 sec)
Heartbeat CPU 0 instructions: 410000001 cycles: 172897414 heartbeat IPC: 2.244 cumulative IPC: 2.244 (Simulation time: 00 hr 45 min 48 sec)
Heartbeat CPU 0 instructions: 420000000 cycles: 177352855 heartbeat IPC: 2.244 cumulative IPC: 2.244 (Simulation time: 00 hr 46 min 57 sec)
Heartbeat CPU 0 instructions: 430000004 cycles: 181808302 heartbeat IPC: 2.244 cumulative IPC: 2.244 (Simulation time: 00 hr 48 min 08 sec)
Heartbeat CPU 0 instructions: 440000000 cycles: 186263747 heartbeat IPC: 2.244 cumulative IPC: 2.244 (Simulation time: 00 hr 49 min 19 sec)
Heartbeat CPU 0 instructions: 450000000 cycles: 190719195 heartbeat IPC: 2.244 cumulative IPC: 2.244 (Simulation time: 00 hr 50 min 29 sec)
Heartbeat CPU 0 instructions: 460000000 cycles: 195174639 heartbeat IPC: 2.244 cumulative IPC: 2.244 (Simulation time: 00 hr 51 min 38 sec)
Heartbeat CPU 0 instructions: 470000003 cycles: 199630085 heartbeat IPC: 2.244 cumulative IPC: 2.244 (Simulation time: 00 hr 52 min 50 sec)
Heartbeat CPU 0 instructions: 480000003 cycles: 204085533 heartbeat IPC: 2.244 cumulative IPC: 2.244 (Simulation time: 00 hr 54 min 02 sec)
Heartbeat CPU 0 instructions: 490000003 cycles: 208540981 heartbeat IPC: 2.244 cumulative IPC: 2.244 (Simulation time: 00 hr 55 min 14 sec)
Heartbeat CPU 0 instructions: 500000003 cycles: 212996429 heartbeat IPC: 2.244 cumulative IPC: 2.244 (Simulation time: 00 hr 56 min 25 sec)
Heartbeat CPU 0 instructions: 510000000 cycles: 217451873 heartbeat IPC: 2.244 cumulative IPC: 2.244 (Simulation time: 00 hr 57 min 36 sec)
Heartbeat CPU 0 instructions: 520000000 cycles: 221907510 heartbeat IPC: 2.244 cumulative IPC: 2.244 (Simulation time: 00 hr 58 min 49 sec)
Heartbeat CPU 0 instructions: 530000001 cycles: 226362954 heartbeat IPC: 2.244 cumulative IPC: 2.244 (Simulation time: 01 hr 00 min 00 sec)
Heartbeat CPU 0 instructions: 540000000 cycles: 230818401 heartbeat IPC: 2.244 cumulative IPC: 2.244 (Simulation time: 01 hr 01 min 11 sec)
Heartbeat CPU 0 instructions: 550000002 cycles: 235273848 heartbeat IPC: 2.244 cumulative IPC: 2.244 (Simulation time: 01 hr 02 min 24 sec)
Heartbeat CPU 0 instructions: 560000000 cycles: 239729293 heartbeat IPC: 2.244 cumulative IPC: 2.244 (Simulation time: 01 hr 03 min 34 sec)
Heartbeat CPU 0 instructions: 570000000 cycles: 244184735 heartbeat IPC: 2.244 cumulative IPC: 2.244 (Simulation time: 01 hr 04 min 48 sec)
Heartbeat CPU 0 instructions: 580000002 cycles: 248640180 heartbeat IPC: 2.244 cumulative IPC: 2.244 (Simulation time: 01 hr 05 min 57 sec)
Heartbeat CPU 0 instructions: 590000001 cycles: 253095627 heartbeat IPC: 2.244 cumulative IPC: 2.244 (Simulation time: 01 hr 07 min 09 sec)
*** Reached end of trace: (0, "traces/is.A.champsimtrace")
Heartbeat CPU 0 instructions: 600000001 cycles: 257551404 heartbeat IPC: 2.244 cumulative IPC: 2.244 (Simulation time: 01 hr 08 min 18 sec)
Heartbeat CPU 0 instructions: 610000000 cycles: 263065805 heartbeat IPC: 1.813 cumulative IPC: 2.235 (Simulation time: 01 hr 09 min 37 sec)
Heartbeat CPU 0 instructions: 620000000 cycles: 267521247 heartbeat IPC: 2.244 cumulative IPC: 2.235 (Simulation time: 01 hr 10 min 48 sec)
Heartbeat CPU 0 instructions: 630000002 cycles: 271976695 heartbeat IPC: 2.244 cumulative IPC: 2.235 (Simulation time: 01 hr 11 min 58 sec)
Heartbeat CPU 0 instructions: 640000003 cycles: 276432141 heartbeat IPC: 2.244 cumulative IPC: 2.235 (Simulation time: 01 hr 13 min 11 sec)
Heartbeat CPU 0 instructions: 650000003 cycles: 280887589 heartbeat IPC: 2.244 cumulative IPC: 2.236 (Simulation time: 01 hr 14 min 23 sec)
Simulation finished CPU 0 instructions: 600000001 cycles: 268387386 cumulative IPC: 2.236 (Simulation time: 01 hr 14 min 23 sec)
Simulation complete CPU 0 instructions: 600000001 cycles: 268387386 cumulative IPC: 2.236 (Simulation time: 01 hr 14 min 23 sec)

ChampSim completed all CPUs

=== Simulation ===
CPU 0 runs traces/is.A.champsimtrace
Region of Interest Statistics

CPU 0 cumulative IPC: 2.236 instructions: 600000001 cycles: 268387386
CPU 0 Branch Prediction Accuracy: 99.98% MPKI: 0.006815 Average ROB Occupancy at Mispredict: 38.69
Branch type MPKI
BRANCH_DIRECT_JUMP: 3.33e-06
BRANCH_INDIRECT: 8.5e-05
BRANCH_CONDITIONAL: 0.00667
BRANCH_DIRECT_CALL: 0
BRANCH_INDIRECT_CALL: 3.5e-05
BRANCH_RETURN: 2e-05

LLC TOTAL        ACCESS:     375845 HIT:      46289 MISS:     329556
LLC LOAD         ACCESS:       3284 HIT:       1809 MISS:       1475
LLC RFO          ACCESS:     186186 HIT:      15517 MISS:     170669
LLC PREFETCH     ACCESS:          0 HIT:          0 MISS:          0
LLC WRITE        ACCESS:     186246 HIT:      28889 MISS:     157357
LLC TRANSLATION  ACCESS:        129 HIT:         74 MISS:         55
LLC PREFETCH REQUESTED:          0 ISSUED:          0 USEFUL:          0 USELESS:          0
LLC AVERAGE MISS LATENCY: 246.5 cycles
cpu0_DTLB TOTAL        ACCESS:   71303643 HIT:   71295084 MISS:       8559
cpu0_DTLB LOAD         ACCESS:   71303643 HIT:   71295084 MISS:       8559
cpu0_DTLB RFO          ACCESS:          0 HIT:          0 MISS:          0
cpu0_DTLB PREFETCH     ACCESS:          0 HIT:          0 MISS:          0
cpu0_DTLB WRITE        ACCESS:          0 HIT:          0 MISS:          0
cpu0_DTLB TRANSLATION  ACCESS:          0 HIT:          0 MISS:          0
cpu0_DTLB PREFETCH REQUESTED:          0 ISSUED:          0 USEFUL:          0 USELESS:          0
cpu0_DTLB AVERAGE MISS LATENCY: 16.45 cycles
cpu0_ITLB TOTAL        ACCESS:       2835 HIT:       2699 MISS:        136
cpu0_ITLB LOAD         ACCESS:       2835 HIT:       2699 MISS:        136
cpu0_ITLB RFO          ACCESS:          0 HIT:          0 MISS:          0
cpu0_ITLB PREFETCH     ACCESS:          0 HIT:          0 MISS:          0
cpu0_ITLB WRITE        ACCESS:          0 HIT:          0 MISS:          0
cpu0_ITLB TRANSLATION  ACCESS:          0 HIT:          0 MISS:          0
cpu0_ITLB PREFETCH REQUESTED:          0 ISSUED:          0 USEFUL:          0 USELESS:          0
cpu0_ITLB AVERAGE MISS LATENCY: 163.7 cycles
cpu0_L1D TOTAL        ACCESS:   83193303 HIT:   82196409 MISS:     996894
cpu0_L1D LOAD         ACCESS:   47544587 HIT:   47537759 MISS:       6828
cpu0_L1D RFO          ACCESS:          0 HIT:          0 MISS:          0
cpu0_L1D PREFETCH     ACCESS:          0 HIT:          0 MISS:          0
cpu0_L1D WRITE        ACCESS:   35645656 HIT:   34655730 MISS:     989926
cpu0_L1D TRANSLATION  ACCESS:       3060 HIT:       2920 MISS:        140
cpu0_L1D PREFETCH REQUESTED:          0 ISSUED:          0 USEFUL:          0 USELESS:          0
cpu0_L1D AVERAGE MISS LATENCY: 14.9 cycles
cpu0_L1I TOTAL        ACCESS:       3276 HIT:       1668 MISS:       1608
cpu0_L1I LOAD         ACCESS:       3276 HIT:       1668 MISS:       1608
cpu0_L1I RFO          ACCESS:          0 HIT:          0 MISS:          0
cpu0_L1I PREFETCH     ACCESS:          0 HIT:          0 MISS:          0
cpu0_L1I WRITE        ACCESS:          0 HIT:          0 MISS:          0
cpu0_L1I TRANSLATION  ACCESS:          0 HIT:          0 MISS:          0
cpu0_L1I PREFETCH REQUESTED:          0 ISSUED:          0 USEFUL:          0 USELESS:          0
cpu0_L1I AVERAGE MISS LATENCY: 444 cycles
cpu0_L2C TOTAL        ACCESS:     376460 HIT:     186856 MISS:     189604
cpu0_L2C LOAD         ACCESS:       3737 HIT:        453 MISS:       3284
cpu0_L2C RFO          ACCESS:     186250 HIT:         64 MISS:     186186
cpu0_L2C PREFETCH     ACCESS:          0 HIT:          0 MISS:          0
cpu0_L2C WRITE        ACCESS:     186334 HIT:     186329 MISS:          5
cpu0_L2C TRANSLATION  ACCESS:        139 HIT:         10 MISS:        129
cpu0_L2C PREFETCH REQUESTED:          0 ISSUED:          0 USEFUL:          0 USELESS:          0
cpu0_L2C AVERAGE MISS LATENCY: 449.3 cycles
cpu0_STLB TOTAL        ACCESS:       3073 HIT:         18 MISS:       3055
cpu0_STLB LOAD         ACCESS:       3073 HIT:         18 MISS:       3055
cpu0_STLB RFO          ACCESS:          0 HIT:          0 MISS:          0
cpu0_STLB PREFETCH     ACCESS:          0 HIT:          0 MISS:          0
cpu0_STLB WRITE        ACCESS:          0 HIT:          0 MISS:          0
cpu0_STLB TRANSLATION  ACCESS:          0 HIT:          0 MISS:          0
cpu0_STLB PREFETCH REQUESTED:          0 ISSUED:          0 USEFUL:          0 USELESS:          0
cpu0_STLB AVERAGE MISS LATENCY: 206.7 cycles

DRAM Statistics

Channel 0 RQ ROW_BUFFER_HIT:      19319
  ROW_BUFFER_MISS:     152880
 AVG DBUS CONGESTED CYCLE: 3.933
WQ ROW_BUFFER_HIT: Channel 0 
  ROW_BUFFER_MISS:       1343
  FULL:     154676
