WARNING: physical memory size is smaller than virtual memory size.

*** ChampSim Multicore Out-of-Order Simulator ***
Warmup Instructions: 50000000
Simulation Instructions: 600000000
Number of CPUs: 1
Page size: 4096

Off-chip DRAM Size: 4 GiB Channels: 1 Width: 64-bit Data Race: 3200 MT/s
Heartbeat CPU 0 instructions: 10000001 cycles: 2500202 heartbeat IPC: 4 cumulative IPC: 4 (Simulation time: 00 hr 00 min 18 sec)
Heartbeat CPU 0 instructions: 20000001 cycles: 5000202 heartbeat IPC: 4 cumulative IPC: 4 (Simulation time: 00 hr 00 min 38 sec)
Heartbeat CPU 0 instructions: 30000001 cycles: 7500202 heartbeat IPC: 4 cumulative IPC: 4 (Simulation time: 00 hr 01 min 00 sec)
Heartbeat CPU 0 instructions: 40000001 cycles: 10000202 heartbeat IPC: 4 cumulative IPC: 4 (Simulation time: 00 hr 01 min 30 sec)
Heartbeat CPU 0 instructions: 50000001 cycles: 12500202 heartbeat IPC: 4 cumulative IPC: 4 (Simulation time: 00 hr 02 min 20 sec)
Warmup finished CPU 0 instructions: 50000001 cycles: 12500203 cumulative IPC: 4 (Simulation time: 00 hr 02 min 20 sec)
Warmup complete CPU 0 instructions: 50000001 cycles: 12500203 cumulative IPC: 4 (Simulation time: 00 hr 02 min 20 sec)
Heartbeat CPU 0 instructions: 60000001 cycles: 15135203 heartbeat IPC: 3.795 cumulative IPC: 3.795 (Simulation time: 00 hr 03 min 16 sec)
Heartbeat CPU 0 instructions: 70000004 cycles: 17769827 heartbeat IPC: 3.796 cumulative IPC: 3.795 (Simulation time: 00 hr 04 min 16 sec)
Heartbeat CPU 0 instructions: 80000003 cycles: 20404935 heartbeat IPC: 3.795 cumulative IPC: 3.795 (Simulation time: 00 hr 05 min 39 sec)
Heartbeat CPU 0 instructions: 90000003 cycles: 23041011 heartbeat IPC: 3.794 cumulative IPC: 3.795 (Simulation time: 00 hr 07 min 14 sec)
Heartbeat CPU 0 instructions: 100000002 cycles: 25675619 heartbeat IPC: 3.796 cumulative IPC: 3.795 (Simulation time: 00 hr 08 min 20 sec)
Heartbeat CPU 0 instructions: 110000002 cycles: 28310975 heartbeat IPC: 3.795 cumulative IPC: 3.795 (Simulation time: 00 hr 09 min 24 sec)
Heartbeat CPU 0 instructions: 120000001 cycles: 30945613 heartbeat IPC: 3.796 cumulative IPC: 3.795 (Simulation time: 00 hr 10 min 26 sec)
Heartbeat CPU 0 instructions: 130000001 cycles: 33580247 heartbeat IPC: 3.796 cumulative IPC: 3.795 (Simulation time: 00 hr 11 min 26 sec)
Heartbeat CPU 0 instructions: 140000002 cycles: 36214857 heartbeat IPC: 3.796 cumulative IPC: 3.795 (Simulation time: 00 hr 12 min 17 sec)
Heartbeat CPU 0 instructions: 150000004 cycles: 38849517 heartbeat IPC: 3.796 cumulative IPC: 3.795 (Simulation time: 00 hr 13 min 18 sec)
Heartbeat CPU 0 instructions: 160000000 cycles: 41485364 heartbeat IPC: 3.794 cumulative IPC: 3.795 (Simulation time: 00 hr 14 min 23 sec)
Heartbeat CPU 0 instructions: 170000004 cycles: 44119982 heartbeat IPC: 3.796 cumulative IPC: 3.795 (Simulation time: 00 hr 15 min 28 sec)
Heartbeat CPU 0 instructions: 180000000 cycles: 46755889 heartbeat IPC: 3.794 cumulative IPC: 3.795 (Simulation time: 00 hr 16 min 22 sec)
Heartbeat CPU 0 instructions: 190000000 cycles: 49391420 heartbeat IPC: 3.794 cumulative IPC: 3.795 (Simulation time: 00 hr 17 min 24 sec)
Heartbeat CPU 0 instructions: 200000001 cycles: 52027197 heartbeat IPC: 3.794 cumulative IPC: 3.795 (Simulation time: 00 hr 18 min 22 sec)
Heartbeat CPU 0 instructions: 210000001 cycles: 54662264 heartbeat IPC: 3.795 cumulative IPC: 3.795 (Simulation time: 00 hr 19 min 12 sec)
Heartbeat CPU 0 instructions: 220000002 cycles: 57296899 heartbeat IPC: 3.796 cumulative IPC: 3.795 (Simulation time: 00 hr 20 min 01 sec)
Heartbeat CPU 0 instructions: 230000001 cycles: 59932658 heartbeat IPC: 3.794 cumulative IPC: 3.795 (Simulation time: 00 hr 21 min 21 sec)
Heartbeat CPU 0 instructions: 240000003 cycles: 93321123 heartbeat IPC: 0.2995 cumulative IPC: 2.351 (Simulation time: 00 hr 26 min 31 sec)
Heartbeat CPU 0 instructions: 250000004 cycles: 102639019 heartbeat IPC: 1.073 cumulative IPC: 2.219 (Simulation time: 00 hr 28 min 32 sec)
Heartbeat CPU 0 instructions: 260000004 cycles: 111731206 heartbeat IPC: 1.1 cumulative IPC: 2.116 (Simulation time: 00 hr 30 min 41 sec)
Heartbeat CPU 0 instructions: 270000001 cycles: 120323325 heartbeat IPC: 1.164 cumulative IPC: 2.04 (Simulation time: 00 hr 32 min 46 sec)
Heartbeat CPU 0 instructions: 280000003 cycles: 126575267 heartbeat IPC: 1.6 cumulative IPC: 2.016 (Simulation time: 00 hr 34 min 27 sec)
Heartbeat CPU 0 instructions: 290000003 cycles: 132932268 heartbeat IPC: 1.573 cumulative IPC: 1.993 (Simulation time: 00 hr 36 min 12 sec)
Heartbeat CPU 0 instructions: 300000000 cycles: 139281597 heartbeat IPC: 1.575 cumulative IPC: 1.972 (Simulation time: 00 hr 37 min 56 sec)
Heartbeat CPU 0 instructions: 310000002 cycles: 146652682 heartbeat IPC: 1.357 cumulative IPC: 1.938 (Simulation time: 00 hr 39 min 52 sec)
Heartbeat CPU 0 instructions: 320000001 cycles: 153297396 heartbeat IPC: 1.505 cumulative IPC: 1.918 (Simulation time: 00 hr 41 min 40 sec)
Heartbeat CPU 0 instructions: 330000000 cycles: 161378253 heartbeat IPC: 1.237 cumulative IPC: 1.881 (Simulation time: 00 hr 43 min 35 sec)
Heartbeat CPU 0 instructions: 340000000 cycles: 169534028 heartbeat IPC: 1.226 cumulative IPC: 1.847 (Simulation time: 00 hr 45 min 38 sec)
Heartbeat CPU 0 instructions: 350000001 cycles: 177695451 heartbeat IPC: 1.225 cumulative IPC: 1.816 (Simulation time: 00 hr 47 min 43 sec)
Heartbeat CPU 0 instructions: 360000004 cycles: 185936976 heartbeat IPC: 1.213 cumulative IPC: 1.787 (Simulation time: 00 hr 49 min 50 sec)
Heartbeat CPU 0 instructions: 370000000 cycles: 193889601 heartbeat IPC: 1.257 cumulative IPC: 1.764 (Simulation time: 00 hr 51 min 58 sec)
Heartbeat CPU 0 instructions: 380000000 cycles: 202443325 heartbeat IPC: 1.169 cumulative IPC: 1.737 (Simulation time: 00 hr 54 min 31 sec)
Heartbeat CPU 0 instructions: 390000000 cycles: 211296786 heartbeat IPC: 1.13 cumulative IPC: 1.71 (Simulation time: 00 hr 56 min 48 sec)
Heartbeat CPU 0 instructions: 400000003 cycles: 220275643 heartbeat IPC: 1.114 cumulative IPC: 1.685 (Simulation time: 00 hr 59 min 10 sec)
Heartbeat CPU 0 instructions: 410000002 cycles: 229311285 heartbeat IPC: 1.107 cumulative IPC: 1.66 (Simulation time: 01 hr 01 min 39 sec)
Heartbeat CPU 0 instructions: 420000002 cycles: 238366727 heartbeat IPC: 1.104 cumulative IPC: 1.638 (Simulation time: 01 hr 04 min 04 sec)
Heartbeat CPU 0 instructions: 430000000 cycles: 247465642 heartbeat IPC: 1.099 cumulative IPC: 1.617 (Simulation time: 01 hr 06 min 32 sec)
Heartbeat CPU 0 instructions: 440000002 cycles: 395560110 heartbeat IPC: 0.06752 cumulative IPC: 1.018 (Simulation time: 01 hr 32 min 45 sec)
Heartbeat CPU 0 instructions: 450000001 cycles: 405984964 heartbeat IPC: 0.9592 cumulative IPC: 1.017 (Simulation time: 01 hr 35 min 23 sec)
Heartbeat CPU 0 instructions: 460000004 cycles: 416551355 heartbeat IPC: 0.9464 cumulative IPC: 1.015 (Simulation time: 01 hr 37 min 55 sec)
Heartbeat CPU 0 instructions: 470000001 cycles: 427032219 heartbeat IPC: 0.9541 cumulative IPC: 1.013 (Simulation time: 01 hr 40 min 22 sec)
Heartbeat CPU 0 instructions: 480000001 cycles: 437473904 heartbeat IPC: 0.9577 cumulative IPC: 1.012 (Simulation time: 01 hr 42 min 43 sec)
Heartbeat CPU 0 instructions: 490000003 cycles: 447852919 heartbeat IPC: 0.9635 cumulative IPC: 1.011 (Simulation time: 01 hr 45 min 08 sec)
Heartbeat CPU 0 instructions: 500000000 cycles: 462732341 heartbeat IPC: 0.6721 cumulative IPC: 0.9995 (Simulation time: 01 hr 48 min 09 sec)
Heartbeat CPU 0 instructions: 510000001 cycles: 477687464 heartbeat IPC: 0.6687 cumulative IPC: 0.9888 (Simulation time: 01 hr 51 min 11 sec)
Heartbeat CPU 0 instructions: 520000004 cycles: 492933730 heartbeat IPC: 0.6559 cumulative IPC: 0.9783 (Simulation time: 01 hr 54 min 15 sec)
Heartbeat CPU 0 instructions: 530000001 cycles: 507999441 heartbeat IPC: 0.6638 cumulative IPC: 0.9687 (Simulation time: 01 hr 57 min 18 sec)
Heartbeat CPU 0 instructions: 540000003 cycles: 522629163 heartbeat IPC: 0.6835 cumulative IPC: 0.9605 (Simulation time: 02 hr 00 min 19 sec)
Heartbeat CPU 0 instructions: 550000002 cycles: 533149866 heartbeat IPC: 0.9505 cumulative IPC: 0.9603 (Simulation time: 02 hr 02 min 36 sec)
Heartbeat CPU 0 instructions: 560000001 cycles: 543137678 heartbeat IPC: 1.001 cumulative IPC: 0.9611 (Simulation time: 02 hr 04 min 48 sec)
Heartbeat CPU 0 instructions: 570000001 cycles: 553142195 heartbeat IPC: 0.9995 cumulative IPC: 0.9618 (Simulation time: 02 hr 07 min 00 sec)
Heartbeat CPU 0 instructions: 580000001 cycles: 563197122 heartbeat IPC: 0.9945 cumulative IPC: 0.9624 (Simulation time: 02 hr 09 min 12 sec)
Heartbeat CPU 0 instructions: 590000000 cycles: 573282147 heartbeat IPC: 0.9916 cumulative IPC: 0.9629 (Simulation time: 02 hr 11 min 26 sec)
*** Reached end of trace: (0, "traces/lu.A.champsimtrace")
Heartbeat CPU 0 instructions: 600000001 cycles: 583513484 heartbeat IPC: 0.9774 cumulative IPC: 0.9632 (Simulation time: 02 hr 13 min 44 sec)
Heartbeat CPU 0 instructions: 610000004 cycles: 591041634 heartbeat IPC: 1.328 cumulative IPC: 0.968 (Simulation time: 02 hr 15 min 28 sec)
Heartbeat CPU 0 instructions: 620000000 cycles: 593676699 heartbeat IPC: 3.795 cumulative IPC: 0.9808 (Simulation time: 02 hr 16 min 21 sec)
Heartbeat CPU 0 instructions: 630000001 cycles: 596312003 heartbeat IPC: 3.795 cumulative IPC: 0.9935 (Simulation time: 02 hr 17 min 14 sec)
Heartbeat CPU 0 instructions: 640000000 cycles: 598946620 heartbeat IPC: 3.796 cumulative IPC: 1.006 (Simulation time: 02 hr 18 min 09 sec)
Heartbeat CPU 0 instructions: 650000000 cycles: 601581253 heartbeat IPC: 3.796 cumulative IPC: 1.019 (Simulation time: 02 hr 19 min 03 sec)
Simulation finished CPU 0 instructions: 600000004 cycles: 589081052 cumulative IPC: 1.019 (Simulation time: 02 hr 19 min 03 sec)
Simulation complete CPU 0 instructions: 600000004 cycles: 589081052 cumulative IPC: 1.019 (Simulation time: 02 hr 19 min 03 sec)

ChampSim completed all CPUs

=== Simulation ===
CPU 0 runs traces/lu.A.champsimtrace
Region of Interest Statistics

CPU 0 cumulative IPC: 1.019 instructions: 600000004 cycles: 589081052
CPU 0 Branch Prediction Accuracy: 96.65% MPKI: 0.6426 Average ROB Occupancy at Mispredict: 327.4
Branch type MPKI
BRANCH_DIRECT_JUMP: 5e-06
BRANCH_INDIRECT: 8e-05
BRANCH_CONDITIONAL: 0.642
BRANCH_DIRECT_CALL: 6.67e-06
BRANCH_INDIRECT_CALL: 3.17e-05
BRANCH_RETURN: 1.67e-05

LLC TOTAL        ACCESS:    7724075 HIT:    2624838 MISS:    5099237
LLC LOAD         ACCESS:    2482903 HIT:    1386210 MISS:    1096693
LLC RFO          ACCESS:     831661 HIT:      47542 MISS:     784119
LLC PREFETCH     ACCESS:    2614460 HIT:     177354 MISS:    2437106
LLC WRITE        ACCESS:    1783150 HIT:    1011592 MISS:     771558
LLC TRANSLATION  ACCESS:      11901 HIT:       2140 MISS:       9761
LLC PREFETCH REQUESTED:    4277103 ISSUED:    2614460 USEFUL:    1744374 USELESS:      47777
LLC AVERAGE MISS LATENCY: 1395 cycles
cpu0_DTLB TOTAL        ACCESS:  115710222 HIT:  108554710 MISS:    7155512
cpu0_DTLB LOAD         ACCESS:  115710222 HIT:  108554710 MISS:    7155512
cpu0_DTLB RFO          ACCESS:          0 HIT:          0 MISS:          0
cpu0_DTLB PREFETCH     ACCESS:          0 HIT:          0 MISS:          0
cpu0_DTLB WRITE        ACCESS:          0 HIT:          0 MISS:          0
cpu0_DTLB TRANSLATION  ACCESS:          0 HIT:          0 MISS:          0
cpu0_DTLB PREFETCH REQUESTED:          0 ISSUED:          0 USEFUL:          0 USELESS:          0
cpu0_DTLB AVERAGE MISS LATENCY: 8.217 cycles
cpu0_ITLB TOTAL        ACCESS:     712321 HIT:     712115 MISS:        206
cpu0_ITLB LOAD         ACCESS:     712321 HIT:     712115 MISS:        206
cpu0_ITLB RFO          ACCESS:          0 HIT:          0 MISS:          0
cpu0_ITLB PREFETCH     ACCESS:          0 HIT:          0 MISS:          0
cpu0_ITLB WRITE        ACCESS:          0 HIT:          0 MISS:          0
cpu0_ITLB TRANSLATION  ACCESS:          0 HIT:          0 MISS:          0
cpu0_ITLB PREFETCH REQUESTED:          0 ISSUED:          0 USEFUL:          0 USELESS:          0
cpu0_ITLB AVERAGE MISS LATENCY: 409 cycles
cpu0_L1D TOTAL        ACCESS:  167120868 HIT:  157590956 MISS:    9529912
cpu0_L1D LOAD         ACCESS:  130068319 HIT:  124391915 MISS:    5676404
cpu0_L1D RFO          ACCESS:          0 HIT:          0 MISS:          0
cpu0_L1D PREFETCH     ACCESS:          0 HIT:          0 MISS:          0
cpu0_L1D WRITE        ACCESS:   36999957 HIT:   33171330 MISS:    3828627
cpu0_L1D TRANSLATION  ACCESS:      52592 HIT:      27711 MISS:      24881
cpu0_L1D PREFETCH REQUESTED:          0 ISSUED:          0 USEFUL:          0 USELESS:          0
cpu0_L1D AVERAGE MISS LATENCY: 294.4 cycles
cpu0_L1I TOTAL        ACCESS:    1094308 HIT:    1091560 MISS:       2748
cpu0_L1I LOAD         ACCESS:    1094308 HIT:    1091560 MISS:       2748
cpu0_L1I RFO          ACCESS:          0 HIT:          0 MISS:          0
cpu0_L1I PREFETCH     ACCESS:          0 HIT:          0 MISS:          0
cpu0_L1I WRITE        ACCESS:          0 HIT:          0 MISS:          0
cpu0_L1I TRANSLATION  ACCESS:          0 HIT:          0 MISS:          0
cpu0_L1I PREFETCH REQUESTED:          0 ISSUED:          0 USEFUL:          0 USELESS:          0
cpu0_L1I AVERAGE MISS LATENCY: 540.6 cycles
cpu0_L2C TOTAL        ACCESS:    5978402 HIT:    2647750 MISS:    3330652
cpu0_L2C LOAD         ACCESS:    3074507 HIT:     591604 MISS:    2482903
cpu0_L2C RFO          ACCESS:     876940 HIT:      45279 MISS:     831661
cpu0_L2C PREFETCH     ACCESS:          0 HIT:          0 MISS:          0
cpu0_L2C WRITE        ACCESS:    2002124 HIT:    1997937 MISS:       4187
cpu0_L2C TRANSLATION  ACCESS:      24831 HIT:      12930 MISS:      11901
cpu0_L2C PREFETCH REQUESTED:          0 ISSUED:          0 USEFUL:          0 USELESS:          0
cpu0_L2C AVERAGE MISS LATENCY: 908.2 cycles
cpu0_STLB TOTAL        ACCESS:    3986407 HIT:    3933825 MISS:      52582
cpu0_STLB LOAD         ACCESS:    3986407 HIT:    3933825 MISS:      52582
cpu0_STLB RFO          ACCESS:          0 HIT:          0 MISS:          0
cpu0_STLB PREFETCH     ACCESS:          0 HIT:          0 MISS:          0
cpu0_STLB WRITE        ACCESS:          0 HIT:          0 MISS:          0
cpu0_STLB TRANSLATION  ACCESS:          0 HIT:          0 MISS:          0
cpu0_STLB PREFETCH REQUESTED:          0 ISSUED:          0 USEFUL:          0 USELESS:          0
cpu0_STLB AVERAGE MISS LATENCY: 983.1 cycles

DRAM Statistics

Channel 0 RQ ROW_BUFFER_HIT:     750140
  ROW_BUFFER_MISS:    2441707
 AVG DBUS CONGESTED CYCLE: 3.97
WQ ROW_BUFFER_HIT: Channel 0 
  ROW_BUFFER_MISS:     326483
  FULL:    1376192
