WARNING: physical memory size is smaller than virtual memory size.

*** ChampSim Multicore Out-of-Order Simulator ***
Warmup Instructions: 50000000
Simulation Instructions: 600000000
Number of CPUs: 1
Page size: 4096

Off-chip DRAM Size: 4 GiB Channels: 1 Width: 64-bit Data Race: 3200 MT/s
Heartbeat CPU 0 instructions: 10000000 cycles: 2500202 heartbeat IPC: 4 cumulative IPC: 4 (Simulation time: 00 hr 00 min 34 sec)
Heartbeat CPU 0 instructions: 20000000 cycles: 5000202 heartbeat IPC: 4 cumulative IPC: 4 (Simulation time: 00 hr 01 min 07 sec)
Heartbeat CPU 0 instructions: 30000000 cycles: 7500202 heartbeat IPC: 4 cumulative IPC: 4 (Simulation time: 00 hr 01 min 40 sec)
Heartbeat CPU 0 instructions: 40000000 cycles: 10000202 heartbeat IPC: 4 cumulative IPC: 4 (Simulation time: 00 hr 02 min 14 sec)
Heartbeat CPU 0 instructions: 50000000 cycles: 12500202 heartbeat IPC: 4 cumulative IPC: 4 (Simulation time: 00 hr 02 min 48 sec)
Warmup finished CPU 0 instructions: 50000000 cycles: 12500203 cumulative IPC: 4 (Simulation time: 00 hr 02 min 48 sec)
Warmup complete CPU 0 instructions: 50000000 cycles: 12500203 cumulative IPC: 4 (Simulation time: 00 hr 02 min 48 sec)
Heartbeat CPU 0 instructions: 60000004 cycles: 15001959 heartbeat IPC: 3.997 cumulative IPC: 3.997 (Simulation time: 00 hr 03 min 28 sec)
Heartbeat CPU 0 instructions: 70000003 cycles: 17503710 heartbeat IPC: 3.997 cumulative IPC: 3.997 (Simulation time: 00 hr 04 min 09 sec)
Heartbeat CPU 0 instructions: 80000004 cycles: 20005471 heartbeat IPC: 3.997 cumulative IPC: 3.997 (Simulation time: 00 hr 04 min 49 sec)
Heartbeat CPU 0 instructions: 90000000 cycles: 22509142 heartbeat IPC: 3.994 cumulative IPC: 3.996 (Simulation time: 00 hr 05 min 30 sec)
Heartbeat CPU 0 instructions: 100000001 cycles: 25011649 heartbeat IPC: 3.996 cumulative IPC: 3.996 (Simulation time: 00 hr 06 min 10 sec)
Heartbeat CPU 0 instructions: 110000000 cycles: 27513412 heartbeat IPC: 3.997 cumulative IPC: 3.996 (Simulation time: 00 hr 06 min 49 sec)
Heartbeat CPU 0 instructions: 120000004 cycles: 30017439 heartbeat IPC: 3.994 cumulative IPC: 3.996 (Simulation time: 00 hr 07 min 28 sec)
Heartbeat CPU 0 instructions: 130000000 cycles: 32519322 heartbeat IPC: 3.997 cumulative IPC: 3.996 (Simulation time: 00 hr 08 min 07 sec)
Heartbeat CPU 0 instructions: 140000004 cycles: 35021442 heartbeat IPC: 3.997 cumulative IPC: 3.996 (Simulation time: 00 hr 08 min 46 sec)
Heartbeat CPU 0 instructions: 150000000 cycles: 37523485 heartbeat IPC: 3.997 cumulative IPC: 3.996 (Simulation time: 00 hr 09 min 27 sec)
Heartbeat CPU 0 instructions: 160000001 cycles: 40027071 heartbeat IPC: 3.994 cumulative IPC: 3.996 (Simulation time: 00 hr 10 min 07 sec)
Heartbeat CPU 0 instructions: 170000000 cycles: 42528821 heartbeat IPC: 3.997 cumulative IPC: 3.996 (Simulation time: 00 hr 10 min 46 sec)
Heartbeat CPU 0 instructions: 180000003 cycles: 45032443 heartbeat IPC: 3.994 cumulative IPC: 3.996 (Simulation time: 00 hr 11 min 25 sec)
Heartbeat CPU 0 instructions: 190000000 cycles: 47534989 heartbeat IPC: 3.996 cumulative IPC: 3.996 (Simulation time: 00 hr 12 min 04 sec)
Heartbeat CPU 0 instructions: 200000004 cycles: 50037716 heartbeat IPC: 3.996 cumulative IPC: 3.996 (Simulation time: 00 hr 12 min 43 sec)
Heartbeat CPU 0 instructions: 210000004 cycles: 52539467 heartbeat IPC: 3.997 cumulative IPC: 3.996 (Simulation time: 00 hr 13 min 21 sec)
Heartbeat CPU 0 instructions: 220000001 cycles: 55041772 heartbeat IPC: 3.996 cumulative IPC: 3.996 (Simulation time: 00 hr 14 min 00 sec)
Heartbeat CPU 0 instructions: 230000000 cycles: 57543526 heartbeat IPC: 3.997 cumulative IPC: 3.996 (Simulation time: 00 hr 14 min 39 sec)
Heartbeat CPU 0 instructions: 240000000 cycles: 89614585 heartbeat IPC: 0.3118 cumulative IPC: 2.464 (Simulation time: 00 hr 18 min 10 sec)
Heartbeat CPU 0 instructions: 250000000 cycles: 98360444 heartbeat IPC: 1.143 cumulative IPC: 2.329 (Simulation time: 00 hr 19 min 38 sec)
Heartbeat CPU 0 instructions: 260000001 cycles: 107073212 heartbeat IPC: 1.148 cumulative IPC: 2.221 (Simulation time: 00 hr 21 min 06 sec)
Heartbeat CPU 0 instructions: 270000001 cycles: 114400527 heartbeat IPC: 1.365 cumulative IPC: 2.159 (Simulation time: 00 hr 22 min 24 sec)
Heartbeat CPU 0 instructions: 280000003 cycles: 119313590 heartbeat IPC: 2.035 cumulative IPC: 2.153 (Simulation time: 00 hr 23 min 24 sec)
Heartbeat CPU 0 instructions: 290000001 cycles: 124176465 heartbeat IPC: 2.056 cumulative IPC: 2.149 (Simulation time: 00 hr 24 min 24 sec)
Heartbeat CPU 0 instructions: 300000002 cycles: 129092831 heartbeat IPC: 2.034 cumulative IPC: 2.144 (Simulation time: 00 hr 25 min 24 sec)
Heartbeat CPU 0 instructions: 310000001 cycles: 133988426 heartbeat IPC: 2.043 cumulative IPC: 2.14 (Simulation time: 00 hr 26 min 24 sec)
Heartbeat CPU 0 instructions: 320000002 cycles: 140528333 heartbeat IPC: 1.529 cumulative IPC: 2.109 (Simulation time: 00 hr 27 min 39 sec)
Heartbeat CPU 0 instructions: 330000002 cycles: 151206983 heartbeat IPC: 0.9364 cumulative IPC: 2.019 (Simulation time: 00 hr 29 min 27 sec)
Heartbeat CPU 0 instructions: 340000004 cycles: 158820794 heartbeat IPC: 1.313 cumulative IPC: 1.982 (Simulation time: 00 hr 30 min 49 sec)
Heartbeat CPU 0 instructions: 350000003 cycles: 166472498 heartbeat IPC: 1.307 cumulative IPC: 1.948 (Simulation time: 00 hr 32 min 11 sec)
Heartbeat CPU 0 instructions: 360000001 cycles: 174155073 heartbeat IPC: 1.302 cumulative IPC: 1.918 (Simulation time: 00 hr 33 min 36 sec)
Heartbeat CPU 0 instructions: 370000002 cycles: 181814267 heartbeat IPC: 1.306 cumulative IPC: 1.89 (Simulation time: 00 hr 35 min 02 sec)
Heartbeat CPU 0 instructions: 380000003 cycles: 189621380 heartbeat IPC: 1.281 cumulative IPC: 1.863 (Simulation time: 00 hr 36 min 29 sec)
Heartbeat CPU 0 instructions: 390000000 cycles: 197600041 heartbeat IPC: 1.253 cumulative IPC: 1.837 (Simulation time: 00 hr 37 min 57 sec)
Heartbeat CPU 0 instructions: 400000002 cycles: 205586775 heartbeat IPC: 1.252 cumulative IPC: 1.813 (Simulation time: 00 hr 39 min 24 sec)
Heartbeat CPU 0 instructions: 410000002 cycles: 213464417 heartbeat IPC: 1.269 cumulative IPC: 1.791 (Simulation time: 00 hr 40 min 51 sec)
Heartbeat CPU 0 instructions: 420000004 cycles: 221349347 heartbeat IPC: 1.268 cumulative IPC: 1.772 (Simulation time: 00 hr 42 min 18 sec)
Heartbeat CPU 0 instructions: 430000002 cycles: 229308740 heartbeat IPC: 1.256 cumulative IPC: 1.753 (Simulation time: 00 hr 43 min 45 sec)
Heartbeat CPU 0 instructions: 440000004 cycles: 360895030 heartbeat IPC: 0.076 cumulative IPC: 1.119 (Simulation time: 01 hr 01 min 22 sec)
Heartbeat CPU 0 instructions: 450000003 cycles: 368509055 heartbeat IPC: 1.313 cumulative IPC: 1.124 (Simulation time: 01 hr 02 min 44 sec)
Heartbeat CPU 0 instructions: 460000004 cycles: 377767632 heartbeat IPC: 1.08 cumulative IPC: 1.122 (Simulation time: 01 hr 04 min 21 sec)
Heartbeat CPU 0 instructions: 470000001 cycles: 386600226 heartbeat IPC: 1.132 cumulative IPC: 1.123 (Simulation time: 01 hr 05 min 53 sec)
Heartbeat CPU 0 instructions: 480000000 cycles: 395759979 heartbeat IPC: 1.092 cumulative IPC: 1.122 (Simulation time: 01 hr 07 min 27 sec)
Heartbeat CPU 0 instructions: 490000004 cycles: 404923207 heartbeat IPC: 1.091 cumulative IPC: 1.121 (Simulation time: 01 hr 09 min 02 sec)
Heartbeat CPU 0 instructions: 500000003 cycles: 413796198 heartbeat IPC: 1.127 cumulative IPC: 1.121 (Simulation time: 01 hr 10 min 35 sec)
Heartbeat CPU 0 instructions: 510000002 cycles: 430705916 heartbeat IPC: 0.5914 cumulative IPC: 1.1 (Simulation time: 01 hr 13 min 12 sec)
Heartbeat CPU 0 instructions: 520000000 cycles: 446896408 heartbeat IPC: 0.6176 cumulative IPC: 1.082 (Simulation time: 01 hr 15 min 40 sec)
Heartbeat CPU 0 instructions: 530000003 cycles: 463321446 heartbeat IPC: 0.6088 cumulative IPC: 1.065 (Simulation time: 01 hr 18 min 10 sec)
Heartbeat CPU 0 instructions: 540000002 cycles: 479115936 heartbeat IPC: 0.6331 cumulative IPC: 1.05 (Simulation time: 01 hr 20 min 34 sec)
Heartbeat CPU 0 instructions: 550000002 cycles: 490516755 heartbeat IPC: 0.8771 cumulative IPC: 1.046 (Simulation time: 01 hr 22 min 23 sec)
Heartbeat CPU 0 instructions: 560000000 cycles: 500239460 heartbeat IPC: 1.029 cumulative IPC: 1.046 (Simulation time: 01 hr 23 min 58 sec)
Heartbeat CPU 0 instructions: 570000002 cycles: 510034194 heartbeat IPC: 1.021 cumulative IPC: 1.045 (Simulation time: 01 hr 25 min 37 sec)
Heartbeat CPU 0 instructions: 580000003 cycles: 519798844 heartbeat IPC: 1.024 cumulative IPC: 1.045 (Simulation time: 01 hr 27 min 13 sec)
Heartbeat CPU 0 instructions: 590000003 cycles: 529481586 heartbeat IPC: 1.033 cumulative IPC: 1.045 (Simulation time: 01 hr 28 min 50 sec)
*** Reached end of trace: (0, "traces/lu.A.champsimtrace")
Heartbeat CPU 0 instructions: 600000001 cycles: 539295720 heartbeat IPC: 1.019 cumulative IPC: 1.044 (Simulation time: 01 hr 30 min 26 sec)
Heartbeat CPU 0 instructions: 610000000 cycles: 545950775 heartbeat IPC: 1.503 cumulative IPC: 1.05 (Simulation time: 01 hr 31 min 36 sec)
Heartbeat CPU 0 instructions: 620000000 cycles: 548453430 heartbeat IPC: 3.996 cumulative IPC: 1.064 (Simulation time: 01 hr 32 min 18 sec)
Heartbeat CPU 0 instructions: 630000004 cycles: 550956162 heartbeat IPC: 3.996 cumulative IPC: 1.077 (Simulation time: 01 hr 32 min 59 sec)
Heartbeat CPU 0 instructions: 640000002 cycles: 553459208 heartbeat IPC: 3.995 cumulative IPC: 1.091 (Simulation time: 01 hr 33 min 40 sec)
Heartbeat CPU 0 instructions: 650000001 cycles: 555962230 heartbeat IPC: 3.995 cumulative IPC: 1.104 (Simulation time: 01 hr 34 min 21 sec)
Simulation finished CPU 0 instructions: 600000001 cycles: 543462028 cumulative IPC: 1.104 (Simulation time: 01 hr 34 min 21 sec)
Simulation complete CPU 0 instructions: 600000001 cycles: 543462028 cumulative IPC: 1.104 (Simulation time: 01 hr 34 min 21 sec)

ChampSim completed all CPUs

=== Simulation ===
CPU 0 runs traces/lu.A.champsimtrace
Region of Interest Statistics

CPU 0 cumulative IPC: 1.104 instructions: 600000001 cycles: 543462028
CPU 0 Branch Prediction Accuracy: 98.73% MPKI: 0.2427 Average ROB Occupancy at Mispredict: 323.7
Branch type MPKI
BRANCH_DIRECT_JUMP: 5e-06
BRANCH_INDIRECT: 7.33e-05
BRANCH_CONDITIONAL: 0.243
BRANCH_DIRECT_CALL: 6.67e-06
BRANCH_INDIRECT_CALL: 3.17e-05
BRANCH_RETURN: 1.83e-05

LLC TOTAL        ACCESS:    7688004 HIT:    2469355 MISS:    5218649
LLC LOAD         ACCESS:    2481367 HIT:    1384595 MISS:    1096772
LLC RFO          ACCESS:     831680 HIT:      85299 MISS:     746381
LLC PREFETCH     ACCESS:    2580810 HIT:     280753 MISS:    2300057
LLC WRITE        ACCESS:    1782290 HIT:     716886 MISS:    1065404
LLC TRANSLATION  ACCESS:      11857 HIT:       1822 MISS:      10035
LLC PREFETCH REQUESTED:    3760949 ISSUED:    2580810 USEFUL:    1621673 USELESS:      82016
LLC AVERAGE MISS LATENCY: 1158 cycles
cpu0_DTLB TOTAL        ACCESS:  122589646 HIT:  115395675 MISS:    7193971
cpu0_DTLB LOAD         ACCESS:  122589646 HIT:  115395675 MISS:    7193971
cpu0_DTLB RFO          ACCESS:          0 HIT:          0 MISS:          0
cpu0_DTLB PREFETCH     ACCESS:          0 HIT:          0 MISS:          0
cpu0_DTLB WRITE        ACCESS:          0 HIT:          0 MISS:          0
cpu0_DTLB TRANSLATION  ACCESS:          0 HIT:          0 MISS:          0
cpu0_DTLB PREFETCH REQUESTED:          0 ISSUED:          0 USEFUL:          0 USELESS:          0
cpu0_DTLB AVERAGE MISS LATENCY: 7.829 cycles
cpu0_ITLB TOTAL        ACCESS:     709966 HIT:     709759 MISS:        207
cpu0_ITLB LOAD         ACCESS:     709966 HIT:     709759 MISS:        207
cpu0_ITLB RFO          ACCESS:          0 HIT:          0 MISS:          0
cpu0_ITLB PREFETCH     ACCESS:          0 HIT:          0 MISS:          0
cpu0_ITLB WRITE        ACCESS:          0 HIT:          0 MISS:          0
cpu0_ITLB TRANSLATION  ACCESS:          0 HIT:          0 MISS:          0
cpu0_ITLB PREFETCH REQUESTED:          0 ISSUED:          0 USEFUL:          0 USELESS:          0
cpu0_ITLB AVERAGE MISS LATENCY: 362.5 cycles
cpu0_L1D TOTAL        ACCESS:  175598289 HIT:  166042376 MISS:    9555913
cpu0_L1D LOAD         ACCESS:  138543395 HIT:  132796554 MISS:    5746841
cpu0_L1D RFO          ACCESS:          0 HIT:          0 MISS:          0
cpu0_L1D PREFETCH     ACCESS:          0 HIT:          0 MISS:          0
cpu0_L1D WRITE        ACCESS:   37002299 HIT:   33218203 MISS:    3784096
cpu0_L1D TRANSLATION  ACCESS:      52595 HIT:      27619 MISS:      24976
cpu0_L1D PREFETCH REQUESTED:          0 ISSUED:          0 USEFUL:          0 USELESS:          0
cpu0_L1D AVERAGE MISS LATENCY: 250.3 cycles
cpu0_L1I TOTAL        ACCESS:    1094324 HIT:    1091630 MISS:       2694
cpu0_L1I LOAD         ACCESS:    1094324 HIT:    1091630 MISS:       2694
cpu0_L1I RFO          ACCESS:          0 HIT:          0 MISS:          0
cpu0_L1I PREFETCH     ACCESS:          0 HIT:          0 MISS:          0
cpu0_L1I WRITE        ACCESS:          0 HIT:          0 MISS:          0
cpu0_L1I TRANSLATION  ACCESS:          0 HIT:          0 MISS:          0
cpu0_L1I PREFETCH REQUESTED:          0 ISSUED:          0 USEFUL:          0 USELESS:          0
cpu0_L1I AVERAGE MISS LATENCY: 492 cycles
cpu0_L2C TOTAL        ACCESS:    5993750 HIT:    2664750 MISS:    3329000
cpu0_L2C LOAD         ACCESS:    3072391 HIT:     591024 MISS:    2481367
cpu0_L2C RFO          ACCESS:     876738 HIT:      45058 MISS:     831680
cpu0_L2C PREFETCH     ACCESS:          0 HIT:          0 MISS:          0
cpu0_L2C WRITE        ACCESS:    2019696 HIT:    2015600 MISS:       4096
cpu0_L2C TRANSLATION  ACCESS:      24925 HIT:      13068 MISS:      11857
cpu0_L2C PREFETCH REQUESTED:          0 ISSUED:          0 USEFUL:          0 USELESS:          0
cpu0_L2C AVERAGE MISS LATENCY: 777.6 cycles
cpu0_STLB TOTAL        ACCESS:    3987114 HIT:    3934528 MISS:      52586
cpu0_STLB LOAD         ACCESS:    3987114 HIT:    3934528 MISS:      52586
cpu0_STLB RFO          ACCESS:          0 HIT:          0 MISS:          0
cpu0_STLB PREFETCH     ACCESS:          0 HIT:          0 MISS:          0
cpu0_STLB WRITE        ACCESS:          0 HIT:          0 MISS:          0
cpu0_STLB TRANSLATION  ACCESS:          0 HIT:          0 MISS:          0
cpu0_STLB PREFETCH REQUESTED:          0 ISSUED:          0 USEFUL:          0 USELESS:          0
cpu0_STLB AVERAGE MISS LATENCY: 938.8 cycles

DRAM Statistics

Channel 0 RQ ROW_BUFFER_HIT:     814798
  ROW_BUFFER_MISS:    2246289
 AVG DBUS CONGESTED CYCLE: 3.967
WQ ROW_BUFFER_HIT: Channel 0 
  ROW_BUFFER_MISS:     446687
  FULL:    1150810
