WARNING: physical memory size is smaller than virtual memory size.

*** ChampSim Multicore Out-of-Order Simulator ***
Warmup Instructions: 50000000
Simulation Instructions: 600000000
Number of CPUs: 1
Page size: 4096

Off-chip DRAM Size: 4 GiB Channels: 1 Width: 64-bit Data Race: 3200 MT/s
Heartbeat CPU 0 instructions: 10000001 cycles: 2500202 heartbeat IPC: 4 cumulative IPC: 4 (Simulation time: 00 hr 00 min 47 sec)
Heartbeat CPU 0 instructions: 20000001 cycles: 5000202 heartbeat IPC: 4 cumulative IPC: 4 (Simulation time: 00 hr 01 min 36 sec)
Heartbeat CPU 0 instructions: 30000001 cycles: 7500202 heartbeat IPC: 4 cumulative IPC: 4 (Simulation time: 00 hr 02 min 25 sec)
Heartbeat CPU 0 instructions: 40000001 cycles: 10000202 heartbeat IPC: 4 cumulative IPC: 4 (Simulation time: 00 hr 03 min 15 sec)
Heartbeat CPU 0 instructions: 50000001 cycles: 12500202 heartbeat IPC: 4 cumulative IPC: 4 (Simulation time: 00 hr 04 min 08 sec)
Warmup finished CPU 0 instructions: 50000001 cycles: 12500203 cumulative IPC: 4 (Simulation time: 00 hr 04 min 08 sec)
Warmup complete CPU 0 instructions: 50000001 cycles: 12500203 cumulative IPC: 4 (Simulation time: 00 hr 04 min 08 sec)
Heartbeat CPU 0 instructions: 60000002 cycles: 15003189 heartbeat IPC: 3.995 cumulative IPC: 3.995 (Simulation time: 00 hr 05 min 09 sec)
Heartbeat CPU 0 instructions: 70000004 cycles: 17504941 heartbeat IPC: 3.997 cumulative IPC: 3.996 (Simulation time: 00 hr 06 min 54 sec)
Heartbeat CPU 0 instructions: 80000003 cycles: 20007820 heartbeat IPC: 3.995 cumulative IPC: 3.996 (Simulation time: 00 hr 08 min 32 sec)
Heartbeat CPU 0 instructions: 90000003 cycles: 22511540 heartbeat IPC: 3.994 cumulative IPC: 3.995 (Simulation time: 00 hr 09 min 29 sec)
Heartbeat CPU 0 instructions: 100000002 cycles: 25013276 heartbeat IPC: 3.997 cumulative IPC: 3.996 (Simulation time: 00 hr 10 min 30 sec)
Heartbeat CPU 0 instructions: 110000003 cycles: 27516950 heartbeat IPC: 3.994 cumulative IPC: 3.996 (Simulation time: 00 hr 11 min 31 sec)
Heartbeat CPU 0 instructions: 120000001 cycles: 30019980 heartbeat IPC: 3.995 cumulative IPC: 3.995 (Simulation time: 00 hr 12 min 29 sec)
Heartbeat CPU 0 instructions: 130000001 cycles: 32522008 heartbeat IPC: 3.997 cumulative IPC: 3.996 (Simulation time: 00 hr 13 min 28 sec)
Heartbeat CPU 0 instructions: 140000002 cycles: 35023748 heartbeat IPC: 3.997 cumulative IPC: 3.996 (Simulation time: 00 hr 14 min 50 sec)
Heartbeat CPU 0 instructions: 150000004 cycles: 37526025 heartbeat IPC: 3.996 cumulative IPC: 3.996 (Simulation time: 00 hr 16 min 30 sec)
Heartbeat CPU 0 instructions: 160000003 cycles: 40029597 heartbeat IPC: 3.994 cumulative IPC: 3.996 (Simulation time: 00 hr 18 min 10 sec)
Heartbeat CPU 0 instructions: 170000003 cycles: 42531447 heartbeat IPC: 3.997 cumulative IPC: 3.996 (Simulation time: 00 hr 19 min 13 sec)
Heartbeat CPU 0 instructions: 180000002 cycles: 45034001 heartbeat IPC: 3.996 cumulative IPC: 3.996 (Simulation time: 00 hr 20 min 42 sec)
Heartbeat CPU 0 instructions: 190000000 cycles: 47537518 heartbeat IPC: 3.994 cumulative IPC: 3.996 (Simulation time: 00 hr 22 min 11 sec)
Heartbeat CPU 0 instructions: 200000001 cycles: 50039811 heartbeat IPC: 3.996 cumulative IPC: 3.996 (Simulation time: 00 hr 23 min 06 sec)
Heartbeat CPU 0 instructions: 210000001 cycles: 52541805 heartbeat IPC: 3.997 cumulative IPC: 3.996 (Simulation time: 00 hr 24 min 00 sec)
Heartbeat CPU 0 instructions: 220000002 cycles: 55044193 heartbeat IPC: 3.996 cumulative IPC: 3.996 (Simulation time: 00 hr 24 min 55 sec)
Heartbeat CPU 0 instructions: 230000001 cycles: 57547408 heartbeat IPC: 3.995 cumulative IPC: 3.996 (Simulation time: 00 hr 25 min 51 sec)
Heartbeat CPU 0 instructions: 240000003 cycles: 90949945 heartbeat IPC: 0.2994 cumulative IPC: 2.422 (Simulation time: 00 hr 31 min 02 sec)
Heartbeat CPU 0 instructions: 250000004 cycles: 100243259 heartbeat IPC: 1.076 cumulative IPC: 2.279 (Simulation time: 00 hr 33 min 11 sec)
Heartbeat CPU 0 instructions: 260000004 cycles: 109328560 heartbeat IPC: 1.101 cumulative IPC: 2.169 (Simulation time: 00 hr 35 min 19 sec)
Heartbeat CPU 0 instructions: 270000001 cycles: 116674792 heartbeat IPC: 1.361 cumulative IPC: 2.112 (Simulation time: 00 hr 37 min 08 sec)
Heartbeat CPU 0 instructions: 280000003 cycles: 122173137 heartbeat IPC: 1.819 cumulative IPC: 2.097 (Simulation time: 00 hr 38 min 39 sec)
Heartbeat CPU 0 instructions: 290000003 cycles: 127625006 heartbeat IPC: 1.834 cumulative IPC: 2.085 (Simulation time: 00 hr 40 min 08 sec)
Heartbeat CPU 0 instructions: 300000000 cycles: 133141896 heartbeat IPC: 1.813 cumulative IPC: 2.072 (Simulation time: 00 hr 41 min 41 sec)
Heartbeat CPU 0 instructions: 310000002 cycles: 138107726 heartbeat IPC: 2.014 cumulative IPC: 2.07 (Simulation time: 00 hr 43 min 08 sec)
Heartbeat CPU 0 instructions: 320000003 cycles: 144081710 heartbeat IPC: 1.674 cumulative IPC: 2.052 (Simulation time: 00 hr 44 min 48 sec)
Heartbeat CPU 0 instructions: 330000000 cycles: 153477146 heartbeat IPC: 1.064 cumulative IPC: 1.986 (Simulation time: 00 hr 47 min 09 sec)
Heartbeat CPU 0 instructions: 340000000 cycles: 161677278 heartbeat IPC: 1.219 cumulative IPC: 1.944 (Simulation time: 00 hr 49 min 16 sec)
Heartbeat CPU 0 instructions: 350000001 cycles: 170482039 heartbeat IPC: 1.136 cumulative IPC: 1.899 (Simulation time: 00 hr 51 min 28 sec)
Heartbeat CPU 0 instructions: 360000004 cycles: 179451075 heartbeat IPC: 1.115 cumulative IPC: 1.857 (Simulation time: 00 hr 53 min 43 sec)
Heartbeat CPU 0 instructions: 370000000 cycles: 187893054 heartbeat IPC: 1.185 cumulative IPC: 1.824 (Simulation time: 00 hr 55 min 53 sec)
Heartbeat CPU 0 instructions: 380000000 cycles: 195839329 heartbeat IPC: 1.258 cumulative IPC: 1.8 (Simulation time: 00 hr 57 min 56 sec)
Heartbeat CPU 0 instructions: 390000000 cycles: 204360579 heartbeat IPC: 1.174 cumulative IPC: 1.772 (Simulation time: 01 hr 00 min 04 sec)
Heartbeat CPU 0 instructions: 400000001 cycles: 212863801 heartbeat IPC: 1.176 cumulative IPC: 1.747 (Simulation time: 01 hr 02 min 11 sec)
Heartbeat CPU 0 instructions: 410000001 cycles: 221367112 heartbeat IPC: 1.176 cumulative IPC: 1.724 (Simulation time: 01 hr 04 min 22 sec)
Heartbeat CPU 0 instructions: 420000002 cycles: 229901334 heartbeat IPC: 1.172 cumulative IPC: 1.702 (Simulation time: 01 hr 06 min 22 sec)
Heartbeat CPU 0 instructions: 430000000 cycles: 238425978 heartbeat IPC: 1.173 cumulative IPC: 1.682 (Simulation time: 01 hr 08 min 24 sec)
Heartbeat CPU 0 instructions: 440000002 cycles: 377363502 heartbeat IPC: 0.07197 cumulative IPC: 1.069 (Simulation time: 01 hr 36 min 21 sec)
Heartbeat CPU 0 instructions: 450000001 cycles: 386095075 heartbeat IPC: 1.145 cumulative IPC: 1.071 (Simulation time: 01 hr 38 min 25 sec)
Heartbeat CPU 0 instructions: 460000004 cycles: 394991182 heartbeat IPC: 1.124 cumulative IPC: 1.072 (Simulation time: 01 hr 40 min 28 sec)
Heartbeat CPU 0 instructions: 470000002 cycles: 403813818 heartbeat IPC: 1.133 cumulative IPC: 1.073 (Simulation time: 01 hr 42 min 46 sec)
Heartbeat CPU 0 instructions: 480000001 cycles: 412880276 heartbeat IPC: 1.103 cumulative IPC: 1.074 (Simulation time: 01 hr 45 min 05 sec)
Heartbeat CPU 0 instructions: 490000003 cycles: 421680632 heartbeat IPC: 1.136 cumulative IPC: 1.075 (Simulation time: 01 hr 47 min 15 sec)
Heartbeat CPU 0 instructions: 500000000 cycles: 437477320 heartbeat IPC: 0.633 cumulative IPC: 1.059 (Simulation time: 01 hr 51 min 19 sec)
Heartbeat CPU 0 instructions: 510000001 cycles: 450333758 heartbeat IPC: 0.7778 cumulative IPC: 1.051 (Simulation time: 01 hr 54 min 46 sec)
Heartbeat CPU 0 instructions: 520000004 cycles: 463486979 heartbeat IPC: 0.7603 cumulative IPC: 1.042 (Simulation time: 01 hr 57 min 45 sec)
Heartbeat CPU 0 instructions: 530000001 cycles: 476612845 heartbeat IPC: 0.7619 cumulative IPC: 1.034 (Simulation time: 02 hr 00 min 45 sec)
Heartbeat CPU 0 instructions: 540000004 cycles: 490186577 heartbeat IPC: 0.7367 cumulative IPC: 1.026 (Simulation time: 02 hr 03 min 50 sec)
Heartbeat CPU 0 instructions: 550000002 cycles: 501571355 heartbeat IPC: 0.8784 cumulative IPC: 1.022 (Simulation time: 02 hr 06 min 42 sec)
Heartbeat CPU 0 instructions: 560000001 cycles: 512656533 heartbeat IPC: 0.9021 cumulative IPC: 1.02 (Simulation time: 02 hr 09 min 18 sec)
Heartbeat CPU 0 instructions: 570000001 cycles: 523718764 heartbeat IPC: 0.904 cumulative IPC: 1.017 (Simulation time: 02 hr 11 min 41 sec)
Heartbeat CPU 0 instructions: 580000001 cycles: 534761371 heartbeat IPC: 0.9056 cumulative IPC: 1.015 (Simulation time: 02 hr 14 min 15 sec)
Heartbeat CPU 0 instructions: 590000000 cycles: 545751067 heartbeat IPC: 0.9099 cumulative IPC: 1.013 (Simulation time: 02 hr 16 min 51 sec)
*** Reached end of trace: (0, "traces/lu.A.champsimtrace")
Heartbeat CPU 0 instructions: 600000001 cycles: 556747151 heartbeat IPC: 0.9094 cumulative IPC: 1.011 (Simulation time: 02 hr 19 min 21 sec)
Heartbeat CPU 0 instructions: 610000003 cycles: 565552365 heartbeat IPC: 1.136 cumulative IPC: 1.013 (Simulation time: 02 hr 21 min 28 sec)
Heartbeat CPU 0 instructions: 620000001 cycles: 568054126 heartbeat IPC: 3.997 cumulative IPC: 1.026 (Simulation time: 02 hr 22 min 30 sec)
Heartbeat CPU 0 instructions: 630000001 cycles: 570556283 heartbeat IPC: 3.997 cumulative IPC: 1.039 (Simulation time: 02 hr 23 min 33 sec)
Heartbeat CPU 0 instructions: 640000000 cycles: 573058033 heartbeat IPC: 3.997 cumulative IPC: 1.053 (Simulation time: 02 hr 24 min 51 sec)
Heartbeat CPU 0 instructions: 650000000 cycles: 575560944 heartbeat IPC: 3.995 cumulative IPC: 1.066 (Simulation time: 02 hr 26 min 04 sec)
Simulation finished CPU 0 instructions: 600000004 cycles: 563060743 cumulative IPC: 1.066 (Simulation time: 02 hr 26 min 04 sec)
Simulation complete CPU 0 instructions: 600000004 cycles: 563060743 cumulative IPC: 1.066 (Simulation time: 02 hr 26 min 04 sec)

ChampSim completed all CPUs

=== Simulation ===
CPU 0 runs traces/lu.A.champsimtrace
Region of Interest Statistics

CPU 0 cumulative IPC: 1.066 instructions: 600000004 cycles: 563060743
CPU 0 Branch Prediction Accuracy: 98.73% MPKI: 0.2427 Average ROB Occupancy at Mispredict: 326.3
Branch type MPKI
BRANCH_DIRECT_JUMP: 5e-06
BRANCH_INDIRECT: 8e-05
BRANCH_CONDITIONAL: 0.243
BRANCH_DIRECT_CALL: 6.67e-06
BRANCH_INDIRECT_CALL: 3.17e-05
BRANCH_RETURN: 1.67e-05

LLC TOTAL        ACCESS:    5109567 HIT:     802273 MISS:    4307294
LLC LOAD         ACCESS:    2482848 HIT:     265696 MISS:    2217152
LLC RFO          ACCESS:     831658 HIT:      26052 MISS:     805606
LLC PREFETCH     ACCESS:          0 HIT:          0 MISS:          0
LLC WRITE        ACCESS:    1783145 HIT:     502096 MISS:    1281049
LLC TRANSLATION  ACCESS:      11916 HIT:       8429 MISS:       3487
LLC PREFETCH REQUESTED:          0 ISSUED:          0 USEFUL:          0 USELESS:          0
LLC AVERAGE MISS LATENCY: 737.1 cycles
cpu0_DTLB TOTAL        ACCESS:  123144287 HIT:  115922813 MISS:    7221474
cpu0_DTLB LOAD         ACCESS:  123144287 HIT:  115922813 MISS:    7221474
cpu0_DTLB RFO          ACCESS:          0 HIT:          0 MISS:          0
cpu0_DTLB PREFETCH     ACCESS:          0 HIT:          0 MISS:          0
cpu0_DTLB WRITE        ACCESS:          0 HIT:          0 MISS:          0
cpu0_DTLB TRANSLATION  ACCESS:          0 HIT:          0 MISS:          0
cpu0_DTLB PREFETCH REQUESTED:          0 ISSUED:          0 USEFUL:          0 USELESS:          0
cpu0_DTLB AVERAGE MISS LATENCY: 5.541 cycles
cpu0_ITLB TOTAL        ACCESS:     718878 HIT:     718680 MISS:        198
cpu0_ITLB LOAD         ACCESS:     718878 HIT:     718680 MISS:        198
cpu0_ITLB RFO          ACCESS:          0 HIT:          0 MISS:          0
cpu0_ITLB PREFETCH     ACCESS:          0 HIT:          0 MISS:          0
cpu0_ITLB WRITE        ACCESS:          0 HIT:          0 MISS:          0
cpu0_ITLB TRANSLATION  ACCESS:          0 HIT:          0 MISS:          0
cpu0_ITLB PREFETCH REQUESTED:          0 ISSUED:          0 USEFUL:          0 USELESS:          0
cpu0_ITLB AVERAGE MISS LATENCY: 347.7 cycles
cpu0_L1D TOTAL        ACCESS:  176415819 HIT:  166762352 MISS:    9653467
cpu0_L1D LOAD         ACCESS:  139363103 HIT:  133518559 MISS:    5844544
cpu0_L1D RFO          ACCESS:          0 HIT:          0 MISS:          0
cpu0_L1D PREFETCH     ACCESS:          0 HIT:          0 MISS:          0
cpu0_L1D WRITE        ACCESS:   37000127 HIT:   33216067 MISS:    3784060
cpu0_L1D TRANSLATION  ACCESS:      52589 HIT:      27726 MISS:      24863
cpu0_L1D PREFETCH REQUESTED:          0 ISSUED:          0 USEFUL:          0 USELESS:          0
cpu0_L1D AVERAGE MISS LATENCY: 316.6 cycles
cpu0_L1I TOTAL        ACCESS:    1105166 HIT:    1102478 MISS:       2688
cpu0_L1I LOAD         ACCESS:    1105166 HIT:    1102478 MISS:       2688
cpu0_L1I RFO          ACCESS:          0 HIT:          0 MISS:          0
cpu0_L1I PREFETCH     ACCESS:          0 HIT:          0 MISS:          0
cpu0_L1I WRITE        ACCESS:          0 HIT:          0 MISS:          0
cpu0_L1I TRANSLATION  ACCESS:          0 HIT:          0 MISS:          0
cpu0_L1I PREFETCH REQUESTED:          0 ISSUED:          0 USEFUL:          0 USELESS:          0
cpu0_L1I AVERAGE MISS LATENCY: 534.2 cycles
cpu0_L2C TOTAL        ACCESS:    5962771 HIT:    2632075 MISS:    3330696
cpu0_L2C LOAD         ACCESS:    3060527 HIT:     577679 MISS:    2482848
cpu0_L2C RFO          ACCESS:     876884 HIT:      45226 MISS:     831658
cpu0_L2C PREFETCH     ACCESS:          0 HIT:          0 MISS:          0
cpu0_L2C WRITE        ACCESS:    2000545 HIT:    1996271 MISS:       4274
cpu0_L2C TRANSLATION  ACCESS:      24815 HIT:      12899 MISS:      11916
cpu0_L2C PREFETCH REQUESTED:          0 ISSUED:          0 USEFUL:          0 USELESS:          0
cpu0_L2C AVERAGE MISS LATENCY: 974.1 cycles
cpu0_STLB TOTAL        ACCESS:    3988085 HIT:    3935503 MISS:      52582
cpu0_STLB LOAD         ACCESS:    3988085 HIT:    3935503 MISS:      52582
cpu0_STLB RFO          ACCESS:          0 HIT:          0 MISS:          0
cpu0_STLB PREFETCH     ACCESS:          0 HIT:          0 MISS:          0
cpu0_STLB WRITE        ACCESS:          0 HIT:          0 MISS:          0
cpu0_STLB TRANSLATION  ACCESS:          0 HIT:          0 MISS:          0
cpu0_STLB PREFETCH REQUESTED:          0 ISSUED:          0 USEFUL:          0 USELESS:          0
cpu0_STLB AVERAGE MISS LATENCY: 519.4 cycles

DRAM Statistics

Channel 0 RQ ROW_BUFFER_HIT:     770090
  ROW_BUFFER_MISS:    2256094
 AVG DBUS CONGESTED CYCLE: 3.93
WQ ROW_BUFFER_HIT: Channel 0 
  ROW_BUFFER_MISS:     401150
  FULL:    1220760
