WARNING: physical memory size is smaller than virtual memory size.

*** ChampSim Multicore Out-of-Order Simulator ***
Warmup Instructions: 50000000
Simulation Instructions: 600000000
Number of CPUs: 1
Page size: 4096

CPU 0 Tage branch predictor
Off-chip DRAM Size: 4 GiB Channels: 1 Width: 64-bit Data Race: 3200 MT/s
Heartbeat CPU 0 instructions: 10000000 cycles: 2500202 heartbeat IPC: 4 cumulative IPC: 4 (Simulation time: 00 hr 00 min 35 sec)
Heartbeat CPU 0 instructions: 20000000 cycles: 5000202 heartbeat IPC: 4 cumulative IPC: 4 (Simulation time: 00 hr 01 min 10 sec)
Heartbeat CPU 0 instructions: 30000000 cycles: 7500202 heartbeat IPC: 4 cumulative IPC: 4 (Simulation time: 00 hr 01 min 45 sec)
Heartbeat CPU 0 instructions: 40000000 cycles: 10000202 heartbeat IPC: 4 cumulative IPC: 4 (Simulation time: 00 hr 02 min 22 sec)
Heartbeat CPU 0 instructions: 50000000 cycles: 12500202 heartbeat IPC: 4 cumulative IPC: 4 (Simulation time: 00 hr 02 min 57 sec)
Warmup finished CPU 0 instructions: 50000000 cycles: 12500203 cumulative IPC: 4 (Simulation time: 00 hr 02 min 57 sec)
Warmup complete CPU 0 instructions: 50000000 cycles: 12500203 cumulative IPC: 4 (Simulation time: 00 hr 02 min 57 sec)
Heartbeat CPU 0 instructions: 60000004 cycles: 15000241 heartbeat IPC: 4 cumulative IPC: 4 (Simulation time: 00 hr 03 min 38 sec)
Heartbeat CPU 0 instructions: 70000003 cycles: 17500265 heartbeat IPC: 4 cumulative IPC: 4 (Simulation time: 00 hr 04 min 20 sec)
Heartbeat CPU 0 instructions: 80000004 cycles: 20000298 heartbeat IPC: 4 cumulative IPC: 4 (Simulation time: 00 hr 05 min 04 sec)
Heartbeat CPU 0 instructions: 90000000 cycles: 22502326 heartbeat IPC: 3.997 cumulative IPC: 3.999 (Simulation time: 00 hr 05 min 46 sec)
Heartbeat CPU 0 instructions: 100000001 cycles: 25003116 heartbeat IPC: 3.999 cumulative IPC: 3.999 (Simulation time: 00 hr 06 min 29 sec)
Heartbeat CPU 0 instructions: 110000000 cycles: 27505792 heartbeat IPC: 3.996 cumulative IPC: 3.999 (Simulation time: 00 hr 07 min 11 sec)
Heartbeat CPU 0 instructions: 120000004 cycles: 30005862 heartbeat IPC: 4 cumulative IPC: 3.999 (Simulation time: 00 hr 07 min 53 sec)
Heartbeat CPU 0 instructions: 130000000 cycles: 32507724 heartbeat IPC: 3.997 cumulative IPC: 3.998 (Simulation time: 00 hr 08 min 35 sec)
Heartbeat CPU 0 instructions: 140000004 cycles: 35008411 heartbeat IPC: 3.999 cumulative IPC: 3.999 (Simulation time: 00 hr 09 min 17 sec)
Heartbeat CPU 0 instructions: 150000000 cycles: 37509803 heartbeat IPC: 3.998 cumulative IPC: 3.998 (Simulation time: 00 hr 09 min 58 sec)
Heartbeat CPU 0 instructions: 160000001 cycles: 40010805 heartbeat IPC: 3.998 cumulative IPC: 3.998 (Simulation time: 00 hr 10 min 40 sec)
Heartbeat CPU 0 instructions: 170000000 cycles: 42511927 heartbeat IPC: 3.998 cumulative IPC: 3.998 (Simulation time: 00 hr 11 min 22 sec)
Heartbeat CPU 0 instructions: 180000003 cycles: 45012462 heartbeat IPC: 3.999 cumulative IPC: 3.998 (Simulation time: 00 hr 12 min 04 sec)
Heartbeat CPU 0 instructions: 190000000 cycles: 47512938 heartbeat IPC: 3.999 cumulative IPC: 3.999 (Simulation time: 00 hr 12 min 45 sec)
Heartbeat CPU 0 instructions: 200000004 cycles: 50013743 heartbeat IPC: 3.999 cumulative IPC: 3.999 (Simulation time: 00 hr 13 min 26 sec)
Heartbeat CPU 0 instructions: 210000004 cycles: 52514850 heartbeat IPC: 3.998 cumulative IPC: 3.999 (Simulation time: 00 hr 14 min 08 sec)
Heartbeat CPU 0 instructions: 220000001 cycles: 55016207 heartbeat IPC: 3.998 cumulative IPC: 3.998 (Simulation time: 00 hr 14 min 50 sec)
Heartbeat CPU 0 instructions: 230000000 cycles: 57516893 heartbeat IPC: 3.999 cumulative IPC: 3.999 (Simulation time: 00 hr 15 min 33 sec)
Heartbeat CPU 0 instructions: 240000000 cycles: 91421990 heartbeat IPC: 0.2949 cumulative IPC: 2.407 (Simulation time: 00 hr 19 min 05 sec)
Heartbeat CPU 0 instructions: 250000001 cycles: 100520522 heartbeat IPC: 1.099 cumulative IPC: 2.272 (Simulation time: 00 hr 20 min 36 sec)
Heartbeat CPU 0 instructions: 260000001 cycles: 109619251 heartbeat IPC: 1.099 cumulative IPC: 2.162 (Simulation time: 00 hr 22 min 07 sec)
Heartbeat CPU 0 instructions: 270000003 cycles: 122151398 heartbeat IPC: 0.7979 cumulative IPC: 2.006 (Simulation time: 00 hr 24 min 03 sec)
Heartbeat CPU 0 instructions: 280000002 cycles: 133752439 heartbeat IPC: 0.862 cumulative IPC: 1.897 (Simulation time: 00 hr 25 min 54 sec)
Heartbeat CPU 0 instructions: 290000000 cycles: 142299604 heartbeat IPC: 1.17 cumulative IPC: 1.849 (Simulation time: 00 hr 27 min 21 sec)
Heartbeat CPU 0 instructions: 300000002 cycles: 150759096 heartbeat IPC: 1.182 cumulative IPC: 1.808 (Simulation time: 00 hr 28 min 47 sec)
Heartbeat CPU 0 instructions: 310000001 cycles: 159272709 heartbeat IPC: 1.175 cumulative IPC: 1.771 (Simulation time: 00 hr 30 min 13 sec)
Heartbeat CPU 0 instructions: 320000000 cycles: 167846206 heartbeat IPC: 1.166 cumulative IPC: 1.738 (Simulation time: 00 hr 31 min 39 sec)
Heartbeat CPU 0 instructions: 330000002 cycles: 176446872 heartbeat IPC: 1.163 cumulative IPC: 1.708 (Simulation time: 00 hr 33 min 06 sec)
Heartbeat CPU 0 instructions: 340000000 cycles: 184906262 heartbeat IPC: 1.182 cumulative IPC: 1.682 (Simulation time: 00 hr 34 min 34 sec)
Heartbeat CPU 0 instructions: 350000003 cycles: 193361985 heartbeat IPC: 1.183 cumulative IPC: 1.659 (Simulation time: 00 hr 36 min 02 sec)
Heartbeat CPU 0 instructions: 360000003 cycles: 201775520 heartbeat IPC: 1.189 cumulative IPC: 1.638 (Simulation time: 00 hr 37 min 32 sec)
Heartbeat CPU 0 instructions: 370000002 cycles: 210206233 heartbeat IPC: 1.186 cumulative IPC: 1.619 (Simulation time: 00 hr 39 min 09 sec)
Heartbeat CPU 0 instructions: 380000003 cycles: 217803188 heartbeat IPC: 1.316 cumulative IPC: 1.607 (Simulation time: 00 hr 40 min 40 sec)
Heartbeat CPU 0 instructions: 390000000 cycles: 225640157 heartbeat IPC: 1.276 cumulative IPC: 1.595 (Simulation time: 00 hr 42 min 10 sec)
Heartbeat CPU 0 instructions: 400000000 cycles: 233815282 heartbeat IPC: 1.223 cumulative IPC: 1.581 (Simulation time: 00 hr 43 min 45 sec)
Heartbeat CPU 0 instructions: 410000002 cycles: 241993204 heartbeat IPC: 1.223 cumulative IPC: 1.569 (Simulation time: 00 hr 45 min 18 sec)
Heartbeat CPU 0 instructions: 420000004 cycles: 250162884 heartbeat IPC: 1.224 cumulative IPC: 1.557 (Simulation time: 00 hr 46 min 50 sec)
Heartbeat CPU 0 instructions: 430000002 cycles: 258377550 heartbeat IPC: 1.217 cumulative IPC: 1.545 (Simulation time: 00 hr 48 min 22 sec)
Heartbeat CPU 0 instructions: 440000004 cycles: 376369434 heartbeat IPC: 0.08475 cumulative IPC: 1.072 (Simulation time: 01 hr 04 min 40 sec)
Heartbeat CPU 0 instructions: 450000003 cycles: 386404008 heartbeat IPC: 0.9966 cumulative IPC: 1.07 (Simulation time: 01 hr 06 min 26 sec)
Heartbeat CPU 0 instructions: 460000004 cycles: 395933711 heartbeat IPC: 1.049 cumulative IPC: 1.069 (Simulation time: 01 hr 08 min 11 sec)
Heartbeat CPU 0 instructions: 470000002 cycles: 405846762 heartbeat IPC: 1.009 cumulative IPC: 1.068 (Simulation time: 01 hr 09 min 57 sec)
Heartbeat CPU 0 instructions: 480000004 cycles: 415293818 heartbeat IPC: 1.059 cumulative IPC: 1.068 (Simulation time: 01 hr 11 min 39 sec)
Heartbeat CPU 0 instructions: 490000002 cycles: 425563920 heartbeat IPC: 0.9737 cumulative IPC: 1.065 (Simulation time: 01 hr 13 min 26 sec)
Heartbeat CPU 0 instructions: 500000003 cycles: 438360972 heartbeat IPC: 0.7814 cumulative IPC: 1.057 (Simulation time: 01 hr 15 min 40 sec)
Heartbeat CPU 0 instructions: 510000003 cycles: 450890981 heartbeat IPC: 0.7981 cumulative IPC: 1.049 (Simulation time: 01 hr 17 min 53 sec)
Heartbeat CPU 0 instructions: 520000000 cycles: 463967326 heartbeat IPC: 0.7647 cumulative IPC: 1.041 (Simulation time: 01 hr 20 min 07 sec)
Heartbeat CPU 0 instructions: 530000004 cycles: 476592203 heartbeat IPC: 0.7921 cumulative IPC: 1.034 (Simulation time: 01 hr 22 min 18 sec)
Heartbeat CPU 0 instructions: 540000000 cycles: 489474240 heartbeat IPC: 0.7763 cumulative IPC: 1.027 (Simulation time: 01 hr 24 min 32 sec)
Heartbeat CPU 0 instructions: 550000002 cycles: 500136102 heartbeat IPC: 0.9379 cumulative IPC: 1.025 (Simulation time: 01 hr 26 min 25 sec)
Heartbeat CPU 0 instructions: 560000000 cycles: 511172300 heartbeat IPC: 0.9061 cumulative IPC: 1.023 (Simulation time: 01 hr 28 min 20 sec)
Heartbeat CPU 0 instructions: 570000002 cycles: 522243027 heartbeat IPC: 0.9033 cumulative IPC: 1.02 (Simulation time: 01 hr 30 min 16 sec)
Heartbeat CPU 0 instructions: 580000002 cycles: 533302793 heartbeat IPC: 0.9042 cumulative IPC: 1.018 (Simulation time: 01 hr 32 min 11 sec)
Heartbeat CPU 0 instructions: 590000003 cycles: 544298105 heartbeat IPC: 0.9095 cumulative IPC: 1.015 (Simulation time: 01 hr 34 min 07 sec)
*** Reached end of trace: (0, "traces/lu.A.champsimtrace")
Heartbeat CPU 0 instructions: 600000001 cycles: 555475674 heartbeat IPC: 0.8946 cumulative IPC: 1.013 (Simulation time: 01 hr 36 min 05 sec)
Heartbeat CPU 0 instructions: 610000000 cycles: 561700012 heartbeat IPC: 1.607 cumulative IPC: 1.02 (Simulation time: 01 hr 37 min 16 sec)
Heartbeat CPU 0 instructions: 620000000 cycles: 564200013 heartbeat IPC: 4 cumulative IPC: 1.033 (Simulation time: 01 hr 38 min 00 sec)
Heartbeat CPU 0 instructions: 630000004 cycles: 566700014 heartbeat IPC: 4 cumulative IPC: 1.047 (Simulation time: 01 hr 38 min 44 sec)
Heartbeat CPU 0 instructions: 640000002 cycles: 569200014 heartbeat IPC: 4 cumulative IPC: 1.06 (Simulation time: 01 hr 39 min 30 sec)
Heartbeat CPU 0 instructions: 650000001 cycles: 571700179 heartbeat IPC: 4 cumulative IPC: 1.073 (Simulation time: 01 hr 40 min 15 sec)
Simulation finished CPU 0 instructions: 600000001 cycles: 559199977 cumulative IPC: 1.073 (Simulation time: 01 hr 40 min 15 sec)
Simulation complete CPU 0 instructions: 600000001 cycles: 559199977 cumulative IPC: 1.073 (Simulation time: 01 hr 40 min 15 sec)

ChampSim completed all CPUs

=== Simulation ===
CPU 0 runs traces/lu.A.champsimtrace
Region of Interest Statistics

CPU 0 cumulative IPC: 1.073 instructions: 600000001 cycles: 559199977
CPU 0 Branch Prediction Accuracy: 99.98% MPKI: 0.004037 Average ROB Occupancy at Mispredict: 117.5
Branch type MPKI
BRANCH_DIRECT_JUMP: 5e-06
BRANCH_INDIRECT: 7.33e-05
BRANCH_CONDITIONAL: 0.0039
BRANCH_DIRECT_CALL: 6.67e-06
BRANCH_INDIRECT_CALL: 3.17e-05
BRANCH_RETURN: 1.83e-05

LLC TOTAL        ACCESS:    6239183 HIT:    2708136 MISS:    3531047
LLC LOAD         ACCESS:    2481304 HIT:     550442 MISS:    1930862
LLC RFO          ACCESS:     831677 HIT:       8844 MISS:     822833
LLC PREFETCH     ACCESS:    1132048 HIT:     357917 MISS:     774131
LLC WRITE        ACCESS:    1782300 HIT:    1781543 MISS:        757
LLC TRANSLATION  ACCESS:      11854 HIT:       9390 MISS:       2464
LLC PREFETCH REQUESTED:    1132048 ISSUED:    1132048 USEFUL:     530367 USELESS:       7962
LLC AVERAGE MISS LATENCY: 1023 cycles
cpu0_DTLB TOTAL        ACCESS:  126073030 HIT:  118675967 MISS:    7397063
cpu0_DTLB LOAD         ACCESS:  126073030 HIT:  118675967 MISS:    7397063
cpu0_DTLB RFO          ACCESS:          0 HIT:          0 MISS:          0
cpu0_DTLB PREFETCH     ACCESS:          0 HIT:          0 MISS:          0
cpu0_DTLB WRITE        ACCESS:          0 HIT:          0 MISS:          0
cpu0_DTLB TRANSLATION  ACCESS:          0 HIT:          0 MISS:          0
cpu0_DTLB PREFETCH REQUESTED:          0 ISSUED:          0 USEFUL:          0 USELESS:          0
cpu0_DTLB AVERAGE MISS LATENCY: 4.767 cycles
cpu0_ITLB TOTAL        ACCESS:    1264689 HIT:    1264465 MISS:        224
cpu0_ITLB LOAD         ACCESS:    1264689 HIT:    1264465 MISS:        224
cpu0_ITLB RFO          ACCESS:          0 HIT:          0 MISS:          0
cpu0_ITLB PREFETCH     ACCESS:          0 HIT:          0 MISS:          0
cpu0_ITLB WRITE        ACCESS:          0 HIT:          0 MISS:          0
cpu0_ITLB TRANSLATION  ACCESS:          0 HIT:          0 MISS:          0
cpu0_ITLB PREFETCH REQUESTED:          0 ISSUED:          0 USEFUL:          0 USELESS:          0
cpu0_ITLB AVERAGE MISS LATENCY: 317.9 cycles
cpu0_L1D TOTAL        ACCESS:  180590684 HIT:  170624278 MISS:    9966406
cpu0_L1D LOAD         ACCESS:  143538029 HIT:  137419382 MISS:    6118647
cpu0_L1D RFO          ACCESS:          0 HIT:          0 MISS:          0
cpu0_L1D PREFETCH     ACCESS:          0 HIT:          0 MISS:          0
cpu0_L1D WRITE        ACCESS:   37000055 HIT:   33177201 MISS:    3822854
cpu0_L1D TRANSLATION  ACCESS:      52600 HIT:      27695 MISS:      24905
cpu0_L1D PREFETCH REQUESTED:          0 ISSUED:          0 USEFUL:          0 USELESS:          0
cpu0_L1D AVERAGE MISS LATENCY: 291.2 cycles
cpu0_L1I TOTAL        ACCESS:    1591835 HIT:    1588929 MISS:       2906
cpu0_L1I LOAD         ACCESS:    1591835 HIT:    1588929 MISS:       2906
cpu0_L1I RFO          ACCESS:          0 HIT:          0 MISS:          0
cpu0_L1I PREFETCH     ACCESS:          0 HIT:          0 MISS:          0
cpu0_L1I WRITE        ACCESS:          0 HIT:          0 MISS:          0
cpu0_L1I TRANSLATION  ACCESS:          0 HIT:          0 MISS:          0
cpu0_L1I PREFETCH REQUESTED:          0 ISSUED:          0 USEFUL:          0 USELESS:          0
cpu0_L1I AVERAGE MISS LATENCY: 446 cycles
cpu0_L2C TOTAL        ACCESS:    5979272 HIT:    2650131 MISS:    3329141
cpu0_L2C LOAD         ACCESS:    3057783 HIT:     576478 MISS:    2481305
cpu0_L2C RFO          ACCESS:     878645 HIT:      46968 MISS:     831677
cpu0_L2C PREFETCH     ACCESS:          0 HIT:          0 MISS:          0
cpu0_L2C WRITE        ACCESS:    2017984 HIT:    2013679 MISS:       4305
cpu0_L2C TRANSLATION  ACCESS:      24860 HIT:      13006 MISS:      11854
cpu0_L2C PREFETCH REQUESTED:          0 ISSUED:          0 USEFUL:          0 USELESS:          0
cpu0_L2C AVERAGE MISS LATENCY: 933.7 cycles
cpu0_STLB TOTAL        ACCESS:    3993575 HIT:    3940989 MISS:      52586
cpu0_STLB LOAD         ACCESS:    3993575 HIT:    3940989 MISS:      52586
cpu0_STLB RFO          ACCESS:          0 HIT:          0 MISS:          0
cpu0_STLB PREFETCH     ACCESS:          0 HIT:          0 MISS:          0
cpu0_STLB WRITE        ACCESS:          0 HIT:          0 MISS:          0
cpu0_STLB TRANSLATION  ACCESS:          0 HIT:          0 MISS:          0
cpu0_STLB PREFETCH REQUESTED:          0 ISSUED:          0 USEFUL:          0 USELESS:          0
cpu0_STLB AVERAGE MISS LATENCY: 427.6 cycles

DRAM Statistics

Channel 0 RQ ROW_BUFFER_HIT:     843845
  ROW_BUFFER_MISS:    2273259
 AVG DBUS CONGESTED CYCLE: 3.941
WQ ROW_BUFFER_HIT: Channel 0 
  ROW_BUFFER_MISS:     305808
  FULL:    1363392
