WARNING: physical memory size is smaller than virtual memory size.

*** ChampSim Multicore Out-of-Order Simulator ***
Warmup Instructions: 50000000
Simulation Instructions: 600000000
Number of CPUs: 1
Page size: 4096

Off-chip DRAM Size: 4 GiB Channels: 1 Width: 64-bit Data Race: 3200 MT/s
Heartbeat CPU 0 instructions: 10000001 cycles: 2500202 heartbeat IPC: 4 cumulative IPC: 4 (Simulation time: 00 hr 00 min 55 sec)
Heartbeat CPU 0 instructions: 20000001 cycles: 5000202 heartbeat IPC: 4 cumulative IPC: 4 (Simulation time: 00 hr 01 min 49 sec)
Heartbeat CPU 0 instructions: 30000001 cycles: 7500202 heartbeat IPC: 4 cumulative IPC: 4 (Simulation time: 00 hr 02 min 44 sec)
Heartbeat CPU 0 instructions: 40000001 cycles: 10000202 heartbeat IPC: 4 cumulative IPC: 4 (Simulation time: 00 hr 03 min 38 sec)
Heartbeat CPU 0 instructions: 50000001 cycles: 12500202 heartbeat IPC: 4 cumulative IPC: 4 (Simulation time: 00 hr 04 min 24 sec)
Warmup finished CPU 0 instructions: 50000001 cycles: 12500203 cumulative IPC: 4 (Simulation time: 00 hr 04 min 24 sec)
Warmup complete CPU 0 instructions: 50000001 cycles: 12500203 cumulative IPC: 4 (Simulation time: 00 hr 04 min 24 sec)
Heartbeat CPU 0 instructions: 60000001 cycles: 15135035 heartbeat IPC: 3.795 cumulative IPC: 3.795 (Simulation time: 00 hr 05 min 16 sec)
Heartbeat CPU 0 instructions: 70000004 cycles: 17769663 heartbeat IPC: 3.796 cumulative IPC: 3.795 (Simulation time: 00 hr 06 min 13 sec)
Heartbeat CPU 0 instructions: 80000003 cycles: 20404302 heartbeat IPC: 3.796 cumulative IPC: 3.795 (Simulation time: 00 hr 07 min 07 sec)
Heartbeat CPU 0 instructions: 90000003 cycles: 23039525 heartbeat IPC: 3.795 cumulative IPC: 3.795 (Simulation time: 00 hr 08 min 02 sec)
Heartbeat CPU 0 instructions: 100000002 cycles: 25675079 heartbeat IPC: 3.794 cumulative IPC: 3.795 (Simulation time: 00 hr 08 min 56 sec)
Heartbeat CPU 0 instructions: 110000002 cycles: 28309917 heartbeat IPC: 3.795 cumulative IPC: 3.795 (Simulation time: 00 hr 09 min 49 sec)
Heartbeat CPU 0 instructions: 120000001 cycles: 30944759 heartbeat IPC: 3.795 cumulative IPC: 3.795 (Simulation time: 00 hr 10 min 43 sec)
Heartbeat CPU 0 instructions: 130000001 cycles: 33580057 heartbeat IPC: 3.795 cumulative IPC: 3.795 (Simulation time: 00 hr 11 min 38 sec)
Heartbeat CPU 0 instructions: 140000002 cycles: 36215282 heartbeat IPC: 3.795 cumulative IPC: 3.795 (Simulation time: 00 hr 12 min 33 sec)
Heartbeat CPU 0 instructions: 150000004 cycles: 38850414 heartbeat IPC: 3.795 cumulative IPC: 3.795 (Simulation time: 00 hr 13 min 27 sec)
Heartbeat CPU 0 instructions: 160000000 cycles: 41486082 heartbeat IPC: 3.794 cumulative IPC: 3.795 (Simulation time: 00 hr 14 min 21 sec)
Heartbeat CPU 0 instructions: 170000004 cycles: 44121161 heartbeat IPC: 3.795 cumulative IPC: 3.795 (Simulation time: 00 hr 15 min 15 sec)
Heartbeat CPU 0 instructions: 180000000 cycles: 46756749 heartbeat IPC: 3.794 cumulative IPC: 3.795 (Simulation time: 00 hr 16 min 18 sec)
Heartbeat CPU 0 instructions: 190000000 cycles: 49391879 heartbeat IPC: 3.795 cumulative IPC: 3.795 (Simulation time: 00 hr 17 min 19 sec)
Heartbeat CPU 0 instructions: 200000001 cycles: 52026967 heartbeat IPC: 3.795 cumulative IPC: 3.795 (Simulation time: 00 hr 18 min 21 sec)
Heartbeat CPU 0 instructions: 210000001 cycles: 54661595 heartbeat IPC: 3.796 cumulative IPC: 3.795 (Simulation time: 00 hr 19 min 19 sec)
Heartbeat CPU 0 instructions: 220000002 cycles: 57296688 heartbeat IPC: 3.795 cumulative IPC: 3.795 (Simulation time: 00 hr 20 min 13 sec)
Heartbeat CPU 0 instructions: 230000001 cycles: 59933181 heartbeat IPC: 3.793 cumulative IPC: 3.795 (Simulation time: 00 hr 21 min 09 sec)
Heartbeat CPU 0 instructions: 240000003 cycles: 95374038 heartbeat IPC: 0.2822 cumulative IPC: 2.293 (Simulation time: 00 hr 26 min 40 sec)
Heartbeat CPU 0 instructions: 250000004 cycles: 105143420 heartbeat IPC: 1.024 cumulative IPC: 2.159 (Simulation time: 00 hr 28 min 59 sec)
Heartbeat CPU 0 instructions: 260000004 cycles: 114306858 heartbeat IPC: 1.091 cumulative IPC: 2.063 (Simulation time: 00 hr 31 min 09 sec)
Heartbeat CPU 0 instructions: 270000001 cycles: 125339424 heartbeat IPC: 0.9064 cumulative IPC: 1.95 (Simulation time: 00 hr 33 min 34 sec)
Heartbeat CPU 0 instructions: 280000002 cycles: 132100162 heartbeat IPC: 1.479 cumulative IPC: 1.923 (Simulation time: 00 hr 35 min 17 sec)
Heartbeat CPU 0 instructions: 290000003 cycles: 138086020 heartbeat IPC: 1.671 cumulative IPC: 1.911 (Simulation time: 00 hr 36 min 53 sec)
Heartbeat CPU 0 instructions: 300000000 cycles: 143192246 heartbeat IPC: 1.958 cumulative IPC: 1.913 (Simulation time: 00 hr 38 min 47 sec)
Heartbeat CPU 0 instructions: 310000002 cycles: 149118417 heartbeat IPC: 1.687 cumulative IPC: 1.903 (Simulation time: 00 hr 40 min 31 sec)
Heartbeat CPU 0 instructions: 320000001 cycles: 156794361 heartbeat IPC: 1.303 cumulative IPC: 1.871 (Simulation time: 00 hr 42 min 31 sec)
Heartbeat CPU 0 instructions: 330000000 cycles: 165896220 heartbeat IPC: 1.099 cumulative IPC: 1.825 (Simulation time: 00 hr 44 min 36 sec)
Heartbeat CPU 0 instructions: 340000000 cycles: 174122621 heartbeat IPC: 1.216 cumulative IPC: 1.794 (Simulation time: 00 hr 46 min 37 sec)
Heartbeat CPU 0 instructions: 350000001 cycles: 182061934 heartbeat IPC: 1.26 cumulative IPC: 1.769 (Simulation time: 00 hr 48 min 40 sec)
Heartbeat CPU 0 instructions: 360000004 cycles: 189658102 heartbeat IPC: 1.316 cumulative IPC: 1.75 (Simulation time: 00 hr 50 min 36 sec)
Heartbeat CPU 0 instructions: 370000000 cycles: 198105669 heartbeat IPC: 1.184 cumulative IPC: 1.724 (Simulation time: 00 hr 52 min 38 sec)
Heartbeat CPU 0 instructions: 380000000 cycles: 206862590 heartbeat IPC: 1.142 cumulative IPC: 1.698 (Simulation time: 00 hr 54 min 40 sec)
Heartbeat CPU 0 instructions: 390000000 cycles: 215924471 heartbeat IPC: 1.104 cumulative IPC: 1.671 (Simulation time: 00 hr 56 min 49 sec)
Heartbeat CPU 0 instructions: 400000001 cycles: 224451684 heartbeat IPC: 1.173 cumulative IPC: 1.651 (Simulation time: 00 hr 59 min 07 sec)
Heartbeat CPU 0 instructions: 410000002 cycles: 233852173 heartbeat IPC: 1.064 cumulative IPC: 1.626 (Simulation time: 01 hr 01 min 30 sec)
Heartbeat CPU 0 instructions: 420000002 cycles: 243440182 heartbeat IPC: 1.043 cumulative IPC: 1.602 (Simulation time: 01 hr 03 min 58 sec)
Heartbeat CPU 0 instructions: 430000000 cycles: 252683586 heartbeat IPC: 1.082 cumulative IPC: 1.582 (Simulation time: 01 hr 06 min 31 sec)
Heartbeat CPU 0 instructions: 440000002 cycles: 403179853 heartbeat IPC: 0.06645 cumulative IPC: 0.9983 (Simulation time: 01 hr 34 min 37 sec)
Heartbeat CPU 0 instructions: 450000001 cycles: 413267378 heartbeat IPC: 0.9913 cumulative IPC: 0.9981 (Simulation time: 01 hr 37 min 04 sec)
Heartbeat CPU 0 instructions: 460000004 cycles: 423476535 heartbeat IPC: 0.9795 cumulative IPC: 0.9976 (Simulation time: 01 hr 39 min 20 sec)
Heartbeat CPU 0 instructions: 470000001 cycles: 433663178 heartbeat IPC: 0.9817 cumulative IPC: 0.9972 (Simulation time: 01 hr 41 min 36 sec)
Heartbeat CPU 0 instructions: 480000001 cycles: 443833720 heartbeat IPC: 0.9832 cumulative IPC: 0.9969 (Simulation time: 01 hr 43 min 57 sec)
Heartbeat CPU 0 instructions: 490000003 cycles: 454582169 heartbeat IPC: 0.9304 cumulative IPC: 0.9953 (Simulation time: 01 hr 46 min 32 sec)
Heartbeat CPU 0 instructions: 500000000 cycles: 467732243 heartbeat IPC: 0.7605 cumulative IPC: 0.9885 (Simulation time: 01 hr 49 min 24 sec)
Heartbeat CPU 0 instructions: 510000001 cycles: 481073615 heartbeat IPC: 0.7495 cumulative IPC: 0.9817 (Simulation time: 01 hr 52 min 23 sec)
Heartbeat CPU 0 instructions: 520000004 cycles: 495283207 heartbeat IPC: 0.7038 cumulative IPC: 0.9735 (Simulation time: 01 hr 55 min 37 sec)
Heartbeat CPU 0 instructions: 530000001 cycles: 509491541 heartbeat IPC: 0.7038 cumulative IPC: 0.9658 (Simulation time: 01 hr 58 min 57 sec)
Heartbeat CPU 0 instructions: 540000004 cycles: 523884367 heartbeat IPC: 0.6948 cumulative IPC: 0.9582 (Simulation time: 02 hr 02 min 10 sec)
Heartbeat CPU 0 instructions: 550000002 cycles: 535151250 heartbeat IPC: 0.8876 cumulative IPC: 0.9567 (Simulation time: 02 hr 04 min 38 sec)
Heartbeat CPU 0 instructions: 560000001 cycles: 544729691 heartbeat IPC: 1.044 cumulative IPC: 0.9582 (Simulation time: 02 hr 06 min 57 sec)
Heartbeat CPU 0 instructions: 570000001 cycles: 554055060 heartbeat IPC: 1.072 cumulative IPC: 0.9602 (Simulation time: 02 hr 09 min 15 sec)
Heartbeat CPU 0 instructions: 580000001 cycles: 564119557 heartbeat IPC: 0.9936 cumulative IPC: 0.9608 (Simulation time: 02 hr 11 min 43 sec)
Heartbeat CPU 0 instructions: 590000000 cycles: 574586210 heartbeat IPC: 0.9554 cumulative IPC: 0.9607 (Simulation time: 02 hr 14 min 17 sec)
*** Reached end of trace: (0, "traces/lu.A.champsimtrace")
Heartbeat CPU 0 instructions: 600000001 cycles: 584855974 heartbeat IPC: 0.9737 cumulative IPC: 0.9609 (Simulation time: 02 hr 16 min 42 sec)
Heartbeat CPU 0 instructions: 610000004 cycles: 593034817 heartbeat IPC: 1.223 cumulative IPC: 0.9646 (Simulation time: 02 hr 18 min 28 sec)
Heartbeat CPU 0 instructions: 620000000 cycles: 595669452 heartbeat IPC: 3.796 cumulative IPC: 0.9774 (Simulation time: 02 hr 19 min 18 sec)
Heartbeat CPU 0 instructions: 630000001 cycles: 598304085 heartbeat IPC: 3.796 cumulative IPC: 0.9901 (Simulation time: 02 hr 20 min 11 sec)
Heartbeat CPU 0 instructions: 640000000 cycles: 600938702 heartbeat IPC: 3.796 cumulative IPC: 1.003 (Simulation time: 02 hr 21 min 04 sec)
Heartbeat CPU 0 instructions: 650000000 cycles: 603573335 heartbeat IPC: 3.796 cumulative IPC: 1.015 (Simulation time: 02 hr 21 min 58 sec)
Simulation finished CPU 0 instructions: 600000004 cycles: 591073134 cumulative IPC: 1.015 (Simulation time: 02 hr 21 min 58 sec)
Simulation complete CPU 0 instructions: 600000004 cycles: 591073134 cumulative IPC: 1.015 (Simulation time: 02 hr 21 min 58 sec)

ChampSim completed all CPUs

=== Simulation ===
CPU 0 runs traces/lu.A.champsimtrace
Region of Interest Statistics

CPU 0 cumulative IPC: 1.015 instructions: 600000004 cycles: 591073134
CPU 0 Branch Prediction Accuracy: 96.65% MPKI: 0.6426 Average ROB Occupancy at Mispredict: 327.4
Branch type MPKI
BRANCH_DIRECT_JUMP: 5e-06
BRANCH_INDIRECT: 8e-05
BRANCH_CONDITIONAL: 0.642
BRANCH_DIRECT_CALL: 6.67e-06
BRANCH_INDIRECT_CALL: 3.17e-05
BRANCH_RETURN: 1.67e-05

LLC TOTAL        ACCESS:    7724641 HIT:    2816801 MISS:    4907840
LLC LOAD         ACCESS:    2482922 HIT:    1419028 MISS:    1063894
LLC RFO          ACCESS:     831662 HIT:      43636 MISS:     788026
LLC PREFETCH     ACCESS:    2614971 HIT:     200676 MISS:    2414295
LLC WRITE        ACCESS:    1783148 HIT:    1146025 MISS:     637123
LLC TRANSLATION  ACCESS:      11938 HIT:       7436 MISS:       4502
LLC PREFETCH REQUESTED:    4542115 ISSUED:    2614971 USEFUL:    1746224 USELESS:      37087
LLC AVERAGE MISS LATENCY: 1506 cycles
cpu0_DTLB TOTAL        ACCESS:  115817358 HIT:  108665455 MISS:    7151903
cpu0_DTLB LOAD         ACCESS:  115817358 HIT:  108665455 MISS:    7151903
cpu0_DTLB RFO          ACCESS:          0 HIT:          0 MISS:          0
cpu0_DTLB PREFETCH     ACCESS:          0 HIT:          0 MISS:          0
cpu0_DTLB WRITE        ACCESS:          0 HIT:          0 MISS:          0
cpu0_DTLB TRANSLATION  ACCESS:          0 HIT:          0 MISS:          0
cpu0_DTLB PREFETCH REQUESTED:          0 ISSUED:          0 USEFUL:          0 USELESS:          0
cpu0_DTLB AVERAGE MISS LATENCY: 6.655 cycles
cpu0_ITLB TOTAL        ACCESS:     712065 HIT:     711857 MISS:        208
cpu0_ITLB LOAD         ACCESS:     712065 HIT:     711857 MISS:        208
cpu0_ITLB RFO          ACCESS:          0 HIT:          0 MISS:          0
cpu0_ITLB PREFETCH     ACCESS:          0 HIT:          0 MISS:          0
cpu0_ITLB WRITE        ACCESS:          0 HIT:          0 MISS:          0
cpu0_ITLB TRANSLATION  ACCESS:          0 HIT:          0 MISS:          0
cpu0_ITLB PREFETCH REQUESTED:          0 ISSUED:          0 USEFUL:          0 USELESS:          0
cpu0_ITLB AVERAGE MISS LATENCY: 407.1 cycles
cpu0_L1D TOTAL        ACCESS:  167339441 HIT:  157777468 MISS:    9561973
cpu0_L1D LOAD         ACCESS:  130286976 HIT:  124575716 MISS:    5711260
cpu0_L1D RFO          ACCESS:          0 HIT:          0 MISS:          0
cpu0_L1D PREFETCH     ACCESS:          0 HIT:          0 MISS:          0
cpu0_L1D WRITE        ACCESS:   36999874 HIT:   33174073 MISS:    3825801
cpu0_L1D TRANSLATION  ACCESS:      52591 HIT:      27679 MISS:      24912
cpu0_L1D PREFETCH REQUESTED:          0 ISSUED:          0 USEFUL:          0 USELESS:          0
cpu0_L1D AVERAGE MISS LATENCY: 300.5 cycles
cpu0_L1I TOTAL        ACCESS:    1094048 HIT:    1091307 MISS:       2741
cpu0_L1I LOAD         ACCESS:    1094048 HIT:    1091307 MISS:       2741
cpu0_L1I RFO          ACCESS:          0 HIT:          0 MISS:          0
cpu0_L1I PREFETCH     ACCESS:          0 HIT:          0 MISS:          0
cpu0_L1I WRITE        ACCESS:          0 HIT:          0 MISS:          0
cpu0_L1I TRANSLATION  ACCESS:          0 HIT:          0 MISS:          0
cpu0_L1I PREFETCH REQUESTED:          0 ISSUED:          0 USEFUL:          0 USELESS:          0
cpu0_L1I AVERAGE MISS LATENCY: 605 cycles
cpu0_L2C TOTAL        ACCESS:    5977773 HIT:    2647039 MISS:    3330734
cpu0_L2C LOAD         ACCESS:    3073864 HIT:     590942 MISS:    2482922
cpu0_L2C RFO          ACCESS:     876967 HIT:      45305 MISS:     831662
cpu0_L2C PREFETCH     ACCESS:          0 HIT:          0 MISS:          0
cpu0_L2C WRITE        ACCESS:    2002074 HIT:    1997862 MISS:       4212
cpu0_L2C TRANSLATION  ACCESS:      24868 HIT:      12930 MISS:      11938
cpu0_L2C PREFETCH REQUESTED:          0 ISSUED:          0 USEFUL:          0 USELESS:          0
cpu0_L2C AVERAGE MISS LATENCY: 931.6 cycles
cpu0_STLB TOTAL        ACCESS:    3986435 HIT:    3933853 MISS:      52582
cpu0_STLB LOAD         ACCESS:    3986435 HIT:    3933853 MISS:      52582
cpu0_STLB RFO          ACCESS:          0 HIT:          0 MISS:          0
cpu0_STLB PREFETCH     ACCESS:          0 HIT:          0 MISS:          0
cpu0_STLB WRITE        ACCESS:          0 HIT:          0 MISS:          0
cpu0_STLB TRANSLATION  ACCESS:          0 HIT:          0 MISS:          0
cpu0_STLB PREFETCH REQUESTED:          0 ISSUED:          0 USEFUL:          0 USELESS:          0
cpu0_STLB AVERAGE MISS LATENCY: 696.1 cycles

DRAM Statistics

Channel 0 RQ ROW_BUFFER_HIT:     742452
  ROW_BUFFER_MISS:    2421904
 AVG DBUS CONGESTED CYCLE: 3.972
WQ ROW_BUFFER_HIT: Channel 0 
  ROW_BUFFER_MISS:     234483
  FULL:    1481907
