WARNING: physical memory size is smaller than virtual memory size.

*** ChampSim Multicore Out-of-Order Simulator ***
Warmup Instructions: 50000000
Simulation Instructions: 600000000
Number of CPUs: 1
Page size: 4096

CPU 0 Tage branch predictor
Off-chip DRAM Size: 4 GiB Channels: 1 Width: 64-bit Data Race: 3200 MT/s
Heartbeat CPU 0 instructions: 10000000 cycles: 2500202 heartbeat IPC: 4 cumulative IPC: 4 (Simulation time: 00 hr 00 min 38 sec)
Heartbeat CPU 0 instructions: 20000000 cycles: 5000202 heartbeat IPC: 4 cumulative IPC: 4 (Simulation time: 00 hr 01 min 16 sec)
Heartbeat CPU 0 instructions: 30000000 cycles: 7500202 heartbeat IPC: 4 cumulative IPC: 4 (Simulation time: 00 hr 01 min 54 sec)
Heartbeat CPU 0 instructions: 40000000 cycles: 10000202 heartbeat IPC: 4 cumulative IPC: 4 (Simulation time: 00 hr 02 min 31 sec)
Heartbeat CPU 0 instructions: 50000000 cycles: 12500202 heartbeat IPC: 4 cumulative IPC: 4 (Simulation time: 00 hr 03 min 09 sec)
Warmup finished CPU 0 instructions: 50000000 cycles: 12500203 cumulative IPC: 4 (Simulation time: 00 hr 03 min 09 sec)
Warmup complete CPU 0 instructions: 50000000 cycles: 12500203 cumulative IPC: 4 (Simulation time: 00 hr 03 min 09 sec)
Heartbeat CPU 0 instructions: 60000004 cycles: 15000241 heartbeat IPC: 4 cumulative IPC: 4 (Simulation time: 00 hr 03 min 54 sec)
Heartbeat CPU 0 instructions: 70000003 cycles: 17500265 heartbeat IPC: 4 cumulative IPC: 4 (Simulation time: 00 hr 04 min 38 sec)
Heartbeat CPU 0 instructions: 80000004 cycles: 20000298 heartbeat IPC: 4 cumulative IPC: 4 (Simulation time: 00 hr 05 min 23 sec)
Heartbeat CPU 0 instructions: 90000000 cycles: 22501959 heartbeat IPC: 3.997 cumulative IPC: 3.999 (Simulation time: 00 hr 06 min 06 sec)
Heartbeat CPU 0 instructions: 100000001 cycles: 25002916 heartbeat IPC: 3.998 cumulative IPC: 3.999 (Simulation time: 00 hr 06 min 50 sec)
Heartbeat CPU 0 instructions: 110000000 cycles: 27505136 heartbeat IPC: 3.996 cumulative IPC: 3.999 (Simulation time: 00 hr 07 min 33 sec)
Heartbeat CPU 0 instructions: 120000004 cycles: 30006837 heartbeat IPC: 3.997 cumulative IPC: 3.998 (Simulation time: 00 hr 08 min 17 sec)
Heartbeat CPU 0 instructions: 130000000 cycles: 32508542 heartbeat IPC: 3.997 cumulative IPC: 3.998 (Simulation time: 00 hr 09 min 02 sec)
Heartbeat CPU 0 instructions: 140000004 cycles: 35009334 heartbeat IPC: 3.999 cumulative IPC: 3.998 (Simulation time: 00 hr 09 min 47 sec)
Heartbeat CPU 0 instructions: 150000000 cycles: 37509858 heartbeat IPC: 3.999 cumulative IPC: 3.998 (Simulation time: 00 hr 10 min 35 sec)
Heartbeat CPU 0 instructions: 160000001 cycles: 40010783 heartbeat IPC: 3.999 cumulative IPC: 3.998 (Simulation time: 00 hr 11 min 21 sec)
Heartbeat CPU 0 instructions: 170000000 cycles: 42512316 heartbeat IPC: 3.998 cumulative IPC: 3.998 (Simulation time: 00 hr 12 min 07 sec)
Heartbeat CPU 0 instructions: 180000003 cycles: 45013347 heartbeat IPC: 3.998 cumulative IPC: 3.998 (Simulation time: 00 hr 12 min 55 sec)
Heartbeat CPU 0 instructions: 190000000 cycles: 47514992 heartbeat IPC: 3.997 cumulative IPC: 3.998 (Simulation time: 00 hr 13 min 41 sec)
Heartbeat CPU 0 instructions: 200000004 cycles: 50015675 heartbeat IPC: 3.999 cumulative IPC: 3.998 (Simulation time: 00 hr 14 min 28 sec)
Heartbeat CPU 0 instructions: 210000004 cycles: 52517543 heartbeat IPC: 3.997 cumulative IPC: 3.998 (Simulation time: 00 hr 15 min 14 sec)
Heartbeat CPU 0 instructions: 220000001 cycles: 55018766 heartbeat IPC: 3.998 cumulative IPC: 3.998 (Simulation time: 00 hr 15 min 58 sec)
Heartbeat CPU 0 instructions: 230000000 cycles: 57519216 heartbeat IPC: 3.999 cumulative IPC: 3.998 (Simulation time: 00 hr 16 min 42 sec)
Heartbeat CPU 0 instructions: 240000000 cycles: 91451911 heartbeat IPC: 0.2947 cumulative IPC: 2.407 (Simulation time: 00 hr 20 min 40 sec)
Heartbeat CPU 0 instructions: 250000001 cycles: 100544070 heartbeat IPC: 1.1 cumulative IPC: 2.272 (Simulation time: 00 hr 22 min 18 sec)
Heartbeat CPU 0 instructions: 260000001 cycles: 109638096 heartbeat IPC: 1.1 cumulative IPC: 2.162 (Simulation time: 00 hr 23 min 56 sec)
Heartbeat CPU 0 instructions: 270000003 cycles: 122103744 heartbeat IPC: 0.8022 cumulative IPC: 2.007 (Simulation time: 00 hr 25 min 59 sec)
Heartbeat CPU 0 instructions: 280000002 cycles: 134010401 heartbeat IPC: 0.8399 cumulative IPC: 1.893 (Simulation time: 00 hr 27 min 59 sec)
Heartbeat CPU 0 instructions: 290000000 cycles: 143132875 heartbeat IPC: 1.096 cumulative IPC: 1.837 (Simulation time: 00 hr 29 min 37 sec)
Heartbeat CPU 0 instructions: 300000002 cycles: 152249822 heartbeat IPC: 1.097 cumulative IPC: 1.789 (Simulation time: 00 hr 31 min 15 sec)
Heartbeat CPU 0 instructions: 310000001 cycles: 161341002 heartbeat IPC: 1.1 cumulative IPC: 1.747 (Simulation time: 00 hr 32 min 56 sec)
Heartbeat CPU 0 instructions: 320000001 cycles: 170310819 heartbeat IPC: 1.115 cumulative IPC: 1.711 (Simulation time: 00 hr 34 min 34 sec)
Heartbeat CPU 0 instructions: 330000002 cycles: 178927974 heartbeat IPC: 1.16 cumulative IPC: 1.682 (Simulation time: 00 hr 36 min 09 sec)
Heartbeat CPU 0 instructions: 340000004 cycles: 187393883 heartbeat IPC: 1.181 cumulative IPC: 1.658 (Simulation time: 00 hr 37 min 43 sec)
Heartbeat CPU 0 instructions: 350000003 cycles: 195828073 heartbeat IPC: 1.186 cumulative IPC: 1.636 (Simulation time: 00 hr 39 min 18 sec)
Heartbeat CPU 0 instructions: 360000003 cycles: 204269342 heartbeat IPC: 1.185 cumulative IPC: 1.617 (Simulation time: 00 hr 40 min 52 sec)
Heartbeat CPU 0 instructions: 370000002 cycles: 212637341 heartbeat IPC: 1.195 cumulative IPC: 1.599 (Simulation time: 00 hr 42 min 26 sec)
Heartbeat CPU 0 instructions: 380000003 cycles: 220200103 heartbeat IPC: 1.322 cumulative IPC: 1.589 (Simulation time: 00 hr 43 min 53 sec)
Heartbeat CPU 0 instructions: 390000000 cycles: 228022138 heartbeat IPC: 1.278 cumulative IPC: 1.578 (Simulation time: 00 hr 45 min 24 sec)
Heartbeat CPU 0 instructions: 400000000 cycles: 236195462 heartbeat IPC: 1.223 cumulative IPC: 1.565 (Simulation time: 00 hr 46 min 58 sec)
Heartbeat CPU 0 instructions: 410000002 cycles: 244360988 heartbeat IPC: 1.225 cumulative IPC: 1.553 (Simulation time: 00 hr 48 min 33 sec)
Heartbeat CPU 0 instructions: 420000000 cycles: 252525213 heartbeat IPC: 1.225 cumulative IPC: 1.542 (Simulation time: 00 hr 50 min 07 sec)
Heartbeat CPU 0 instructions: 430000002 cycles: 260740688 heartbeat IPC: 1.217 cumulative IPC: 1.531 (Simulation time: 00 hr 51 min 41 sec)
Heartbeat CPU 0 instructions: 440000004 cycles: 379481641 heartbeat IPC: 0.08422 cumulative IPC: 1.063 (Simulation time: 01 hr 08 min 07 sec)
Heartbeat CPU 0 instructions: 450000003 cycles: 389875019 heartbeat IPC: 0.9622 cumulative IPC: 1.06 (Simulation time: 01 hr 09 min 57 sec)
Heartbeat CPU 0 instructions: 460000004 cycles: 399882653 heartbeat IPC: 0.9992 cumulative IPC: 1.058 (Simulation time: 01 hr 11 min 43 sec)
Heartbeat CPU 0 instructions: 470000002 cycles: 410388130 heartbeat IPC: 0.9519 cumulative IPC: 1.056 (Simulation time: 01 hr 13 min 35 sec)
Heartbeat CPU 0 instructions: 480000004 cycles: 420380876 heartbeat IPC: 1.001 cumulative IPC: 1.054 (Simulation time: 01 hr 15 min 22 sec)
Heartbeat CPU 0 instructions: 490000002 cycles: 431108120 heartbeat IPC: 0.9322 cumulative IPC: 1.051 (Simulation time: 01 hr 17 min 17 sec)
Heartbeat CPU 0 instructions: 500000003 cycles: 443921400 heartbeat IPC: 0.7804 cumulative IPC: 1.043 (Simulation time: 01 hr 19 min 30 sec)
Heartbeat CPU 0 instructions: 510000003 cycles: 456831430 heartbeat IPC: 0.7746 cumulative IPC: 1.035 (Simulation time: 01 hr 21 min 43 sec)
Heartbeat CPU 0 instructions: 520000000 cycles: 469926814 heartbeat IPC: 0.7636 cumulative IPC: 1.027 (Simulation time: 01 hr 23 min 56 sec)
Heartbeat CPU 0 instructions: 530000004 cycles: 482864905 heartbeat IPC: 0.7729 cumulative IPC: 1.02 (Simulation time: 01 hr 26 min 09 sec)
Heartbeat CPU 0 instructions: 540000000 cycles: 495802296 heartbeat IPC: 0.773 cumulative IPC: 1.014 (Simulation time: 01 hr 28 min 23 sec)
Heartbeat CPU 0 instructions: 550000002 cycles: 506641545 heartbeat IPC: 0.9226 cumulative IPC: 1.012 (Simulation time: 01 hr 30 min 20 sec)
Heartbeat CPU 0 instructions: 560000000 cycles: 517649686 heartbeat IPC: 0.9084 cumulative IPC: 1.01 (Simulation time: 01 hr 32 min 16 sec)
Heartbeat CPU 0 instructions: 570000002 cycles: 528765653 heartbeat IPC: 0.8996 cumulative IPC: 1.007 (Simulation time: 01 hr 34 min 12 sec)
Heartbeat CPU 0 instructions: 580000002 cycles: 539826936 heartbeat IPC: 0.9041 cumulative IPC: 1.005 (Simulation time: 01 hr 36 min 08 sec)
Heartbeat CPU 0 instructions: 590000003 cycles: 550824610 heartbeat IPC: 0.9093 cumulative IPC: 1.003 (Simulation time: 01 hr 38 min 03 sec)
*** Reached end of trace: (0, "traces/lu.A.champsimtrace")
Heartbeat CPU 0 instructions: 600000001 cycles: 561984144 heartbeat IPC: 0.8961 cumulative IPC: 1.001 (Simulation time: 01 hr 40 min 00 sec)
Heartbeat CPU 0 instructions: 610000000 cycles: 568207574 heartbeat IPC: 1.607 cumulative IPC: 1.008 (Simulation time: 01 hr 41 min 12 sec)
Heartbeat CPU 0 instructions: 620000000 cycles: 570707996 heartbeat IPC: 3.999 cumulative IPC: 1.021 (Simulation time: 01 hr 41 min 57 sec)
Heartbeat CPU 0 instructions: 630000004 cycles: 573207996 heartbeat IPC: 4 cumulative IPC: 1.034 (Simulation time: 01 hr 42 min 42 sec)
Heartbeat CPU 0 instructions: 640000002 cycles: 575707996 heartbeat IPC: 4 cumulative IPC: 1.048 (Simulation time: 01 hr 43 min 28 sec)
Heartbeat CPU 0 instructions: 650000001 cycles: 578207996 heartbeat IPC: 4 cumulative IPC: 1.061 (Simulation time: 01 hr 44 min 14 sec)
Simulation finished CPU 0 instructions: 600000001 cycles: 565707794 cumulative IPC: 1.061 (Simulation time: 01 hr 44 min 14 sec)
Simulation complete CPU 0 instructions: 600000001 cycles: 565707794 cumulative IPC: 1.061 (Simulation time: 01 hr 44 min 14 sec)

ChampSim completed all CPUs

=== Simulation ===
CPU 0 runs traces/lu.A.champsimtrace
Region of Interest Statistics

CPU 0 cumulative IPC: 1.061 instructions: 600000001 cycles: 565707794
CPU 0 Branch Prediction Accuracy: 99.98% MPKI: 0.004037 Average ROB Occupancy at Mispredict: 116.5
Branch type MPKI
BRANCH_DIRECT_JUMP: 5e-06
BRANCH_INDIRECT: 7.33e-05
BRANCH_CONDITIONAL: 0.0039
BRANCH_DIRECT_CALL: 6.67e-06
BRANCH_INDIRECT_CALL: 3.17e-05
BRANCH_RETURN: 1.83e-05

LLC TOTAL        ACCESS:    6238317 HIT:    2710251 MISS:    3528066
LLC LOAD         ACCESS:    2481292 HIT:     551667 MISS:    1929625
LLC RFO          ACCESS:     831675 HIT:       8900 MISS:     822775
LLC PREFETCH     ACCESS:    1131197 HIT:     358822 MISS:     772375
LLC WRITE        ACCESS:    1782297 HIT:    1781522 MISS:        775
LLC TRANSLATION  ACCESS:      11856 HIT:       9340 MISS:       2516
LLC PREFETCH REQUESTED:    1131197 ISSUED:    1131197 USEFUL:     530731 USELESS:       8003
LLC AVERAGE MISS LATENCY: 1042 cycles
cpu0_DTLB TOTAL        ACCESS:  126063423 HIT:  118665982 MISS:    7397441
cpu0_DTLB LOAD         ACCESS:  126063423 HIT:  118665982 MISS:    7397441
cpu0_DTLB RFO          ACCESS:          0 HIT:          0 MISS:          0
cpu0_DTLB PREFETCH     ACCESS:          0 HIT:          0 MISS:          0
cpu0_DTLB WRITE        ACCESS:          0 HIT:          0 MISS:          0
cpu0_DTLB TRANSLATION  ACCESS:          0 HIT:          0 MISS:          0
cpu0_DTLB PREFETCH REQUESTED:          0 ISSUED:          0 USEFUL:          0 USELESS:          0
cpu0_DTLB AVERAGE MISS LATENCY: 4.837 cycles
cpu0_ITLB TOTAL        ACCESS:    1264558 HIT:    1264328 MISS:        230
cpu0_ITLB LOAD         ACCESS:    1264558 HIT:    1264328 MISS:        230
cpu0_ITLB RFO          ACCESS:          0 HIT:          0 MISS:          0
cpu0_ITLB PREFETCH     ACCESS:          0 HIT:          0 MISS:          0
cpu0_ITLB WRITE        ACCESS:          0 HIT:          0 MISS:          0
cpu0_ITLB TRANSLATION  ACCESS:          0 HIT:          0 MISS:          0
cpu0_ITLB PREFETCH REQUESTED:          0 ISSUED:          0 USEFUL:          0 USELESS:          0
cpu0_ITLB AVERAGE MISS LATENCY: 310.1 cycles
cpu0_L1D TOTAL        ACCESS:  180583702 HIT:  170623413 MISS:    9960289
cpu0_L1D LOAD         ACCESS:  143531100 HIT:  137418159 MISS:    6112941
cpu0_L1D RFO          ACCESS:          0 HIT:          0 MISS:          0
cpu0_L1D PREFETCH     ACCESS:          0 HIT:          0 MISS:          0
cpu0_L1D WRITE        ACCESS:   37000002 HIT:   33177532 MISS:    3822470
cpu0_L1D TRANSLATION  ACCESS:      52600 HIT:      27722 MISS:      24878
cpu0_L1D PREFETCH REQUESTED:          0 ISSUED:          0 USEFUL:          0 USELESS:          0
cpu0_L1D AVERAGE MISS LATENCY: 295.2 cycles
cpu0_L1I TOTAL        ACCESS:    1591560 HIT:    1588653 MISS:       2907
cpu0_L1I LOAD         ACCESS:    1591560 HIT:    1588653 MISS:       2907
cpu0_L1I RFO          ACCESS:          0 HIT:          0 MISS:          0
cpu0_L1I PREFETCH     ACCESS:          0 HIT:          0 MISS:          0
cpu0_L1I WRITE        ACCESS:          0 HIT:          0 MISS:          0
cpu0_L1I TRANSLATION  ACCESS:          0 HIT:          0 MISS:          0
cpu0_L1I PREFETCH REQUESTED:          0 ISSUED:          0 USEFUL:          0 USELESS:          0
cpu0_L1I AVERAGE MISS LATENCY: 466.2 cycles
cpu0_L2C TOTAL        ACCESS:    5979136 HIT:    2650008 MISS:    3329128
cpu0_L2C LOAD         ACCESS:    3057747 HIT:     576454 MISS:    2481293
cpu0_L2C RFO          ACCESS:     878615 HIT:      46940 MISS:     831675
cpu0_L2C PREFETCH     ACCESS:          0 HIT:          0 MISS:          0
cpu0_L2C WRITE        ACCESS:    2017943 HIT:    2013639 MISS:       4304
cpu0_L2C TRANSLATION  ACCESS:      24831 HIT:      12975 MISS:      11856
cpu0_L2C PREFETCH REQUESTED:          0 ISSUED:          0 USEFUL:          0 USELESS:          0
cpu0_L2C AVERAGE MISS LATENCY: 946 cycles
cpu0_STLB TOTAL        ACCESS:    3993595 HIT:    3941009 MISS:      52586
cpu0_STLB LOAD         ACCESS:    3993595 HIT:    3941009 MISS:      52586
cpu0_STLB RFO          ACCESS:          0 HIT:          0 MISS:          0
cpu0_STLB PREFETCH     ACCESS:          0 HIT:          0 MISS:          0
cpu0_STLB WRITE        ACCESS:          0 HIT:          0 MISS:          0
cpu0_STLB TRANSLATION  ACCESS:          0 HIT:          0 MISS:          0
cpu0_STLB PREFETCH REQUESTED:          0 ISSUED:          0 USEFUL:          0 USELESS:          0
cpu0_STLB AVERAGE MISS LATENCY: 442.2 cycles

DRAM Statistics

Channel 0 RQ ROW_BUFFER_HIT:     830746
  ROW_BUFFER_MISS:    2285937
 AVG DBUS CONGESTED CYCLE: 3.942
WQ ROW_BUFFER_HIT: Channel 0 
  ROW_BUFFER_MISS:     267801
  FULL:    1401373
