WARNING: physical memory size is smaller than virtual memory size.

*** ChampSim Multicore Out-of-Order Simulator ***
Warmup Instructions: 50000000
Simulation Instructions: 600000000
Number of CPUs: 1
Page size: 4096

Off-chip DRAM Size: 4 GiB Channels: 1 Width: 64-bit Data Race: 3200 MT/s
Heartbeat CPU 0 instructions: 10000000 cycles: 2500202 heartbeat IPC: 4 cumulative IPC: 4 (Simulation time: 00 hr 00 min 33 sec)
Heartbeat CPU 0 instructions: 20000000 cycles: 5000202 heartbeat IPC: 4 cumulative IPC: 4 (Simulation time: 00 hr 01 min 06 sec)
Heartbeat CPU 0 instructions: 30000000 cycles: 7500202 heartbeat IPC: 4 cumulative IPC: 4 (Simulation time: 00 hr 01 min 39 sec)
Heartbeat CPU 0 instructions: 40000000 cycles: 10000202 heartbeat IPC: 4 cumulative IPC: 4 (Simulation time: 00 hr 02 min 13 sec)
Heartbeat CPU 0 instructions: 50000000 cycles: 12500202 heartbeat IPC: 4 cumulative IPC: 4 (Simulation time: 00 hr 02 min 46 sec)
Warmup finished CPU 0 instructions: 50000000 cycles: 12500203 cumulative IPC: 4 (Simulation time: 00 hr 02 min 46 sec)
Warmup complete CPU 0 instructions: 50000000 cycles: 12500203 cumulative IPC: 4 (Simulation time: 00 hr 02 min 46 sec)
Heartbeat CPU 0 instructions: 60000004 cycles: 15134822 heartbeat IPC: 3.796 cumulative IPC: 3.796 (Simulation time: 00 hr 03 min 24 sec)
Heartbeat CPU 0 instructions: 70000003 cycles: 17769446 heartbeat IPC: 3.796 cumulative IPC: 3.796 (Simulation time: 00 hr 04 min 02 sec)
Heartbeat CPU 0 instructions: 80000003 cycles: 20404096 heartbeat IPC: 3.796 cumulative IPC: 3.796 (Simulation time: 00 hr 04 min 42 sec)
Heartbeat CPU 0 instructions: 90000004 cycles: 23039671 heartbeat IPC: 3.794 cumulative IPC: 3.795 (Simulation time: 00 hr 05 min 22 sec)
Heartbeat CPU 0 instructions: 100000002 cycles: 25674495 heartbeat IPC: 3.795 cumulative IPC: 3.795 (Simulation time: 00 hr 06 min 00 sec)
Heartbeat CPU 0 instructions: 110000003 cycles: 28309790 heartbeat IPC: 3.795 cumulative IPC: 3.795 (Simulation time: 00 hr 06 min 39 sec)
Heartbeat CPU 0 instructions: 120000004 cycles: 30944643 heartbeat IPC: 3.795 cumulative IPC: 3.795 (Simulation time: 00 hr 07 min 17 sec)
Heartbeat CPU 0 instructions: 130000000 cycles: 33579719 heartbeat IPC: 3.795 cumulative IPC: 3.795 (Simulation time: 00 hr 07 min 55 sec)
Heartbeat CPU 0 instructions: 140000004 cycles: 36214801 heartbeat IPC: 3.795 cumulative IPC: 3.795 (Simulation time: 00 hr 08 min 36 sec)
Heartbeat CPU 0 instructions: 150000000 cycles: 38850323 heartbeat IPC: 3.794 cumulative IPC: 3.795 (Simulation time: 00 hr 09 min 14 sec)
Heartbeat CPU 0 instructions: 160000001 cycles: 41485888 heartbeat IPC: 3.794 cumulative IPC: 3.795 (Simulation time: 00 hr 09 min 52 sec)
Heartbeat CPU 0 instructions: 170000000 cycles: 44120516 heartbeat IPC: 3.796 cumulative IPC: 3.795 (Simulation time: 00 hr 10 min 32 sec)
Heartbeat CPU 0 instructions: 180000003 cycles: 46755372 heartbeat IPC: 3.795 cumulative IPC: 3.795 (Simulation time: 00 hr 11 min 11 sec)
Heartbeat CPU 0 instructions: 190000000 cycles: 49390453 heartbeat IPC: 3.795 cumulative IPC: 3.795 (Simulation time: 00 hr 11 min 51 sec)
Heartbeat CPU 0 instructions: 200000004 cycles: 52025505 heartbeat IPC: 3.795 cumulative IPC: 3.795 (Simulation time: 00 hr 12 min 30 sec)
Heartbeat CPU 0 instructions: 210000004 cycles: 54660356 heartbeat IPC: 3.795 cumulative IPC: 3.795 (Simulation time: 00 hr 13 min 09 sec)
Heartbeat CPU 0 instructions: 220000001 cycles: 57295639 heartbeat IPC: 3.795 cumulative IPC: 3.795 (Simulation time: 00 hr 13 min 47 sec)
Heartbeat CPU 0 instructions: 230000002 cycles: 59930284 heartbeat IPC: 3.796 cumulative IPC: 3.795 (Simulation time: 00 hr 14 min 26 sec)
Heartbeat CPU 0 instructions: 240000000 cycles: 93915175 heartbeat IPC: 0.2942 cumulative IPC: 2.334 (Simulation time: 00 hr 18 min 09 sec)
Heartbeat CPU 0 instructions: 250000001 cycles: 103077117 heartbeat IPC: 1.091 cumulative IPC: 2.208 (Simulation time: 00 hr 19 min 43 sec)
Heartbeat CPU 0 instructions: 260000001 cycles: 112221108 heartbeat IPC: 1.094 cumulative IPC: 2.106 (Simulation time: 00 hr 21 min 18 sec)
Heartbeat CPU 0 instructions: 270000001 cycles: 122045981 heartbeat IPC: 1.018 cumulative IPC: 2.008 (Simulation time: 00 hr 23 min 00 sec)
Heartbeat CPU 0 instructions: 280000003 cycles: 129711385 heartbeat IPC: 1.305 cumulative IPC: 1.962 (Simulation time: 00 hr 24 min 23 sec)
Heartbeat CPU 0 instructions: 290000001 cycles: 134918410 heartbeat IPC: 1.92 cumulative IPC: 1.96 (Simulation time: 00 hr 25 min 26 sec)
Heartbeat CPU 0 instructions: 300000002 cycles: 140122959 heartbeat IPC: 1.921 cumulative IPC: 1.959 (Simulation time: 00 hr 26 min 31 sec)
Heartbeat CPU 0 instructions: 310000002 cycles: 145347328 heartbeat IPC: 1.914 cumulative IPC: 1.957 (Simulation time: 00 hr 27 min 35 sec)
Heartbeat CPU 0 instructions: 320000002 cycles: 151269063 heartbeat IPC: 1.689 cumulative IPC: 1.946 (Simulation time: 00 hr 28 min 46 sec)
Heartbeat CPU 0 instructions: 330000002 cycles: 159510236 heartbeat IPC: 1.213 cumulative IPC: 1.905 (Simulation time: 00 hr 30 min 13 sec)
Heartbeat CPU 0 instructions: 340000004 cycles: 167505983 heartbeat IPC: 1.251 cumulative IPC: 1.871 (Simulation time: 00 hr 31 min 38 sec)
Heartbeat CPU 0 instructions: 350000003 cycles: 175438066 heartbeat IPC: 1.261 cumulative IPC: 1.841 (Simulation time: 00 hr 33 min 03 sec)
Heartbeat CPU 0 instructions: 360000001 cycles: 183314858 heartbeat IPC: 1.27 cumulative IPC: 1.815 (Simulation time: 00 hr 34 min 29 sec)
Heartbeat CPU 0 instructions: 370000002 cycles: 191218099 heartbeat IPC: 1.265 cumulative IPC: 1.791 (Simulation time: 00 hr 35 min 55 sec)
Heartbeat CPU 0 instructions: 380000003 cycles: 199005187 heartbeat IPC: 1.284 cumulative IPC: 1.769 (Simulation time: 00 hr 37 min 21 sec)
Heartbeat CPU 0 instructions: 390000000 cycles: 207531810 heartbeat IPC: 1.173 cumulative IPC: 1.743 (Simulation time: 00 hr 38 min 54 sec)
Heartbeat CPU 0 instructions: 400000002 cycles: 216552558 heartbeat IPC: 1.109 cumulative IPC: 1.715 (Simulation time: 00 hr 40 min 31 sec)
Heartbeat CPU 0 instructions: 410000000 cycles: 225589539 heartbeat IPC: 1.107 cumulative IPC: 1.689 (Simulation time: 00 hr 42 min 08 sec)
Heartbeat CPU 0 instructions: 420000002 cycles: 234600625 heartbeat IPC: 1.11 cumulative IPC: 1.666 (Simulation time: 00 hr 43 min 44 sec)
Heartbeat CPU 0 instructions: 430000002 cycles: 243661083 heartbeat IPC: 1.104 cumulative IPC: 1.644 (Simulation time: 00 hr 45 min 20 sec)
Heartbeat CPU 0 instructions: 440000004 cycles: 395589411 heartbeat IPC: 0.06582 cumulative IPC: 1.018 (Simulation time: 01 hr 05 min 52 sec)
Heartbeat CPU 0 instructions: 450000003 cycles: 405457330 heartbeat IPC: 1.013 cumulative IPC: 1.018 (Simulation time: 01 hr 07 min 33 sec)
Heartbeat CPU 0 instructions: 460000004 cycles: 414742511 heartbeat IPC: 1.077 cumulative IPC: 1.019 (Simulation time: 01 hr 09 min 11 sec)
Heartbeat CPU 0 instructions: 470000001 cycles: 424436994 heartbeat IPC: 1.032 cumulative IPC: 1.02 (Simulation time: 01 hr 10 min 52 sec)
Heartbeat CPU 0 instructions: 480000000 cycles: 433587815 heartbeat IPC: 1.093 cumulative IPC: 1.021 (Simulation time: 01 hr 12 min 31 sec)
Heartbeat CPU 0 instructions: 490000002 cycles: 443719138 heartbeat IPC: 0.987 cumulative IPC: 1.02 (Simulation time: 01 hr 14 min 17 sec)
Heartbeat CPU 0 instructions: 500000002 cycles: 456113334 heartbeat IPC: 0.8068 cumulative IPC: 1.014 (Simulation time: 01 hr 16 min 22 sec)
Heartbeat CPU 0 instructions: 510000004 cycles: 468556137 heartbeat IPC: 0.8037 cumulative IPC: 1.009 (Simulation time: 01 hr 18 min 28 sec)
Heartbeat CPU 0 instructions: 520000000 cycles: 481187813 heartbeat IPC: 0.7917 cumulative IPC: 1.003 (Simulation time: 01 hr 20 min 32 sec)
Heartbeat CPU 0 instructions: 530000004 cycles: 493813657 heartbeat IPC: 0.792 cumulative IPC: 0.9973 (Simulation time: 01 hr 22 min 36 sec)
Heartbeat CPU 0 instructions: 540000003 cycles: 506309950 heartbeat IPC: 0.8002 cumulative IPC: 0.9923 (Simulation time: 01 hr 24 min 41 sec)
Heartbeat CPU 0 instructions: 550000002 cycles: 516190562 heartbeat IPC: 1.012 cumulative IPC: 0.9927 (Simulation time: 01 hr 26 min 24 sec)
Heartbeat CPU 0 instructions: 560000000 cycles: 525710549 heartbeat IPC: 1.05 cumulative IPC: 0.9937 (Simulation time: 01 hr 28 min 01 sec)
Heartbeat CPU 0 instructions: 570000002 cycles: 535425245 heartbeat IPC: 1.029 cumulative IPC: 0.9944 (Simulation time: 01 hr 29 min 40 sec)
Heartbeat CPU 0 instructions: 580000003 cycles: 545250902 heartbeat IPC: 1.018 cumulative IPC: 0.9948 (Simulation time: 01 hr 31 min 18 sec)
Heartbeat CPU 0 instructions: 590000003 cycles: 554948578 heartbeat IPC: 1.031 cumulative IPC: 0.9955 (Simulation time: 01 hr 32 min 56 sec)
*** Reached end of trace: (0, "traces/lu.A.champsimtrace")
Heartbeat CPU 0 instructions: 600000001 cycles: 564859065 heartbeat IPC: 1.009 cumulative IPC: 0.9957 (Simulation time: 01 hr 34 min 37 sec)
Heartbeat CPU 0 instructions: 610000000 cycles: 571129906 heartbeat IPC: 1.595 cumulative IPC: 1.002 (Simulation time: 01 hr 35 min 42 sec)
Heartbeat CPU 0 instructions: 620000000 cycles: 573764724 heartbeat IPC: 3.795 cumulative IPC: 1.016 (Simulation time: 01 hr 36 min 20 sec)
Heartbeat CPU 0 instructions: 630000004 cycles: 576399363 heartbeat IPC: 3.796 cumulative IPC: 1.029 (Simulation time: 01 hr 36 min 59 sec)
Heartbeat CPU 0 instructions: 640000002 cycles: 579033986 heartbeat IPC: 3.796 cumulative IPC: 1.041 (Simulation time: 01 hr 37 min 38 sec)
Heartbeat CPU 0 instructions: 650000001 cycles: 581668625 heartbeat IPC: 3.796 cumulative IPC: 1.054 (Simulation time: 01 hr 38 min 16 sec)
Simulation finished CPU 0 instructions: 600000001 cycles: 569168423 cumulative IPC: 1.054 (Simulation time: 01 hr 38 min 16 sec)
Simulation complete CPU 0 instructions: 600000001 cycles: 569168423 cumulative IPC: 1.054 (Simulation time: 01 hr 38 min 16 sec)

ChampSim completed all CPUs

=== Simulation ===
CPU 0 runs traces/lu.A.champsimtrace
Region of Interest Statistics

CPU 0 cumulative IPC: 1.054 instructions: 600000001 cycles: 569168423
CPU 0 Branch Prediction Accuracy: 96.65% MPKI: 0.6426 Average ROB Occupancy at Mispredict: 329
Branch type MPKI
BRANCH_DIRECT_JUMP: 5e-06
BRANCH_INDIRECT: 7.33e-05
BRANCH_CONDITIONAL: 0.642
BRANCH_DIRECT_CALL: 6.67e-06
BRANCH_INDIRECT_CALL: 3.17e-05
BRANCH_RETURN: 1.83e-05

LLC TOTAL        ACCESS:    7719765 HIT:    3467681 MISS:    4252084
LLC LOAD         ACCESS:    2481354 HIT:    1418866 MISS:    1062488
LLC RFO          ACCESS:     831681 HIT:      46085 MISS:     785596
LLC PREFETCH     ACCESS:    2612468 HIT:     211826 MISS:    2400642
LLC WRITE        ACCESS:    1782390 HIT:    1781562 MISS:        828
LLC TRANSLATION  ACCESS:      11872 HIT:       9342 MISS:       2530
LLC PREFETCH REQUESTED:    4421820 ISSUED:    2612468 USEFUL:    1746082 USELESS:      36469
LLC AVERAGE MISS LATENCY: 1640 cycles
cpu0_DTLB TOTAL        ACCESS:  115474865 HIT:  108317954 MISS:    7156911
cpu0_DTLB LOAD         ACCESS:  115474865 HIT:  108317954 MISS:    7156911
cpu0_DTLB RFO          ACCESS:          0 HIT:          0 MISS:          0
cpu0_DTLB PREFETCH     ACCESS:          0 HIT:          0 MISS:          0
cpu0_DTLB WRITE        ACCESS:          0 HIT:          0 MISS:          0
cpu0_DTLB TRANSLATION  ACCESS:          0 HIT:          0 MISS:          0
cpu0_DTLB PREFETCH REQUESTED:          0 ISSUED:          0 USEFUL:          0 USELESS:          0
cpu0_DTLB AVERAGE MISS LATENCY: 5.808 cycles
cpu0_ITLB TOTAL        ACCESS:     702512 HIT:     702293 MISS:        219
cpu0_ITLB LOAD         ACCESS:     702512 HIT:     702293 MISS:        219
cpu0_ITLB RFO          ACCESS:          0 HIT:          0 MISS:          0
cpu0_ITLB PREFETCH     ACCESS:          0 HIT:          0 MISS:          0
cpu0_ITLB WRITE        ACCESS:          0 HIT:          0 MISS:          0
cpu0_ITLB TRANSLATION  ACCESS:          0 HIT:          0 MISS:          0
cpu0_ITLB PREFETCH REQUESTED:          0 ISSUED:          0 USEFUL:          0 USELESS:          0
cpu0_ITLB AVERAGE MISS LATENCY: 305.4 cycles
cpu0_L1D TOTAL        ACCESS:  166863203 HIT:  157295890 MISS:    9567313
cpu0_L1D LOAD         ACCESS:  129809927 HIT:  124082358 MISS:    5727569
cpu0_L1D RFO          ACCESS:          0 HIT:          0 MISS:          0
cpu0_L1D PREFETCH     ACCESS:          0 HIT:          0 MISS:          0
cpu0_L1D WRITE        ACCESS:   37000678 HIT:   33185900 MISS:    3814778
cpu0_L1D TRANSLATION  ACCESS:      52598 HIT:      27632 MISS:      24966
cpu0_L1D PREFETCH REQUESTED:          0 ISSUED:          0 USEFUL:          0 USELESS:          0
cpu0_L1D AVERAGE MISS LATENCY: 288.9 cycles
cpu0_L1I TOTAL        ACCESS:    1078042 HIT:    1075323 MISS:       2719
cpu0_L1I LOAD         ACCESS:    1078042 HIT:    1075323 MISS:       2719
cpu0_L1I RFO          ACCESS:          0 HIT:          0 MISS:          0
cpu0_L1I PREFETCH     ACCESS:          0 HIT:          0 MISS:          0
cpu0_L1I WRITE        ACCESS:          0 HIT:          0 MISS:          0
cpu0_L1I TRANSLATION  ACCESS:          0 HIT:          0 MISS:          0
cpu0_L1I PREFETCH REQUESTED:          0 ISSUED:          0 USEFUL:          0 USELESS:          0
cpu0_L1I AVERAGE MISS LATENCY: 443.7 cycles
cpu0_L2C TOTAL        ACCESS:    5990316 HIT:    2661082 MISS:    3329234
cpu0_L2C LOAD         ACCESS:    3069692 HIT:     588337 MISS:    2481355
cpu0_L2C RFO          ACCESS:     876967 HIT:      45286 MISS:     831681
cpu0_L2C PREFETCH     ACCESS:          0 HIT:          0 MISS:          0
cpu0_L2C WRITE        ACCESS:    2018733 HIT:    2014407 MISS:       4326
cpu0_L2C TRANSLATION  ACCESS:      24924 HIT:      13052 MISS:      11872
cpu0_L2C PREFETCH REQUESTED:          0 ISSUED:          0 USEFUL:          0 USELESS:          0
cpu0_L2C AVERAGE MISS LATENCY: 895.9 cycles
cpu0_STLB TOTAL        ACCESS:    3987204 HIT:    3934618 MISS:      52586
cpu0_STLB LOAD         ACCESS:    3987204 HIT:    3934618 MISS:      52586
cpu0_STLB RFO          ACCESS:          0 HIT:          0 MISS:          0
cpu0_STLB PREFETCH     ACCESS:          0 HIT:          0 MISS:          0
cpu0_STLB WRITE        ACCESS:          0 HIT:          0 MISS:          0
cpu0_STLB TRANSLATION  ACCESS:          0 HIT:          0 MISS:          0
cpu0_STLB PREFETCH REQUESTED:          0 ISSUED:          0 USEFUL:          0 USELESS:          0
cpu0_STLB AVERAGE MISS LATENCY: 548.2 cycles

DRAM Statistics

Channel 0 RQ ROW_BUFFER_HIT:     769235
  ROW_BUFFER_MISS:    2374012
 AVG DBUS CONGESTED CYCLE: 3.973
WQ ROW_BUFFER_HIT: Channel 0 
  ROW_BUFFER_MISS:     300608
  FULL:    1369674
