WARNING: physical memory size is smaller than virtual memory size.

*** ChampSim Multicore Out-of-Order Simulator ***
Warmup Instructions: 50000000
Simulation Instructions: 600000000
Number of CPUs: 1
Page size: 4096

Off-chip DRAM Size: 4 GiB Channels: 1 Width: 64-bit Data Race: 3200 MT/s
Heartbeat CPU 0 instructions: 10000001 cycles: 2500202 heartbeat IPC: 4 cumulative IPC: 4 (Simulation time: 00 hr 00 min 42 sec)
Heartbeat CPU 0 instructions: 20000001 cycles: 5000202 heartbeat IPC: 4 cumulative IPC: 4 (Simulation time: 00 hr 01 min 23 sec)
Heartbeat CPU 0 instructions: 30000001 cycles: 7500202 heartbeat IPC: 4 cumulative IPC: 4 (Simulation time: 00 hr 02 min 09 sec)
Heartbeat CPU 0 instructions: 40000001 cycles: 10000202 heartbeat IPC: 4 cumulative IPC: 4 (Simulation time: 00 hr 02 min 57 sec)
Heartbeat CPU 0 instructions: 50000001 cycles: 12500202 heartbeat IPC: 4 cumulative IPC: 4 (Simulation time: 00 hr 03 min 45 sec)
Warmup finished CPU 0 instructions: 50000001 cycles: 12500203 cumulative IPC: 4 (Simulation time: 00 hr 03 min 45 sec)
Warmup complete CPU 0 instructions: 50000001 cycles: 12500203 cumulative IPC: 4 (Simulation time: 00 hr 03 min 45 sec)
Heartbeat CPU 0 instructions: 60000002 cycles: 15002981 heartbeat IPC: 3.996 cumulative IPC: 3.996 (Simulation time: 00 hr 04 min 51 sec)
Heartbeat CPU 0 instructions: 70000004 cycles: 17504733 heartbeat IPC: 3.997 cumulative IPC: 3.996 (Simulation time: 00 hr 06 min 02 sec)
Heartbeat CPU 0 instructions: 80000003 cycles: 20007140 heartbeat IPC: 3.996 cumulative IPC: 3.996 (Simulation time: 00 hr 07 min 06 sec)
Heartbeat CPU 0 instructions: 90000003 cycles: 22510617 heartbeat IPC: 3.994 cumulative IPC: 3.996 (Simulation time: 00 hr 08 min 10 sec)
Heartbeat CPU 0 instructions: 100000002 cycles: 25012674 heartbeat IPC: 3.997 cumulative IPC: 3.996 (Simulation time: 00 hr 09 min 11 sec)
Heartbeat CPU 0 instructions: 110000003 cycles: 27514871 heartbeat IPC: 3.996 cumulative IPC: 3.996 (Simulation time: 00 hr 10 min 30 sec)
Heartbeat CPU 0 instructions: 120000001 cycles: 30018413 heartbeat IPC: 3.994 cumulative IPC: 3.996 (Simulation time: 00 hr 11 min 27 sec)
Heartbeat CPU 0 instructions: 130000001 cycles: 32520605 heartbeat IPC: 3.996 cumulative IPC: 3.996 (Simulation time: 00 hr 12 min 29 sec)
Heartbeat CPU 0 instructions: 140000002 cycles: 35022345 heartbeat IPC: 3.997 cumulative IPC: 3.996 (Simulation time: 00 hr 13 min 38 sec)
Heartbeat CPU 0 instructions: 150000004 cycles: 37524601 heartbeat IPC: 3.996 cumulative IPC: 3.996 (Simulation time: 00 hr 14 min 37 sec)
Heartbeat CPU 0 instructions: 160000003 cycles: 40027143 heartbeat IPC: 3.996 cumulative IPC: 3.996 (Simulation time: 00 hr 15 min 47 sec)
Heartbeat CPU 0 instructions: 170000003 cycles: 42528893 heartbeat IPC: 3.997 cumulative IPC: 3.996 (Simulation time: 00 hr 16 min 45 sec)
Heartbeat CPU 0 instructions: 180000002 cycles: 45030841 heartbeat IPC: 3.997 cumulative IPC: 3.996 (Simulation time: 00 hr 17 min 34 sec)
Heartbeat CPU 0 instructions: 190000000 cycles: 47534432 heartbeat IPC: 3.994 cumulative IPC: 3.996 (Simulation time: 00 hr 18 min 53 sec)
Heartbeat CPU 0 instructions: 200000001 cycles: 50037518 heartbeat IPC: 3.995 cumulative IPC: 3.996 (Simulation time: 00 hr 20 min 14 sec)
Heartbeat CPU 0 instructions: 210000001 cycles: 52539733 heartbeat IPC: 3.996 cumulative IPC: 3.996 (Simulation time: 00 hr 21 min 08 sec)
Heartbeat CPU 0 instructions: 220000002 cycles: 55041949 heartbeat IPC: 3.996 cumulative IPC: 3.996 (Simulation time: 00 hr 22 min 02 sec)
Heartbeat CPU 0 instructions: 230000001 cycles: 57543985 heartbeat IPC: 3.997 cumulative IPC: 3.996 (Simulation time: 00 hr 22 min 53 sec)
Heartbeat CPU 0 instructions: 240000003 cycles: 90948048 heartbeat IPC: 0.2994 cumulative IPC: 2.422 (Simulation time: 00 hr 27 min 45 sec)
Heartbeat CPU 0 instructions: 250000004 cycles: 100267465 heartbeat IPC: 1.073 cumulative IPC: 2.279 (Simulation time: 00 hr 29 min 56 sec)
Heartbeat CPU 0 instructions: 260000004 cycles: 109356733 heartbeat IPC: 1.1 cumulative IPC: 2.168 (Simulation time: 00 hr 32 min 09 sec)
Heartbeat CPU 0 instructions: 270000001 cycles: 117909555 heartbeat IPC: 1.169 cumulative IPC: 2.087 (Simulation time: 00 hr 34 min 15 sec)
Heartbeat CPU 0 instructions: 280000003 cycles: 124096454 heartbeat IPC: 1.616 cumulative IPC: 2.061 (Simulation time: 00 hr 35 min 56 sec)
Heartbeat CPU 0 instructions: 290000003 cycles: 130433642 heartbeat IPC: 1.578 cumulative IPC: 2.035 (Simulation time: 00 hr 37 min 36 sec)
Heartbeat CPU 0 instructions: 300000000 cycles: 136685676 heartbeat IPC: 1.599 cumulative IPC: 2.013 (Simulation time: 00 hr 39 min 18 sec)
Heartbeat CPU 0 instructions: 310000002 cycles: 144005852 heartbeat IPC: 1.366 cumulative IPC: 1.977 (Simulation time: 00 hr 41 min 04 sec)
Heartbeat CPU 0 instructions: 320000001 cycles: 150711278 heartbeat IPC: 1.491 cumulative IPC: 1.954 (Simulation time: 00 hr 42 min 42 sec)
Heartbeat CPU 0 instructions: 330000000 cycles: 158933822 heartbeat IPC: 1.216 cumulative IPC: 1.912 (Simulation time: 00 hr 45 min 10 sec)
Heartbeat CPU 0 instructions: 340000000 cycles: 167088049 heartbeat IPC: 1.226 cumulative IPC: 1.876 (Simulation time: 00 hr 47 min 14 sec)
Heartbeat CPU 0 instructions: 350000001 cycles: 175280132 heartbeat IPC: 1.221 cumulative IPC: 1.843 (Simulation time: 00 hr 49 min 21 sec)
Heartbeat CPU 0 instructions: 360000004 cycles: 183484182 heartbeat IPC: 1.219 cumulative IPC: 1.813 (Simulation time: 00 hr 51 min 30 sec)
Heartbeat CPU 0 instructions: 370000000 cycles: 191389462 heartbeat IPC: 1.265 cumulative IPC: 1.789 (Simulation time: 00 hr 53 min 25 sec)
Heartbeat CPU 0 instructions: 380000000 cycles: 199895962 heartbeat IPC: 1.176 cumulative IPC: 1.761 (Simulation time: 00 hr 55 min 36 sec)
Heartbeat CPU 0 instructions: 390000000 cycles: 208723242 heartbeat IPC: 1.133 cumulative IPC: 1.733 (Simulation time: 00 hr 58 min 00 sec)
Heartbeat CPU 0 instructions: 400000002 cycles: 217652548 heartbeat IPC: 1.12 cumulative IPC: 1.706 (Simulation time: 01 hr 00 min 15 sec)
Heartbeat CPU 0 instructions: 410000000 cycles: 226665561 heartbeat IPC: 1.11 cumulative IPC: 1.681 (Simulation time: 01 hr 02 min 32 sec)
Heartbeat CPU 0 instructions: 420000002 cycles: 235689584 heartbeat IPC: 1.108 cumulative IPC: 1.658 (Simulation time: 01 hr 04 min 51 sec)
Heartbeat CPU 0 instructions: 430000000 cycles: 244710277 heartbeat IPC: 1.109 cumulative IPC: 1.636 (Simulation time: 01 hr 07 min 03 sec)
Heartbeat CPU 0 instructions: 440000002 cycles: 393217730 heartbeat IPC: 0.06734 cumulative IPC: 1.024 (Simulation time: 01 hr 34 min 04 sec)
Heartbeat CPU 0 instructions: 450000001 cycles: 403628882 heartbeat IPC: 0.9605 cumulative IPC: 1.023 (Simulation time: 01 hr 36 min 42 sec)
Heartbeat CPU 0 instructions: 460000004 cycles: 414327174 heartbeat IPC: 0.9347 cumulative IPC: 1.02 (Simulation time: 01 hr 39 min 04 sec)
Heartbeat CPU 0 instructions: 470000001 cycles: 424790839 heartbeat IPC: 0.9557 cumulative IPC: 1.019 (Simulation time: 01 hr 41 min 20 sec)
Heartbeat CPU 0 instructions: 480000001 cycles: 434754506 heartbeat IPC: 1.004 cumulative IPC: 1.018 (Simulation time: 01 hr 43 min 39 sec)
Heartbeat CPU 0 instructions: 490000003 cycles: 445694626 heartbeat IPC: 0.9141 cumulative IPC: 1.016 (Simulation time: 01 hr 45 min 59 sec)
Heartbeat CPU 0 instructions: 500000000 cycles: 460485764 heartbeat IPC: 0.6761 cumulative IPC: 1.004 (Simulation time: 01 hr 49 min 00 sec)
Heartbeat CPU 0 instructions: 510000001 cycles: 475392499 heartbeat IPC: 0.6708 cumulative IPC: 0.9938 (Simulation time: 01 hr 52 min 04 sec)
Heartbeat CPU 0 instructions: 520000004 cycles: 490603571 heartbeat IPC: 0.6574 cumulative IPC: 0.9831 (Simulation time: 01 hr 55 min 09 sec)
Heartbeat CPU 0 instructions: 530000001 cycles: 505494126 heartbeat IPC: 0.6716 cumulative IPC: 0.9736 (Simulation time: 01 hr 58 min 10 sec)
Heartbeat CPU 0 instructions: 540000004 cycles: 519992641 heartbeat IPC: 0.6897 cumulative IPC: 0.9655 (Simulation time: 02 hr 01 min 08 sec)
Heartbeat CPU 0 instructions: 550000002 cycles: 530489711 heartbeat IPC: 0.9526 cumulative IPC: 0.9653 (Simulation time: 02 hr 03 min 33 sec)
Heartbeat CPU 0 instructions: 560000001 cycles: 540554837 heartbeat IPC: 0.9935 cumulative IPC: 0.9658 (Simulation time: 02 hr 05 min 43 sec)
Heartbeat CPU 0 instructions: 570000001 cycles: 550546474 heartbeat IPC: 1.001 cumulative IPC: 0.9665 (Simulation time: 02 hr 07 min 54 sec)
Heartbeat CPU 0 instructions: 580000001 cycles: 560613956 heartbeat IPC: 0.9933 cumulative IPC: 0.967 (Simulation time: 02 hr 10 min 07 sec)
Heartbeat CPU 0 instructions: 590000000 cycles: 570728658 heartbeat IPC: 0.9887 cumulative IPC: 0.9673 (Simulation time: 02 hr 12 min 17 sec)
*** Reached end of trace: (0, "traces/lu.A.champsimtrace")
Heartbeat CPU 0 instructions: 600000001 cycles: 580956463 heartbeat IPC: 0.9777 cumulative IPC: 0.9675 (Simulation time: 02 hr 14 min 29 sec)
Heartbeat CPU 0 instructions: 610000003 cycles: 588107241 heartbeat IPC: 1.398 cumulative IPC: 0.9729 (Simulation time: 02 hr 16 min 03 sec)
Heartbeat CPU 0 instructions: 620000001 cycles: 590609709 heartbeat IPC: 3.996 cumulative IPC: 0.986 (Simulation time: 02 hr 16 min 54 sec)
Heartbeat CPU 0 instructions: 630000001 cycles: 593111993 heartbeat IPC: 3.996 cumulative IPC: 0.9989 (Simulation time: 02 hr 17 min 49 sec)
Heartbeat CPU 0 instructions: 640000000 cycles: 595614159 heartbeat IPC: 3.997 cumulative IPC: 1.012 (Simulation time: 02 hr 18 min 42 sec)
Heartbeat CPU 0 instructions: 650000000 cycles: 598115920 heartbeat IPC: 3.997 cumulative IPC: 1.025 (Simulation time: 02 hr 19 min 34 sec)
Simulation finished CPU 0 instructions: 600000004 cycles: 585615719 cumulative IPC: 1.025 (Simulation time: 02 hr 19 min 34 sec)
Simulation complete CPU 0 instructions: 600000004 cycles: 585615719 cumulative IPC: 1.025 (Simulation time: 02 hr 19 min 34 sec)

ChampSim completed all CPUs

=== Simulation ===
CPU 0 runs traces/lu.A.champsimtrace
Region of Interest Statistics

CPU 0 cumulative IPC: 1.025 instructions: 600000004 cycles: 585615719
CPU 0 Branch Prediction Accuracy: 98.73% MPKI: 0.2427 Average ROB Occupancy at Mispredict: 323.7
Branch type MPKI
BRANCH_DIRECT_JUMP: 5e-06
BRANCH_INDIRECT: 8e-05
BRANCH_CONDITIONAL: 0.243
BRANCH_DIRECT_CALL: 6.67e-06
BRANCH_INDIRECT_CALL: 3.17e-05
BRANCH_RETURN: 1.67e-05

LLC TOTAL        ACCESS:    7726011 HIT:    2636467 MISS:    5089544
LLC LOAD         ACCESS:    2482921 HIT:    1387827 MISS:    1095094
LLC RFO          ACCESS:     831661 HIT:      47718 MISS:     783943
LLC PREFETCH     ACCESS:    2616349 HIT:     180706 MISS:    2435643
LLC WRITE        ACCESS:    1783171 HIT:    1018151 MISS:     765020
LLC TRANSLATION  ACCESS:      11909 HIT:       2065 MISS:       9844
LLC PREFETCH REQUESTED:    4399944 ISSUED:    2616349 USEFUL:    1742353 USELESS:      47476
LLC AVERAGE MISS LATENCY: 1392 cycles
cpu0_DTLB TOTAL        ACCESS:  122493207 HIT:  115324650 MISS:    7168557
cpu0_DTLB LOAD         ACCESS:  122493207 HIT:  115324650 MISS:    7168557
cpu0_DTLB RFO          ACCESS:          0 HIT:          0 MISS:          0
cpu0_DTLB PREFETCH     ACCESS:          0 HIT:          0 MISS:          0
cpu0_DTLB WRITE        ACCESS:          0 HIT:          0 MISS:          0
cpu0_DTLB TRANSLATION  ACCESS:          0 HIT:          0 MISS:          0
cpu0_DTLB PREFETCH REQUESTED:          0 ISSUED:          0 USEFUL:          0 USELESS:          0
cpu0_DTLB AVERAGE MISS LATENCY: 8.198 cycles
cpu0_ITLB TOTAL        ACCESS:     709662 HIT:     709463 MISS:        199
cpu0_ITLB LOAD         ACCESS:     709662 HIT:     709463 MISS:        199
cpu0_ITLB RFO          ACCESS:          0 HIT:          0 MISS:          0
cpu0_ITLB PREFETCH     ACCESS:          0 HIT:          0 MISS:          0
cpu0_ITLB WRITE        ACCESS:          0 HIT:          0 MISS:          0
cpu0_ITLB TRANSLATION  ACCESS:          0 HIT:          0 MISS:          0
cpu0_ITLB PREFETCH REQUESTED:          0 ISSUED:          0 USEFUL:          0 USELESS:          0
cpu0_ITLB AVERAGE MISS LATENCY: 418.9 cycles
cpu0_L1D TOTAL        ACCESS:  175510980 HIT:  166006155 MISS:    9504825
cpu0_L1D LOAD         ACCESS:  138458432 HIT:  132775539 MISS:    5682893
cpu0_L1D RFO          ACCESS:          0 HIT:          0 MISS:          0
cpu0_L1D PREFETCH     ACCESS:          0 HIT:          0 MISS:          0
cpu0_L1D WRITE        ACCESS:   36999960 HIT:   33202911 MISS:    3797049
cpu0_L1D TRANSLATION  ACCESS:      52588 HIT:      27705 MISS:      24883
cpu0_L1D PREFETCH REQUESTED:          0 ISSUED:          0 USEFUL:          0 USELESS:          0
cpu0_L1D AVERAGE MISS LATENCY: 294.4 cycles
cpu0_L1I TOTAL        ACCESS:    1093982 HIT:    1091311 MISS:       2671
cpu0_L1I LOAD         ACCESS:    1093982 HIT:    1091311 MISS:       2671
cpu0_L1I RFO          ACCESS:          0 HIT:          0 MISS:          0
cpu0_L1I PREFETCH     ACCESS:          0 HIT:          0 MISS:          0
cpu0_L1I WRITE        ACCESS:          0 HIT:          0 MISS:          0
cpu0_L1I TRANSLATION  ACCESS:          0 HIT:          0 MISS:          0
cpu0_L1I PREFETCH REQUESTED:          0 ISSUED:          0 USEFUL:          0 USELESS:          0
cpu0_L1I AVERAGE MISS LATENCY: 515.5 cycles
cpu0_L2C TOTAL        ACCESS:    5979383 HIT:    2648700 MISS:    3330683
cpu0_L2C LOAD         ACCESS:    3074683 HIT:     591762 MISS:    2482921
cpu0_L2C RFO          ACCESS:     877280 HIT:      45619 MISS:     831661
cpu0_L2C PREFETCH     ACCESS:          0 HIT:          0 MISS:          0
cpu0_L2C WRITE        ACCESS:    2002584 HIT:    1998392 MISS:       4192
cpu0_L2C TRANSLATION  ACCESS:      24836 HIT:      12927 MISS:      11909
cpu0_L2C PREFETCH REQUESTED:          0 ISSUED:          0 USEFUL:          0 USELESS:          0
cpu0_L2C AVERAGE MISS LATENCY: 904 cycles
cpu0_STLB TOTAL        ACCESS:    3986379 HIT:    3933797 MISS:      52582
cpu0_STLB LOAD         ACCESS:    3986379 HIT:    3933797 MISS:      52582
cpu0_STLB RFO          ACCESS:          0 HIT:          0 MISS:          0
cpu0_STLB PREFETCH     ACCESS:          0 HIT:          0 MISS:          0
cpu0_STLB WRITE        ACCESS:          0 HIT:          0 MISS:          0
cpu0_STLB TRANSLATION  ACCESS:          0 HIT:          0 MISS:          0
cpu0_STLB PREFETCH REQUESTED:          0 ISSUED:          0 USEFUL:          0 USELESS:          0
cpu0_STLB AVERAGE MISS LATENCY: 984.3 cycles

DRAM Statistics

Channel 0 RQ ROW_BUFFER_HIT:     761442
  ROW_BUFFER_MISS:    2426630
 AVG DBUS CONGESTED CYCLE: 3.971
WQ ROW_BUFFER_HIT: Channel 0 
  ROW_BUFFER_MISS:     313468
  FULL:    1388088
