WARNING: physical memory size is smaller than virtual memory size.

*** ChampSim Multicore Out-of-Order Simulator ***
Warmup Instructions: 50000000
Simulation Instructions: 600000000
Number of CPUs: 1
Page size: 4096

CPU 0 Tage branch predictor
Off-chip DRAM Size: 4 GiB Channels: 1 Width: 64-bit Data Race: 3200 MT/s
Heartbeat CPU 0 instructions: 10000000 cycles: 2500202 heartbeat IPC: 4 cumulative IPC: 4 (Simulation time: 00 hr 01 min 03 sec)
Heartbeat CPU 0 instructions: 20000000 cycles: 5000202 heartbeat IPC: 4 cumulative IPC: 4 (Simulation time: 00 hr 01 min 54 sec)
Heartbeat CPU 0 instructions: 30000000 cycles: 7500202 heartbeat IPC: 4 cumulative IPC: 4 (Simulation time: 00 hr 02 min 44 sec)
Heartbeat CPU 0 instructions: 40000000 cycles: 10000202 heartbeat IPC: 4 cumulative IPC: 4 (Simulation time: 00 hr 03 min 35 sec)
Heartbeat CPU 0 instructions: 50000000 cycles: 12500202 heartbeat IPC: 4 cumulative IPC: 4 (Simulation time: 00 hr 04 min 26 sec)
Warmup finished CPU 0 instructions: 50000000 cycles: 12500203 cumulative IPC: 4 (Simulation time: 00 hr 04 min 26 sec)
Warmup complete CPU 0 instructions: 50000000 cycles: 12500203 cumulative IPC: 4 (Simulation time: 00 hr 04 min 26 sec)
Heartbeat CPU 0 instructions: 60000004 cycles: 15001460 heartbeat IPC: 3.998 cumulative IPC: 3.998 (Simulation time: 00 hr 05 min 25 sec)
Heartbeat CPU 0 instructions: 70000001 cycles: 17501480 heartbeat IPC: 4 cumulative IPC: 3.999 (Simulation time: 00 hr 06 min 21 sec)
Heartbeat CPU 0 instructions: 80000004 cycles: 20002001 heartbeat IPC: 3.999 cumulative IPC: 3.999 (Simulation time: 00 hr 07 min 20 sec)
Heartbeat CPU 0 instructions: 90000000 cycles: 22504502 heartbeat IPC: 3.996 cumulative IPC: 3.998 (Simulation time: 00 hr 08 min 16 sec)
Heartbeat CPU 0 instructions: 100000004 cycles: 25004527 heartbeat IPC: 4 cumulative IPC: 3.999 (Simulation time: 00 hr 09 min 13 sec)
Heartbeat CPU 0 instructions: 110000003 cycles: 27505023 heartbeat IPC: 3.999 cumulative IPC: 3.999 (Simulation time: 00 hr 10 min 10 sec)
Heartbeat CPU 0 instructions: 120000004 cycles: 30006014 heartbeat IPC: 3.998 cumulative IPC: 3.999 (Simulation time: 00 hr 11 min 09 sec)
Heartbeat CPU 0 instructions: 130000004 cycles: 32506049 heartbeat IPC: 4 cumulative IPC: 3.999 (Simulation time: 00 hr 12 min 05 sec)
Heartbeat CPU 0 instructions: 140000004 cycles: 35006074 heartbeat IPC: 4 cumulative IPC: 3.999 (Simulation time: 00 hr 13 min 02 sec)
Heartbeat CPU 0 instructions: 150000000 cycles: 37507246 heartbeat IPC: 3.998 cumulative IPC: 3.999 (Simulation time: 00 hr 13 min 59 sec)
Heartbeat CPU 0 instructions: 160000001 cycles: 40008619 heartbeat IPC: 3.998 cumulative IPC: 3.999 (Simulation time: 00 hr 14 min 57 sec)
Heartbeat CPU 0 instructions: 170000000 cycles: 42508640 heartbeat IPC: 4 cumulative IPC: 3.999 (Simulation time: 00 hr 15 min 54 sec)
Heartbeat CPU 0 instructions: 180000003 cycles: 45008801 heartbeat IPC: 4 cumulative IPC: 3.999 (Simulation time: 00 hr 16 min 50 sec)
Heartbeat CPU 0 instructions: 190000003 cycles: 47509540 heartbeat IPC: 3.999 cumulative IPC: 3.999 (Simulation time: 00 hr 17 min 46 sec)
Heartbeat CPU 0 instructions: 200000002 cycles: 50011331 heartbeat IPC: 3.997 cumulative IPC: 3.999 (Simulation time: 00 hr 18 min 44 sec)
Heartbeat CPU 0 instructions: 210000000 cycles: 52511353 heartbeat IPC: 4 cumulative IPC: 3.999 (Simulation time: 00 hr 19 min 42 sec)
Heartbeat CPU 0 instructions: 220000002 cycles: 55011945 heartbeat IPC: 3.999 cumulative IPC: 3.999 (Simulation time: 00 hr 20 min 41 sec)
Heartbeat CPU 0 instructions: 230000003 cycles: 57511945 heartbeat IPC: 4 cumulative IPC: 3.999 (Simulation time: 00 hr 21 min 39 sec)
Heartbeat CPU 0 instructions: 240000002 cycles: 89546230 heartbeat IPC: 0.3122 cumulative IPC: 2.466 (Simulation time: 00 hr 26 min 57 sec)
Heartbeat CPU 0 instructions: 250000000 cycles: 98215434 heartbeat IPC: 1.154 cumulative IPC: 2.333 (Simulation time: 00 hr 29 min 05 sec)
Heartbeat CPU 0 instructions: 260000002 cycles: 106892244 heartbeat IPC: 1.152 cumulative IPC: 2.225 (Simulation time: 00 hr 31 min 13 sec)
Heartbeat CPU 0 instructions: 270000004 cycles: 115993396 heartbeat IPC: 1.099 cumulative IPC: 2.126 (Simulation time: 00 hr 33 min 25 sec)
Heartbeat CPU 0 instructions: 280000003 cycles: 124315546 heartbeat IPC: 1.202 cumulative IPC: 2.057 (Simulation time: 00 hr 35 min 28 sec)
Heartbeat CPU 0 instructions: 290000000 cycles: 132489911 heartbeat IPC: 1.223 cumulative IPC: 2 (Simulation time: 00 hr 37 min 29 sec)
Heartbeat CPU 0 instructions: 300000003 cycles: 140700214 heartbeat IPC: 1.218 cumulative IPC: 1.95 (Simulation time: 00 hr 39 min 30 sec)
Heartbeat CPU 0 instructions: 310000002 cycles: 148892542 heartbeat IPC: 1.221 cumulative IPC: 1.906 (Simulation time: 00 hr 41 min 31 sec)
Heartbeat CPU 0 instructions: 320000002 cycles: 157153903 heartbeat IPC: 1.21 cumulative IPC: 1.867 (Simulation time: 00 hr 43 min 34 sec)
Heartbeat CPU 0 instructions: 330000002 cycles: 165177295 heartbeat IPC: 1.246 cumulative IPC: 1.834 (Simulation time: 00 hr 45 min 35 sec)
Heartbeat CPU 0 instructions: 340000001 cycles: 173262366 heartbeat IPC: 1.237 cumulative IPC: 1.804 (Simulation time: 00 hr 47 min 38 sec)
Heartbeat CPU 0 instructions: 350000001 cycles: 181368851 heartbeat IPC: 1.234 cumulative IPC: 1.777 (Simulation time: 00 hr 49 min 41 sec)
Heartbeat CPU 0 instructions: 360000001 cycles: 189539398 heartbeat IPC: 1.224 cumulative IPC: 1.751 (Simulation time: 00 hr 51 min 44 sec)
Heartbeat CPU 0 instructions: 370000001 cycles: 197569382 heartbeat IPC: 1.245 cumulative IPC: 1.729 (Simulation time: 00 hr 53 min 45 sec)
Heartbeat CPU 0 instructions: 380000001 cycles: 205873465 heartbeat IPC: 1.204 cumulative IPC: 1.707 (Simulation time: 00 hr 55 min 49 sec)
Heartbeat CPU 0 instructions: 390000003 cycles: 214555771 heartbeat IPC: 1.152 cumulative IPC: 1.683 (Simulation time: 00 hr 57 min 59 sec)
Heartbeat CPU 0 instructions: 400000004 cycles: 223094641 heartbeat IPC: 1.171 cumulative IPC: 1.662 (Simulation time: 01 hr 00 min 06 sec)
Heartbeat CPU 0 instructions: 410000001 cycles: 231703969 heartbeat IPC: 1.162 cumulative IPC: 1.642 (Simulation time: 01 hr 02 min 12 sec)
Heartbeat CPU 0 instructions: 420000000 cycles: 240337753 heartbeat IPC: 1.158 cumulative IPC: 1.624 (Simulation time: 01 hr 04 min 20 sec)
Heartbeat CPU 0 instructions: 430000003 cycles: 248781914 heartbeat IPC: 1.184 cumulative IPC: 1.608 (Simulation time: 01 hr 06 min 26 sec)
Heartbeat CPU 0 instructions: 440000003 cycles: 358346227 heartbeat IPC: 0.09127 cumulative IPC: 1.128 (Simulation time: 01 hr 26 min 52 sec)
Heartbeat CPU 0 instructions: 450000002 cycles: 367493151 heartbeat IPC: 1.093 cumulative IPC: 1.127 (Simulation time: 01 hr 29 min 06 sec)
Heartbeat CPU 0 instructions: 460000000 cycles: 376862506 heartbeat IPC: 1.067 cumulative IPC: 1.125 (Simulation time: 01 hr 31 min 22 sec)
Heartbeat CPU 0 instructions: 470000003 cycles: 386155257 heartbeat IPC: 1.076 cumulative IPC: 1.124 (Simulation time: 01 hr 33 min 37 sec)
Heartbeat CPU 0 instructions: 480000003 cycles: 395628190 heartbeat IPC: 1.056 cumulative IPC: 1.122 (Simulation time: 01 hr 35 min 53 sec)
Heartbeat CPU 0 instructions: 490000002 cycles: 405020229 heartbeat IPC: 1.065 cumulative IPC: 1.121 (Simulation time: 01 hr 38 min 08 sec)
Heartbeat CPU 0 instructions: 500000004 cycles: 421590352 heartbeat IPC: 0.6035 cumulative IPC: 1.1 (Simulation time: 01 hr 41 min 46 sec)
Heartbeat CPU 0 instructions: 510000003 cycles: 439210792 heartbeat IPC: 0.5675 cumulative IPC: 1.078 (Simulation time: 01 hr 45 min 34 sec)
Heartbeat CPU 0 instructions: 520000003 cycles: 456830883 heartbeat IPC: 0.5675 cumulative IPC: 1.058 (Simulation time: 01 hr 49 min 25 sec)
Heartbeat CPU 0 instructions: 530000001 cycles: 474539047 heartbeat IPC: 0.5647 cumulative IPC: 1.039 (Simulation time: 01 hr 53 min 15 sec)
Heartbeat CPU 0 instructions: 540000001 cycles: 492198619 heartbeat IPC: 0.5663 cumulative IPC: 1.021 (Simulation time: 01 hr 57 min 05 sec)
Heartbeat CPU 0 instructions: 550000000 cycles: 505134328 heartbeat IPC: 0.7731 cumulative IPC: 1.015 (Simulation time: 01 hr 59 min 59 sec)
Heartbeat CPU 0 instructions: 560000002 cycles: 516430601 heartbeat IPC: 0.8852 cumulative IPC: 1.012 (Simulation time: 02 hr 02 min 34 sec)
Heartbeat CPU 0 instructions: 570000000 cycles: 527694848 heartbeat IPC: 0.8878 cumulative IPC: 1.009 (Simulation time: 02 hr 05 min 11 sec)
Heartbeat CPU 0 instructions: 580000001 cycles: 538949901 heartbeat IPC: 0.8885 cumulative IPC: 1.007 (Simulation time: 02 hr 07 min 46 sec)
Heartbeat CPU 0 instructions: 590000000 cycles: 550171965 heartbeat IPC: 0.8911 cumulative IPC: 1.004 (Simulation time: 02 hr 10 min 22 sec)
*** Reached end of trace: (0, "traces/lu.A.champsimtrace")
Heartbeat CPU 0 instructions: 600000001 cycles: 561526423 heartbeat IPC: 0.8807 cumulative IPC: 1.002 (Simulation time: 02 hr 12 min 59 sec)
Heartbeat CPU 0 instructions: 610000004 cycles: 564658436 heartbeat IPC: 3.193 cumulative IPC: 1.014 (Simulation time: 02 hr 14 min 03 sec)
Heartbeat CPU 0 instructions: 620000003 cycles: 567158435 heartbeat IPC: 4 cumulative IPC: 1.028 (Simulation time: 02 hr 15 min 01 sec)
Heartbeat CPU 0 instructions: 630000002 cycles: 569659027 heartbeat IPC: 3.999 cumulative IPC: 1.041 (Simulation time: 02 hr 15 min 57 sec)
Heartbeat CPU 0 instructions: 640000000 cycles: 572159413 heartbeat IPC: 3.999 cumulative IPC: 1.054 (Simulation time: 02 hr 16 min 57 sec)
Heartbeat CPU 0 instructions: 650000004 cycles: 574659412 heartbeat IPC: 4 cumulative IPC: 1.067 (Simulation time: 02 hr 17 min 55 sec)
Simulation finished CPU 0 instructions: 600000004 cycles: 562159210 cumulative IPC: 1.067 (Simulation time: 02 hr 17 min 55 sec)
Simulation complete CPU 0 instructions: 600000004 cycles: 562159210 cumulative IPC: 1.067 (Simulation time: 02 hr 17 min 55 sec)

ChampSim completed all CPUs

=== Simulation ===
CPU 0 runs traces/lu.A.champsimtrace
Region of Interest Statistics

CPU 0 cumulative IPC: 1.067 instructions: 600000004 cycles: 562159210
CPU 0 Branch Prediction Accuracy: 99.98% MPKI: 0.00408 Average ROB Occupancy at Mispredict: 127.3
Branch type MPKI
BRANCH_DIRECT_JUMP: 5e-06
BRANCH_INDIRECT: 7.83e-05
BRANCH_CONDITIONAL: 0.00394
BRANCH_DIRECT_CALL: 6.67e-06
BRANCH_INDIRECT_CALL: 3.5e-05
BRANCH_RETURN: 1.83e-05

LLC TOTAL        ACCESS:    6237878 HIT:     940829 MISS:    5297049
LLC LOAD         ACCESS:    2481910 HIT:     502627 MISS:    1979283
LLC RFO          ACCESS:     831683 HIT:      37546 MISS:     794137
LLC PREFETCH     ACCESS:    1130131 HIT:     314355 MISS:     815776
LLC WRITE        ACCESS:    1782331 HIT:      82545 MISS:    1699786
LLC TRANSLATION  ACCESS:      11823 HIT:       3756 MISS:       8067
LLC PREFETCH REQUESTED:    1130131 ISSUED:    1130131 USEFUL:     531179 USELESS:      33473
LLC AVERAGE MISS LATENCY: 669.8 cycles
cpu0_DTLB TOTAL        ACCESS:  126134072 HIT:  118715721 MISS:    7418351
cpu0_DTLB LOAD         ACCESS:  126134072 HIT:  118715721 MISS:    7418351
cpu0_DTLB RFO          ACCESS:          0 HIT:          0 MISS:          0
cpu0_DTLB PREFETCH     ACCESS:          0 HIT:          0 MISS:          0
cpu0_DTLB WRITE        ACCESS:          0 HIT:          0 MISS:          0
cpu0_DTLB TRANSLATION  ACCESS:          0 HIT:          0 MISS:          0
cpu0_DTLB PREFETCH REQUESTED:          0 ISSUED:          0 USEFUL:          0 USELESS:          0
cpu0_DTLB AVERAGE MISS LATENCY: 5.961 cycles
cpu0_ITLB TOTAL        ACCESS:    1264097 HIT:    1263871 MISS:        226
cpu0_ITLB LOAD         ACCESS:    1264097 HIT:    1263871 MISS:        226
cpu0_ITLB RFO          ACCESS:          0 HIT:          0 MISS:          0
cpu0_ITLB PREFETCH     ACCESS:          0 HIT:          0 MISS:          0
cpu0_ITLB WRITE        ACCESS:          0 HIT:          0 MISS:          0
cpu0_ITLB TRANSLATION  ACCESS:          0 HIT:          0 MISS:          0
cpu0_ITLB PREFETCH REQUESTED:          0 ISSUED:          0 USEFUL:          0 USELESS:          0
cpu0_ITLB AVERAGE MISS LATENCY: 165 cycles
cpu0_L1D TOTAL        ACCESS:  180415573 HIT:  170676767 MISS:    9738806
cpu0_L1D LOAD         ACCESS:  143356121 HIT:  137374554 MISS:    5981567
cpu0_L1D RFO          ACCESS:          0 HIT:          0 MISS:          0
cpu0_L1D PREFETCH     ACCESS:          0 HIT:          0 MISS:          0
cpu0_L1D WRITE        ACCESS:   37006856 HIT:   33274504 MISS:    3732352
cpu0_L1D TRANSLATION  ACCESS:      52596 HIT:      27709 MISS:      24887
cpu0_L1D PREFETCH REQUESTED:          0 ISSUED:          0 USEFUL:          0 USELESS:          0
cpu0_L1D AVERAGE MISS LATENCY: 293 cycles
cpu0_L1I TOTAL        ACCESS:    1590203 HIT:    1587315 MISS:       2888
cpu0_L1I LOAD         ACCESS:    1590203 HIT:    1587315 MISS:       2888
cpu0_L1I RFO          ACCESS:          0 HIT:          0 MISS:          0
cpu0_L1I PREFETCH     ACCESS:          0 HIT:          0 MISS:          0
cpu0_L1I WRITE        ACCESS:          0 HIT:          0 MISS:          0
cpu0_L1I TRANSLATION  ACCESS:          0 HIT:          0 MISS:          0
cpu0_L1I PREFETCH REQUESTED:          0 ISSUED:          0 USEFUL:          0 USELESS:          0
cpu0_L1I AVERAGE MISS LATENCY: 373.8 cycles
cpu0_L2C TOTAL        ACCESS:    5940596 HIT:    2610926 MISS:    3329670
cpu0_L2C LOAD         ACCESS:    3052498 HIT:     570588 MISS:    2481910
cpu0_L2C RFO          ACCESS:     872171 HIT:      40488 MISS:     831683
cpu0_L2C PREFETCH     ACCESS:          0 HIT:          0 MISS:          0
cpu0_L2C WRITE        ACCESS:    1991089 HIT:    1986835 MISS:       4254
cpu0_L2C TRANSLATION  ACCESS:      24838 HIT:      13015 MISS:      11823
cpu0_L2C PREFETCH REQUESTED:          0 ISSUED:          0 USEFUL:          0 USELESS:          0
cpu0_L2C AVERAGE MISS LATENCY: 918.1 cycles
cpu0_STLB TOTAL        ACCESS:    4005203 HIT:    3952621 MISS:      52582
cpu0_STLB LOAD         ACCESS:    4005203 HIT:    3952621 MISS:      52582
cpu0_STLB RFO          ACCESS:          0 HIT:          0 MISS:          0
cpu0_STLB PREFETCH     ACCESS:          0 HIT:          0 MISS:          0
cpu0_STLB WRITE        ACCESS:          0 HIT:          0 MISS:          0
cpu0_STLB TRANSLATION  ACCESS:          0 HIT:          0 MISS:          0
cpu0_STLB PREFETCH REQUESTED:          0 ISSUED:          0 USEFUL:          0 USELESS:          0
cpu0_STLB AVERAGE MISS LATENCY: 655.4 cycles

DRAM Statistics

Channel 0 RQ ROW_BUFFER_HIT:     868369
  ROW_BUFFER_MISS:    2297066
 AVG DBUS CONGESTED CYCLE: 3.939
WQ ROW_BUFFER_HIT: Channel 0 
  ROW_BUFFER_MISS:     491471
  FULL:    1249264
