WARNING: physical memory size is smaller than virtual memory size.

*** ChampSim Multicore Out-of-Order Simulator ***
Warmup Instructions: 50000000
Simulation Instructions: 600000000
Number of CPUs: 1
Page size: 4096

CPU 0 Tage branch predictor
Off-chip DRAM Size: 4 GiB Channels: 1 Width: 64-bit Data Race: 3200 MT/s
Heartbeat CPU 0 instructions: 10000000 cycles: 2500202 heartbeat IPC: 4 cumulative IPC: 4 (Simulation time: 00 hr 01 min 16 sec)
Heartbeat CPU 0 instructions: 20000000 cycles: 5000202 heartbeat IPC: 4 cumulative IPC: 4 (Simulation time: 00 hr 02 min 11 sec)
Heartbeat CPU 0 instructions: 30000000 cycles: 7500202 heartbeat IPC: 4 cumulative IPC: 4 (Simulation time: 00 hr 03 min 06 sec)
Heartbeat CPU 0 instructions: 40000000 cycles: 10000202 heartbeat IPC: 4 cumulative IPC: 4 (Simulation time: 00 hr 04 min 02 sec)
Heartbeat CPU 0 instructions: 50000000 cycles: 12500202 heartbeat IPC: 4 cumulative IPC: 4 (Simulation time: 00 hr 04 min 57 sec)
Warmup finished CPU 0 instructions: 50000000 cycles: 12500203 cumulative IPC: 4 (Simulation time: 00 hr 04 min 57 sec)
Warmup complete CPU 0 instructions: 50000000 cycles: 12500203 cumulative IPC: 4 (Simulation time: 00 hr 04 min 57 sec)
Heartbeat CPU 0 instructions: 60000004 cycles: 15001559 heartbeat IPC: 3.998 cumulative IPC: 3.998 (Simulation time: 00 hr 06 min 00 sec)
Heartbeat CPU 0 instructions: 70000001 cycles: 17501579 heartbeat IPC: 4 cumulative IPC: 3.999 (Simulation time: 00 hr 07 min 01 sec)
Heartbeat CPU 0 instructions: 80000004 cycles: 20001790 heartbeat IPC: 4 cumulative IPC: 3.999 (Simulation time: 00 hr 08 min 02 sec)
Heartbeat CPU 0 instructions: 90000000 cycles: 22504967 heartbeat IPC: 3.995 cumulative IPC: 3.998 (Simulation time: 00 hr 09 min 02 sec)
Heartbeat CPU 0 instructions: 100000004 cycles: 25005719 heartbeat IPC: 3.999 cumulative IPC: 3.998 (Simulation time: 00 hr 10 min 03 sec)
Heartbeat CPU 0 instructions: 110000003 cycles: 27506467 heartbeat IPC: 3.999 cumulative IPC: 3.998 (Simulation time: 00 hr 11 min 04 sec)
Heartbeat CPU 0 instructions: 120000004 cycles: 30007220 heartbeat IPC: 3.999 cumulative IPC: 3.998 (Simulation time: 00 hr 12 min 06 sec)
Heartbeat CPU 0 instructions: 130000004 cycles: 32507412 heartbeat IPC: 4 cumulative IPC: 3.999 (Simulation time: 00 hr 13 min 20 sec)
Heartbeat CPU 0 instructions: 140000004 cycles: 35007437 heartbeat IPC: 4 cumulative IPC: 3.999 (Simulation time: 00 hr 14 min 23 sec)
Heartbeat CPU 0 instructions: 150000000 cycles: 37508164 heartbeat IPC: 3.999 cumulative IPC: 3.999 (Simulation time: 00 hr 15 min 26 sec)
Heartbeat CPU 0 instructions: 160000001 cycles: 40008699 heartbeat IPC: 3.999 cumulative IPC: 3.999 (Simulation time: 00 hr 16 min 28 sec)
Heartbeat CPU 0 instructions: 170000000 cycles: 42508755 heartbeat IPC: 4 cumulative IPC: 3.999 (Simulation time: 00 hr 17 min 30 sec)
Heartbeat CPU 0 instructions: 180000003 cycles: 45009264 heartbeat IPC: 3.999 cumulative IPC: 3.999 (Simulation time: 00 hr 18 min 31 sec)
Heartbeat CPU 0 instructions: 190000003 cycles: 47509970 heartbeat IPC: 3.999 cumulative IPC: 3.999 (Simulation time: 00 hr 19 min 33 sec)
Heartbeat CPU 0 instructions: 200000002 cycles: 50012480 heartbeat IPC: 3.996 cumulative IPC: 3.999 (Simulation time: 00 hr 20 min 36 sec)
Heartbeat CPU 0 instructions: 210000000 cycles: 52513322 heartbeat IPC: 3.999 cumulative IPC: 3.999 (Simulation time: 00 hr 21 min 38 sec)
Heartbeat CPU 0 instructions: 220000002 cycles: 55013684 heartbeat IPC: 3.999 cumulative IPC: 3.999 (Simulation time: 00 hr 22 min 39 sec)
Heartbeat CPU 0 instructions: 230000003 cycles: 57514634 heartbeat IPC: 3.998 cumulative IPC: 3.999 (Simulation time: 00 hr 23 min 41 sec)
Heartbeat CPU 0 instructions: 240000003 cycles: 91234150 heartbeat IPC: 0.2966 cumulative IPC: 2.413 (Simulation time: 00 hr 29 min 30 sec)
Heartbeat CPU 0 instructions: 250000000 cycles: 99595972 heartbeat IPC: 1.196 cumulative IPC: 2.296 (Simulation time: 00 hr 31 min 41 sec)
Heartbeat CPU 0 instructions: 260000003 cycles: 108236436 heartbeat IPC: 1.157 cumulative IPC: 2.194 (Simulation time: 00 hr 33 min 56 sec)
Heartbeat CPU 0 instructions: 270000004 cycles: 117666873 heartbeat IPC: 1.06 cumulative IPC: 2.092 (Simulation time: 00 hr 36 min 22 sec)
Heartbeat CPU 0 instructions: 280000003 cycles: 125522817 heartbeat IPC: 1.273 cumulative IPC: 2.035 (Simulation time: 00 hr 38 min 30 sec)
Heartbeat CPU 0 instructions: 290000000 cycles: 130706290 heartbeat IPC: 1.929 cumulative IPC: 2.03 (Simulation time: 00 hr 40 min 07 sec)
Heartbeat CPU 0 instructions: 300000003 cycles: 135718921 heartbeat IPC: 1.995 cumulative IPC: 2.029 (Simulation time: 00 hr 41 min 42 sec)
Heartbeat CPU 0 instructions: 310000003 cycles: 140719220 heartbeat IPC: 2 cumulative IPC: 2.028 (Simulation time: 00 hr 43 min 17 sec)
Heartbeat CPU 0 instructions: 320000003 cycles: 146335559 heartbeat IPC: 1.781 cumulative IPC: 2.017 (Simulation time: 00 hr 44 min 56 sec)
Heartbeat CPU 0 instructions: 330000003 cycles: 152836546 heartbeat IPC: 1.538 cumulative IPC: 1.995 (Simulation time: 00 hr 46 min 44 sec)
Heartbeat CPU 0 instructions: 340000001 cycles: 160624323 heartbeat IPC: 1.284 cumulative IPC: 1.958 (Simulation time: 00 hr 48 min 47 sec)
Heartbeat CPU 0 instructions: 350000001 cycles: 168465458 heartbeat IPC: 1.275 cumulative IPC: 1.924 (Simulation time: 00 hr 50 min 51 sec)
Heartbeat CPU 0 instructions: 360000001 cycles: 176296502 heartbeat IPC: 1.277 cumulative IPC: 1.893 (Simulation time: 00 hr 52 min 52 sec)
Heartbeat CPU 0 instructions: 370000002 cycles: 184039216 heartbeat IPC: 1.292 cumulative IPC: 1.865 (Simulation time: 00 hr 54 min 52 sec)
Heartbeat CPU 0 instructions: 380000001 cycles: 192070137 heartbeat IPC: 1.245 cumulative IPC: 1.838 (Simulation time: 00 hr 56 min 59 sec)
Heartbeat CPU 0 instructions: 390000003 cycles: 201022245 heartbeat IPC: 1.117 cumulative IPC: 1.804 (Simulation time: 00 hr 59 min 16 sec)
Heartbeat CPU 0 instructions: 400000000 cycles: 210313676 heartbeat IPC: 1.076 cumulative IPC: 1.769 (Simulation time: 01 hr 01 min 37 sec)
Heartbeat CPU 0 instructions: 410000001 cycles: 219481530 heartbeat IPC: 1.091 cumulative IPC: 1.739 (Simulation time: 01 hr 03 min 58 sec)
Heartbeat CPU 0 instructions: 420000000 cycles: 228679878 heartbeat IPC: 1.087 cumulative IPC: 1.712 (Simulation time: 01 hr 06 min 17 sec)
Heartbeat CPU 0 instructions: 430000003 cycles: 237967248 heartbeat IPC: 1.077 cumulative IPC: 1.685 (Simulation time: 01 hr 08 min 42 sec)
Heartbeat CPU 0 instructions: 440000004 cycles: 384201354 heartbeat IPC: 0.06838 cumulative IPC: 1.049 (Simulation time: 01 hr 36 min 09 sec)
Heartbeat CPU 0 instructions: 450000002 cycles: 395640238 heartbeat IPC: 0.8742 cumulative IPC: 1.044 (Simulation time: 01 hr 39 min 03 sec)
Heartbeat CPU 0 instructions: 460000000 cycles: 405037035 heartbeat IPC: 1.064 cumulative IPC: 1.044 (Simulation time: 01 hr 41 min 22 sec)
Heartbeat CPU 0 instructions: 470000003 cycles: 414241798 heartbeat IPC: 1.086 cumulative IPC: 1.045 (Simulation time: 01 hr 43 min 40 sec)
Heartbeat CPU 0 instructions: 480000003 cycles: 423685823 heartbeat IPC: 1.059 cumulative IPC: 1.046 (Simulation time: 01 hr 46 min 01 sec)
Heartbeat CPU 0 instructions: 490000002 cycles: 433361624 heartbeat IPC: 1.034 cumulative IPC: 1.045 (Simulation time: 01 hr 48 min 22 sec)
Heartbeat CPU 0 instructions: 500000003 cycles: 445858851 heartbeat IPC: 0.8002 cumulative IPC: 1.038 (Simulation time: 01 hr 51 min 17 sec)
Heartbeat CPU 0 instructions: 510000002 cycles: 459736151 heartbeat IPC: 0.7206 cumulative IPC: 1.029 (Simulation time: 01 hr 54 min 25 sec)
Heartbeat CPU 0 instructions: 520000003 cycles: 473677711 heartbeat IPC: 0.7173 cumulative IPC: 1.019 (Simulation time: 01 hr 57 min 37 sec)
Heartbeat CPU 0 instructions: 530000001 cycles: 487877172 heartbeat IPC: 0.7043 cumulative IPC: 1.01 (Simulation time: 02 hr 00 min 50 sec)
Heartbeat CPU 0 instructions: 540000001 cycles: 501213238 heartbeat IPC: 0.7498 cumulative IPC: 1.003 (Simulation time: 02 hr 03 min 56 sec)
Heartbeat CPU 0 instructions: 550000000 cycles: 511514091 heartbeat IPC: 0.9708 cumulative IPC: 1.002 (Simulation time: 02 hr 06 min 24 sec)
Heartbeat CPU 0 instructions: 560000002 cycles: 520993972 heartbeat IPC: 1.055 cumulative IPC: 1.003 (Simulation time: 02 hr 08 min 43 sec)
Heartbeat CPU 0 instructions: 570000000 cycles: 530894301 heartbeat IPC: 1.01 cumulative IPC: 1.003 (Simulation time: 02 hr 11 min 08 sec)
Heartbeat CPU 0 instructions: 580000001 cycles: 540845345 heartbeat IPC: 1.005 cumulative IPC: 1.003 (Simulation time: 02 hr 13 min 34 sec)
Heartbeat CPU 0 instructions: 590000000 cycles: 550883724 heartbeat IPC: 0.9962 cumulative IPC: 1.003 (Simulation time: 02 hr 15 min 57 sec)
*** Reached end of trace: (0, "traces/lu.A.champsimtrace")
Heartbeat CPU 0 instructions: 600000001 cycles: 561082685 heartbeat IPC: 0.9805 cumulative IPC: 1.003 (Simulation time: 02 hr 18 min 27 sec)
Heartbeat CPU 0 instructions: 610000004 cycles: 569391922 heartbeat IPC: 1.203 cumulative IPC: 1.006 (Simulation time: 02 hr 20 min 26 sec)
Heartbeat CPU 0 instructions: 620000003 cycles: 571893881 heartbeat IPC: 3.997 cumulative IPC: 1.019 (Simulation time: 02 hr 21 min 24 sec)
Heartbeat CPU 0 instructions: 630000002 cycles: 574399335 heartbeat IPC: 3.991 cumulative IPC: 1.032 (Simulation time: 02 hr 22 min 25 sec)
Heartbeat CPU 0 instructions: 640000000 cycles: 576899951 heartbeat IPC: 3.999 cumulative IPC: 1.045 (Simulation time: 02 hr 23 min 24 sec)
Heartbeat CPU 0 instructions: 650000004 cycles: 579400750 heartbeat IPC: 3.999 cumulative IPC: 1.058 (Simulation time: 02 hr 24 min 25 sec)
Simulation finished CPU 0 instructions: 600000004 cycles: 566900548 cumulative IPC: 1.058 (Simulation time: 02 hr 24 min 25 sec)
Simulation complete CPU 0 instructions: 600000004 cycles: 566900548 cumulative IPC: 1.058 (Simulation time: 02 hr 24 min 25 sec)

ChampSim completed all CPUs

=== Simulation ===
CPU 0 runs traces/lu.A.champsimtrace
Region of Interest Statistics

CPU 0 cumulative IPC: 1.058 instructions: 600000004 cycles: 566900548
CPU 0 Branch Prediction Accuracy: 99.98% MPKI: 0.00408 Average ROB Occupancy at Mispredict: 127.6
Branch type MPKI
BRANCH_DIRECT_JUMP: 5e-06
BRANCH_INDIRECT: 7.83e-05
BRANCH_CONDITIONAL: 0.00394
BRANCH_DIRECT_CALL: 6.67e-06
BRANCH_INDIRECT_CALL: 3.5e-05
BRANCH_RETURN: 1.83e-05

LLC TOTAL        ACCESS:    7732756 HIT:    2186826 MISS:    5545930
LLC LOAD         ACCESS:    2482009 HIT:    1430350 MISS:    1051659
LLC RFO          ACCESS:     831686 HIT:      49400 MISS:     782286
LLC PREFETCH     ACCESS:    2624904 HIT:     209434 MISS:    2415470
LLC WRITE        ACCESS:    1782341 HIT:     495377 MISS:    1286964
LLC TRANSLATION  ACCESS:      11816 HIT:       2265 MISS:       9551
LLC PREFETCH REQUESTED:    4661079 ISSUED:    2624904 USEFUL:    1758730 USELESS:      35190
LLC AVERAGE MISS LATENCY: 1273 cycles
cpu0_DTLB TOTAL        ACCESS:  125110947 HIT:  117703426 MISS:    7407521
cpu0_DTLB LOAD         ACCESS:  125110947 HIT:  117703426 MISS:    7407521
cpu0_DTLB RFO          ACCESS:          0 HIT:          0 MISS:          0
cpu0_DTLB PREFETCH     ACCESS:          0 HIT:          0 MISS:          0
cpu0_DTLB WRITE        ACCESS:          0 HIT:          0 MISS:          0
cpu0_DTLB TRANSLATION  ACCESS:          0 HIT:          0 MISS:          0
cpu0_DTLB PREFETCH REQUESTED:          0 ISSUED:          0 USEFUL:          0 USELESS:          0
cpu0_DTLB AVERAGE MISS LATENCY: 7.589 cycles
cpu0_ITLB TOTAL        ACCESS:    1255735 HIT:    1255506 MISS:        229
cpu0_ITLB LOAD         ACCESS:    1255735 HIT:    1255506 MISS:        229
cpu0_ITLB RFO          ACCESS:          0 HIT:          0 MISS:          0
cpu0_ITLB PREFETCH     ACCESS:          0 HIT:          0 MISS:          0
cpu0_ITLB WRITE        ACCESS:          0 HIT:          0 MISS:          0
cpu0_ITLB TRANSLATION  ACCESS:          0 HIT:          0 MISS:          0
cpu0_ITLB PREFETCH REQUESTED:          0 ISSUED:          0 USEFUL:          0 USELESS:          0
cpu0_ITLB AVERAGE MISS LATENCY: 474.2 cycles
cpu0_L1D TOTAL        ACCESS:  178980366 HIT:  169345183 MISS:    9635183
cpu0_L1D LOAD         ACCESS:  141927789 HIT:  136071182 MISS:    5856607
cpu0_L1D RFO          ACCESS:          0 HIT:          0 MISS:          0
cpu0_L1D PREFETCH     ACCESS:          0 HIT:          0 MISS:          0
cpu0_L1D WRITE        ACCESS:   36999981 HIT:   33246309 MISS:    3753672
cpu0_L1D TRANSLATION  ACCESS:      52596 HIT:      27692 MISS:      24904
cpu0_L1D PREFETCH REQUESTED:          0 ISSUED:          0 USEFUL:          0 USELESS:          0
cpu0_L1D AVERAGE MISS LATENCY: 289.2 cycles
cpu0_L1I TOTAL        ACCESS:    1576094 HIT:    1573168 MISS:       2926
cpu0_L1I LOAD         ACCESS:    1576094 HIT:    1573168 MISS:       2926
cpu0_L1I RFO          ACCESS:          0 HIT:          0 MISS:          0
cpu0_L1I PREFETCH     ACCESS:          0 HIT:          0 MISS:          0
cpu0_L1I WRITE        ACCESS:          0 HIT:          0 MISS:          0
cpu0_L1I TRANSLATION  ACCESS:          0 HIT:          0 MISS:          0
cpu0_L1I PREFETCH REQUESTED:          0 ISSUED:          0 USEFUL:          0 USELESS:          0
cpu0_L1I AVERAGE MISS LATENCY: 537.9 cycles
cpu0_L2C TOTAL        ACCESS:    5960476 HIT:    2630816 MISS:    3329660
cpu0_L2C LOAD         ACCESS:    3068861 HIT:     586852 MISS:    2482009
cpu0_L2C RFO          ACCESS:     873057 HIT:      41371 MISS:     831686
cpu0_L2C PREFETCH     ACCESS:          0 HIT:          0 MISS:          0
cpu0_L2C WRITE        ACCESS:    1993703 HIT:    1989554 MISS:       4149
cpu0_L2C TRANSLATION  ACCESS:      24855 HIT:      13039 MISS:      11816
cpu0_L2C PREFETCH REQUESTED:          0 ISSUED:          0 USEFUL:          0 USELESS:          0
cpu0_L2C AVERAGE MISS LATENCY: 897.6 cycles
cpu0_STLB TOTAL        ACCESS:    4004078 HIT:    3951496 MISS:      52582
cpu0_STLB LOAD         ACCESS:    4004078 HIT:    3951496 MISS:      52582
cpu0_STLB RFO          ACCESS:          0 HIT:          0 MISS:          0
cpu0_STLB PREFETCH     ACCESS:          0 HIT:          0 MISS:          0
cpu0_STLB WRITE        ACCESS:          0 HIT:          0 MISS:          0
cpu0_STLB TRANSLATION  ACCESS:          0 HIT:          0 MISS:          0
cpu0_STLB PREFETCH REQUESTED:          0 ISSUED:          0 USEFUL:          0 USELESS:          0
cpu0_STLB AVERAGE MISS LATENCY: 943.1 cycles

DRAM Statistics

Channel 0 RQ ROW_BUFFER_HIT:     772031
  ROW_BUFFER_MISS:    2377738
 AVG DBUS CONGESTED CYCLE: 3.973
WQ ROW_BUFFER_HIT: Channel 0 
  ROW_BUFFER_MISS:     385620
  FULL:    1306627
Final OPTGen Hits: 26816
Final OPTGen Access: 52796
Final OPTGEN Hit Rate: 50.7918
