WARNING: physical memory size is smaller than virtual memory size.

*** ChampSim Multicore Out-of-Order Simulator ***
Warmup Instructions: 50000000
Simulation Instructions: 600000000
Number of CPUs: 1
Page size: 4096

CPU 0 Tage branch predictor
Off-chip DRAM Size: 4 GiB Channels: 1 Width: 64-bit Data Race: 3200 MT/s
Heartbeat CPU 0 instructions: 10000000 cycles: 2500202 heartbeat IPC: 4 cumulative IPC: 4 (Simulation time: 00 hr 01 min 06 sec)
Heartbeat CPU 0 instructions: 20000000 cycles: 5000202 heartbeat IPC: 4 cumulative IPC: 4 (Simulation time: 00 hr 02 min 03 sec)
Heartbeat CPU 0 instructions: 30000000 cycles: 7500202 heartbeat IPC: 4 cumulative IPC: 4 (Simulation time: 00 hr 02 min 58 sec)
Heartbeat CPU 0 instructions: 40000000 cycles: 10000202 heartbeat IPC: 4 cumulative IPC: 4 (Simulation time: 00 hr 03 min 52 sec)
Heartbeat CPU 0 instructions: 50000000 cycles: 12500202 heartbeat IPC: 4 cumulative IPC: 4 (Simulation time: 00 hr 04 min 48 sec)
Warmup finished CPU 0 instructions: 50000000 cycles: 12500203 cumulative IPC: 4 (Simulation time: 00 hr 04 min 48 sec)
Warmup complete CPU 0 instructions: 50000000 cycles: 12500203 cumulative IPC: 4 (Simulation time: 00 hr 04 min 48 sec)
Heartbeat CPU 0 instructions: 60000004 cycles: 15001618 heartbeat IPC: 3.998 cumulative IPC: 3.998 (Simulation time: 00 hr 05 min 49 sec)
Heartbeat CPU 0 instructions: 70000001 cycles: 17502330 heartbeat IPC: 3.999 cumulative IPC: 3.998 (Simulation time: 00 hr 06 min 51 sec)
Heartbeat CPU 0 instructions: 80000004 cycles: 20003117 heartbeat IPC: 3.999 cumulative IPC: 3.998 (Simulation time: 00 hr 07 min 53 sec)
Heartbeat CPU 0 instructions: 90000000 cycles: 22504205 heartbeat IPC: 3.998 cumulative IPC: 3.998 (Simulation time: 00 hr 08 min 55 sec)
Heartbeat CPU 0 instructions: 100000004 cycles: 25004725 heartbeat IPC: 3.999 cumulative IPC: 3.999 (Simulation time: 00 hr 09 min 56 sec)
Heartbeat CPU 0 instructions: 110000003 cycles: 27506241 heartbeat IPC: 3.998 cumulative IPC: 3.998 (Simulation time: 00 hr 10 min 58 sec)
Heartbeat CPU 0 instructions: 120000004 cycles: 30007244 heartbeat IPC: 3.998 cumulative IPC: 3.998 (Simulation time: 00 hr 11 min 59 sec)
Heartbeat CPU 0 instructions: 130000004 cycles: 32508520 heartbeat IPC: 3.998 cumulative IPC: 3.998 (Simulation time: 00 hr 13 min 01 sec)
Heartbeat CPU 0 instructions: 140000004 cycles: 35008940 heartbeat IPC: 3.999 cumulative IPC: 3.998 (Simulation time: 00 hr 14 min 03 sec)
Heartbeat CPU 0 instructions: 150000001 cycles: 37509850 heartbeat IPC: 3.999 cumulative IPC: 3.998 (Simulation time: 00 hr 15 min 05 sec)
Heartbeat CPU 0 instructions: 160000001 cycles: 40011119 heartbeat IPC: 3.998 cumulative IPC: 3.998 (Simulation time: 00 hr 16 min 08 sec)
Heartbeat CPU 0 instructions: 170000000 cycles: 42512029 heartbeat IPC: 3.999 cumulative IPC: 3.998 (Simulation time: 00 hr 17 min 10 sec)
Heartbeat CPU 0 instructions: 180000003 cycles: 45012495 heartbeat IPC: 3.999 cumulative IPC: 3.998 (Simulation time: 00 hr 18 min 13 sec)
Heartbeat CPU 0 instructions: 190000003 cycles: 47513293 heartbeat IPC: 3.999 cumulative IPC: 3.999 (Simulation time: 00 hr 19 min 14 sec)
Heartbeat CPU 0 instructions: 200000002 cycles: 50013563 heartbeat IPC: 4 cumulative IPC: 3.999 (Simulation time: 00 hr 20 min 17 sec)
Heartbeat CPU 0 instructions: 210000000 cycles: 52514983 heartbeat IPC: 3.998 cumulative IPC: 3.999 (Simulation time: 00 hr 21 min 18 sec)
Heartbeat CPU 0 instructions: 220000002 cycles: 55015223 heartbeat IPC: 4 cumulative IPC: 3.999 (Simulation time: 00 hr 22 min 20 sec)
Heartbeat CPU 0 instructions: 230000003 cycles: 57515948 heartbeat IPC: 3.999 cumulative IPC: 3.999 (Simulation time: 00 hr 23 min 22 sec)
Heartbeat CPU 0 instructions: 240000003 cycles: 88522520 heartbeat IPC: 0.3225 cumulative IPC: 2.499 (Simulation time: 00 hr 28 min 51 sec)
Heartbeat CPU 0 instructions: 250000000 cycles: 97521073 heartbeat IPC: 1.111 cumulative IPC: 2.352 (Simulation time: 00 hr 31 min 10 sec)
Heartbeat CPU 0 instructions: 260000003 cycles: 106511134 heartbeat IPC: 1.112 cumulative IPC: 2.234 (Simulation time: 00 hr 33 min 29 sec)
Heartbeat CPU 0 instructions: 270000004 cycles: 115784166 heartbeat IPC: 1.078 cumulative IPC: 2.13 (Simulation time: 00 hr 35 min 51 sec)
Heartbeat CPU 0 instructions: 280000003 cycles: 124308714 heartbeat IPC: 1.173 cumulative IPC: 2.057 (Simulation time: 00 hr 38 min 04 sec)
Heartbeat CPU 0 instructions: 290000000 cycles: 132727635 heartbeat IPC: 1.188 cumulative IPC: 1.996 (Simulation time: 00 hr 40 min 16 sec)
Heartbeat CPU 0 instructions: 300000003 cycles: 141200836 heartbeat IPC: 1.18 cumulative IPC: 1.942 (Simulation time: 00 hr 42 min 28 sec)
Heartbeat CPU 0 instructions: 310000002 cycles: 149576438 heartbeat IPC: 1.194 cumulative IPC: 1.897 (Simulation time: 00 hr 44 min 39 sec)
Heartbeat CPU 0 instructions: 320000002 cycles: 157948275 heartbeat IPC: 1.194 cumulative IPC: 1.856 (Simulation time: 00 hr 46 min 52 sec)
Heartbeat CPU 0 instructions: 330000002 cycles: 165978400 heartbeat IPC: 1.245 cumulative IPC: 1.824 (Simulation time: 00 hr 49 min 02 sec)
Heartbeat CPU 0 instructions: 340000001 cycles: 174092284 heartbeat IPC: 1.232 cumulative IPC: 1.795 (Simulation time: 00 hr 51 min 14 sec)
Heartbeat CPU 0 instructions: 350000001 cycles: 182182551 heartbeat IPC: 1.236 cumulative IPC: 1.768 (Simulation time: 00 hr 53 min 26 sec)
Heartbeat CPU 0 instructions: 360000001 cycles: 190352222 heartbeat IPC: 1.224 cumulative IPC: 1.743 (Simulation time: 00 hr 55 min 39 sec)
Heartbeat CPU 0 instructions: 370000002 cycles: 198412621 heartbeat IPC: 1.241 cumulative IPC: 1.721 (Simulation time: 00 hr 57 min 49 sec)
Heartbeat CPU 0 instructions: 380000001 cycles: 206742880 heartbeat IPC: 1.2 cumulative IPC: 1.699 (Simulation time: 01 hr 00 min 03 sec)
Heartbeat CPU 0 instructions: 390000003 cycles: 215603108 heartbeat IPC: 1.129 cumulative IPC: 1.674 (Simulation time: 01 hr 02 min 23 sec)
Heartbeat CPU 0 instructions: 400000004 cycles: 223786450 heartbeat IPC: 1.222 cumulative IPC: 1.657 (Simulation time: 01 hr 04 min 35 sec)
Heartbeat CPU 0 instructions: 410000001 cycles: 232442852 heartbeat IPC: 1.155 cumulative IPC: 1.637 (Simulation time: 01 hr 06 min 54 sec)
Heartbeat CPU 0 instructions: 420000000 cycles: 241189270 heartbeat IPC: 1.143 cumulative IPC: 1.618 (Simulation time: 01 hr 09 min 13 sec)
Heartbeat CPU 0 instructions: 430000003 cycles: 249901475 heartbeat IPC: 1.148 cumulative IPC: 1.601 (Simulation time: 01 hr 11 min 42 sec)
Heartbeat CPU 0 instructions: 440000003 cycles: 362470552 heartbeat IPC: 0.08883 cumulative IPC: 1.114 (Simulation time: 01 hr 34 min 09 sec)
Heartbeat CPU 0 instructions: 450000002 cycles: 371732196 heartbeat IPC: 1.08 cumulative IPC: 1.113 (Simulation time: 01 hr 36 min 32 sec)
Heartbeat CPU 0 instructions: 460000000 cycles: 381141632 heartbeat IPC: 1.063 cumulative IPC: 1.112 (Simulation time: 01 hr 38 min 57 sec)
Heartbeat CPU 0 instructions: 470000003 cycles: 390413756 heartbeat IPC: 1.079 cumulative IPC: 1.111 (Simulation time: 01 hr 41 min 22 sec)
Heartbeat CPU 0 instructions: 480000003 cycles: 399830610 heartbeat IPC: 1.062 cumulative IPC: 1.11 (Simulation time: 01 hr 43 min 48 sec)
Heartbeat CPU 0 instructions: 490000002 cycles: 409209006 heartbeat IPC: 1.066 cumulative IPC: 1.109 (Simulation time: 01 hr 46 min 14 sec)
Heartbeat CPU 0 instructions: 500000004 cycles: 426607285 heartbeat IPC: 0.5748 cumulative IPC: 1.087 (Simulation time: 01 hr 50 min 16 sec)
Heartbeat CPU 0 instructions: 510000004 cycles: 444458111 heartbeat IPC: 0.5602 cumulative IPC: 1.065 (Simulation time: 01 hr 54 min 25 sec)
Heartbeat CPU 0 instructions: 520000003 cycles: 462336052 heartbeat IPC: 0.5593 cumulative IPC: 1.045 (Simulation time: 01 hr 58 min 36 sec)
Heartbeat CPU 0 instructions: 530000000 cycles: 480042061 heartbeat IPC: 0.5648 cumulative IPC: 1.027 (Simulation time: 02 hr 02 min 44 sec)
Heartbeat CPU 0 instructions: 540000001 cycles: 497937657 heartbeat IPC: 0.5588 cumulative IPC: 1.009 (Simulation time: 02 hr 06 min 54 sec)
Heartbeat CPU 0 instructions: 550000000 cycles: 511059949 heartbeat IPC: 0.7621 cumulative IPC: 1.003 (Simulation time: 02 hr 10 min 04 sec)
Heartbeat CPU 0 instructions: 560000002 cycles: 522291450 heartbeat IPC: 0.8904 cumulative IPC: 1 (Simulation time: 02 hr 12 min 53 sec)
Heartbeat CPU 0 instructions: 570000000 cycles: 533334572 heartbeat IPC: 0.9055 cumulative IPC: 0.9984 (Simulation time: 02 hr 15 min 39 sec)
Heartbeat CPU 0 instructions: 580000001 cycles: 544475847 heartbeat IPC: 0.8976 cumulative IPC: 0.9963 (Simulation time: 02 hr 18 min 28 sec)
Heartbeat CPU 0 instructions: 590000000 cycles: 555665390 heartbeat IPC: 0.8937 cumulative IPC: 0.9942 (Simulation time: 02 hr 21 min 15 sec)
*** Reached end of trace: (0, "traces/lu.A.champsimtrace")
Heartbeat CPU 0 instructions: 600000001 cycles: 567044195 heartbeat IPC: 0.8788 cumulative IPC: 0.9918 (Simulation time: 02 hr 24 min 04 sec)
Heartbeat CPU 0 instructions: 610000004 cycles: 576752611 heartbeat IPC: 1.03 cumulative IPC: 0.9925 (Simulation time: 02 hr 26 min 40 sec)
Heartbeat CPU 0 instructions: 620000003 cycles: 579252611 heartbeat IPC: 4 cumulative IPC: 1.006 (Simulation time: 02 hr 27 min 42 sec)
Heartbeat CPU 0 instructions: 630000002 cycles: 581753358 heartbeat IPC: 3.999 cumulative IPC: 1.019 (Simulation time: 02 hr 28 min 44 sec)
Heartbeat CPU 0 instructions: 640000000 cycles: 584255763 heartbeat IPC: 3.996 cumulative IPC: 1.032 (Simulation time: 02 hr 29 min 47 sec)
Heartbeat CPU 0 instructions: 650000004 cycles: 586755763 heartbeat IPC: 4 cumulative IPC: 1.045 (Simulation time: 02 hr 30 min 51 sec)
Simulation finished CPU 0 instructions: 600000004 cycles: 574255561 cumulative IPC: 1.045 (Simulation time: 02 hr 30 min 51 sec)
Simulation complete CPU 0 instructions: 600000004 cycles: 574255561 cumulative IPC: 1.045 (Simulation time: 02 hr 30 min 51 sec)

ChampSim completed all CPUs

=== Simulation ===
CPU 0 runs traces/lu.A.champsimtrace
Region of Interest Statistics

CPU 0 cumulative IPC: 1.045 instructions: 600000004 cycles: 574255561
CPU 0 Branch Prediction Accuracy: 99.98% MPKI: 0.00408 Average ROB Occupancy at Mispredict: 126.6
Branch type MPKI
BRANCH_DIRECT_JUMP: 5e-06
BRANCH_INDIRECT: 7.83e-05
BRANCH_CONDITIONAL: 0.00394
BRANCH_DIRECT_CALL: 6.67e-06
BRANCH_INDIRECT_CALL: 3.5e-05
BRANCH_RETURN: 1.83e-05

LLC TOTAL        ACCESS:    6233725 HIT:     897528 MISS:    5336197
LLC LOAD         ACCESS:    2481922 HIT:     477715 MISS:    2004207
LLC RFO          ACCESS:     831686 HIT:      10317 MISS:     821369
LLC PREFETCH     ACCESS:    1125984 HIT:     300755 MISS:     825229
LLC WRITE        ACCESS:    1782325 HIT:     108441 MISS:    1673884
LLC TRANSLATION  ACCESS:      11808 HIT:        300 MISS:      11508
LLC PREFETCH REQUESTED:    1125984 ISSUED:    1125984 USEFUL:     535228 USELESS:      34567
LLC AVERAGE MISS LATENCY: 689.9 cycles
cpu0_DTLB TOTAL        ACCESS:  125881792 HIT:  118467512 MISS:    7414280
cpu0_DTLB LOAD         ACCESS:  125881792 HIT:  118467512 MISS:    7414280
cpu0_DTLB RFO          ACCESS:          0 HIT:          0 MISS:          0
cpu0_DTLB PREFETCH     ACCESS:          0 HIT:          0 MISS:          0
cpu0_DTLB WRITE        ACCESS:          0 HIT:          0 MISS:          0
cpu0_DTLB TRANSLATION  ACCESS:          0 HIT:          0 MISS:          0
cpu0_DTLB PREFETCH REQUESTED:          0 ISSUED:          0 USEFUL:          0 USELESS:          0
cpu0_DTLB AVERAGE MISS LATENCY: 6.874 cycles
cpu0_ITLB TOTAL        ACCESS:    1263984 HIT:    1263750 MISS:        234
cpu0_ITLB LOAD         ACCESS:    1263984 HIT:    1263750 MISS:        234
cpu0_ITLB RFO          ACCESS:          0 HIT:          0 MISS:          0
cpu0_ITLB PREFETCH     ACCESS:          0 HIT:          0 MISS:          0
cpu0_ITLB WRITE        ACCESS:          0 HIT:          0 MISS:          0
cpu0_ITLB TRANSLATION  ACCESS:          0 HIT:          0 MISS:          0
cpu0_ITLB PREFETCH REQUESTED:          0 ISSUED:          0 USEFUL:          0 USELESS:          0
cpu0_ITLB AVERAGE MISS LATENCY: 316.8 cycles
cpu0_L1D TOTAL        ACCESS:  180029225 HIT:  170221026 MISS:    9808199
cpu0_L1D LOAD         ACCESS:  142976554 HIT:  136995864 MISS:    5980690
cpu0_L1D RFO          ACCESS:          0 HIT:          0 MISS:          0
cpu0_L1D PREFETCH     ACCESS:          0 HIT:          0 MISS:          0
cpu0_L1D WRITE        ACCESS:   37000075 HIT:   33197458 MISS:    3802617
cpu0_L1D TRANSLATION  ACCESS:      52596 HIT:      27704 MISS:      24892
cpu0_L1D PREFETCH REQUESTED:          0 ISSUED:          0 USEFUL:          0 USELESS:          0
cpu0_L1D AVERAGE MISS LATENCY: 301 cycles
cpu0_L1I TOTAL        ACCESS:    1590015 HIT:    1587081 MISS:       2934
cpu0_L1I LOAD         ACCESS:    1590015 HIT:    1587081 MISS:       2934
cpu0_L1I RFO          ACCESS:          0 HIT:          0 MISS:          0
cpu0_L1I PREFETCH     ACCESS:          0 HIT:          0 MISS:          0
cpu0_L1I WRITE        ACCESS:          0 HIT:          0 MISS:          0
cpu0_L1I TRANSLATION  ACCESS:          0 HIT:          0 MISS:          0
cpu0_L1I PREFETCH REQUESTED:          0 ISSUED:          0 USEFUL:          0 USELESS:          0
cpu0_L1I AVERAGE MISS LATENCY: 545.1 cycles
cpu0_L2C TOTAL        ACCESS:    5941745 HIT:    2612089 MISS:    3329656
cpu0_L2C LOAD         ACCESS:    3053437 HIT:     571515 MISS:    2481922
cpu0_L2C RFO          ACCESS:     872187 HIT:      40501 MISS:     831686
cpu0_L2C PREFETCH     ACCESS:          0 HIT:          0 MISS:          0
cpu0_L2C WRITE        ACCESS:    1991277 HIT:    1987037 MISS:       4240
cpu0_L2C TRANSLATION  ACCESS:      24844 HIT:      13036 MISS:      11808
cpu0_L2C PREFETCH REQUESTED:          0 ISSUED:          0 USEFUL:          0 USELESS:          0
cpu0_L2C AVERAGE MISS LATENCY: 950.5 cycles
cpu0_STLB TOTAL        ACCESS:    4005202 HIT:    3952620 MISS:      52582
cpu0_STLB LOAD         ACCESS:    4005202 HIT:    3952620 MISS:      52582
cpu0_STLB RFO          ACCESS:          0 HIT:          0 MISS:          0
cpu0_STLB PREFETCH     ACCESS:          0 HIT:          0 MISS:          0
cpu0_STLB WRITE        ACCESS:          0 HIT:          0 MISS:          0
cpu0_STLB TRANSLATION  ACCESS:          0 HIT:          0 MISS:          0
cpu0_STLB PREFETCH REQUESTED:          0 ISSUED:          0 USEFUL:          0 USELESS:          0
cpu0_STLB AVERAGE MISS LATENCY: 822.7 cycles

DRAM Statistics

Channel 0 RQ ROW_BUFFER_HIT:     913271
  ROW_BUFFER_MISS:    2318204
 AVG DBUS CONGESTED CYCLE: 3.941
WQ ROW_BUFFER_HIT: Channel 0 
  ROW_BUFFER_MISS:     461437
  FULL:    1300534
