WARNING: physical memory size is smaller than virtual memory size.

*** ChampSim Multicore Out-of-Order Simulator ***
Warmup Instructions: 50000000
Simulation Instructions: 600000000
Number of CPUs: 1
Page size: 4096

CPU 0 Tage branch predictor
Off-chip DRAM Size: 4 GiB Channels: 1 Width: 64-bit Data Race: 3200 MT/s
Heartbeat CPU 0 instructions: 10000001 cycles: 2500202 heartbeat IPC: 4 cumulative IPC: 4 (Simulation time: 00 hr 00 min 52 sec)
Heartbeat CPU 0 instructions: 20000001 cycles: 5000202 heartbeat IPC: 4 cumulative IPC: 4 (Simulation time: 00 hr 01 min 49 sec)
Heartbeat CPU 0 instructions: 30000001 cycles: 7500202 heartbeat IPC: 4 cumulative IPC: 4 (Simulation time: 00 hr 02 min 48 sec)
Heartbeat CPU 0 instructions: 40000001 cycles: 10000202 heartbeat IPC: 4 cumulative IPC: 4 (Simulation time: 00 hr 03 min 45 sec)
Heartbeat CPU 0 instructions: 50000001 cycles: 12500202 heartbeat IPC: 4 cumulative IPC: 4 (Simulation time: 00 hr 04 min 51 sec)
Warmup finished CPU 0 instructions: 50000001 cycles: 12500203 cumulative IPC: 4 (Simulation time: 00 hr 04 min 51 sec)
Warmup complete CPU 0 instructions: 50000001 cycles: 12500203 cumulative IPC: 4 (Simulation time: 00 hr 04 min 51 sec)
Heartbeat CPU 0 instructions: 60000001 cycles: 15000954 heartbeat IPC: 3.999 cumulative IPC: 3.999 (Simulation time: 00 hr 06 min 04 sec)
Heartbeat CPU 0 instructions: 70000004 cycles: 17500957 heartbeat IPC: 4 cumulative IPC: 3.999 (Simulation time: 00 hr 07 min 13 sec)
Heartbeat CPU 0 instructions: 80000003 cycles: 20000955 heartbeat IPC: 4 cumulative IPC: 4 (Simulation time: 00 hr 08 min 22 sec)
Heartbeat CPU 0 instructions: 90000003 cycles: 22502672 heartbeat IPC: 3.997 cumulative IPC: 3.999 (Simulation time: 00 hr 09 min 28 sec)
Heartbeat CPU 0 instructions: 100000002 cycles: 25002861 heartbeat IPC: 4 cumulative IPC: 3.999 (Simulation time: 00 hr 10 min 27 sec)
Heartbeat CPU 0 instructions: 110000003 cycles: 27503291 heartbeat IPC: 3.999 cumulative IPC: 3.999 (Simulation time: 00 hr 11 min 30 sec)
Heartbeat CPU 0 instructions: 120000001 cycles: 30004226 heartbeat IPC: 3.999 cumulative IPC: 3.999 (Simulation time: 00 hr 12 min 42 sec)
Heartbeat CPU 0 instructions: 130000001 cycles: 32504225 heartbeat IPC: 4 cumulative IPC: 3.999 (Simulation time: 00 hr 13 min 51 sec)
Heartbeat CPU 0 instructions: 140000002 cycles: 35004225 heartbeat IPC: 4 cumulative IPC: 3.999 (Simulation time: 00 hr 14 min 50 sec)
Heartbeat CPU 0 instructions: 150000004 cycles: 37504226 heartbeat IPC: 4 cumulative IPC: 3.999 (Simulation time: 00 hr 16 min 25 sec)
Heartbeat CPU 0 instructions: 160000003 cycles: 40006084 heartbeat IPC: 3.997 cumulative IPC: 3.999 (Simulation time: 00 hr 17 min 21 sec)
Heartbeat CPU 0 instructions: 170000003 cycles: 42506460 heartbeat IPC: 3.999 cumulative IPC: 3.999 (Simulation time: 00 hr 18 min 33 sec)
Heartbeat CPU 0 instructions: 180000002 cycles: 45007207 heartbeat IPC: 3.999 cumulative IPC: 3.999 (Simulation time: 00 hr 20 min 07 sec)
Heartbeat CPU 0 instructions: 190000000 cycles: 47508401 heartbeat IPC: 3.998 cumulative IPC: 3.999 (Simulation time: 00 hr 21 min 10 sec)
Heartbeat CPU 0 instructions: 200000001 cycles: 50009033 heartbeat IPC: 3.999 cumulative IPC: 3.999 (Simulation time: 00 hr 22 min 31 sec)
Heartbeat CPU 0 instructions: 210000001 cycles: 52509530 heartbeat IPC: 3.999 cumulative IPC: 3.999 (Simulation time: 00 hr 23 min 38 sec)
Heartbeat CPU 0 instructions: 220000002 cycles: 55010191 heartbeat IPC: 3.999 cumulative IPC: 3.999 (Simulation time: 00 hr 24 min 40 sec)
Heartbeat CPU 0 instructions: 230000001 cycles: 57511077 heartbeat IPC: 3.999 cumulative IPC: 3.999 (Simulation time: 00 hr 25 min 39 sec)
Heartbeat CPU 0 instructions: 240000003 cycles: 90868391 heartbeat IPC: 0.2998 cumulative IPC: 2.424 (Simulation time: 00 hr 30 min 56 sec)
Heartbeat CPU 0 instructions: 250000004 cycles: 100167693 heartbeat IPC: 1.075 cumulative IPC: 2.281 (Simulation time: 00 hr 33 min 17 sec)
Heartbeat CPU 0 instructions: 260000004 cycles: 109217242 heartbeat IPC: 1.105 cumulative IPC: 2.171 (Simulation time: 00 hr 35 min 39 sec)
Heartbeat CPU 0 instructions: 270000001 cycles: 118076936 heartbeat IPC: 1.129 cumulative IPC: 2.084 (Simulation time: 00 hr 37 min 54 sec)
Heartbeat CPU 0 instructions: 280000003 cycles: 124467108 heartbeat IPC: 1.565 cumulative IPC: 2.054 (Simulation time: 00 hr 39 min 42 sec)
Heartbeat CPU 0 instructions: 290000004 cycles: 131112107 heartbeat IPC: 1.505 cumulative IPC: 2.023 (Simulation time: 00 hr 41 min 25 sec)
Heartbeat CPU 0 instructions: 300000000 cycles: 137664852 heartbeat IPC: 1.526 cumulative IPC: 1.997 (Simulation time: 00 hr 43 min 10 sec)
Heartbeat CPU 0 instructions: 310000002 cycles: 145154467 heartbeat IPC: 1.335 cumulative IPC: 1.96 (Simulation time: 00 hr 45 min 05 sec)
Heartbeat CPU 0 instructions: 320000001 cycles: 152030149 heartbeat IPC: 1.454 cumulative IPC: 1.935 (Simulation time: 00 hr 47 min 01 sec)
Heartbeat CPU 0 instructions: 330000001 cycles: 160118450 heartbeat IPC: 1.236 cumulative IPC: 1.897 (Simulation time: 00 hr 49 min 04 sec)
Heartbeat CPU 0 instructions: 340000000 cycles: 168193157 heartbeat IPC: 1.238 cumulative IPC: 1.863 (Simulation time: 00 hr 51 min 10 sec)
Heartbeat CPU 0 instructions: 350000001 cycles: 176354528 heartbeat IPC: 1.225 cumulative IPC: 1.831 (Simulation time: 00 hr 53 min 21 sec)
Heartbeat CPU 0 instructions: 360000003 cycles: 184575986 heartbeat IPC: 1.216 cumulative IPC: 1.802 (Simulation time: 00 hr 55 min 38 sec)
Heartbeat CPU 0 instructions: 370000000 cycles: 192532409 heartbeat IPC: 1.257 cumulative IPC: 1.777 (Simulation time: 00 hr 58 min 01 sec)
Heartbeat CPU 0 instructions: 380000000 cycles: 200973768 heartbeat IPC: 1.185 cumulative IPC: 1.751 (Simulation time: 01 hr 00 min 29 sec)
Heartbeat CPU 0 instructions: 390000000 cycles: 209816596 heartbeat IPC: 1.131 cumulative IPC: 1.723 (Simulation time: 01 hr 02 min 54 sec)
Heartbeat CPU 0 instructions: 400000003 cycles: 218785088 heartbeat IPC: 1.115 cumulative IPC: 1.697 (Simulation time: 01 hr 05 min 16 sec)
Heartbeat CPU 0 instructions: 410000001 cycles: 227802629 heartbeat IPC: 1.109 cumulative IPC: 1.672 (Simulation time: 01 hr 07 min 26 sec)
Heartbeat CPU 0 instructions: 420000002 cycles: 236831837 heartbeat IPC: 1.108 cumulative IPC: 1.649 (Simulation time: 01 hr 09 min 38 sec)
Heartbeat CPU 0 instructions: 430000002 cycles: 245868683 heartbeat IPC: 1.107 cumulative IPC: 1.628 (Simulation time: 01 hr 11 min 56 sec)
Heartbeat CPU 0 instructions: 440000002 cycles: 394568717 heartbeat IPC: 0.06725 cumulative IPC: 1.021 (Simulation time: 01 hr 40 min 30 sec)
Heartbeat CPU 0 instructions: 450000002 cycles: 405331304 heartbeat IPC: 0.9291 cumulative IPC: 1.018 (Simulation time: 01 hr 43 min 10 sec)
Heartbeat CPU 0 instructions: 460000004 cycles: 415986190 heartbeat IPC: 0.9385 cumulative IPC: 1.016 (Simulation time: 01 hr 45 min 39 sec)
Heartbeat CPU 0 instructions: 470000001 cycles: 426591297 heartbeat IPC: 0.9429 cumulative IPC: 1.014 (Simulation time: 01 hr 48 min 05 sec)
Heartbeat CPU 0 instructions: 480000001 cycles: 436913426 heartbeat IPC: 0.9688 cumulative IPC: 1.013 (Simulation time: 01 hr 50 min 30 sec)
Heartbeat CPU 0 instructions: 490000002 cycles: 447998198 heartbeat IPC: 0.9021 cumulative IPC: 1.01 (Simulation time: 01 hr 53 min 03 sec)
Heartbeat CPU 0 instructions: 500000000 cycles: 462694079 heartbeat IPC: 0.6805 cumulative IPC: 0.9996 (Simulation time: 01 hr 56 min 19 sec)
Heartbeat CPU 0 instructions: 510000001 cycles: 477657187 heartbeat IPC: 0.6683 cumulative IPC: 0.9889 (Simulation time: 01 hr 59 min 32 sec)
Heartbeat CPU 0 instructions: 520000004 cycles: 492806188 heartbeat IPC: 0.6601 cumulative IPC: 0.9785 (Simulation time: 02 hr 02 min 57 sec)
Heartbeat CPU 0 instructions: 530000002 cycles: 507744083 heartbeat IPC: 0.6694 cumulative IPC: 0.9692 (Simulation time: 02 hr 06 min 48 sec)
Heartbeat CPU 0 instructions: 540000003 cycles: 522285800 heartbeat IPC: 0.6877 cumulative IPC: 0.9612 (Simulation time: 02 hr 09 min 57 sec)
Heartbeat CPU 0 instructions: 550000002 cycles: 532787812 heartbeat IPC: 0.9522 cumulative IPC: 0.961 (Simulation time: 02 hr 12 min 19 sec)
Heartbeat CPU 0 instructions: 560000001 cycles: 542751667 heartbeat IPC: 1.004 cumulative IPC: 0.9618 (Simulation time: 02 hr 14 min 41 sec)
Heartbeat CPU 0 instructions: 570000001 cycles: 552683887 heartbeat IPC: 1.007 cumulative IPC: 0.9626 (Simulation time: 02 hr 17 min 06 sec)
Heartbeat CPU 0 instructions: 580000001 cycles: 562703128 heartbeat IPC: 0.9981 cumulative IPC: 0.9633 (Simulation time: 02 hr 19 min 45 sec)
Heartbeat CPU 0 instructions: 590000000 cycles: 572680980 heartbeat IPC: 1.002 cumulative IPC: 0.964 (Simulation time: 02 hr 23 min 21 sec)
*** Reached end of trace: (0, "traces/lu.A.champsimtrace")
Heartbeat CPU 0 instructions: 600000001 cycles: 582889268 heartbeat IPC: 0.9796 cumulative IPC: 0.9643 (Simulation time: 02 hr 25 min 57 sec)
Heartbeat CPU 0 instructions: 610000003 cycles: 590218068 heartbeat IPC: 1.364 cumulative IPC: 0.9693 (Simulation time: 02 hr 27 min 46 sec)
Heartbeat CPU 0 instructions: 620000001 cycles: 592718799 heartbeat IPC: 3.999 cumulative IPC: 0.9824 (Simulation time: 02 hr 29 min 01 sec)
Heartbeat CPU 0 instructions: 630000001 cycles: 595219045 heartbeat IPC: 4 cumulative IPC: 0.9953 (Simulation time: 02 hr 30 min 13 sec)
Heartbeat CPU 0 instructions: 640000000 cycles: 597719045 heartbeat IPC: 4 cumulative IPC: 1.008 (Simulation time: 02 hr 31 min 22 sec)
Heartbeat CPU 0 instructions: 650000000 cycles: 600219044 heartbeat IPC: 4 cumulative IPC: 1.021 (Simulation time: 02 hr 32 min 32 sec)
Simulation finished CPU 0 instructions: 600000004 cycles: 587718843 cumulative IPC: 1.021 (Simulation time: 02 hr 32 min 32 sec)
Simulation complete CPU 0 instructions: 600000004 cycles: 587718843 cumulative IPC: 1.021 (Simulation time: 02 hr 32 min 32 sec)

ChampSim completed all CPUs

=== Simulation ===
CPU 0 runs traces/lu.A.champsimtrace
Region of Interest Statistics

CPU 0 cumulative IPC: 1.021 instructions: 600000004 cycles: 587718843
CPU 0 Branch Prediction Accuracy: 99.98% MPKI: 0.00386 Average ROB Occupancy at Mispredict: 114.3
Branch type MPKI
BRANCH_DIRECT_JUMP: 5e-06
BRANCH_INDIRECT: 8e-05
BRANCH_CONDITIONAL: 0.00372
BRANCH_DIRECT_CALL: 6.67e-06
BRANCH_INDIRECT_CALL: 3.17e-05
BRANCH_RETURN: 1.67e-05

LLC TOTAL        ACCESS:    7730566 HIT:    2634320 MISS:    5096246
LLC LOAD         ACCESS:    2482893 HIT:    1387341 MISS:    1095552
LLC RFO          ACCESS:     831664 HIT:      47630 MISS:     784034
LLC PREFETCH     ACCESS:    2620948 HIT:     179153 MISS:    2441795
LLC WRITE        ACCESS:    1783153 HIT:    1018047 MISS:     765106
LLC TRANSLATION  ACCESS:      11908 HIT:       2149 MISS:       9759
LLC PREFETCH REQUESTED:    4364888 ISSUED:    2620948 USEFUL:    1750936 USELESS:      47464
LLC AVERAGE MISS LATENCY: 1399 cycles
cpu0_DTLB TOTAL        ACCESS:  124653710 HIT:  117284628 MISS:    7369082
cpu0_DTLB LOAD         ACCESS:  124653710 HIT:  117284628 MISS:    7369082
cpu0_DTLB RFO          ACCESS:          0 HIT:          0 MISS:          0
cpu0_DTLB PREFETCH     ACCESS:          0 HIT:          0 MISS:          0
cpu0_DTLB WRITE        ACCESS:          0 HIT:          0 MISS:          0
cpu0_DTLB TRANSLATION  ACCESS:          0 HIT:          0 MISS:          0
cpu0_DTLB PREFETCH REQUESTED:          0 ISSUED:          0 USEFUL:          0 USELESS:          0
cpu0_DTLB AVERAGE MISS LATENCY: 7.929 cycles
cpu0_ITLB TOTAL        ACCESS:    1255883 HIT:    1255671 MISS:        212
cpu0_ITLB LOAD         ACCESS:    1255883 HIT:    1255671 MISS:        212
cpu0_ITLB RFO          ACCESS:          0 HIT:          0 MISS:          0
cpu0_ITLB PREFETCH     ACCESS:          0 HIT:          0 MISS:          0
cpu0_ITLB WRITE        ACCESS:          0 HIT:          0 MISS:          0
cpu0_ITLB TRANSLATION  ACCESS:          0 HIT:          0 MISS:          0
cpu0_ITLB PREFETCH REQUESTED:          0 ISSUED:          0 USEFUL:          0 USELESS:          0
cpu0_ITLB AVERAGE MISS LATENCY: 399.9 cycles
cpu0_L1D TOTAL        ACCESS:  178463017 HIT:  168863875 MISS:    9599142
cpu0_L1D LOAD         ACCESS:  141411362 HIT:  135633058 MISS:    5778304
cpu0_L1D RFO          ACCESS:          0 HIT:          0 MISS:          0
cpu0_L1D PREFETCH     ACCESS:          0 HIT:          0 MISS:          0
cpu0_L1D WRITE        ACCESS:   36999065 HIT:   33203101 MISS:    3795964
cpu0_L1D TRANSLATION  ACCESS:      52590 HIT:      27716 MISS:      24874
cpu0_L1D PREFETCH REQUESTED:          0 ISSUED:          0 USEFUL:          0 USELESS:          0
cpu0_L1D AVERAGE MISS LATENCY: 295.7 cycles
cpu0_L1I TOTAL        ACCESS:    1576647 HIT:    1573779 MISS:       2868
cpu0_L1I LOAD         ACCESS:    1576647 HIT:    1573779 MISS:       2868
cpu0_L1I RFO          ACCESS:          0 HIT:          0 MISS:          0
cpu0_L1I PREFETCH     ACCESS:          0 HIT:          0 MISS:          0
cpu0_L1I WRITE        ACCESS:          0 HIT:          0 MISS:          0
cpu0_L1I TRANSLATION  ACCESS:          0 HIT:          0 MISS:          0
cpu0_L1I PREFETCH REQUESTED:          0 ISSUED:          0 USEFUL:          0 USELESS:          0
cpu0_L1I AVERAGE MISS LATENCY: 502.5 cycles
cpu0_L2C TOTAL        ACCESS:    5980269 HIT:    2649619 MISS:    3330650
cpu0_L2C LOAD         ACCESS:    3075398 HIT:     592505 MISS:    2482893
cpu0_L2C RFO          ACCESS:     877430 HIT:      45766 MISS:     831664
cpu0_L2C PREFETCH     ACCESS:          0 HIT:          0 MISS:          0
cpu0_L2C WRITE        ACCESS:    2002623 HIT:    1998438 MISS:       4185
cpu0_L2C TRANSLATION  ACCESS:      24818 HIT:      12910 MISS:      11908
cpu0_L2C PREFETCH REQUESTED:          0 ISSUED:          0 USEFUL:          0 USELESS:          0
cpu0_L2C AVERAGE MISS LATENCY: 915.1 cycles
cpu0_STLB TOTAL        ACCESS:    3992006 HIT:    3939424 MISS:      52582
cpu0_STLB LOAD         ACCESS:    3992006 HIT:    3939424 MISS:      52582
cpu0_STLB RFO          ACCESS:          0 HIT:          0 MISS:          0
cpu0_STLB PREFETCH     ACCESS:          0 HIT:          0 MISS:          0
cpu0_STLB WRITE        ACCESS:          0 HIT:          0 MISS:          0
cpu0_STLB TRANSLATION  ACCESS:          0 HIT:          0 MISS:          0
cpu0_STLB PREFETCH REQUESTED:          0 ISSUED:          0 USEFUL:          0 USELESS:          0
cpu0_STLB AVERAGE MISS LATENCY: 993.9 cycles

DRAM Statistics

Channel 0 RQ ROW_BUFFER_HIT:     748863
  ROW_BUFFER_MISS:    2440603
 AVG DBUS CONGESTED CYCLE: 3.974
WQ ROW_BUFFER_HIT: Channel 0 
  ROW_BUFFER_MISS:     309543
  FULL:    1392738
