WARNING: physical memory size is smaller than virtual memory size.

*** ChampSim Multicore Out-of-Order Simulator ***
Warmup Instructions: 50000000
Simulation Instructions: 600000000
Number of CPUs: 1
Page size: 4096

CPU 0 Tage branch predictor
Off-chip DRAM Size: 4 GiB Channels: 1 Width: 64-bit Data Race: 3200 MT/s
Heartbeat CPU 0 instructions: 10000000 cycles: 2500202 heartbeat IPC: 4 cumulative IPC: 4 (Simulation time: 00 hr 00 min 57 sec)
Heartbeat CPU 0 instructions: 20000000 cycles: 5000202 heartbeat IPC: 4 cumulative IPC: 4 (Simulation time: 00 hr 01 min 46 sec)
Heartbeat CPU 0 instructions: 30000000 cycles: 7500202 heartbeat IPC: 4 cumulative IPC: 4 (Simulation time: 00 hr 02 min 34 sec)
Heartbeat CPU 0 instructions: 40000000 cycles: 10000202 heartbeat IPC: 4 cumulative IPC: 4 (Simulation time: 00 hr 03 min 22 sec)
Heartbeat CPU 0 instructions: 50000000 cycles: 12500202 heartbeat IPC: 4 cumulative IPC: 4 (Simulation time: 00 hr 04 min 12 sec)
Warmup finished CPU 0 instructions: 50000000 cycles: 12500203 cumulative IPC: 4 (Simulation time: 00 hr 04 min 12 sec)
Warmup complete CPU 0 instructions: 50000000 cycles: 12500203 cumulative IPC: 4 (Simulation time: 00 hr 04 min 12 sec)
Heartbeat CPU 0 instructions: 60000004 cycles: 15000468 heartbeat IPC: 4 cumulative IPC: 4 (Simulation time: 00 hr 05 min 07 sec)
Heartbeat CPU 0 instructions: 70000001 cycles: 17502052 heartbeat IPC: 3.997 cumulative IPC: 3.999 (Simulation time: 00 hr 06 min 03 sec)
Heartbeat CPU 0 instructions: 80000004 cycles: 20003437 heartbeat IPC: 3.998 cumulative IPC: 3.998 (Simulation time: 00 hr 06 min 57 sec)
Heartbeat CPU 0 instructions: 90000000 cycles: 22503975 heartbeat IPC: 3.999 cumulative IPC: 3.998 (Simulation time: 00 hr 07 min 53 sec)
Heartbeat CPU 0 instructions: 100000004 cycles: 25004477 heartbeat IPC: 3.999 cumulative IPC: 3.999 (Simulation time: 00 hr 08 min 47 sec)
Heartbeat CPU 0 instructions: 110000003 cycles: 27506808 heartbeat IPC: 3.996 cumulative IPC: 3.998 (Simulation time: 00 hr 09 min 42 sec)
Heartbeat CPU 0 instructions: 120000004 cycles: 30008259 heartbeat IPC: 3.998 cumulative IPC: 3.998 (Simulation time: 00 hr 10 min 38 sec)
Heartbeat CPU 0 instructions: 130000004 cycles: 32509049 heartbeat IPC: 3.999 cumulative IPC: 3.998 (Simulation time: 00 hr 11 min 31 sec)
Heartbeat CPU 0 instructions: 140000004 cycles: 35009277 heartbeat IPC: 4 cumulative IPC: 3.998 (Simulation time: 00 hr 12 min 26 sec)
Heartbeat CPU 0 instructions: 150000000 cycles: 37510198 heartbeat IPC: 3.999 cumulative IPC: 3.998 (Simulation time: 00 hr 13 min 21 sec)
Heartbeat CPU 0 instructions: 160000001 cycles: 40011677 heartbeat IPC: 3.998 cumulative IPC: 3.998 (Simulation time: 00 hr 14 min 16 sec)
Heartbeat CPU 0 instructions: 170000000 cycles: 42512617 heartbeat IPC: 3.998 cumulative IPC: 3.998 (Simulation time: 00 hr 15 min 12 sec)
Heartbeat CPU 0 instructions: 180000003 cycles: 45013700 heartbeat IPC: 3.998 cumulative IPC: 3.998 (Simulation time: 00 hr 16 min 07 sec)
Heartbeat CPU 0 instructions: 190000003 cycles: 47514320 heartbeat IPC: 3.999 cumulative IPC: 3.998 (Simulation time: 00 hr 17 min 03 sec)
Heartbeat CPU 0 instructions: 200000002 cycles: 50016040 heartbeat IPC: 3.997 cumulative IPC: 3.998 (Simulation time: 00 hr 17 min 58 sec)
Heartbeat CPU 0 instructions: 210000000 cycles: 52516698 heartbeat IPC: 3.999 cumulative IPC: 3.998 (Simulation time: 00 hr 18 min 54 sec)
Heartbeat CPU 0 instructions: 220000002 cycles: 55017009 heartbeat IPC: 4 cumulative IPC: 3.998 (Simulation time: 00 hr 19 min 50 sec)
Heartbeat CPU 0 instructions: 230000003 cycles: 57519249 heartbeat IPC: 3.996 cumulative IPC: 3.998 (Simulation time: 00 hr 20 min 46 sec)
Heartbeat CPU 0 instructions: 240000002 cycles: 88725128 heartbeat IPC: 0.3205 cumulative IPC: 2.493 (Simulation time: 00 hr 25 min 43 sec)
Heartbeat CPU 0 instructions: 250000000 cycles: 97809671 heartbeat IPC: 1.101 cumulative IPC: 2.344 (Simulation time: 00 hr 27 min 51 sec)
Heartbeat CPU 0 instructions: 260000003 cycles: 106862134 heartbeat IPC: 1.105 cumulative IPC: 2.225 (Simulation time: 00 hr 29 min 57 sec)
Heartbeat CPU 0 instructions: 270000004 cycles: 114899237 heartbeat IPC: 1.244 cumulative IPC: 2.148 (Simulation time: 00 hr 31 min 54 sec)
Heartbeat CPU 0 instructions: 280000003 cycles: 120826755 heartbeat IPC: 1.687 cumulative IPC: 2.123 (Simulation time: 00 hr 33 min 29 sec)
Heartbeat CPU 0 instructions: 290000000 cycles: 125933744 heartbeat IPC: 1.958 cumulative IPC: 2.116 (Simulation time: 00 hr 34 min 55 sec)
Heartbeat CPU 0 instructions: 300000003 cycles: 130939351 heartbeat IPC: 1.998 cumulative IPC: 2.111 (Simulation time: 00 hr 36 min 22 sec)
Heartbeat CPU 0 instructions: 310000003 cycles: 135933645 heartbeat IPC: 2.002 cumulative IPC: 2.106 (Simulation time: 00 hr 37 min 48 sec)
Heartbeat CPU 0 instructions: 320000003 cycles: 141608300 heartbeat IPC: 1.762 cumulative IPC: 2.091 (Simulation time: 00 hr 39 min 20 sec)
Heartbeat CPU 0 instructions: 330000002 cycles: 149360279 heartbeat IPC: 1.29 cumulative IPC: 2.046 (Simulation time: 00 hr 41 min 18 sec)
Heartbeat CPU 0 instructions: 340000001 cycles: 157063087 heartbeat IPC: 1.298 cumulative IPC: 2.006 (Simulation time: 00 hr 43 min 17 sec)
Heartbeat CPU 0 instructions: 350000001 cycles: 164836503 heartbeat IPC: 1.286 cumulative IPC: 1.969 (Simulation time: 00 hr 45 min 15 sec)
Heartbeat CPU 0 instructions: 360000001 cycles: 172621675 heartbeat IPC: 1.284 cumulative IPC: 1.936 (Simulation time: 00 hr 47 min 16 sec)
Heartbeat CPU 0 instructions: 370000001 cycles: 180342766 heartbeat IPC: 1.295 cumulative IPC: 1.907 (Simulation time: 00 hr 49 min 17 sec)
Heartbeat CPU 0 instructions: 380000001 cycles: 188951742 heartbeat IPC: 1.162 cumulative IPC: 1.87 (Simulation time: 00 hr 51 min 29 sec)
Heartbeat CPU 0 instructions: 390000003 cycles: 198239369 heartbeat IPC: 1.077 cumulative IPC: 1.831 (Simulation time: 00 hr 53 min 49 sec)
Heartbeat CPU 0 instructions: 400000004 cycles: 207506263 heartbeat IPC: 1.079 cumulative IPC: 1.795 (Simulation time: 00 hr 56 min 11 sec)
Heartbeat CPU 0 instructions: 410000004 cycles: 217517906 heartbeat IPC: 0.9988 cumulative IPC: 1.756 (Simulation time: 00 hr 58 min 39 sec)
Heartbeat CPU 0 instructions: 420000000 cycles: 227587592 heartbeat IPC: 0.9931 cumulative IPC: 1.72 (Simulation time: 01 hr 01 min 08 sec)
Heartbeat CPU 0 instructions: 430000003 cycles: 236997322 heartbeat IPC: 1.063 cumulative IPC: 1.693 (Simulation time: 01 hr 03 min 30 sec)
Heartbeat CPU 0 instructions: 440000004 cycles: 376723450 heartbeat IPC: 0.07157 cumulative IPC: 1.071 (Simulation time: 01 hr 30 min 14 sec)
Heartbeat CPU 0 instructions: 450000002 cycles: 385580367 heartbeat IPC: 1.129 cumulative IPC: 1.072 (Simulation time: 01 hr 32 min 28 sec)
Heartbeat CPU 0 instructions: 460000000 cycles: 394752514 heartbeat IPC: 1.09 cumulative IPC: 1.073 (Simulation time: 01 hr 34 min 48 sec)
Heartbeat CPU 0 instructions: 470000003 cycles: 403868953 heartbeat IPC: 1.097 cumulative IPC: 1.073 (Simulation time: 01 hr 37 min 07 sec)
Heartbeat CPU 0 instructions: 480000003 cycles: 413119358 heartbeat IPC: 1.081 cumulative IPC: 1.073 (Simulation time: 01 hr 39 min 26 sec)
Heartbeat CPU 0 instructions: 490000002 cycles: 422448136 heartbeat IPC: 1.072 cumulative IPC: 1.073 (Simulation time: 01 hr 41 min 47 sec)
Heartbeat CPU 0 instructions: 500000003 cycles: 440639288 heartbeat IPC: 0.5497 cumulative IPC: 1.051 (Simulation time: 01 hr 45 min 50 sec)
Heartbeat CPU 0 instructions: 510000003 cycles: 459790692 heartbeat IPC: 0.5222 cumulative IPC: 1.028 (Simulation time: 01 hr 50 min 05 sec)
Heartbeat CPU 0 instructions: 520000003 cycles: 479127822 heartbeat IPC: 0.5171 cumulative IPC: 1.007 (Simulation time: 01 hr 54 min 21 sec)
Heartbeat CPU 0 instructions: 530000000 cycles: 497999097 heartbeat IPC: 0.5299 cumulative IPC: 0.9887 (Simulation time: 01 hr 58 min 53 sec)
Heartbeat CPU 0 instructions: 540000001 cycles: 517450390 heartbeat IPC: 0.5141 cumulative IPC: 0.9704 (Simulation time: 02 hr 03 min 20 sec)
Heartbeat CPU 0 instructions: 550000000 cycles: 530902408 heartbeat IPC: 0.7434 cumulative IPC: 0.9645 (Simulation time: 02 hr 06 min 32 sec)
Heartbeat CPU 0 instructions: 560000002 cycles: 542602886 heartbeat IPC: 0.8547 cumulative IPC: 0.9621 (Simulation time: 02 hr 09 min 21 sec)
Heartbeat CPU 0 instructions: 570000000 cycles: 554291857 heartbeat IPC: 0.8555 cumulative IPC: 0.9598 (Simulation time: 02 hr 12 min 10 sec)
Heartbeat CPU 0 instructions: 580000001 cycles: 565941961 heartbeat IPC: 0.8584 cumulative IPC: 0.9576 (Simulation time: 02 hr 15 min 03 sec)
Heartbeat CPU 0 instructions: 590000000 cycles: 577347269 heartbeat IPC: 0.8768 cumulative IPC: 0.956 (Simulation time: 02 hr 17 min 50 sec)
*** Reached end of trace: (0, "traces/lu.A.champsimtrace")
Heartbeat CPU 0 instructions: 600000001 cycles: 589271860 heartbeat IPC: 0.8386 cumulative IPC: 0.9536 (Simulation time: 02 hr 20 min 47 sec)
Heartbeat CPU 0 instructions: 610000004 cycles: 598372576 heartbeat IPC: 1.099 cumulative IPC: 0.9558 (Simulation time: 02 hr 23 min 07 sec)
Heartbeat CPU 0 instructions: 620000003 cycles: 600876392 heartbeat IPC: 3.994 cumulative IPC: 0.9688 (Simulation time: 02 hr 24 min 10 sec)
Heartbeat CPU 0 instructions: 630000002 cycles: 603377881 heartbeat IPC: 3.998 cumulative IPC: 0.9816 (Simulation time: 02 hr 25 min 13 sec)
Heartbeat CPU 0 instructions: 640000000 cycles: 605878560 heartbeat IPC: 3.999 cumulative IPC: 0.9943 (Simulation time: 02 hr 26 min 16 sec)
Heartbeat CPU 0 instructions: 650000004 cycles: 608379805 heartbeat IPC: 3.998 cumulative IPC: 1.007 (Simulation time: 02 hr 27 min 18 sec)
Simulation finished CPU 0 instructions: 600000004 cycles: 595879603 cumulative IPC: 1.007 (Simulation time: 02 hr 27 min 18 sec)
Simulation complete CPU 0 instructions: 600000004 cycles: 595879603 cumulative IPC: 1.007 (Simulation time: 02 hr 27 min 18 sec)

ChampSim completed all CPUs

=== Simulation ===
CPU 0 runs traces/lu.A.champsimtrace
Region of Interest Statistics

CPU 0 cumulative IPC: 1.007 instructions: 600000004 cycles: 595879603
CPU 0 Branch Prediction Accuracy: 99.98% MPKI: 0.00408 Average ROB Occupancy at Mispredict: 128
Branch type MPKI
BRANCH_DIRECT_JUMP: 5e-06
BRANCH_INDIRECT: 7.83e-05
BRANCH_CONDITIONAL: 0.00394
BRANCH_DIRECT_CALL: 6.67e-06
BRANCH_INDIRECT_CALL: 3.5e-05
BRANCH_RETURN: 1.83e-05

LLC TOTAL        ACCESS:    7693898 HIT:    1595284 MISS:    6098614
LLC LOAD         ACCESS:    2482012 HIT:    1258985 MISS:    1223027
LLC RFO          ACCESS:     831689 HIT:      63743 MISS:     767946
LLC PREFETCH     ACCESS:    2586071 HIT:     141183 MISS:    2444888
LLC WRITE        ACCESS:    1782313 HIT:     131318 MISS:    1650995
LLC TRANSLATION  ACCESS:      11813 HIT:         55 MISS:      11758
LLC PREFETCH REQUESTED:    3613886 ISSUED:    2586071 USEFUL:    1682388 USELESS:     142710
LLC AVERAGE MISS LATENCY: 1037 cycles
cpu0_DTLB TOTAL        ACCESS:  124876735 HIT:  117503623 MISS:    7373112
cpu0_DTLB LOAD         ACCESS:  124876735 HIT:  117503623 MISS:    7373112
cpu0_DTLB RFO          ACCESS:          0 HIT:          0 MISS:          0
cpu0_DTLB PREFETCH     ACCESS:          0 HIT:          0 MISS:          0
cpu0_DTLB WRITE        ACCESS:          0 HIT:          0 MISS:          0
cpu0_DTLB TRANSLATION  ACCESS:          0 HIT:          0 MISS:          0
cpu0_DTLB PREFETCH REQUESTED:          0 ISSUED:          0 USEFUL:          0 USELESS:          0
cpu0_DTLB AVERAGE MISS LATENCY: 8.349 cycles
cpu0_ITLB TOTAL        ACCESS:    1259410 HIT:    1259183 MISS:        227
cpu0_ITLB LOAD         ACCESS:    1259410 HIT:    1259183 MISS:        227
cpu0_ITLB RFO          ACCESS:          0 HIT:          0 MISS:          0
cpu0_ITLB PREFETCH     ACCESS:          0 HIT:          0 MISS:          0
cpu0_ITLB WRITE        ACCESS:          0 HIT:          0 MISS:          0
cpu0_ITLB TRANSLATION  ACCESS:          0 HIT:          0 MISS:          0
cpu0_ITLB PREFETCH REQUESTED:          0 ISSUED:          0 USEFUL:          0 USELESS:          0
cpu0_ITLB AVERAGE MISS LATENCY: 364.1 cycles
cpu0_L1D TOTAL        ACCESS:  178574307 HIT:  169036894 MISS:    9537413
cpu0_L1D LOAD         ACCESS:  141521901 HIT:  135750486 MISS:    5771415
cpu0_L1D RFO          ACCESS:          0 HIT:          0 MISS:          0
cpu0_L1D PREFETCH     ACCESS:          0 HIT:          0 MISS:          0
cpu0_L1D WRITE        ACCESS:   36999811 HIT:   33258706 MISS:    3741105
cpu0_L1D TRANSLATION  ACCESS:      52595 HIT:      27702 MISS:      24893
cpu0_L1D PREFETCH REQUESTED:          0 ISSUED:          0 USEFUL:          0 USELESS:          0
cpu0_L1D AVERAGE MISS LATENCY: 278.8 cycles
cpu0_L1I TOTAL        ACCESS:    1578532 HIT:    1575615 MISS:       2917
cpu0_L1I LOAD         ACCESS:    1578532 HIT:    1575615 MISS:       2917
cpu0_L1I RFO          ACCESS:          0 HIT:          0 MISS:          0
cpu0_L1I PREFETCH     ACCESS:          0 HIT:          0 MISS:          0
cpu0_L1I WRITE        ACCESS:          0 HIT:          0 MISS:          0
cpu0_L1I TRANSLATION  ACCESS:          0 HIT:          0 MISS:          0
cpu0_L1I PREFETCH REQUESTED:          0 ISSUED:          0 USEFUL:          0 USELESS:          0
cpu0_L1I AVERAGE MISS LATENCY: 470.7 cycles
cpu0_L2C TOTAL        ACCESS:    5961991 HIT:    2632484 MISS:    3329507
cpu0_L2C LOAD         ACCESS:    3070100 HIT:     588088 MISS:    2482012
cpu0_L2C RFO          ACCESS:     872967 HIT:      41278 MISS:     831689
cpu0_L2C PREFETCH     ACCESS:          0 HIT:          0 MISS:          0
cpu0_L2C WRITE        ACCESS:    1994082 HIT:    1990089 MISS:       3993
cpu0_L2C TRANSLATION  ACCESS:      24842 HIT:      13029 MISS:      11813
cpu0_L2C PREFETCH REQUESTED:          0 ISSUED:          0 USEFUL:          0 USELESS:          0
cpu0_L2C AVERAGE MISS LATENCY: 860.2 cycles
cpu0_STLB TOTAL        ACCESS:    4004195 HIT:    3951613 MISS:      52582
cpu0_STLB LOAD         ACCESS:    4004195 HIT:    3951613 MISS:      52582
cpu0_STLB RFO          ACCESS:          0 HIT:          0 MISS:          0
cpu0_STLB PREFETCH     ACCESS:          0 HIT:          0 MISS:          0
cpu0_STLB WRITE        ACCESS:          0 HIT:          0 MISS:          0
cpu0_STLB TRANSLATION  ACCESS:          0 HIT:          0 MISS:          0
cpu0_STLB PREFETCH REQUESTED:          0 ISSUED:          0 USEFUL:          0 USELESS:          0
cpu0_STLB AVERAGE MISS LATENCY: 1065 cycles

DRAM Statistics

Channel 0 RQ ROW_BUFFER_HIT:     846581
  ROW_BUFFER_MISS:    2451037
 AVG DBUS CONGESTED CYCLE: 3.971
WQ ROW_BUFFER_HIT: Channel 0 
  ROW_BUFFER_MISS:     455297
  FULL:    1293780
