WARNING: physical memory size is smaller than virtual memory size.

*** ChampSim Multicore Out-of-Order Simulator ***
Warmup Instructions: 50000000
Simulation Instructions: 600000000
Number of CPUs: 1
Page size: 4096

Off-chip DRAM Size: 4 GiB Channels: 1 Width: 64-bit Data Race: 3200 MT/s
Heartbeat CPU 0 instructions: 10000000 cycles: 2500202 heartbeat IPC: 4 cumulative IPC: 4 (Simulation time: 00 hr 00 min 33 sec)
Heartbeat CPU 0 instructions: 20000000 cycles: 5000202 heartbeat IPC: 4 cumulative IPC: 4 (Simulation time: 00 hr 01 min 05 sec)
Heartbeat CPU 0 instructions: 30000000 cycles: 7500202 heartbeat IPC: 4 cumulative IPC: 4 (Simulation time: 00 hr 01 min 38 sec)
Heartbeat CPU 0 instructions: 40000000 cycles: 10000202 heartbeat IPC: 4 cumulative IPC: 4 (Simulation time: 00 hr 02 min 11 sec)
Heartbeat CPU 0 instructions: 50000000 cycles: 12500202 heartbeat IPC: 4 cumulative IPC: 4 (Simulation time: 00 hr 02 min 45 sec)
Warmup finished CPU 0 instructions: 50000000 cycles: 12500203 cumulative IPC: 4 (Simulation time: 00 hr 02 min 45 sec)
Warmup complete CPU 0 instructions: 50000000 cycles: 12500203 cumulative IPC: 4 (Simulation time: 00 hr 02 min 45 sec)
Heartbeat CPU 0 instructions: 60000004 cycles: 15134822 heartbeat IPC: 3.796 cumulative IPC: 3.796 (Simulation time: 00 hr 03 min 22 sec)
Heartbeat CPU 0 instructions: 70000003 cycles: 17769446 heartbeat IPC: 3.796 cumulative IPC: 3.796 (Simulation time: 00 hr 04 min 01 sec)
Heartbeat CPU 0 instructions: 80000003 cycles: 20404525 heartbeat IPC: 3.795 cumulative IPC: 3.795 (Simulation time: 00 hr 04 min 40 sec)
Heartbeat CPU 0 instructions: 90000004 cycles: 23039175 heartbeat IPC: 3.796 cumulative IPC: 3.795 (Simulation time: 00 hr 05 min 18 sec)
Heartbeat CPU 0 instructions: 100000002 cycles: 25673782 heartbeat IPC: 3.796 cumulative IPC: 3.795 (Simulation time: 00 hr 05 min 58 sec)
Heartbeat CPU 0 instructions: 110000003 cycles: 28308416 heartbeat IPC: 3.796 cumulative IPC: 3.795 (Simulation time: 00 hr 06 min 36 sec)
Heartbeat CPU 0 instructions: 120000004 cycles: 30945755 heartbeat IPC: 3.792 cumulative IPC: 3.795 (Simulation time: 00 hr 07 min 15 sec)
Heartbeat CPU 0 instructions: 130000000 cycles: 33582061 heartbeat IPC: 3.793 cumulative IPC: 3.795 (Simulation time: 00 hr 07 min 53 sec)
Heartbeat CPU 0 instructions: 140000004 cycles: 36216685 heartbeat IPC: 3.796 cumulative IPC: 3.795 (Simulation time: 00 hr 08 min 31 sec)
Heartbeat CPU 0 instructions: 150000000 cycles: 38851312 heartbeat IPC: 3.796 cumulative IPC: 3.795 (Simulation time: 00 hr 09 min 11 sec)
Heartbeat CPU 0 instructions: 160000001 cycles: 41486080 heartbeat IPC: 3.795 cumulative IPC: 3.795 (Simulation time: 00 hr 09 min 48 sec)
Heartbeat CPU 0 instructions: 170000000 cycles: 44120709 heartbeat IPC: 3.796 cumulative IPC: 3.795 (Simulation time: 00 hr 10 min 26 sec)
Heartbeat CPU 0 instructions: 180000003 cycles: 46755444 heartbeat IPC: 3.795 cumulative IPC: 3.795 (Simulation time: 00 hr 11 min 05 sec)
Heartbeat CPU 0 instructions: 190000000 cycles: 49390501 heartbeat IPC: 3.795 cumulative IPC: 3.795 (Simulation time: 00 hr 11 min 44 sec)
Heartbeat CPU 0 instructions: 200000004 cycles: 52026062 heartbeat IPC: 3.794 cumulative IPC: 3.795 (Simulation time: 00 hr 12 min 23 sec)
Heartbeat CPU 0 instructions: 210000004 cycles: 54660688 heartbeat IPC: 3.796 cumulative IPC: 3.795 (Simulation time: 00 hr 13 min 02 sec)
Heartbeat CPU 0 instructions: 220000001 cycles: 57297051 heartbeat IPC: 3.793 cumulative IPC: 3.795 (Simulation time: 00 hr 13 min 41 sec)
Heartbeat CPU 0 instructions: 230000002 cycles: 59931690 heartbeat IPC: 3.796 cumulative IPC: 3.795 (Simulation time: 00 hr 14 min 20 sec)
Heartbeat CPU 0 instructions: 240000000 cycles: 92013956 heartbeat IPC: 0.3117 cumulative IPC: 2.39 (Simulation time: 00 hr 17 min 50 sec)
Heartbeat CPU 0 instructions: 250000001 cycles: 100771053 heartbeat IPC: 1.142 cumulative IPC: 2.266 (Simulation time: 00 hr 19 min 17 sec)
Heartbeat CPU 0 instructions: 260000001 cycles: 109489067 heartbeat IPC: 1.147 cumulative IPC: 2.165 (Simulation time: 00 hr 20 min 47 sec)
Heartbeat CPU 0 instructions: 270000001 cycles: 116810307 heartbeat IPC: 1.366 cumulative IPC: 2.109 (Simulation time: 00 hr 22 min 08 sec)
Heartbeat CPU 0 instructions: 280000003 cycles: 121677036 heartbeat IPC: 2.055 cumulative IPC: 2.107 (Simulation time: 00 hr 23 min 07 sec)
Heartbeat CPU 0 instructions: 290000001 cycles: 126516439 heartbeat IPC: 2.066 cumulative IPC: 2.105 (Simulation time: 00 hr 24 min 07 sec)
Heartbeat CPU 0 instructions: 300000002 cycles: 131381061 heartbeat IPC: 2.056 cumulative IPC: 2.103 (Simulation time: 00 hr 25 min 06 sec)
Heartbeat CPU 0 instructions: 310000001 cycles: 136227551 heartbeat IPC: 2.063 cumulative IPC: 2.101 (Simulation time: 00 hr 26 min 06 sec)
Heartbeat CPU 0 instructions: 320000002 cycles: 142051640 heartbeat IPC: 1.717 cumulative IPC: 2.084 (Simulation time: 00 hr 27 min 14 sec)
Heartbeat CPU 0 instructions: 330000002 cycles: 150829462 heartbeat IPC: 1.139 cumulative IPC: 2.024 (Simulation time: 00 hr 28 min 45 sec)
Heartbeat CPU 0 instructions: 340000004 cycles: 159130613 heartbeat IPC: 1.205 cumulative IPC: 1.978 (Simulation time: 00 hr 30 min 10 sec)
Heartbeat CPU 0 instructions: 350000003 cycles: 167214679 heartbeat IPC: 1.237 cumulative IPC: 1.939 (Simulation time: 00 hr 31 min 34 sec)
Heartbeat CPU 0 instructions: 360000001 cycles: 175291603 heartbeat IPC: 1.238 cumulative IPC: 1.904 (Simulation time: 00 hr 32 min 58 sec)
Heartbeat CPU 0 instructions: 370000002 cycles: 183358971 heartbeat IPC: 1.24 cumulative IPC: 1.873 (Simulation time: 00 hr 34 min 24 sec)
Heartbeat CPU 0 instructions: 380000003 cycles: 191957960 heartbeat IPC: 1.163 cumulative IPC: 1.839 (Simulation time: 00 hr 35 min 56 sec)
Heartbeat CPU 0 instructions: 390000000 cycles: 201400155 heartbeat IPC: 1.059 cumulative IPC: 1.8 (Simulation time: 00 hr 37 min 35 sec)
Heartbeat CPU 0 instructions: 400000000 cycles: 210748590 heartbeat IPC: 1.07 cumulative IPC: 1.765 (Simulation time: 00 hr 39 min 11 sec)
Heartbeat CPU 0 instructions: 410000000 cycles: 220074421 heartbeat IPC: 1.072 cumulative IPC: 1.734 (Simulation time: 00 hr 40 min 47 sec)
Heartbeat CPU 0 instructions: 420000000 cycles: 229377272 heartbeat IPC: 1.075 cumulative IPC: 1.706 (Simulation time: 00 hr 42 min 26 sec)
Heartbeat CPU 0 instructions: 430000002 cycles: 238601708 heartbeat IPC: 1.084 cumulative IPC: 1.681 (Simulation time: 00 hr 44 min 02 sec)
Heartbeat CPU 0 instructions: 440000004 cycles: 371350376 heartbeat IPC: 0.07533 cumulative IPC: 1.087 (Simulation time: 01 hr 02 min 13 sec)
Heartbeat CPU 0 instructions: 450000003 cycles: 379979512 heartbeat IPC: 1.159 cumulative IPC: 1.088 (Simulation time: 01 hr 03 min 47 sec)
Heartbeat CPU 0 instructions: 460000004 cycles: 389871321 heartbeat IPC: 1.011 cumulative IPC: 1.086 (Simulation time: 01 hr 05 min 27 sec)
Heartbeat CPU 0 instructions: 470000001 cycles: 399284972 heartbeat IPC: 1.062 cumulative IPC: 1.086 (Simulation time: 01 hr 07 min 02 sec)
Heartbeat CPU 0 instructions: 480000000 cycles: 408999699 heartbeat IPC: 1.029 cumulative IPC: 1.084 (Simulation time: 01 hr 08 min 41 sec)
Heartbeat CPU 0 instructions: 490000000 cycles: 418608972 heartbeat IPC: 1.041 cumulative IPC: 1.083 (Simulation time: 01 hr 10 min 20 sec)
Heartbeat CPU 0 instructions: 500000002 cycles: 430682750 heartbeat IPC: 0.8282 cumulative IPC: 1.076 (Simulation time: 01 hr 12 min 17 sec)
Heartbeat CPU 0 instructions: 510000004 cycles: 445022972 heartbeat IPC: 0.6973 cumulative IPC: 1.064 (Simulation time: 01 hr 14 min 38 sec)
Heartbeat CPU 0 instructions: 520000000 cycles: 459805005 heartbeat IPC: 0.6765 cumulative IPC: 1.051 (Simulation time: 01 hr 16 min 58 sec)
Heartbeat CPU 0 instructions: 530000003 cycles: 474076407 heartbeat IPC: 0.7007 cumulative IPC: 1.04 (Simulation time: 01 hr 19 min 15 sec)
Heartbeat CPU 0 instructions: 540000002 cycles: 488564183 heartbeat IPC: 0.6902 cumulative IPC: 1.029 (Simulation time: 01 hr 21 min 36 sec)
Heartbeat CPU 0 instructions: 550000002 cycles: 499415321 heartbeat IPC: 0.9216 cumulative IPC: 1.027 (Simulation time: 01 hr 23 min 23 sec)
Heartbeat CPU 0 instructions: 560000000 cycles: 509427138 heartbeat IPC: 0.9988 cumulative IPC: 1.026 (Simulation time: 01 hr 25 min 02 sec)
Heartbeat CPU 0 instructions: 570000002 cycles: 519473595 heartbeat IPC: 0.9954 cumulative IPC: 1.026 (Simulation time: 01 hr 26 min 43 sec)
Heartbeat CPU 0 instructions: 580000003 cycles: 529538774 heartbeat IPC: 0.9935 cumulative IPC: 1.025 (Simulation time: 01 hr 28 min 22 sec)
Heartbeat CPU 0 instructions: 590000003 cycles: 539635762 heartbeat IPC: 0.9904 cumulative IPC: 1.024 (Simulation time: 01 hr 30 min 01 sec)
*** Reached end of trace: (0, "traces/lu.A.champsimtrace")
Heartbeat CPU 0 instructions: 600000001 cycles: 549843588 heartbeat IPC: 0.9796 cumulative IPC: 1.024 (Simulation time: 01 hr 31 min 40 sec)
Heartbeat CPU 0 instructions: 610000000 cycles: 558457309 heartbeat IPC: 1.161 cumulative IPC: 1.026 (Simulation time: 01 hr 33 min 04 sec)
Heartbeat CPU 0 instructions: 620000000 cycles: 561091956 heartbeat IPC: 3.796 cumulative IPC: 1.039 (Simulation time: 01 hr 33 min 43 sec)
Heartbeat CPU 0 instructions: 630000004 cycles: 563726597 heartbeat IPC: 3.796 cumulative IPC: 1.052 (Simulation time: 01 hr 34 min 21 sec)
Heartbeat CPU 0 instructions: 640000002 cycles: 566361224 heartbeat IPC: 3.796 cumulative IPC: 1.065 (Simulation time: 01 hr 34 min 59 sec)
Heartbeat CPU 0 instructions: 650000001 cycles: 568995863 heartbeat IPC: 3.796 cumulative IPC: 1.078 (Simulation time: 01 hr 35 min 37 sec)
Simulation finished CPU 0 instructions: 600000001 cycles: 556495661 cumulative IPC: 1.078 (Simulation time: 01 hr 35 min 37 sec)
Simulation complete CPU 0 instructions: 600000001 cycles: 556495661 cumulative IPC: 1.078 (Simulation time: 01 hr 35 min 37 sec)

ChampSim completed all CPUs

=== Simulation ===
CPU 0 runs traces/lu.A.champsimtrace
Region of Interest Statistics

CPU 0 cumulative IPC: 1.078 instructions: 600000001 cycles: 556495661
CPU 0 Branch Prediction Accuracy: 96.65% MPKI: 0.6426 Average ROB Occupancy at Mispredict: 329
Branch type MPKI
BRANCH_DIRECT_JUMP: 5e-06
BRANCH_INDIRECT: 7.33e-05
BRANCH_CONDITIONAL: 0.642
BRANCH_DIRECT_CALL: 6.67e-06
BRANCH_INDIRECT_CALL: 3.17e-05
BRANCH_RETURN: 1.83e-05

LLC TOTAL        ACCESS:    7727550 HIT:    2873087 MISS:    4854463
LLC LOAD         ACCESS:    2481347 HIT:    1458192 MISS:    1023155
LLC RFO          ACCESS:     831678 HIT:      85994 MISS:     745684
LLC PREFETCH     ACCESS:    2620277 HIT:     355320 MISS:    2264957
LLC WRITE        ACCESS:    1782368 HIT:     968220 MISS:     814148
LLC TRANSLATION  ACCESS:      11880 HIT:       5361 MISS:       6519
LLC PREFETCH REQUESTED:    4242602 ISSUED:    2620277 USEFUL:    1591156 USELESS:      78119
LLC AVERAGE MISS LATENCY: 1241 cycles
cpu0_DTLB TOTAL        ACCESS:  115456592 HIT:  108310193 MISS:    7146399
cpu0_DTLB LOAD         ACCESS:  115456592 HIT:  108310193 MISS:    7146399
cpu0_DTLB RFO          ACCESS:          0 HIT:          0 MISS:          0
cpu0_DTLB PREFETCH     ACCESS:          0 HIT:          0 MISS:          0
cpu0_DTLB WRITE        ACCESS:          0 HIT:          0 MISS:          0
cpu0_DTLB TRANSLATION  ACCESS:          0 HIT:          0 MISS:          0
cpu0_DTLB PREFETCH REQUESTED:          0 ISSUED:          0 USEFUL:          0 USELESS:          0
cpu0_DTLB AVERAGE MISS LATENCY: 7.316 cycles
cpu0_ITLB TOTAL        ACCESS:     702628 HIT:     702406 MISS:        222
cpu0_ITLB LOAD         ACCESS:     702628 HIT:     702406 MISS:        222
cpu0_ITLB RFO          ACCESS:          0 HIT:          0 MISS:          0
cpu0_ITLB PREFETCH     ACCESS:          0 HIT:          0 MISS:          0
cpu0_ITLB WRITE        ACCESS:          0 HIT:          0 MISS:          0
cpu0_ITLB TRANSLATION  ACCESS:          0 HIT:          0 MISS:          0
cpu0_ITLB PREFETCH REQUESTED:          0 ISSUED:          0 USEFUL:          0 USELESS:          0
cpu0_ITLB AVERAGE MISS LATENCY: 362.4 cycles
cpu0_L1D TOTAL        ACCESS:  166757170 HIT:  157211697 MISS:    9545473
cpu0_L1D LOAD         ACCESS:  129704429 HIT:  123938254 MISS:    5766175
cpu0_L1D RFO          ACCESS:          0 HIT:          0 MISS:          0
cpu0_L1D PREFETCH     ACCESS:          0 HIT:          0 MISS:          0
cpu0_L1D WRITE        ACCESS:   37000142 HIT:   33245823 MISS:    3754319
cpu0_L1D TRANSLATION  ACCESS:      52599 HIT:      27620 MISS:      24979
cpu0_L1D PREFETCH REQUESTED:          0 ISSUED:          0 USEFUL:          0 USELESS:          0
cpu0_L1D AVERAGE MISS LATENCY: 250.3 cycles
cpu0_L1I TOTAL        ACCESS:    1078107 HIT:    1075382 MISS:       2725
cpu0_L1I LOAD         ACCESS:    1078107 HIT:    1075382 MISS:       2725
cpu0_L1I RFO          ACCESS:          0 HIT:          0 MISS:          0
cpu0_L1I PREFETCH     ACCESS:          0 HIT:          0 MISS:          0
cpu0_L1I WRITE        ACCESS:          0 HIT:          0 MISS:          0
cpu0_L1I TRANSLATION  ACCESS:          0 HIT:          0 MISS:          0
cpu0_L1I PREFETCH REQUESTED:          0 ISSUED:          0 USEFUL:          0 USELESS:          0
cpu0_L1I AVERAGE MISS LATENCY: 502.9 cycles
cpu0_L2C TOTAL        ACCESS:    5992519 HIT:    2663382 MISS:    3329137
cpu0_L2C LOAD         ACCESS:    3071881 HIT:     590534 MISS:    2481347
cpu0_L2C RFO          ACCESS:     876780 HIT:      45102 MISS:     831678
cpu0_L2C PREFETCH     ACCESS:          0 HIT:          0 MISS:          0
cpu0_L2C WRITE        ACCESS:    2018936 HIT:    2014704 MISS:       4232
cpu0_L2C TRANSLATION  ACCESS:      24922 HIT:      13042 MISS:      11880
cpu0_L2C PREFETCH REQUESTED:          0 ISSUED:          0 USEFUL:          0 USELESS:          0
cpu0_L2C AVERAGE MISS LATENCY: 775.5 cycles
cpu0_STLB TOTAL        ACCESS:    3987755 HIT:    3935169 MISS:      52586
cpu0_STLB LOAD         ACCESS:    3987755 HIT:    3935169 MISS:      52586
cpu0_STLB RFO          ACCESS:          0 HIT:          0 MISS:          0
cpu0_STLB PREFETCH     ACCESS:          0 HIT:          0 MISS:          0
cpu0_STLB WRITE        ACCESS:          0 HIT:          0 MISS:          0
cpu0_STLB TRANSLATION  ACCESS:          0 HIT:          0 MISS:          0
cpu0_STLB PREFETCH REQUESTED:          0 ISSUED:          0 USEFUL:          0 USELESS:          0
cpu0_STLB AVERAGE MISS LATENCY: 800.7 cycles

DRAM Statistics

Channel 0 RQ ROW_BUFFER_HIT:     752859
  ROW_BUFFER_MISS:    2250842
 AVG DBUS CONGESTED CYCLE: 3.968
WQ ROW_BUFFER_HIT: Channel 0 
  ROW_BUFFER_MISS:     407118
  FULL:    1240363
