WARNING: physical memory size is smaller than virtual memory size.

*** ChampSim Multicore Out-of-Order Simulator ***
Warmup Instructions: 50000000
Simulation Instructions: 600000000
Number of CPUs: 1
Page size: 4096

Off-chip DRAM Size: 4 GiB Channels: 1 Width: 64-bit Data Race: 3200 MT/s
Heartbeat CPU 0 instructions: 10000000 cycles: 2500202 heartbeat IPC: 4 cumulative IPC: 4 (Simulation time: 00 hr 00 min 44 sec)
Heartbeat CPU 0 instructions: 20000000 cycles: 5000202 heartbeat IPC: 4 cumulative IPC: 4 (Simulation time: 00 hr 01 min 29 sec)
Heartbeat CPU 0 instructions: 30000000 cycles: 7500202 heartbeat IPC: 4 cumulative IPC: 4 (Simulation time: 00 hr 02 min 13 sec)
Heartbeat CPU 0 instructions: 40000000 cycles: 10000202 heartbeat IPC: 4 cumulative IPC: 4 (Simulation time: 00 hr 02 min 58 sec)
Heartbeat CPU 0 instructions: 50000000 cycles: 12500202 heartbeat IPC: 4 cumulative IPC: 4 (Simulation time: 00 hr 03 min 44 sec)
Warmup finished CPU 0 instructions: 50000000 cycles: 12500203 cumulative IPC: 4 (Simulation time: 00 hr 03 min 44 sec)
Warmup complete CPU 0 instructions: 50000000 cycles: 12500203 cumulative IPC: 4 (Simulation time: 00 hr 03 min 44 sec)
Heartbeat CPU 0 instructions: 60000004 cycles: 15001960 heartbeat IPC: 3.997 cumulative IPC: 3.997 (Simulation time: 00 hr 04 min 35 sec)
Heartbeat CPU 0 instructions: 70000001 cycles: 17505798 heartbeat IPC: 3.994 cumulative IPC: 3.996 (Simulation time: 00 hr 05 min 27 sec)
Heartbeat CPU 0 instructions: 80000004 cycles: 20008498 heartbeat IPC: 3.996 cumulative IPC: 3.996 (Simulation time: 00 hr 06 min 18 sec)
Heartbeat CPU 0 instructions: 90000000 cycles: 22512920 heartbeat IPC: 3.993 cumulative IPC: 3.995 (Simulation time: 00 hr 07 min 09 sec)
Heartbeat CPU 0 instructions: 100000004 cycles: 25015144 heartbeat IPC: 3.996 cumulative IPC: 3.995 (Simulation time: 00 hr 08 min 01 sec)
Heartbeat CPU 0 instructions: 110000003 cycles: 27519498 heartbeat IPC: 3.993 cumulative IPC: 3.995 (Simulation time: 00 hr 08 min 51 sec)
Heartbeat CPU 0 instructions: 120000004 cycles: 30022407 heartbeat IPC: 3.995 cumulative IPC: 3.995 (Simulation time: 00 hr 09 min 42 sec)
Heartbeat CPU 0 instructions: 130000000 cycles: 32525233 heartbeat IPC: 3.995 cumulative IPC: 3.995 (Simulation time: 00 hr 10 min 32 sec)
Heartbeat CPU 0 instructions: 140000004 cycles: 35027486 heartbeat IPC: 3.996 cumulative IPC: 3.995 (Simulation time: 00 hr 11 min 23 sec)
Heartbeat CPU 0 instructions: 150000000 cycles: 37529545 heartbeat IPC: 3.997 cumulative IPC: 3.995 (Simulation time: 00 hr 12 min 14 sec)
Heartbeat CPU 0 instructions: 160000001 cycles: 40032644 heartbeat IPC: 3.995 cumulative IPC: 3.995 (Simulation time: 00 hr 13 min 06 sec)
Heartbeat CPU 0 instructions: 170000000 cycles: 42535385 heartbeat IPC: 3.996 cumulative IPC: 3.995 (Simulation time: 00 hr 13 min 54 sec)
Heartbeat CPU 0 instructions: 180000003 cycles: 45037793 heartbeat IPC: 3.996 cumulative IPC: 3.995 (Simulation time: 00 hr 14 min 45 sec)
Heartbeat CPU 0 instructions: 190000003 cycles: 47539543 heartbeat IPC: 3.997 cumulative IPC: 3.996 (Simulation time: 00 hr 15 min 34 sec)
Heartbeat CPU 0 instructions: 200000002 cycles: 50043087 heartbeat IPC: 3.994 cumulative IPC: 3.995 (Simulation time: 00 hr 16 min 25 sec)
Heartbeat CPU 0 instructions: 210000000 cycles: 52545821 heartbeat IPC: 3.996 cumulative IPC: 3.995 (Simulation time: 00 hr 17 min 13 sec)
Heartbeat CPU 0 instructions: 220000002 cycles: 55047799 heartbeat IPC: 3.997 cumulative IPC: 3.996 (Simulation time: 00 hr 18 min 05 sec)
Heartbeat CPU 0 instructions: 230000003 cycles: 57551611 heartbeat IPC: 3.994 cumulative IPC: 3.995 (Simulation time: 00 hr 18 min 53 sec)
Heartbeat CPU 0 instructions: 240000002 cycles: 92629980 heartbeat IPC: 0.2851 cumulative IPC: 2.371 (Simulation time: 00 hr 24 min 26 sec)
Heartbeat CPU 0 instructions: 250000000 cycles: 102372141 heartbeat IPC: 1.026 cumulative IPC: 2.225 (Simulation time: 00 hr 26 min 33 sec)
Heartbeat CPU 0 instructions: 260000003 cycles: 111531537 heartbeat IPC: 1.092 cumulative IPC: 2.121 (Simulation time: 00 hr 28 min 36 sec)
Heartbeat CPU 0 instructions: 270000000 cycles: 122587097 heartbeat IPC: 0.9045 cumulative IPC: 1.998 (Simulation time: 00 hr 30 min 59 sec)
Heartbeat CPU 0 instructions: 280000003 cycles: 129553637 heartbeat IPC: 1.435 cumulative IPC: 1.965 (Simulation time: 00 hr 32 min 40 sec)
Heartbeat CPU 0 instructions: 290000000 cycles: 135660342 heartbeat IPC: 1.638 cumulative IPC: 1.949 (Simulation time: 00 hr 34 min 09 sec)
Heartbeat CPU 0 instructions: 300000002 cycles: 140729938 heartbeat IPC: 1.973 cumulative IPC: 1.95 (Simulation time: 00 hr 35 min 28 sec)
Heartbeat CPU 0 instructions: 310000003 cycles: 146439386 heartbeat IPC: 1.751 cumulative IPC: 1.941 (Simulation time: 00 hr 36 min 54 sec)
Heartbeat CPU 0 instructions: 320000004 cycles: 153443797 heartbeat IPC: 1.428 cumulative IPC: 1.916 (Simulation time: 00 hr 38 min 34 sec)
Heartbeat CPU 0 instructions: 330000003 cycles: 163211518 heartbeat IPC: 1.024 cumulative IPC: 1.858 (Simulation time: 00 hr 40 min 44 sec)
Heartbeat CPU 0 instructions: 340000001 cycles: 171463566 heartbeat IPC: 1.212 cumulative IPC: 1.824 (Simulation time: 00 hr 42 min 38 sec)
Heartbeat CPU 0 instructions: 350000001 cycles: 178676732 heartbeat IPC: 1.386 cumulative IPC: 1.805 (Simulation time: 00 hr 44 min 22 sec)
Heartbeat CPU 0 instructions: 360000000 cycles: 186829140 heartbeat IPC: 1.227 cumulative IPC: 1.778 (Simulation time: 00 hr 46 min 16 sec)
Heartbeat CPU 0 instructions: 370000002 cycles: 195164911 heartbeat IPC: 1.2 cumulative IPC: 1.752 (Simulation time: 00 hr 48 min 14 sec)
Heartbeat CPU 0 instructions: 380000001 cycles: 204482254 heartbeat IPC: 1.073 cumulative IPC: 1.719 (Simulation time: 00 hr 50 min 20 sec)
Heartbeat CPU 0 instructions: 390000003 cycles: 212707861 heartbeat IPC: 1.216 cumulative IPC: 1.698 (Simulation time: 00 hr 52 min 17 sec)
Heartbeat CPU 0 instructions: 400000004 cycles: 220600392 heartbeat IPC: 1.267 cumulative IPC: 1.682 (Simulation time: 00 hr 54 min 06 sec)
Heartbeat CPU 0 instructions: 410000001 cycles: 228178623 heartbeat IPC: 1.32 cumulative IPC: 1.669 (Simulation time: 00 hr 55 min 53 sec)
Heartbeat CPU 0 instructions: 420000000 cycles: 236276207 heartbeat IPC: 1.235 cumulative IPC: 1.653 (Simulation time: 00 hr 57 min 47 sec)
Heartbeat CPU 0 instructions: 430000001 cycles: 244361022 heartbeat IPC: 1.237 cumulative IPC: 1.639 (Simulation time: 00 hr 59 min 39 sec)
Heartbeat CPU 0 instructions: 440000004 cycles: 394520980 heartbeat IPC: 0.0666 cumulative IPC: 1.021 (Simulation time: 01 hr 26 min 18 sec)
Heartbeat CPU 0 instructions: 450000002 cycles: 405551498 heartbeat IPC: 0.9066 cumulative IPC: 1.018 (Simulation time: 01 hr 28 min 44 sec)
Heartbeat CPU 0 instructions: 460000002 cycles: 415008858 heartbeat IPC: 1.057 cumulative IPC: 1.019 (Simulation time: 01 hr 30 min 52 sec)
Heartbeat CPU 0 instructions: 470000003 cycles: 424295000 heartbeat IPC: 1.077 cumulative IPC: 1.02 (Simulation time: 01 hr 32 min 58 sec)
Heartbeat CPU 0 instructions: 480000003 cycles: 433541210 heartbeat IPC: 1.082 cumulative IPC: 1.021 (Simulation time: 01 hr 35 min 01 sec)
Heartbeat CPU 0 instructions: 490000001 cycles: 443512332 heartbeat IPC: 1.003 cumulative IPC: 1.021 (Simulation time: 01 hr 37 min 10 sec)
Heartbeat CPU 0 instructions: 500000003 cycles: 457403028 heartbeat IPC: 0.7199 cumulative IPC: 1.011 (Simulation time: 01 hr 40 min 04 sec)
Heartbeat CPU 0 instructions: 510000002 cycles: 471256637 heartbeat IPC: 0.7218 cumulative IPC: 1.003 (Simulation time: 01 hr 43 min 00 sec)
Heartbeat CPU 0 instructions: 520000003 cycles: 486514734 heartbeat IPC: 0.6554 cumulative IPC: 0.9915 (Simulation time: 01 hr 46 min 11 sec)
Heartbeat CPU 0 instructions: 530000002 cycles: 500285921 heartbeat IPC: 0.7262 cumulative IPC: 0.984 (Simulation time: 01 hr 49 min 06 sec)
Heartbeat CPU 0 instructions: 540000002 cycles: 514096578 heartbeat IPC: 0.7241 cumulative IPC: 0.9769 (Simulation time: 01 hr 51 min 57 sec)
Heartbeat CPU 0 instructions: 550000000 cycles: 526199757 heartbeat IPC: 0.8262 cumulative IPC: 0.9733 (Simulation time: 01 hr 54 min 28 sec)
Heartbeat CPU 0 instructions: 560000002 cycles: 536921442 heartbeat IPC: 0.9327 cumulative IPC: 0.9725 (Simulation time: 01 hr 56 min 44 sec)
Heartbeat CPU 0 instructions: 570000000 cycles: 547691516 heartbeat IPC: 0.9285 cumulative IPC: 0.9716 (Simulation time: 01 hr 59 min 01 sec)
Heartbeat CPU 0 instructions: 580000001 cycles: 559634191 heartbeat IPC: 0.8373 cumulative IPC: 0.9687 (Simulation time: 02 hr 01 min 31 sec)
Heartbeat CPU 0 instructions: 590000000 cycles: 571022475 heartbeat IPC: 0.8781 cumulative IPC: 0.9668 (Simulation time: 02 hr 03 min 53 sec)
*** Reached end of trace: (0, "traces/lu.A.champsimtrace")
Heartbeat CPU 0 instructions: 600000001 cycles: 582333705 heartbeat IPC: 0.8841 cumulative IPC: 0.9652 (Simulation time: 02 hr 06 min 16 sec)
Heartbeat CPU 0 instructions: 610000004 cycles: 592455718 heartbeat IPC: 0.9879 cumulative IPC: 0.9656 (Simulation time: 02 hr 08 min 21 sec)
Heartbeat CPU 0 instructions: 620000003 cycles: 594957803 heartbeat IPC: 3.997 cumulative IPC: 0.9786 (Simulation time: 02 hr 09 min 10 sec)
Heartbeat CPU 0 instructions: 630000002 cycles: 597460169 heartbeat IPC: 3.996 cumulative IPC: 0.9915 (Simulation time: 02 hr 10 min 00 sec)
Heartbeat CPU 0 instructions: 640000000 cycles: 599961921 heartbeat IPC: 3.997 cumulative IPC: 1.004 (Simulation time: 02 hr 10 min 48 sec)
Heartbeat CPU 0 instructions: 650000004 cycles: 602463682 heartbeat IPC: 3.997 cumulative IPC: 1.017 (Simulation time: 02 hr 11 min 37 sec)
Simulation finished CPU 0 instructions: 600000004 cycles: 589963480 cumulative IPC: 1.017 (Simulation time: 02 hr 11 min 37 sec)
Simulation complete CPU 0 instructions: 600000004 cycles: 589963480 cumulative IPC: 1.017 (Simulation time: 02 hr 11 min 37 sec)

ChampSim completed all CPUs

=== Simulation ===
CPU 0 runs traces/lu.A.champsimtrace
Region of Interest Statistics

CPU 0 cumulative IPC: 1.017 instructions: 600000004 cycles: 589963480
CPU 0 Branch Prediction Accuracy: 98.73% MPKI: 0.2427 Average ROB Occupancy at Mispredict: 326.3
Branch type MPKI
BRANCH_DIRECT_JUMP: 5e-06
BRANCH_INDIRECT: 7.83e-05
BRANCH_CONDITIONAL: 0.243
BRANCH_DIRECT_CALL: 6.67e-06
BRANCH_INDIRECT_CALL: 3.5e-05
BRANCH_RETURN: 1.83e-05

LLC TOTAL        ACCESS:    5107757 HIT:    1319587 MISS:    3788170
LLC LOAD         ACCESS:    2481901 HIT:     188000 MISS:    2293901
LLC RFO          ACCESS:     831685 HIT:       4961 MISS:     826724
LLC PREFETCH     ACCESS:          0 HIT:          0 MISS:          0
LLC WRITE        ACCESS:    1782320 HIT:    1117229 MISS:     665091
LLC TRANSLATION  ACCESS:      11851 HIT:       9397 MISS:       2454
LLC PREFETCH REQUESTED:          0 ISSUED:          0 USEFUL:          0 USELESS:          0
LLC AVERAGE MISS LATENCY: 898.5 cycles
cpu0_DTLB TOTAL        ACCESS:  123202568 HIT:  115949569 MISS:    7252999
cpu0_DTLB LOAD         ACCESS:  123202568 HIT:  115949569 MISS:    7252999
cpu0_DTLB RFO          ACCESS:          0 HIT:          0 MISS:          0
cpu0_DTLB PREFETCH     ACCESS:          0 HIT:          0 MISS:          0
cpu0_DTLB WRITE        ACCESS:          0 HIT:          0 MISS:          0
cpu0_DTLB TRANSLATION  ACCESS:          0 HIT:          0 MISS:          0
cpu0_DTLB PREFETCH REQUESTED:          0 ISSUED:          0 USEFUL:          0 USELESS:          0
cpu0_DTLB AVERAGE MISS LATENCY: 5.415 cycles
cpu0_ITLB TOTAL        ACCESS:     718288 HIT:     718086 MISS:        202
cpu0_ITLB LOAD         ACCESS:     718288 HIT:     718086 MISS:        202
cpu0_ITLB RFO          ACCESS:          0 HIT:          0 MISS:          0
cpu0_ITLB PREFETCH     ACCESS:          0 HIT:          0 MISS:          0
cpu0_ITLB WRITE        ACCESS:          0 HIT:          0 MISS:          0
cpu0_ITLB TRANSLATION  ACCESS:          0 HIT:          0 MISS:          0
cpu0_ITLB PREFETCH REQUESTED:          0 ISSUED:          0 USEFUL:          0 USELESS:          0
cpu0_ITLB AVERAGE MISS LATENCY: 453.3 cycles
cpu0_L1D TOTAL        ACCESS:  176375306 HIT:  166817387 MISS:    9557919
cpu0_L1D LOAD         ACCESS:  139322714 HIT:  133520012 MISS:    5802702
cpu0_L1D RFO          ACCESS:          0 HIT:          0 MISS:          0
cpu0_L1D PREFETCH     ACCESS:          0 HIT:          0 MISS:          0
cpu0_L1D WRITE        ACCESS:   36999999 HIT:   33269702 MISS:    3730297
cpu0_L1D TRANSLATION  ACCESS:      52593 HIT:      27673 MISS:      24920
cpu0_L1D PREFETCH REQUESTED:          0 ISSUED:          0 USEFUL:          0 USELESS:          0
cpu0_L1D AVERAGE MISS LATENCY: 341.4 cycles
cpu0_L1I TOTAL        ACCESS:    1104636 HIT:    1101924 MISS:       2712
cpu0_L1I LOAD         ACCESS:    1104636 HIT:    1101924 MISS:       2712
cpu0_L1I RFO          ACCESS:          0 HIT:          0 MISS:          0
cpu0_L1I PREFETCH     ACCESS:          0 HIT:          0 MISS:          0
cpu0_L1I WRITE        ACCESS:          0 HIT:          0 MISS:          0
cpu0_L1I TRANSLATION  ACCESS:          0 HIT:          0 MISS:          0
cpu0_L1I PREFETCH REQUESTED:          0 ISSUED:          0 USEFUL:          0 USELESS:          0
cpu0_L1I AVERAGE MISS LATENCY: 819.6 cycles
cpu0_L2C TOTAL        ACCESS:    5940785 HIT:    2611115 MISS:    3329670
cpu0_L2C LOAD         ACCESS:    3052556 HIT:     570655 MISS:    2481901
cpu0_L2C RFO          ACCESS:     872126 HIT:      40441 MISS:     831685
cpu0_L2C PREFETCH     ACCESS:          0 HIT:          0 MISS:          0
cpu0_L2C WRITE        ACCESS:    1991228 HIT:    1986995 MISS:       4233
cpu0_L2C TRANSLATION  ACCESS:      24875 HIT:      13024 MISS:      11851
cpu0_L2C PREFETCH REQUESTED:          0 ISSUED:          0 USEFUL:          0 USELESS:          0
cpu0_L2C AVERAGE MISS LATENCY: 1043 cycles
cpu0_STLB TOTAL        ACCESS:    4000834 HIT:    3948252 MISS:      52582
cpu0_STLB LOAD         ACCESS:    4000834 HIT:    3948252 MISS:      52582
cpu0_STLB RFO          ACCESS:          0 HIT:          0 MISS:          0
cpu0_STLB PREFETCH     ACCESS:          0 HIT:          0 MISS:          0
cpu0_STLB WRITE        ACCESS:          0 HIT:          0 MISS:          0
cpu0_STLB TRANSLATION  ACCESS:          0 HIT:          0 MISS:          0
cpu0_STLB PREFETCH REQUESTED:          0 ISSUED:          0 USEFUL:          0 USELESS:          0
cpu0_STLB AVERAGE MISS LATENCY: 513.7 cycles

DRAM Statistics

Channel 0 RQ ROW_BUFFER_HIT:     769679
  ROW_BUFFER_MISS:    2353391
 AVG DBUS CONGESTED CYCLE: 3.934
WQ ROW_BUFFER_HIT: Channel 0 
  ROW_BUFFER_MISS:     278071
  FULL:    1440936
