WARNING: physical memory size is smaller than virtual memory size.

*** ChampSim Multicore Out-of-Order Simulator ***
Warmup Instructions: 50000000
Simulation Instructions: 600000000
Number of CPUs: 1
Page size: 4096

Off-chip DRAM Size: 4 GiB Channels: 1 Width: 64-bit Data Race: 3200 MT/s
Heartbeat CPU 0 instructions: 10000000 cycles: 2500202 heartbeat IPC: 4 cumulative IPC: 4 (Simulation time: 00 hr 00 min 45 sec)
Heartbeat CPU 0 instructions: 20000000 cycles: 5000202 heartbeat IPC: 4 cumulative IPC: 4 (Simulation time: 00 hr 01 min 39 sec)
Heartbeat CPU 0 instructions: 30000000 cycles: 7500202 heartbeat IPC: 4 cumulative IPC: 4 (Simulation time: 00 hr 02 min 23 sec)
Heartbeat CPU 0 instructions: 40000000 cycles: 10000202 heartbeat IPC: 4 cumulative IPC: 4 (Simulation time: 00 hr 03 min 08 sec)
Heartbeat CPU 0 instructions: 50000000 cycles: 12500202 heartbeat IPC: 4 cumulative IPC: 4 (Simulation time: 00 hr 03 min 51 sec)
Warmup finished CPU 0 instructions: 50000000 cycles: 12500203 cumulative IPC: 4 (Simulation time: 00 hr 03 min 51 sec)
Warmup complete CPU 0 instructions: 50000000 cycles: 12500203 cumulative IPC: 4 (Simulation time: 00 hr 03 min 51 sec)
Heartbeat CPU 0 instructions: 60000004 cycles: 15002484 heartbeat IPC: 3.996 cumulative IPC: 3.996 (Simulation time: 00 hr 04 min 40 sec)
Heartbeat CPU 0 instructions: 70000001 cycles: 17504232 heartbeat IPC: 3.997 cumulative IPC: 3.997 (Simulation time: 00 hr 05 min 31 sec)
Heartbeat CPU 0 instructions: 80000004 cycles: 20006154 heartbeat IPC: 3.997 cumulative IPC: 3.997 (Simulation time: 00 hr 06 min 21 sec)
Heartbeat CPU 0 instructions: 90000000 cycles: 22511356 heartbeat IPC: 3.992 cumulative IPC: 3.996 (Simulation time: 00 hr 07 min 12 sec)
Heartbeat CPU 0 instructions: 100000004 cycles: 25013317 heartbeat IPC: 3.997 cumulative IPC: 3.996 (Simulation time: 00 hr 08 min 03 sec)
Heartbeat CPU 0 instructions: 110000003 cycles: 27515389 heartbeat IPC: 3.997 cumulative IPC: 3.996 (Simulation time: 00 hr 08 min 52 sec)
Heartbeat CPU 0 instructions: 120000004 cycles: 30018438 heartbeat IPC: 3.995 cumulative IPC: 3.996 (Simulation time: 00 hr 09 min 45 sec)
Heartbeat CPU 0 instructions: 130000000 cycles: 32521148 heartbeat IPC: 3.996 cumulative IPC: 3.996 (Simulation time: 00 hr 10 min 36 sec)
Heartbeat CPU 0 instructions: 140000004 cycles: 35022890 heartbeat IPC: 3.997 cumulative IPC: 3.996 (Simulation time: 00 hr 11 min 25 sec)
Heartbeat CPU 0 instructions: 150000000 cycles: 37524883 heartbeat IPC: 3.997 cumulative IPC: 3.996 (Simulation time: 00 hr 12 min 16 sec)
Heartbeat CPU 0 instructions: 160000001 cycles: 40029040 heartbeat IPC: 3.993 cumulative IPC: 3.996 (Simulation time: 00 hr 13 min 07 sec)
Heartbeat CPU 0 instructions: 170000000 cycles: 42531042 heartbeat IPC: 3.997 cumulative IPC: 3.996 (Simulation time: 00 hr 13 min 59 sec)
Heartbeat CPU 0 instructions: 180000003 cycles: 45033795 heartbeat IPC: 3.996 cumulative IPC: 3.996 (Simulation time: 00 hr 14 min 49 sec)
Heartbeat CPU 0 instructions: 190000003 cycles: 47535576 heartbeat IPC: 3.997 cumulative IPC: 3.996 (Simulation time: 00 hr 15 min 38 sec)
Heartbeat CPU 0 instructions: 200000002 cycles: 50037882 heartbeat IPC: 3.996 cumulative IPC: 3.996 (Simulation time: 00 hr 16 min 29 sec)
Heartbeat CPU 0 instructions: 210000000 cycles: 52540123 heartbeat IPC: 3.996 cumulative IPC: 3.996 (Simulation time: 00 hr 17 min 18 sec)
Heartbeat CPU 0 instructions: 220000002 cycles: 55042687 heartbeat IPC: 3.996 cumulative IPC: 3.996 (Simulation time: 00 hr 18 min 08 sec)
Heartbeat CPU 0 instructions: 230000003 cycles: 57544744 heartbeat IPC: 3.997 cumulative IPC: 3.996 (Simulation time: 00 hr 18 min 59 sec)
Heartbeat CPU 0 instructions: 240000002 cycles: 89614204 heartbeat IPC: 0.3118 cumulative IPC: 2.464 (Simulation time: 00 hr 24 min 13 sec)
Heartbeat CPU 0 instructions: 250000000 cycles: 98327785 heartbeat IPC: 1.148 cumulative IPC: 2.33 (Simulation time: 00 hr 26 min 10 sec)
Heartbeat CPU 0 instructions: 260000003 cycles: 107027556 heartbeat IPC: 1.149 cumulative IPC: 2.222 (Simulation time: 00 hr 28 min 08 sec)
Heartbeat CPU 0 instructions: 270000000 cycles: 115812907 heartbeat IPC: 1.138 cumulative IPC: 2.129 (Simulation time: 00 hr 30 min 08 sec)
Heartbeat CPU 0 instructions: 280000003 cycles: 123577874 heartbeat IPC: 1.288 cumulative IPC: 2.071 (Simulation time: 00 hr 31 min 56 sec)
Heartbeat CPU 0 instructions: 290000000 cycles: 131277331 heartbeat IPC: 1.299 cumulative IPC: 2.021 (Simulation time: 00 hr 33 min 43 sec)
Heartbeat CPU 0 instructions: 300000002 cycles: 139027663 heartbeat IPC: 1.29 cumulative IPC: 1.976 (Simulation time: 00 hr 35 min 33 sec)
Heartbeat CPU 0 instructions: 310000002 cycles: 146726981 heartbeat IPC: 1.299 cumulative IPC: 1.937 (Simulation time: 00 hr 37 min 21 sec)
Heartbeat CPU 0 instructions: 320000004 cycles: 154580749 heartbeat IPC: 1.273 cumulative IPC: 1.9 (Simulation time: 00 hr 39 min 12 sec)
Heartbeat CPU 0 instructions: 330000003 cycles: 162611738 heartbeat IPC: 1.245 cumulative IPC: 1.865 (Simulation time: 00 hr 41 min 06 sec)
Heartbeat CPU 0 instructions: 340000001 cycles: 170657867 heartbeat IPC: 1.243 cumulative IPC: 1.834 (Simulation time: 00 hr 43 min 02 sec)
Heartbeat CPU 0 instructions: 350000001 cycles: 178710451 heartbeat IPC: 1.242 cumulative IPC: 1.805 (Simulation time: 00 hr 44 min 59 sec)
Heartbeat CPU 0 instructions: 360000000 cycles: 186835844 heartbeat IPC: 1.231 cumulative IPC: 1.778 (Simulation time: 00 hr 46 min 57 sec)
Heartbeat CPU 0 instructions: 370000002 cycles: 194819565 heartbeat IPC: 1.253 cumulative IPC: 1.755 (Simulation time: 00 hr 48 min 52 sec)
Heartbeat CPU 0 instructions: 380000001 cycles: 203210183 heartbeat IPC: 1.192 cumulative IPC: 1.73 (Simulation time: 00 hr 50 min 52 sec)
Heartbeat CPU 0 instructions: 390000003 cycles: 212002098 heartbeat IPC: 1.137 cumulative IPC: 1.704 (Simulation time: 00 hr 52 min 59 sec)
Heartbeat CPU 0 instructions: 400000004 cycles: 220654785 heartbeat IPC: 1.156 cumulative IPC: 1.681 (Simulation time: 00 hr 55 min 01 sec)
Heartbeat CPU 0 instructions: 410000001 cycles: 229358770 heartbeat IPC: 1.149 cumulative IPC: 1.66 (Simulation time: 00 hr 57 min 05 sec)
Heartbeat CPU 0 instructions: 420000000 cycles: 238077946 heartbeat IPC: 1.147 cumulative IPC: 1.64 (Simulation time: 00 hr 59 min 07 sec)
Heartbeat CPU 0 instructions: 430000001 cycles: 246615825 heartbeat IPC: 1.171 cumulative IPC: 1.623 (Simulation time: 01 hr 01 min 07 sec)
Heartbeat CPU 0 instructions: 440000003 cycles: 356033309 heartbeat IPC: 0.09139 cumulative IPC: 1.135 (Simulation time: 01 hr 21 min 26 sec)
Heartbeat CPU 0 instructions: 450000002 cycles: 365120014 heartbeat IPC: 1.101 cumulative IPC: 1.134 (Simulation time: 01 hr 23 min 33 sec)
Heartbeat CPU 0 instructions: 460000002 cycles: 374413900 heartbeat IPC: 1.076 cumulative IPC: 1.133 (Simulation time: 01 hr 25 min 39 sec)
Heartbeat CPU 0 instructions: 470000003 cycles: 383607629 heartbeat IPC: 1.088 cumulative IPC: 1.132 (Simulation time: 01 hr 27 min 45 sec)
Heartbeat CPU 0 instructions: 480000003 cycles: 392965580 heartbeat IPC: 1.069 cumulative IPC: 1.13 (Simulation time: 01 hr 29 min 55 sec)
Heartbeat CPU 0 instructions: 490000002 cycles: 402191398 heartbeat IPC: 1.084 cumulative IPC: 1.129 (Simulation time: 01 hr 32 min 03 sec)
Heartbeat CPU 0 instructions: 500000003 cycles: 418696222 heartbeat IPC: 0.6059 cumulative IPC: 1.108 (Simulation time: 01 hr 35 min 36 sec)
Heartbeat CPU 0 instructions: 510000001 cycles: 436247663 heartbeat IPC: 0.5698 cumulative IPC: 1.086 (Simulation time: 01 hr 39 min 21 sec)
Heartbeat CPU 0 instructions: 520000003 cycles: 453798013 heartbeat IPC: 0.5698 cumulative IPC: 1.065 (Simulation time: 01 hr 43 min 08 sec)
Heartbeat CPU 0 instructions: 530000000 cycles: 471457349 heartbeat IPC: 0.5663 cumulative IPC: 1.046 (Simulation time: 01 hr 46 min 51 sec)
Heartbeat CPU 0 instructions: 540000002 cycles: 489032310 heartbeat IPC: 0.569 cumulative IPC: 1.028 (Simulation time: 01 hr 50 min 34 sec)
Heartbeat CPU 0 instructions: 550000000 cycles: 501987800 heartbeat IPC: 0.7719 cumulative IPC: 1.021 (Simulation time: 01 hr 53 min 22 sec)
Heartbeat CPU 0 instructions: 560000002 cycles: 513267821 heartbeat IPC: 0.8865 cumulative IPC: 1.018 (Simulation time: 01 hr 55 min 51 sec)
Heartbeat CPU 0 instructions: 570000000 cycles: 524521124 heartbeat IPC: 0.8886 cumulative IPC: 1.016 (Simulation time: 01 hr 58 min 20 sec)
Heartbeat CPU 0 instructions: 580000001 cycles: 535803615 heartbeat IPC: 0.8863 cumulative IPC: 1.013 (Simulation time: 02 hr 00 min 49 sec)
Heartbeat CPU 0 instructions: 590000000 cycles: 547075849 heartbeat IPC: 0.8871 cumulative IPC: 1.01 (Simulation time: 02 hr 03 min 20 sec)
*** Reached end of trace: (0, "traces/lu.A.champsimtrace")
Heartbeat CPU 0 instructions: 600000001 cycles: 558452648 heartbeat IPC: 0.879 cumulative IPC: 1.007 (Simulation time: 02 hr 05 min 51 sec)
Heartbeat CPU 0 instructions: 610000004 cycles: 561673031 heartbeat IPC: 3.105 cumulative IPC: 1.02 (Simulation time: 02 hr 06 min 48 sec)
Heartbeat CPU 0 instructions: 620000003 cycles: 564174793 heartbeat IPC: 3.997 cumulative IPC: 1.033 (Simulation time: 02 hr 07 min 38 sec)
Heartbeat CPU 0 instructions: 630000002 cycles: 566676647 heartbeat IPC: 3.997 cumulative IPC: 1.047 (Simulation time: 02 hr 08 min 29 sec)
Heartbeat CPU 0 instructions: 640000000 cycles: 569179159 heartbeat IPC: 3.996 cumulative IPC: 1.06 (Simulation time: 02 hr 09 min 22 sec)
Heartbeat CPU 0 instructions: 650000004 cycles: 571681792 heartbeat IPC: 3.996 cumulative IPC: 1.073 (Simulation time: 02 hr 10 min 15 sec)
Simulation finished CPU 0 instructions: 600000004 cycles: 559181590 cumulative IPC: 1.073 (Simulation time: 02 hr 10 min 15 sec)
Simulation complete CPU 0 instructions: 600000004 cycles: 559181590 cumulative IPC: 1.073 (Simulation time: 02 hr 10 min 15 sec)

ChampSim completed all CPUs

=== Simulation ===
CPU 0 runs traces/lu.A.champsimtrace
Region of Interest Statistics

CPU 0 cumulative IPC: 1.073 instructions: 600000004 cycles: 559181590
CPU 0 Branch Prediction Accuracy: 98.73% MPKI: 0.2427 Average ROB Occupancy at Mispredict: 326.5
Branch type MPKI
BRANCH_DIRECT_JUMP: 5e-06
BRANCH_INDIRECT: 7.83e-05
BRANCH_CONDITIONAL: 0.243
BRANCH_DIRECT_CALL: 6.67e-06
BRANCH_INDIRECT_CALL: 3.5e-05
BRANCH_RETURN: 1.83e-05

LLC TOTAL        ACCESS:    6218293 HIT:     930151 MISS:    5288142
LLC LOAD         ACCESS:    2481914 HIT:     499363 MISS:    1982551
LLC RFO          ACCESS:     831686 HIT:      37502 MISS:     794184
LLC PREFETCH     ACCESS:    1110528 HIT:     307044 MISS:     803484
LLC WRITE        ACCESS:    1782344 HIT:      82486 MISS:    1699858
LLC TRANSLATION  ACCESS:      11821 HIT:       3756 MISS:       8065
LLC PREFETCH REQUESTED:    1110528 ISSUED:    1110528 USEFUL:     522035 USELESS:      31611
LLC AVERAGE MISS LATENCY: 660.5 cycles
cpu0_DTLB TOTAL        ACCESS:  124023661 HIT:  116772914 MISS:    7250747
cpu0_DTLB LOAD         ACCESS:  124023661 HIT:  116772914 MISS:    7250747
cpu0_DTLB RFO          ACCESS:          0 HIT:          0 MISS:          0
cpu0_DTLB PREFETCH     ACCESS:          0 HIT:          0 MISS:          0
cpu0_DTLB WRITE        ACCESS:          0 HIT:          0 MISS:          0
cpu0_DTLB TRANSLATION  ACCESS:          0 HIT:          0 MISS:          0
cpu0_DTLB PREFETCH REQUESTED:          0 ISSUED:          0 USEFUL:          0 USELESS:          0
cpu0_DTLB AVERAGE MISS LATENCY: 6.099 cycles
cpu0_ITLB TOTAL        ACCESS:     719297 HIT:     719096 MISS:        201
cpu0_ITLB LOAD         ACCESS:     719297 HIT:     719096 MISS:        201
cpu0_ITLB RFO          ACCESS:          0 HIT:          0 MISS:          0
cpu0_ITLB PREFETCH     ACCESS:          0 HIT:          0 MISS:          0
cpu0_ITLB WRITE        ACCESS:          0 HIT:          0 MISS:          0
cpu0_ITLB TRANSLATION  ACCESS:          0 HIT:          0 MISS:          0
cpu0_ITLB PREFETCH REQUESTED:          0 ISSUED:          0 USEFUL:          0 USELESS:          0
cpu0_ITLB AVERAGE MISS LATENCY: 183.4 cycles
cpu0_L1D TOTAL        ACCESS:  177487175 HIT:  167804693 MISS:    9682482
cpu0_L1D LOAD         ACCESS:  140428031 HIT:  134501103 MISS:    5926928
cpu0_L1D RFO          ACCESS:          0 HIT:          0 MISS:          0
cpu0_L1D PREFETCH     ACCESS:          0 HIT:          0 MISS:          0
cpu0_L1D WRITE        ACCESS:   37006552 HIT:   33275900 MISS:    3730652
cpu0_L1D TRANSLATION  ACCESS:      52592 HIT:      27690 MISS:      24902
cpu0_L1D PREFETCH REQUESTED:          0 ISSUED:          0 USEFUL:          0 USELESS:          0
cpu0_L1D AVERAGE MISS LATENCY: 291.6 cycles
cpu0_L1I TOTAL        ACCESS:    1105795 HIT:    1103104 MISS:       2691
cpu0_L1I LOAD         ACCESS:    1105795 HIT:    1103104 MISS:       2691
cpu0_L1I RFO          ACCESS:          0 HIT:          0 MISS:          0
cpu0_L1I PREFETCH     ACCESS:          0 HIT:          0 MISS:          0
cpu0_L1I WRITE        ACCESS:          0 HIT:          0 MISS:          0
cpu0_L1I TRANSLATION  ACCESS:          0 HIT:          0 MISS:          0
cpu0_L1I PREFETCH REQUESTED:          0 ISSUED:          0 USEFUL:          0 USELESS:          0
cpu0_L1I AVERAGE MISS LATENCY: 377.3 cycles
cpu0_L2C TOTAL        ACCESS:    5940530 HIT:    2610856 MISS:    3329674
cpu0_L2C LOAD         ACCESS:    3052391 HIT:     570477 MISS:    2481914
cpu0_L2C RFO          ACCESS:     872092 HIT:      40406 MISS:     831686
cpu0_L2C PREFETCH     ACCESS:          0 HIT:          0 MISS:          0
cpu0_L2C WRITE        ACCESS:    1991195 HIT:    1986942 MISS:       4253
cpu0_L2C TRANSLATION  ACCESS:      24852 HIT:      13031 MISS:      11821
cpu0_L2C PREFETCH REQUESTED:          0 ISSUED:          0 USEFUL:          0 USELESS:          0
cpu0_L2C AVERAGE MISS LATENCY: 908.9 cycles
cpu0_STLB TOTAL        ACCESS:    4000969 HIT:    3948387 MISS:      52582
cpu0_STLB LOAD         ACCESS:    4000969 HIT:    3948387 MISS:      52582
cpu0_STLB RFO          ACCESS:          0 HIT:          0 MISS:          0
cpu0_STLB PREFETCH     ACCESS:          0 HIT:          0 MISS:          0
cpu0_STLB WRITE        ACCESS:          0 HIT:          0 MISS:          0
cpu0_STLB TRANSLATION  ACCESS:          0 HIT:          0 MISS:          0
cpu0_STLB PREFETCH REQUESTED:          0 ISSUED:          0 USEFUL:          0 USELESS:          0
cpu0_STLB AVERAGE MISS LATENCY: 637 cycles

DRAM Statistics

Channel 0 RQ ROW_BUFFER_HIT:     871508
  ROW_BUFFER_MISS:    2291409
 AVG DBUS CONGESTED CYCLE: 3.935
WQ ROW_BUFFER_HIT: Channel 0 
  ROW_BUFFER_MISS:     500608
  FULL:    1240148
