WARNING: physical memory size is smaller than virtual memory size.

*** ChampSim Multicore Out-of-Order Simulator ***
Warmup Instructions: 50000000
Simulation Instructions: 600000000
Number of CPUs: 1
Page size: 4096

Off-chip DRAM Size: 4 GiB Channels: 1 Width: 64-bit Data Race: 3200 MT/s
Heartbeat CPU 0 instructions: 10000000 cycles: 2500202 heartbeat IPC: 4 cumulative IPC: 4 (Simulation time: 00 hr 00 min 33 sec)
Heartbeat CPU 0 instructions: 20000000 cycles: 5000202 heartbeat IPC: 4 cumulative IPC: 4 (Simulation time: 00 hr 01 min 07 sec)
Heartbeat CPU 0 instructions: 30000000 cycles: 7500202 heartbeat IPC: 4 cumulative IPC: 4 (Simulation time: 00 hr 01 min 42 sec)
Heartbeat CPU 0 instructions: 40000000 cycles: 10000202 heartbeat IPC: 4 cumulative IPC: 4 (Simulation time: 00 hr 02 min 16 sec)
Heartbeat CPU 0 instructions: 50000000 cycles: 12500202 heartbeat IPC: 4 cumulative IPC: 4 (Simulation time: 00 hr 02 min 48 sec)
Warmup finished CPU 0 instructions: 50000000 cycles: 12500203 cumulative IPC: 4 (Simulation time: 00 hr 02 min 48 sec)
Warmup complete CPU 0 instructions: 50000000 cycles: 12500203 cumulative IPC: 4 (Simulation time: 00 hr 02 min 48 sec)
Heartbeat CPU 0 instructions: 60000004 cycles: 15001959 heartbeat IPC: 3.997 cumulative IPC: 3.997 (Simulation time: 00 hr 03 min 27 sec)
Heartbeat CPU 0 instructions: 70000003 cycles: 17503710 heartbeat IPC: 3.997 cumulative IPC: 3.997 (Simulation time: 00 hr 04 min 05 sec)
Heartbeat CPU 0 instructions: 80000004 cycles: 20005924 heartbeat IPC: 3.996 cumulative IPC: 3.997 (Simulation time: 00 hr 04 min 44 sec)
Heartbeat CPU 0 instructions: 90000000 cycles: 22508701 heartbeat IPC: 3.996 cumulative IPC: 3.997 (Simulation time: 00 hr 05 min 22 sec)
Heartbeat CPU 0 instructions: 100000001 cycles: 25011542 heartbeat IPC: 3.995 cumulative IPC: 3.996 (Simulation time: 00 hr 06 min 02 sec)
Heartbeat CPU 0 instructions: 110000000 cycles: 27513980 heartbeat IPC: 3.996 cumulative IPC: 3.996 (Simulation time: 00 hr 06 min 42 sec)
Heartbeat CPU 0 instructions: 120000004 cycles: 30016222 heartbeat IPC: 3.996 cumulative IPC: 3.996 (Simulation time: 00 hr 07 min 22 sec)
Heartbeat CPU 0 instructions: 130000000 cycles: 32518856 heartbeat IPC: 3.996 cumulative IPC: 3.996 (Simulation time: 00 hr 08 min 02 sec)
Heartbeat CPU 0 instructions: 140000004 cycles: 35021108 heartbeat IPC: 3.996 cumulative IPC: 3.996 (Simulation time: 00 hr 08 min 42 sec)
Heartbeat CPU 0 instructions: 150000000 cycles: 37523152 heartbeat IPC: 3.997 cumulative IPC: 3.996 (Simulation time: 00 hr 09 min 22 sec)
Heartbeat CPU 0 instructions: 160000001 cycles: 40025159 heartbeat IPC: 3.997 cumulative IPC: 3.996 (Simulation time: 00 hr 10 min 02 sec)
Heartbeat CPU 0 instructions: 170000000 cycles: 42526909 heartbeat IPC: 3.997 cumulative IPC: 3.996 (Simulation time: 00 hr 10 min 43 sec)
Heartbeat CPU 0 instructions: 180000003 cycles: 45029203 heartbeat IPC: 3.996 cumulative IPC: 3.996 (Simulation time: 00 hr 11 min 24 sec)
Heartbeat CPU 0 instructions: 190000000 cycles: 47531417 heartbeat IPC: 3.996 cumulative IPC: 3.996 (Simulation time: 00 hr 12 min 03 sec)
Heartbeat CPU 0 instructions: 200000004 cycles: 50034316 heartbeat IPC: 3.995 cumulative IPC: 3.996 (Simulation time: 00 hr 12 min 42 sec)
Heartbeat CPU 0 instructions: 210000004 cycles: 52536122 heartbeat IPC: 3.997 cumulative IPC: 3.996 (Simulation time: 00 hr 13 min 22 sec)
Heartbeat CPU 0 instructions: 220000001 cycles: 55038581 heartbeat IPC: 3.996 cumulative IPC: 3.996 (Simulation time: 00 hr 14 min 01 sec)
Heartbeat CPU 0 instructions: 230000000 cycles: 57540531 heartbeat IPC: 3.997 cumulative IPC: 3.996 (Simulation time: 00 hr 14 min 42 sec)
Heartbeat CPU 0 instructions: 240000000 cycles: 91868553 heartbeat IPC: 0.2913 cumulative IPC: 2.394 (Simulation time: 00 hr 18 min 26 sec)
Heartbeat CPU 0 instructions: 250000000 cycles: 101029966 heartbeat IPC: 1.092 cumulative IPC: 2.259 (Simulation time: 00 hr 20 min 00 sec)
Heartbeat CPU 0 instructions: 260000001 cycles: 110182915 heartbeat IPC: 1.093 cumulative IPC: 2.15 (Simulation time: 00 hr 21 min 34 sec)
Heartbeat CPU 0 instructions: 270000001 cycles: 122563597 heartbeat IPC: 0.8077 cumulative IPC: 1.999 (Simulation time: 00 hr 23 min 34 sec)
Heartbeat CPU 0 instructions: 280000002 cycles: 135058214 heartbeat IPC: 0.8003 cumulative IPC: 1.877 (Simulation time: 00 hr 25 min 34 sec)
Heartbeat CPU 0 instructions: 290000001 cycles: 144932053 heartbeat IPC: 1.013 cumulative IPC: 1.812 (Simulation time: 00 hr 27 min 14 sec)
Heartbeat CPU 0 instructions: 300000002 cycles: 154521015 heartbeat IPC: 1.043 cumulative IPC: 1.76 (Simulation time: 00 hr 28 min 52 sec)
Heartbeat CPU 0 instructions: 310000001 cycles: 164186330 heartbeat IPC: 1.035 cumulative IPC: 1.714 (Simulation time: 00 hr 30 min 30 sec)
Heartbeat CPU 0 instructions: 320000000 cycles: 173589731 heartbeat IPC: 1.063 cumulative IPC: 1.676 (Simulation time: 00 hr 32 min 05 sec)
Heartbeat CPU 0 instructions: 330000002 cycles: 182061711 heartbeat IPC: 1.18 cumulative IPC: 1.651 (Simulation time: 00 hr 33 min 39 sec)
Heartbeat CPU 0 instructions: 340000004 cycles: 190478432 heartbeat IPC: 1.188 cumulative IPC: 1.629 (Simulation time: 00 hr 35 min 08 sec)
Heartbeat CPU 0 instructions: 350000003 cycles: 198808319 heartbeat IPC: 1.2 cumulative IPC: 1.61 (Simulation time: 00 hr 36 min 37 sec)
Heartbeat CPU 0 instructions: 360000001 cycles: 207262061 heartbeat IPC: 1.183 cumulative IPC: 1.592 (Simulation time: 00 hr 38 min 09 sec)
Heartbeat CPU 0 instructions: 370000002 cycles: 215685463 heartbeat IPC: 1.187 cumulative IPC: 1.575 (Simulation time: 00 hr 39 min 41 sec)
Heartbeat CPU 0 instructions: 380000003 cycles: 223422814 heartbeat IPC: 1.292 cumulative IPC: 1.565 (Simulation time: 00 hr 41 min 08 sec)
Heartbeat CPU 0 instructions: 390000000 cycles: 231368250 heartbeat IPC: 1.259 cumulative IPC: 1.553 (Simulation time: 00 hr 42 min 37 sec)
Heartbeat CPU 0 instructions: 400000000 cycles: 239658056 heartbeat IPC: 1.206 cumulative IPC: 1.541 (Simulation time: 00 hr 44 min 07 sec)
Heartbeat CPU 0 instructions: 410000002 cycles: 247905540 heartbeat IPC: 1.212 cumulative IPC: 1.529 (Simulation time: 00 hr 45 min 37 sec)
Heartbeat CPU 0 instructions: 420000004 cycles: 256192624 heartbeat IPC: 1.207 cumulative IPC: 1.518 (Simulation time: 00 hr 47 min 09 sec)
Heartbeat CPU 0 instructions: 430000002 cycles: 264510483 heartbeat IPC: 1.202 cumulative IPC: 1.508 (Simulation time: 00 hr 48 min 37 sec)
Heartbeat CPU 0 instructions: 440000004 cycles: 385922520 heartbeat IPC: 0.08236 cumulative IPC: 1.044 (Simulation time: 01 hr 05 min 14 sec)
Heartbeat CPU 0 instructions: 450000003 cycles: 396067921 heartbeat IPC: 0.9857 cumulative IPC: 1.043 (Simulation time: 01 hr 06 min 56 sec)
Heartbeat CPU 0 instructions: 460000004 cycles: 406303141 heartbeat IPC: 0.977 cumulative IPC: 1.041 (Simulation time: 01 hr 08 min 38 sec)
Heartbeat CPU 0 instructions: 470000002 cycles: 417303310 heartbeat IPC: 0.9091 cumulative IPC: 1.038 (Simulation time: 01 hr 10 min 27 sec)
Heartbeat CPU 0 instructions: 480000004 cycles: 428465616 heartbeat IPC: 0.8959 cumulative IPC: 1.034 (Simulation time: 01 hr 12 min 17 sec)
Heartbeat CPU 0 instructions: 490000000 cycles: 439649579 heartbeat IPC: 0.8941 cumulative IPC: 1.03 (Simulation time: 01 hr 14 min 06 sec)
Heartbeat CPU 0 instructions: 500000003 cycles: 452593123 heartbeat IPC: 0.7726 cumulative IPC: 1.023 (Simulation time: 01 hr 16 min 18 sec)
Heartbeat CPU 0 instructions: 510000004 cycles: 465663414 heartbeat IPC: 0.7651 cumulative IPC: 1.015 (Simulation time: 01 hr 18 min 29 sec)
Heartbeat CPU 0 instructions: 520000000 cycles: 479166178 heartbeat IPC: 0.7406 cumulative IPC: 1.007 (Simulation time: 01 hr 20 min 41 sec)
Heartbeat CPU 0 instructions: 530000004 cycles: 492589518 heartbeat IPC: 0.745 cumulative IPC: 0.9998 (Simulation time: 01 hr 22 min 52 sec)
Heartbeat CPU 0 instructions: 540000002 cycles: 505941358 heartbeat IPC: 0.749 cumulative IPC: 0.993 (Simulation time: 01 hr 25 min 04 sec)
Heartbeat CPU 0 instructions: 550000002 cycles: 516913228 heartbeat IPC: 0.9114 cumulative IPC: 0.9913 (Simulation time: 01 hr 26 min 56 sec)
Heartbeat CPU 0 instructions: 560000000 cycles: 527969495 heartbeat IPC: 0.9045 cumulative IPC: 0.9894 (Simulation time: 01 hr 28 min 44 sec)
Heartbeat CPU 0 instructions: 570000002 cycles: 539181959 heartbeat IPC: 0.8919 cumulative IPC: 0.9873 (Simulation time: 01 hr 30 min 34 sec)
Heartbeat CPU 0 instructions: 580000003 cycles: 550359753 heartbeat IPC: 0.8946 cumulative IPC: 0.9854 (Simulation time: 01 hr 32 min 23 sec)
Heartbeat CPU 0 instructions: 590000003 cycles: 561466293 heartbeat IPC: 0.9004 cumulative IPC: 0.9837 (Simulation time: 01 hr 34 min 12 sec)
*** Reached end of trace: (0, "traces/lu.A.champsimtrace")
Heartbeat CPU 0 instructions: 600000001 cycles: 572674981 heartbeat IPC: 0.8922 cumulative IPC: 0.9818 (Simulation time: 01 hr 36 min 03 sec)
Heartbeat CPU 0 instructions: 610000000 cycles: 579115624 heartbeat IPC: 1.553 cumulative IPC: 0.9883 (Simulation time: 01 hr 37 min 12 sec)
Heartbeat CPU 0 instructions: 620000000 cycles: 581617616 heartbeat IPC: 3.997 cumulative IPC: 1.002 (Simulation time: 01 hr 37 min 50 sec)
Heartbeat CPU 0 instructions: 630000004 cycles: 584119379 heartbeat IPC: 3.997 cumulative IPC: 1.015 (Simulation time: 01 hr 38 min 30 sec)
Heartbeat CPU 0 instructions: 640000002 cycles: 586621129 heartbeat IPC: 3.997 cumulative IPC: 1.028 (Simulation time: 01 hr 39 min 09 sec)
Heartbeat CPU 0 instructions: 650000001 cycles: 589123546 heartbeat IPC: 3.996 cumulative IPC: 1.041 (Simulation time: 01 hr 39 min 48 sec)
Simulation finished CPU 0 instructions: 600000001 cycles: 576623344 cumulative IPC: 1.041 (Simulation time: 01 hr 39 min 48 sec)
Simulation complete CPU 0 instructions: 600000001 cycles: 576623344 cumulative IPC: 1.041 (Simulation time: 01 hr 39 min 48 sec)

ChampSim completed all CPUs

=== Simulation ===
CPU 0 runs traces/lu.A.champsimtrace
Region of Interest Statistics

CPU 0 cumulative IPC: 1.041 instructions: 600000001 cycles: 576623344
CPU 0 Branch Prediction Accuracy: 98.73% MPKI: 0.2427 Average ROB Occupancy at Mispredict: 326.4
Branch type MPKI
BRANCH_DIRECT_JUMP: 5e-06
BRANCH_INDIRECT: 7.33e-05
BRANCH_CONDITIONAL: 0.243
BRANCH_DIRECT_CALL: 6.67e-06
BRANCH_INDIRECT_CALL: 3.17e-05
BRANCH_RETURN: 1.83e-05

LLC TOTAL        ACCESS:    6214632 HIT:    2677065 MISS:    3537567
LLC LOAD         ACCESS:    2481301 HIT:     543986 MISS:    1937315
LLC RFO          ACCESS:     831678 HIT:       8829 MISS:     822849
LLC PREFETCH     ACCESS:    1107462 HIT:     342621 MISS:     764841
LLC WRITE        ACCESS:    1782323 HIT:    1772211 MISS:      10112
LLC TRANSLATION  ACCESS:      11868 HIT:       9418 MISS:       2450
LLC PREFETCH REQUESTED:    1107462 ISSUED:    1107462 USEFUL:     522650 USELESS:       8242
LLC AVERAGE MISS LATENCY: 1059 cycles
cpu0_DTLB TOTAL        ACCESS:  123611874 HIT:  116387634 MISS:    7224240
cpu0_DTLB LOAD         ACCESS:  123611874 HIT:  116387634 MISS:    7224240
cpu0_DTLB RFO          ACCESS:          0 HIT:          0 MISS:          0
cpu0_DTLB PREFETCH     ACCESS:          0 HIT:          0 MISS:          0
cpu0_DTLB WRITE        ACCESS:          0 HIT:          0 MISS:          0
cpu0_DTLB TRANSLATION  ACCESS:          0 HIT:          0 MISS:          0
cpu0_DTLB PREFETCH REQUESTED:          0 ISSUED:          0 USEFUL:          0 USELESS:          0
cpu0_DTLB AVERAGE MISS LATENCY: 5.151 cycles
cpu0_ITLB TOTAL        ACCESS:     718066 HIT:     717860 MISS:        206
cpu0_ITLB LOAD         ACCESS:     718066 HIT:     717860 MISS:        206
cpu0_ITLB RFO          ACCESS:          0 HIT:          0 MISS:          0
cpu0_ITLB PREFETCH     ACCESS:          0 HIT:          0 MISS:          0
cpu0_ITLB WRITE        ACCESS:          0 HIT:          0 MISS:          0
cpu0_ITLB TRANSLATION  ACCESS:          0 HIT:          0 MISS:          0
cpu0_ITLB PREFETCH REQUESTED:          0 ISSUED:          0 USEFUL:          0 USELESS:          0
cpu0_ITLB AVERAGE MISS LATENCY: 347.1 cycles
cpu0_L1D TOTAL        ACCESS:  177176375 HIT:  167355322 MISS:    9821053
cpu0_L1D LOAD         ACCESS:  140122782 HIT:  134149989 MISS:    5972793
cpu0_L1D RFO          ACCESS:          0 HIT:          0 MISS:          0
cpu0_L1D PREFETCH     ACCESS:          0 HIT:          0 MISS:          0
cpu0_L1D WRITE        ACCESS:   37000997 HIT:   33177665 MISS:    3823332
cpu0_L1D TRANSLATION  ACCESS:      52596 HIT:      27668 MISS:      24928
cpu0_L1D PREFETCH REQUESTED:          0 ISSUED:          0 USEFUL:          0 USELESS:          0
cpu0_L1D AVERAGE MISS LATENCY: 304.1 cycles
cpu0_L1I TOTAL        ACCESS:    1104326 HIT:    1101597 MISS:       2729
cpu0_L1I LOAD         ACCESS:    1104326 HIT:    1101597 MISS:       2729
cpu0_L1I RFO          ACCESS:          0 HIT:          0 MISS:          0
cpu0_L1I PREFETCH     ACCESS:          0 HIT:          0 MISS:          0
cpu0_L1I WRITE        ACCESS:          0 HIT:          0 MISS:          0
cpu0_L1I TRANSLATION  ACCESS:          0 HIT:          0 MISS:          0
cpu0_L1I PREFETCH REQUESTED:          0 ISSUED:          0 USEFUL:          0 USELESS:          0
cpu0_L1I AVERAGE MISS LATENCY: 516.2 cycles
cpu0_L2C TOTAL        ACCESS:    5978490 HIT:    2649312 MISS:    3329178
cpu0_L2C LOAD         ACCESS:    3057633 HIT:     576331 MISS:    2481302
cpu0_L2C RFO          ACCESS:     878296 HIT:      46618 MISS:     831678
cpu0_L2C PREFETCH     ACCESS:          0 HIT:          0 MISS:          0
cpu0_L2C WRITE        ACCESS:    2017679 HIT:    2013349 MISS:       4330
cpu0_L2C TRANSLATION  ACCESS:      24882 HIT:      13014 MISS:      11868
cpu0_L2C PREFETCH REQUESTED:          0 ISSUED:          0 USEFUL:          0 USELESS:          0
cpu0_L2C AVERAGE MISS LATENCY: 961.4 cycles
cpu0_STLB TOTAL        ACCESS:    3989019 HIT:    3936433 MISS:      52586
cpu0_STLB LOAD         ACCESS:    3989019 HIT:    3936433 MISS:      52586
cpu0_STLB RFO          ACCESS:          0 HIT:          0 MISS:          0
cpu0_STLB PREFETCH     ACCESS:          0 HIT:          0 MISS:          0
cpu0_STLB WRITE        ACCESS:          0 HIT:          0 MISS:          0
cpu0_STLB TRANSLATION  ACCESS:          0 HIT:          0 MISS:          0
cpu0_STLB PREFETCH REQUESTED:          0 ISSUED:          0 USEFUL:          0 USELESS:          0
cpu0_STLB AVERAGE MISS LATENCY: 463.3 cycles

DRAM Statistics

Channel 0 RQ ROW_BUFFER_HIT:     824812
  ROW_BUFFER_MISS:    2297643
 AVG DBUS CONGESTED CYCLE: 3.942
WQ ROW_BUFFER_HIT: Channel 0 
  ROW_BUFFER_MISS:     166787
  FULL:    1502384
