WARNING: physical memory size is smaller than virtual memory size.

*** ChampSim Multicore Out-of-Order Simulator ***
Warmup Instructions: 50000000
Simulation Instructions: 600000000
Number of CPUs: 1
Page size: 4096

Off-chip DRAM Size: 4 GiB Channels: 1 Width: 64-bit Data Race: 3200 MT/s
Heartbeat CPU 0 instructions: 10000000 cycles: 2500202 heartbeat IPC: 4 cumulative IPC: 4 (Simulation time: 00 hr 00 min 35 sec)
Heartbeat CPU 0 instructions: 20000000 cycles: 5000202 heartbeat IPC: 4 cumulative IPC: 4 (Simulation time: 00 hr 01 min 10 sec)
Heartbeat CPU 0 instructions: 30000000 cycles: 7500202 heartbeat IPC: 4 cumulative IPC: 4 (Simulation time: 00 hr 01 min 44 sec)
Heartbeat CPU 0 instructions: 40000000 cycles: 10000202 heartbeat IPC: 4 cumulative IPC: 4 (Simulation time: 00 hr 02 min 18 sec)
Heartbeat CPU 0 instructions: 50000000 cycles: 12500202 heartbeat IPC: 4 cumulative IPC: 4 (Simulation time: 00 hr 02 min 53 sec)
Warmup finished CPU 0 instructions: 50000000 cycles: 12500203 cumulative IPC: 4 (Simulation time: 00 hr 02 min 53 sec)
Warmup complete CPU 0 instructions: 50000000 cycles: 12500203 cumulative IPC: 4 (Simulation time: 00 hr 02 min 53 sec)
Heartbeat CPU 0 instructions: 60000004 cycles: 15001959 heartbeat IPC: 3.997 cumulative IPC: 3.997 (Simulation time: 00 hr 03 min 33 sec)
Heartbeat CPU 0 instructions: 70000003 cycles: 17503710 heartbeat IPC: 3.997 cumulative IPC: 3.997 (Simulation time: 00 hr 04 min 14 sec)
Heartbeat CPU 0 instructions: 80000004 cycles: 20005471 heartbeat IPC: 3.997 cumulative IPC: 3.997 (Simulation time: 00 hr 04 min 55 sec)
Heartbeat CPU 0 instructions: 90000000 cycles: 22508684 heartbeat IPC: 3.995 cumulative IPC: 3.997 (Simulation time: 00 hr 05 min 35 sec)
Heartbeat CPU 0 instructions: 100000001 cycles: 25010732 heartbeat IPC: 3.997 cumulative IPC: 3.997 (Simulation time: 00 hr 06 min 14 sec)
Heartbeat CPU 0 instructions: 110000000 cycles: 27512659 heartbeat IPC: 3.997 cumulative IPC: 3.997 (Simulation time: 00 hr 06 min 53 sec)
Heartbeat CPU 0 instructions: 120000004 cycles: 30014421 heartbeat IPC: 3.997 cumulative IPC: 3.997 (Simulation time: 00 hr 07 min 32 sec)
Heartbeat CPU 0 instructions: 130000000 cycles: 32516641 heartbeat IPC: 3.996 cumulative IPC: 3.997 (Simulation time: 00 hr 08 min 11 sec)
Heartbeat CPU 0 instructions: 140000004 cycles: 35018863 heartbeat IPC: 3.996 cumulative IPC: 3.997 (Simulation time: 00 hr 08 min 49 sec)
Heartbeat CPU 0 instructions: 150000000 cycles: 37522275 heartbeat IPC: 3.995 cumulative IPC: 3.996 (Simulation time: 00 hr 09 min 28 sec)
Heartbeat CPU 0 instructions: 160000001 cycles: 40024554 heartbeat IPC: 3.996 cumulative IPC: 3.996 (Simulation time: 00 hr 10 min 08 sec)
Heartbeat CPU 0 instructions: 170000000 cycles: 42526833 heartbeat IPC: 3.996 cumulative IPC: 3.996 (Simulation time: 00 hr 10 min 48 sec)
Heartbeat CPU 0 instructions: 180000003 cycles: 45028597 heartbeat IPC: 3.997 cumulative IPC: 3.997 (Simulation time: 00 hr 11 min 28 sec)
Heartbeat CPU 0 instructions: 190000000 cycles: 47531555 heartbeat IPC: 3.995 cumulative IPC: 3.996 (Simulation time: 00 hr 12 min 07 sec)
Heartbeat CPU 0 instructions: 200000004 cycles: 50034525 heartbeat IPC: 3.995 cumulative IPC: 3.996 (Simulation time: 00 hr 12 min 46 sec)
Heartbeat CPU 0 instructions: 210000004 cycles: 52536747 heartbeat IPC: 3.996 cumulative IPC: 3.996 (Simulation time: 00 hr 13 min 24 sec)
Heartbeat CPU 0 instructions: 220000001 cycles: 55039422 heartbeat IPC: 3.996 cumulative IPC: 3.996 (Simulation time: 00 hr 14 min 03 sec)
Heartbeat CPU 0 instructions: 230000000 cycles: 57542002 heartbeat IPC: 3.996 cumulative IPC: 3.996 (Simulation time: 00 hr 14 min 42 sec)
Heartbeat CPU 0 instructions: 240000000 cycles: 91480345 heartbeat IPC: 0.2947 cumulative IPC: 2.406 (Simulation time: 00 hr 18 min 28 sec)
Heartbeat CPU 0 instructions: 250000001 cycles: 100623206 heartbeat IPC: 1.094 cumulative IPC: 2.27 (Simulation time: 00 hr 20 min 00 sec)
Heartbeat CPU 0 instructions: 260000001 cycles: 109777292 heartbeat IPC: 1.092 cumulative IPC: 2.159 (Simulation time: 00 hr 21 min 32 sec)
Heartbeat CPU 0 instructions: 270000001 cycles: 122094459 heartbeat IPC: 0.8119 cumulative IPC: 2.007 (Simulation time: 00 hr 23 min 30 sec)
Heartbeat CPU 0 instructions: 280000002 cycles: 133704080 heartbeat IPC: 0.8614 cumulative IPC: 1.898 (Simulation time: 00 hr 25 min 22 sec)
Heartbeat CPU 0 instructions: 290000001 cycles: 142650761 heartbeat IPC: 1.118 cumulative IPC: 1.844 (Simulation time: 00 hr 26 min 54 sec)
Heartbeat CPU 0 instructions: 300000002 cycles: 151544077 heartbeat IPC: 1.124 cumulative IPC: 1.798 (Simulation time: 00 hr 28 min 26 sec)
Heartbeat CPU 0 instructions: 310000001 cycles: 160463644 heartbeat IPC: 1.121 cumulative IPC: 1.757 (Simulation time: 00 hr 29 min 59 sec)
Heartbeat CPU 0 instructions: 320000001 cycles: 169291039 heartbeat IPC: 1.133 cumulative IPC: 1.722 (Simulation time: 00 hr 31 min 32 sec)
Heartbeat CPU 0 instructions: 330000002 cycles: 177899467 heartbeat IPC: 1.162 cumulative IPC: 1.693 (Simulation time: 00 hr 33 min 07 sec)
Heartbeat CPU 0 instructions: 340000004 cycles: 186280846 heartbeat IPC: 1.193 cumulative IPC: 1.669 (Simulation time: 00 hr 34 min 38 sec)
Heartbeat CPU 0 instructions: 350000003 cycles: 194690856 heartbeat IPC: 1.189 cumulative IPC: 1.647 (Simulation time: 00 hr 36 min 10 sec)
Heartbeat CPU 0 instructions: 360000001 cycles: 203087518 heartbeat IPC: 1.191 cumulative IPC: 1.627 (Simulation time: 00 hr 37 min 42 sec)
Heartbeat CPU 0 instructions: 370000002 cycles: 211378549 heartbeat IPC: 1.206 cumulative IPC: 1.609 (Simulation time: 00 hr 39 min 13 sec)
Heartbeat CPU 0 instructions: 380000003 cycles: 219026430 heartbeat IPC: 1.308 cumulative IPC: 1.598 (Simulation time: 00 hr 40 min 39 sec)
Heartbeat CPU 0 instructions: 390000000 cycles: 226962007 heartbeat IPC: 1.26 cumulative IPC: 1.585 (Simulation time: 00 hr 42 min 09 sec)
Heartbeat CPU 0 instructions: 400000000 cycles: 235290130 heartbeat IPC: 1.201 cumulative IPC: 1.571 (Simulation time: 00 hr 43 min 38 sec)
Heartbeat CPU 0 instructions: 410000002 cycles: 243557408 heartbeat IPC: 1.21 cumulative IPC: 1.558 (Simulation time: 00 hr 45 min 07 sec)
Heartbeat CPU 0 instructions: 420000000 cycles: 251809236 heartbeat IPC: 1.212 cumulative IPC: 1.546 (Simulation time: 00 hr 46 min 35 sec)
Heartbeat CPU 0 instructions: 430000002 cycles: 260099172 heartbeat IPC: 1.206 cumulative IPC: 1.535 (Simulation time: 00 hr 48 min 07 sec)
Heartbeat CPU 0 instructions: 440000004 cycles: 378978931 heartbeat IPC: 0.08412 cumulative IPC: 1.064 (Simulation time: 01 hr 04 min 33 sec)
Heartbeat CPU 0 instructions: 450000003 cycles: 389282379 heartbeat IPC: 0.9705 cumulative IPC: 1.062 (Simulation time: 01 hr 06 min 17 sec)
Heartbeat CPU 0 instructions: 460000004 cycles: 399121810 heartbeat IPC: 1.016 cumulative IPC: 1.06 (Simulation time: 01 hr 07 min 56 sec)
Heartbeat CPU 0 instructions: 470000002 cycles: 409463170 heartbeat IPC: 0.967 cumulative IPC: 1.058 (Simulation time: 01 hr 09 min 39 sec)
Heartbeat CPU 0 instructions: 480000004 cycles: 419404559 heartbeat IPC: 1.006 cumulative IPC: 1.057 (Simulation time: 01 hr 11 min 21 sec)
Heartbeat CPU 0 instructions: 490000002 cycles: 430024590 heartbeat IPC: 0.9416 cumulative IPC: 1.054 (Simulation time: 01 hr 13 min 07 sec)
Heartbeat CPU 0 instructions: 500000003 cycles: 442908414 heartbeat IPC: 0.7762 cumulative IPC: 1.046 (Simulation time: 01 hr 15 min 15 sec)
Heartbeat CPU 0 instructions: 510000004 cycles: 455881765 heartbeat IPC: 0.7708 cumulative IPC: 1.037 (Simulation time: 01 hr 17 min 25 sec)
Heartbeat CPU 0 instructions: 520000000 cycles: 469005194 heartbeat IPC: 0.762 cumulative IPC: 1.03 (Simulation time: 01 hr 19 min 39 sec)
Heartbeat CPU 0 instructions: 530000004 cycles: 481985446 heartbeat IPC: 0.7704 cumulative IPC: 1.022 (Simulation time: 01 hr 21 min 51 sec)
Heartbeat CPU 0 instructions: 540000002 cycles: 494950902 heartbeat IPC: 0.7713 cumulative IPC: 1.016 (Simulation time: 01 hr 23 min 59 sec)
Heartbeat CPU 0 instructions: 550000002 cycles: 505855290 heartbeat IPC: 0.9171 cumulative IPC: 1.013 (Simulation time: 01 hr 25 min 48 sec)
Heartbeat CPU 0 instructions: 560000000 cycles: 516875691 heartbeat IPC: 0.9074 cumulative IPC: 1.011 (Simulation time: 01 hr 27 min 36 sec)
Heartbeat CPU 0 instructions: 570000002 cycles: 528001077 heartbeat IPC: 0.8988 cumulative IPC: 1.009 (Simulation time: 01 hr 29 min 28 sec)
Heartbeat CPU 0 instructions: 580000003 cycles: 539061014 heartbeat IPC: 0.9042 cumulative IPC: 1.007 (Simulation time: 01 hr 31 min 20 sec)
Heartbeat CPU 0 instructions: 590000003 cycles: 550048143 heartbeat IPC: 0.9102 cumulative IPC: 1.005 (Simulation time: 01 hr 33 min 10 sec)
*** Reached end of trace: (0, "traces/lu.A.champsimtrace")
Heartbeat CPU 0 instructions: 600000001 cycles: 561209029 heartbeat IPC: 0.896 cumulative IPC: 1.002 (Simulation time: 01 hr 35 min 02 sec)
Heartbeat CPU 0 instructions: 610000000 cycles: 567632182 heartbeat IPC: 1.557 cumulative IPC: 1.009 (Simulation time: 01 hr 36 min 17 sec)
Heartbeat CPU 0 instructions: 620000000 cycles: 570133961 heartbeat IPC: 3.997 cumulative IPC: 1.022 (Simulation time: 01 hr 36 min 56 sec)
Heartbeat CPU 0 instructions: 630000004 cycles: 572635724 heartbeat IPC: 3.997 cumulative IPC: 1.035 (Simulation time: 01 hr 37 min 35 sec)
Heartbeat CPU 0 instructions: 640000002 cycles: 575137474 heartbeat IPC: 3.997 cumulative IPC: 1.049 (Simulation time: 01 hr 38 min 14 sec)
Heartbeat CPU 0 instructions: 650000001 cycles: 577640202 heartbeat IPC: 3.996 cumulative IPC: 1.062 (Simulation time: 01 hr 38 min 53 sec)
Simulation finished CPU 0 instructions: 600000001 cycles: 565140000 cumulative IPC: 1.062 (Simulation time: 01 hr 38 min 53 sec)
Simulation complete CPU 0 instructions: 600000001 cycles: 565140000 cumulative IPC: 1.062 (Simulation time: 01 hr 38 min 53 sec)

ChampSim completed all CPUs

=== Simulation ===
CPU 0 runs traces/lu.A.champsimtrace
Region of Interest Statistics

CPU 0 cumulative IPC: 1.062 instructions: 600000001 cycles: 565140000
CPU 0 Branch Prediction Accuracy: 98.73% MPKI: 0.2427 Average ROB Occupancy at Mispredict: 326.4
Branch type MPKI
BRANCH_DIRECT_JUMP: 5e-06
BRANCH_INDIRECT: 7.33e-05
BRANCH_CONDITIONAL: 0.243
BRANCH_DIRECT_CALL: 6.67e-06
BRANCH_INDIRECT_CALL: 3.17e-05
BRANCH_RETURN: 1.83e-05

LLC TOTAL        ACCESS:    6209806 HIT:    2686844 MISS:    3522962
LLC LOAD         ACCESS:    2481306 HIT:     549505 MISS:    1931801
LLC RFO          ACCESS:     831679 HIT:       8913 MISS:     822766
LLC PREFETCH     ACCESS:    1102633 HIT:     337543 MISS:     765090
LLC WRITE        ACCESS:    1782333 HIT:    1781559 MISS:        774
LLC TRANSLATION  ACCESS:      11855 HIT:       9324 MISS:       2531
LLC PREFETCH REQUESTED:    1102633 ISSUED:    1102633 USEFUL:     522270 USELESS:       8074
LLC AVERAGE MISS LATENCY: 1035 cycles
cpu0_DTLB TOTAL        ACCESS:  123704723 HIT:  116483146 MISS:    7221577
cpu0_DTLB LOAD         ACCESS:  123704723 HIT:  116483146 MISS:    7221577
cpu0_DTLB RFO          ACCESS:          0 HIT:          0 MISS:          0
cpu0_DTLB PREFETCH     ACCESS:          0 HIT:          0 MISS:          0
cpu0_DTLB WRITE        ACCESS:          0 HIT:          0 MISS:          0
cpu0_DTLB TRANSLATION  ACCESS:          0 HIT:          0 MISS:          0
cpu0_DTLB PREFETCH REQUESTED:          0 ISSUED:          0 USEFUL:          0 USELESS:          0
cpu0_DTLB AVERAGE MISS LATENCY: 5.042 cycles
cpu0_ITLB TOTAL        ACCESS:     718839 HIT:     718633 MISS:        206
cpu0_ITLB LOAD         ACCESS:     718839 HIT:     718633 MISS:        206
cpu0_ITLB RFO          ACCESS:          0 HIT:          0 MISS:          0
cpu0_ITLB PREFETCH     ACCESS:          0 HIT:          0 MISS:          0
cpu0_ITLB WRITE        ACCESS:          0 HIT:          0 MISS:          0
cpu0_ITLB TRANSLATION  ACCESS:          0 HIT:          0 MISS:          0
cpu0_ITLB PREFETCH REQUESTED:          0 ISSUED:          0 USEFUL:          0 USELESS:          0
cpu0_ITLB AVERAGE MISS LATENCY: 324.7 cycles
cpu0_L1D TOTAL        ACCESS:  177317913 HIT:  167469829 MISS:    9848084
cpu0_L1D LOAD         ACCESS:  140264355 HIT:  134263128 MISS:    6001227
cpu0_L1D RFO          ACCESS:          0 HIT:          0 MISS:          0
cpu0_L1D PREFETCH     ACCESS:          0 HIT:          0 MISS:          0
cpu0_L1D WRITE        ACCESS:   37000962 HIT:   33179013 MISS:    3821949
cpu0_L1D TRANSLATION  ACCESS:      52596 HIT:      27688 MISS:      24908
cpu0_L1D PREFETCH REQUESTED:          0 ISSUED:          0 USEFUL:          0 USELESS:          0
cpu0_L1D AVERAGE MISS LATENCY: 296.6 cycles
cpu0_L1I TOTAL        ACCESS:    1105331 HIT:    1102605 MISS:       2726
cpu0_L1I LOAD         ACCESS:    1105331 HIT:    1102605 MISS:       2726
cpu0_L1I RFO          ACCESS:          0 HIT:          0 MISS:          0
cpu0_L1I PREFETCH     ACCESS:          0 HIT:          0 MISS:          0
cpu0_L1I WRITE        ACCESS:          0 HIT:          0 MISS:          0
cpu0_L1I TRANSLATION  ACCESS:          0 HIT:          0 MISS:          0
cpu0_L1I PREFETCH REQUESTED:          0 ISSUED:          0 USEFUL:          0 USELESS:          0
cpu0_L1I AVERAGE MISS LATENCY: 483.2 cycles
cpu0_L2C TOTAL        ACCESS:    5978711 HIT:    2649538 MISS:    3329173
cpu0_L2C LOAD         ACCESS:    3057821 HIT:     576513 MISS:    2481308
cpu0_L2C RFO          ACCESS:     878308 HIT:      46629 MISS:     831679
cpu0_L2C PREFETCH     ACCESS:          0 HIT:          0 MISS:          0
cpu0_L2C WRITE        ACCESS:    2017719 HIT:    2013388 MISS:       4331
cpu0_L2C TRANSLATION  ACCESS:      24863 HIT:      13008 MISS:      11855
cpu0_L2C PREFETCH REQUESTED:          0 ISSUED:          0 USEFUL:          0 USELESS:          0
cpu0_L2C AVERAGE MISS LATENCY: 940.1 cycles
cpu0_STLB TOTAL        ACCESS:    3988987 HIT:    3936401 MISS:      52586
cpu0_STLB LOAD         ACCESS:    3988987 HIT:    3936401 MISS:      52586
cpu0_STLB RFO          ACCESS:          0 HIT:          0 MISS:          0
cpu0_STLB PREFETCH     ACCESS:          0 HIT:          0 MISS:          0
cpu0_STLB WRITE        ACCESS:          0 HIT:          0 MISS:          0
cpu0_STLB TRANSLATION  ACCESS:          0 HIT:          0 MISS:          0
cpu0_STLB PREFETCH REQUESTED:          0 ISSUED:          0 USEFUL:          0 USELESS:          0
cpu0_STLB AVERAGE MISS LATENCY: 440.5 cycles

DRAM Statistics

Channel 0 RQ ROW_BUFFER_HIT:     833082
  ROW_BUFFER_MISS:    2283720
 AVG DBUS CONGESTED CYCLE: 3.938
WQ ROW_BUFFER_HIT: Channel 0 
  ROW_BUFFER_MISS:     270258
  FULL:    1398907
