WARNING: physical memory size is smaller than virtual memory size.

*** ChampSim Multicore Out-of-Order Simulator ***
Warmup Instructions: 50000000
Simulation Instructions: 600000000
Number of CPUs: 1
Page size: 4096

CPU 0 Tage branch predictor
Off-chip DRAM Size: 4 GiB Channels: 1 Width: 64-bit Data Race: 3200 MT/s
Heartbeat CPU 0 instructions: 10000000 cycles: 2500202 heartbeat IPC: 4 cumulative IPC: 4 (Simulation time: 00 hr 00 min 38 sec)
Heartbeat CPU 0 instructions: 20000000 cycles: 5000202 heartbeat IPC: 4 cumulative IPC: 4 (Simulation time: 00 hr 01 min 18 sec)
Heartbeat CPU 0 instructions: 30000000 cycles: 7500202 heartbeat IPC: 4 cumulative IPC: 4 (Simulation time: 00 hr 01 min 57 sec)
Heartbeat CPU 0 instructions: 40000000 cycles: 10000202 heartbeat IPC: 4 cumulative IPC: 4 (Simulation time: 00 hr 02 min 35 sec)
Heartbeat CPU 0 instructions: 50000000 cycles: 12500202 heartbeat IPC: 4 cumulative IPC: 4 (Simulation time: 00 hr 03 min 15 sec)
Warmup finished CPU 0 instructions: 50000000 cycles: 12500203 cumulative IPC: 4 (Simulation time: 00 hr 03 min 15 sec)
Warmup complete CPU 0 instructions: 50000000 cycles: 12500203 cumulative IPC: 4 (Simulation time: 00 hr 03 min 15 sec)
Heartbeat CPU 0 instructions: 60000004 cycles: 15000241 heartbeat IPC: 4 cumulative IPC: 4 (Simulation time: 00 hr 04 min 00 sec)
Heartbeat CPU 0 instructions: 70000003 cycles: 17500265 heartbeat IPC: 4 cumulative IPC: 4 (Simulation time: 00 hr 04 min 46 sec)
Heartbeat CPU 0 instructions: 80000004 cycles: 20000445 heartbeat IPC: 4 cumulative IPC: 4 (Simulation time: 00 hr 05 min 32 sec)
Heartbeat CPU 0 instructions: 90000000 cycles: 22503730 heartbeat IPC: 3.995 cumulative IPC: 3.999 (Simulation time: 00 hr 06 min 16 sec)
Heartbeat CPU 0 instructions: 100000001 cycles: 25004244 heartbeat IPC: 3.999 cumulative IPC: 3.999 (Simulation time: 00 hr 07 min 01 sec)
Heartbeat CPU 0 instructions: 110000000 cycles: 27504278 heartbeat IPC: 4 cumulative IPC: 3.999 (Simulation time: 00 hr 07 min 45 sec)
Heartbeat CPU 0 instructions: 120000004 cycles: 30008421 heartbeat IPC: 3.993 cumulative IPC: 3.998 (Simulation time: 00 hr 08 min 32 sec)
Heartbeat CPU 0 instructions: 130000000 cycles: 32509529 heartbeat IPC: 3.998 cumulative IPC: 3.998 (Simulation time: 00 hr 09 min 17 sec)
Heartbeat CPU 0 instructions: 140000004 cycles: 35009813 heartbeat IPC: 4 cumulative IPC: 3.998 (Simulation time: 00 hr 10 min 01 sec)
Heartbeat CPU 0 instructions: 150000000 cycles: 37511756 heartbeat IPC: 3.997 cumulative IPC: 3.998 (Simulation time: 00 hr 10 min 46 sec)
Heartbeat CPU 0 instructions: 160000001 cycles: 40012965 heartbeat IPC: 3.998 cumulative IPC: 3.998 (Simulation time: 00 hr 11 min 31 sec)
Heartbeat CPU 0 instructions: 170000000 cycles: 42513074 heartbeat IPC: 4 cumulative IPC: 3.998 (Simulation time: 00 hr 12 min 15 sec)
Heartbeat CPU 0 instructions: 180000003 cycles: 45015918 heartbeat IPC: 3.995 cumulative IPC: 3.998 (Simulation time: 00 hr 13 min 00 sec)
Heartbeat CPU 0 instructions: 190000000 cycles: 47516306 heartbeat IPC: 3.999 cumulative IPC: 3.998 (Simulation time: 00 hr 13 min 45 sec)
Heartbeat CPU 0 instructions: 200000004 cycles: 50016722 heartbeat IPC: 3.999 cumulative IPC: 3.998 (Simulation time: 00 hr 14 min 31 sec)
Heartbeat CPU 0 instructions: 210000004 cycles: 52516849 heartbeat IPC: 4 cumulative IPC: 3.998 (Simulation time: 00 hr 15 min 15 sec)
Heartbeat CPU 0 instructions: 220000001 cycles: 55019219 heartbeat IPC: 3.996 cumulative IPC: 3.998 (Simulation time: 00 hr 16 min 00 sec)
Heartbeat CPU 0 instructions: 230000000 cycles: 57519220 heartbeat IPC: 4 cumulative IPC: 3.998 (Simulation time: 00 hr 16 min 45 sec)
Heartbeat CPU 0 instructions: 240000000 cycles: 89581964 heartbeat IPC: 0.3119 cumulative IPC: 2.465 (Simulation time: 00 hr 20 min 29 sec)
Heartbeat CPU 0 instructions: 250000001 cycles: 98281402 heartbeat IPC: 1.149 cumulative IPC: 2.332 (Simulation time: 00 hr 22 min 04 sec)
Heartbeat CPU 0 instructions: 260000001 cycles: 106949584 heartbeat IPC: 1.154 cumulative IPC: 2.223 (Simulation time: 00 hr 23 min 41 sec)
Heartbeat CPU 0 instructions: 270000003 cycles: 114643689 heartbeat IPC: 1.3 cumulative IPC: 2.154 (Simulation time: 00 hr 25 min 06 sec)
Heartbeat CPU 0 instructions: 280000003 cycles: 120249266 heartbeat IPC: 1.784 cumulative IPC: 2.135 (Simulation time: 00 hr 26 min 15 sec)
Heartbeat CPU 0 instructions: 290000000 cycles: 125818853 heartbeat IPC: 1.795 cumulative IPC: 2.118 (Simulation time: 00 hr 27 min 24 sec)
Heartbeat CPU 0 instructions: 300000002 cycles: 131428663 heartbeat IPC: 1.783 cumulative IPC: 2.102 (Simulation time: 00 hr 28 min 34 sec)
Heartbeat CPU 0 instructions: 310000002 cycles: 137012675 heartbeat IPC: 1.791 cumulative IPC: 2.088 (Simulation time: 00 hr 29 min 44 sec)
Heartbeat CPU 0 instructions: 320000000 cycles: 143180716 heartbeat IPC: 1.621 cumulative IPC: 2.066 (Simulation time: 00 hr 31 min 03 sec)
Heartbeat CPU 0 instructions: 330000002 cycles: 151300316 heartbeat IPC: 1.232 cumulative IPC: 2.017 (Simulation time: 00 hr 32 min 37 sec)
Heartbeat CPU 0 instructions: 340000000 cycles: 159431706 heartbeat IPC: 1.23 cumulative IPC: 1.974 (Simulation time: 00 hr 34 min 10 sec)
Heartbeat CPU 0 instructions: 350000003 cycles: 167505125 heartbeat IPC: 1.239 cumulative IPC: 1.935 (Simulation time: 00 hr 35 min 42 sec)
Heartbeat CPU 0 instructions: 360000003 cycles: 175663152 heartbeat IPC: 1.226 cumulative IPC: 1.9 (Simulation time: 00 hr 37 min 15 sec)
Heartbeat CPU 0 instructions: 370000002 cycles: 183658021 heartbeat IPC: 1.251 cumulative IPC: 1.87 (Simulation time: 00 hr 38 min 46 sec)
Heartbeat CPU 0 instructions: 380000003 cycles: 191892867 heartbeat IPC: 1.214 cumulative IPC: 1.84 (Simulation time: 00 hr 40 min 18 sec)
Heartbeat CPU 0 instructions: 390000000 cycles: 200328041 heartbeat IPC: 1.186 cumulative IPC: 1.81 (Simulation time: 00 hr 41 min 51 sec)
Heartbeat CPU 0 instructions: 400000000 cycles: 208643349 heartbeat IPC: 1.203 cumulative IPC: 1.784 (Simulation time: 00 hr 43 min 27 sec)
Heartbeat CPU 0 instructions: 410000002 cycles: 216957650 heartbeat IPC: 1.203 cumulative IPC: 1.761 (Simulation time: 00 hr 45 min 01 sec)
Heartbeat CPU 0 instructions: 420000004 cycles: 225291854 heartbeat IPC: 1.2 cumulative IPC: 1.739 (Simulation time: 00 hr 46 min 39 sec)
Heartbeat CPU 0 instructions: 430000002 cycles: 233598772 heartbeat IPC: 1.204 cumulative IPC: 1.719 (Simulation time: 00 hr 48 min 11 sec)
Heartbeat CPU 0 instructions: 440000004 cycles: 363866638 heartbeat IPC: 0.07676 cumulative IPC: 1.11 (Simulation time: 01 hr 05 min 50 sec)
Heartbeat CPU 0 instructions: 450000003 cycles: 371421895 heartbeat IPC: 1.324 cumulative IPC: 1.114 (Simulation time: 01 hr 07 min 18 sec)
Heartbeat CPU 0 instructions: 460000004 cycles: 380569660 heartbeat IPC: 1.093 cumulative IPC: 1.114 (Simulation time: 01 hr 09 min 01 sec)
Heartbeat CPU 0 instructions: 470000002 cycles: 389342015 heartbeat IPC: 1.14 cumulative IPC: 1.115 (Simulation time: 01 hr 10 min 37 sec)
Heartbeat CPU 0 instructions: 480000004 cycles: 398479303 heartbeat IPC: 1.094 cumulative IPC: 1.114 (Simulation time: 01 hr 12 min 16 sec)
Heartbeat CPU 0 instructions: 490000002 cycles: 407590157 heartbeat IPC: 1.098 cumulative IPC: 1.114 (Simulation time: 01 hr 13 min 54 sec)
Heartbeat CPU 0 instructions: 500000003 cycles: 418782767 heartbeat IPC: 0.8934 cumulative IPC: 1.108 (Simulation time: 01 hr 15 min 51 sec)
Heartbeat CPU 0 instructions: 510000000 cycles: 433023328 heartbeat IPC: 0.7022 cumulative IPC: 1.094 (Simulation time: 01 hr 18 min 15 sec)
Heartbeat CPU 0 instructions: 520000000 cycles: 448326131 heartbeat IPC: 0.6535 cumulative IPC: 1.078 (Simulation time: 01 hr 20 min 48 sec)
Heartbeat CPU 0 instructions: 530000004 cycles: 464047825 heartbeat IPC: 0.6361 cumulative IPC: 1.063 (Simulation time: 01 hr 23 min 21 sec)
Heartbeat CPU 0 instructions: 540000002 cycles: 479202822 heartbeat IPC: 0.6598 cumulative IPC: 1.05 (Simulation time: 01 hr 25 min 50 sec)
Heartbeat CPU 0 instructions: 550000002 cycles: 490855985 heartbeat IPC: 0.8581 cumulative IPC: 1.045 (Simulation time: 01 hr 27 min 51 sec)
Heartbeat CPU 0 instructions: 560000000 cycles: 501294202 heartbeat IPC: 0.958 cumulative IPC: 1.043 (Simulation time: 01 hr 29 min 40 sec)
Heartbeat CPU 0 instructions: 570000002 cycles: 511780853 heartbeat IPC: 0.9536 cumulative IPC: 1.041 (Simulation time: 01 hr 31 min 31 sec)
Heartbeat CPU 0 instructions: 580000000 cycles: 522218858 heartbeat IPC: 0.958 cumulative IPC: 1.04 (Simulation time: 01 hr 33 min 20 sec)
Heartbeat CPU 0 instructions: 590000003 cycles: 532595538 heartbeat IPC: 0.9637 cumulative IPC: 1.038 (Simulation time: 01 hr 35 min 09 sec)
*** Reached end of trace: (0, "traces/lu.A.champsimtrace")
Heartbeat CPU 0 instructions: 600000001 cycles: 543122345 heartbeat IPC: 0.95 cumulative IPC: 1.037 (Simulation time: 01 hr 37 min 00 sec)
Heartbeat CPU 0 instructions: 610000000 cycles: 547057537 heartbeat IPC: 2.541 cumulative IPC: 1.048 (Simulation time: 01 hr 37 min 53 sec)
Heartbeat CPU 0 instructions: 620000000 cycles: 549557538 heartbeat IPC: 4 cumulative IPC: 1.061 (Simulation time: 01 hr 38 min 37 sec)
Heartbeat CPU 0 instructions: 630000004 cycles: 552057539 heartbeat IPC: 4 cumulative IPC: 1.075 (Simulation time: 01 hr 39 min 21 sec)
Heartbeat CPU 0 instructions: 640000002 cycles: 554557539 heartbeat IPC: 4 cumulative IPC: 1.088 (Simulation time: 01 hr 40 min 06 sec)
Heartbeat CPU 0 instructions: 650000001 cycles: 557057538 heartbeat IPC: 4 cumulative IPC: 1.102 (Simulation time: 01 hr 40 min 51 sec)
Simulation finished CPU 0 instructions: 600000001 cycles: 544557336 cumulative IPC: 1.102 (Simulation time: 01 hr 40 min 51 sec)
Simulation complete CPU 0 instructions: 600000001 cycles: 544557336 cumulative IPC: 1.102 (Simulation time: 01 hr 40 min 51 sec)

ChampSim completed all CPUs

=== Simulation ===
CPU 0 runs traces/lu.A.champsimtrace
Region of Interest Statistics

CPU 0 cumulative IPC: 1.102 instructions: 600000001 cycles: 544557336
CPU 0 Branch Prediction Accuracy: 99.98% MPKI: 0.004037 Average ROB Occupancy at Mispredict: 117.7
Branch type MPKI
BRANCH_DIRECT_JUMP: 5e-06
BRANCH_INDIRECT: 7.33e-05
BRANCH_CONDITIONAL: 0.0039
BRANCH_DIRECT_CALL: 6.67e-06
BRANCH_INDIRECT_CALL: 3.17e-05
BRANCH_RETURN: 1.83e-05

LLC TOTAL        ACCESS:    5107186 HIT:    1047904 MISS:    4059282
LLC LOAD         ACCESS:    2481332 HIT:     326769 MISS:    2154563
LLC RFO          ACCESS:     831674 HIT:      58200 MISS:     773474
LLC PREFETCH     ACCESS:          0 HIT:          0 MISS:          0
LLC WRITE        ACCESS:    1782313 HIT:     659165 MISS:    1123148
LLC TRANSLATION  ACCESS:      11867 HIT:       3770 MISS:       8097
LLC PREFETCH REQUESTED:          0 ISSUED:          0 USEFUL:          0 USELESS:          0
LLC AVERAGE MISS LATENCY: 736.2 cycles
cpu0_DTLB TOTAL        ACCESS:  125447385 HIT:  118042172 MISS:    7405213
cpu0_DTLB LOAD         ACCESS:  125447385 HIT:  118042172 MISS:    7405213
cpu0_DTLB RFO          ACCESS:          0 HIT:          0 MISS:          0
cpu0_DTLB PREFETCH     ACCESS:          0 HIT:          0 MISS:          0
cpu0_DTLB WRITE        ACCESS:          0 HIT:          0 MISS:          0
cpu0_DTLB TRANSLATION  ACCESS:          0 HIT:          0 MISS:          0
cpu0_DTLB PREFETCH REQUESTED:          0 ISSUED:          0 USEFUL:          0 USELESS:          0
cpu0_DTLB AVERAGE MISS LATENCY: 5.956 cycles
cpu0_ITLB TOTAL        ACCESS:    1263363 HIT:    1263137 MISS:        226
cpu0_ITLB LOAD         ACCESS:    1263363 HIT:    1263137 MISS:        226
cpu0_ITLB RFO          ACCESS:          0 HIT:          0 MISS:          0
cpu0_ITLB PREFETCH     ACCESS:          0 HIT:          0 MISS:          0
cpu0_ITLB WRITE        ACCESS:          0 HIT:          0 MISS:          0
cpu0_ITLB TRANSLATION  ACCESS:          0 HIT:          0 MISS:          0
cpu0_ITLB PREFETCH REQUESTED:          0 ISSUED:          0 USEFUL:          0 USELESS:          0
cpu0_ITLB AVERAGE MISS LATENCY: 273.1 cycles
cpu0_L1D TOTAL        ACCESS:  179665680 HIT:  170025510 MISS:    9640170
cpu0_L1D LOAD         ACCESS:  142607146 HIT:  136677036 MISS:    5930110
cpu0_L1D RFO          ACCESS:          0 HIT:          0 MISS:          0
cpu0_L1D PREFETCH     ACCESS:          0 HIT:          0 MISS:          0
cpu0_L1D WRITE        ACCESS:   37005934 HIT:   33320770 MISS:    3685164
cpu0_L1D TRANSLATION  ACCESS:      52600 HIT:      27704 MISS:      24896
cpu0_L1D PREFETCH REQUESTED:          0 ISSUED:          0 USEFUL:          0 USELESS:          0
cpu0_L1D AVERAGE MISS LATENCY: 298.9 cycles
cpu0_L1I TOTAL        ACCESS:    1590100 HIT:    1587189 MISS:       2911
cpu0_L1I LOAD         ACCESS:    1590100 HIT:    1587189 MISS:       2911
cpu0_L1I RFO          ACCESS:          0 HIT:          0 MISS:          0
cpu0_L1I PREFETCH     ACCESS:          0 HIT:          0 MISS:          0
cpu0_L1I WRITE        ACCESS:          0 HIT:          0 MISS:          0
cpu0_L1I TRANSLATION  ACCESS:          0 HIT:          0 MISS:          0
cpu0_L1I PREFETCH REQUESTED:          0 ISSUED:          0 USEFUL:          0 USELESS:          0
cpu0_L1I AVERAGE MISS LATENCY: 482.5 cycles
cpu0_L2C TOTAL        ACCESS:    5979196 HIT:    2650008 MISS:    3329188
cpu0_L2C LOAD         ACCESS:    3058500 HIT:     577168 MISS:    2481332
cpu0_L2C RFO          ACCESS:     878125 HIT:      46451 MISS:     831674
cpu0_L2C PREFETCH     ACCESS:          0 HIT:          0 MISS:          0
cpu0_L2C WRITE        ACCESS:    2017727 HIT:    2013412 MISS:       4315
cpu0_L2C TRANSLATION  ACCESS:      24844 HIT:      12977 MISS:      11867
cpu0_L2C PREFETCH REQUESTED:          0 ISSUED:          0 USEFUL:          0 USELESS:          0
cpu0_L2C AVERAGE MISS LATENCY: 918.5 cycles
cpu0_STLB TOTAL        ACCESS:    3993972 HIT:    3941386 MISS:      52586
cpu0_STLB LOAD         ACCESS:    3993972 HIT:    3941386 MISS:      52586
cpu0_STLB RFO          ACCESS:          0 HIT:          0 MISS:          0
cpu0_STLB PREFETCH     ACCESS:          0 HIT:          0 MISS:          0
cpu0_STLB WRITE        ACCESS:          0 HIT:          0 MISS:          0
cpu0_STLB TRANSLATION  ACCESS:          0 HIT:          0 MISS:          0
cpu0_STLB PREFETCH REQUESTED:          0 ISSUED:          0 USEFUL:          0 USELESS:          0
cpu0_STLB AVERAGE MISS LATENCY: 648 cycles

DRAM Statistics

Channel 0 RQ ROW_BUFFER_HIT:     745030
  ROW_BUFFER_MISS:    2189391
 AVG DBUS CONGESTED CYCLE: 3.933
WQ ROW_BUFFER_HIT: Channel 0 
  ROW_BUFFER_MISS:     472616
  FULL:    1187842
