WARNING: physical memory size is smaller than virtual memory size.

*** ChampSim Multicore Out-of-Order Simulator ***
Warmup Instructions: 50000000
Simulation Instructions: 600000000
Number of CPUs: 1
Page size: 4096

CPU 0 Tage branch predictor
Off-chip DRAM Size: 4 GiB Channels: 1 Width: 64-bit Data Race: 3200 MT/s
Heartbeat CPU 0 instructions: 10000001 cycles: 2500202 heartbeat IPC: 4 cumulative IPC: 4 (Simulation time: 00 hr 01 min 04 sec)
Heartbeat CPU 0 instructions: 20000001 cycles: 5000202 heartbeat IPC: 4 cumulative IPC: 4 (Simulation time: 00 hr 02 min 14 sec)
Heartbeat CPU 0 instructions: 30000001 cycles: 7500202 heartbeat IPC: 4 cumulative IPC: 4 (Simulation time: 00 hr 03 min 26 sec)
Heartbeat CPU 0 instructions: 40000001 cycles: 10000202 heartbeat IPC: 4 cumulative IPC: 4 (Simulation time: 00 hr 04 min 23 sec)
Heartbeat CPU 0 instructions: 50000001 cycles: 12500202 heartbeat IPC: 4 cumulative IPC: 4 (Simulation time: 00 hr 05 min 19 sec)
Warmup finished CPU 0 instructions: 50000001 cycles: 12500203 cumulative IPC: 4 (Simulation time: 00 hr 05 min 19 sec)
Warmup complete CPU 0 instructions: 50000001 cycles: 12500203 cumulative IPC: 4 (Simulation time: 00 hr 05 min 19 sec)
Heartbeat CPU 0 instructions: 60000001 cycles: 15000613 heartbeat IPC: 3.999 cumulative IPC: 3.999 (Simulation time: 00 hr 06 min 21 sec)
Heartbeat CPU 0 instructions: 70000004 cycles: 17501885 heartbeat IPC: 3.998 cumulative IPC: 3.999 (Simulation time: 00 hr 07 min 33 sec)
Heartbeat CPU 0 instructions: 80000003 cycles: 20002811 heartbeat IPC: 3.999 cumulative IPC: 3.999 (Simulation time: 00 hr 08 min 43 sec)
Heartbeat CPU 0 instructions: 90000003 cycles: 22505014 heartbeat IPC: 3.996 cumulative IPC: 3.998 (Simulation time: 00 hr 09 min 55 sec)
Heartbeat CPU 0 instructions: 100000002 cycles: 25006303 heartbeat IPC: 3.998 cumulative IPC: 3.998 (Simulation time: 00 hr 11 min 04 sec)
Heartbeat CPU 0 instructions: 110000002 cycles: 27507218 heartbeat IPC: 3.999 cumulative IPC: 3.998 (Simulation time: 00 hr 12 min 11 sec)
Heartbeat CPU 0 instructions: 120000001 cycles: 30008215 heartbeat IPC: 3.998 cumulative IPC: 3.998 (Simulation time: 00 hr 13 min 18 sec)
Heartbeat CPU 0 instructions: 130000001 cycles: 32509708 heartbeat IPC: 3.998 cumulative IPC: 3.998 (Simulation time: 00 hr 14 min 23 sec)
Heartbeat CPU 0 instructions: 140000002 cycles: 35010241 heartbeat IPC: 3.999 cumulative IPC: 3.998 (Simulation time: 00 hr 15 min 28 sec)
Heartbeat CPU 0 instructions: 150000004 cycles: 37510745 heartbeat IPC: 3.999 cumulative IPC: 3.998 (Simulation time: 00 hr 16 min 35 sec)
Heartbeat CPU 0 instructions: 160000003 cycles: 40012920 heartbeat IPC: 3.997 cumulative IPC: 3.998 (Simulation time: 00 hr 17 min 44 sec)
Heartbeat CPU 0 instructions: 170000003 cycles: 42513357 heartbeat IPC: 3.999 cumulative IPC: 3.998 (Simulation time: 00 hr 18 min 52 sec)
Heartbeat CPU 0 instructions: 180000002 cycles: 45015404 heartbeat IPC: 3.997 cumulative IPC: 3.998 (Simulation time: 00 hr 20 min 07 sec)
Heartbeat CPU 0 instructions: 190000000 cycles: 47516906 heartbeat IPC: 3.998 cumulative IPC: 3.998 (Simulation time: 00 hr 21 min 12 sec)
Heartbeat CPU 0 instructions: 200000001 cycles: 50017912 heartbeat IPC: 3.998 cumulative IPC: 3.998 (Simulation time: 00 hr 22 min 20 sec)
Heartbeat CPU 0 instructions: 210000001 cycles: 52518715 heartbeat IPC: 3.999 cumulative IPC: 3.998 (Simulation time: 00 hr 23 min 30 sec)
Heartbeat CPU 0 instructions: 220000002 cycles: 55019833 heartbeat IPC: 3.998 cumulative IPC: 3.998 (Simulation time: 00 hr 24 min 50 sec)
Heartbeat CPU 0 instructions: 230000001 cycles: 57523033 heartbeat IPC: 3.995 cumulative IPC: 3.998 (Simulation time: 00 hr 26 min 49 sec)
Heartbeat CPU 0 instructions: 240000003 cycles: 92919695 heartbeat IPC: 0.2825 cumulative IPC: 2.363 (Simulation time: 00 hr 33 min 28 sec)
Heartbeat CPU 0 instructions: 250000004 cycles: 102657158 heartbeat IPC: 1.027 cumulative IPC: 2.218 (Simulation time: 00 hr 35 min 56 sec)
Heartbeat CPU 0 instructions: 260000004 cycles: 111766134 heartbeat IPC: 1.098 cumulative IPC: 2.116 (Simulation time: 00 hr 38 min 18 sec)
Heartbeat CPU 0 instructions: 270000001 cycles: 122958767 heartbeat IPC: 0.8934 cumulative IPC: 1.992 (Simulation time: 00 hr 40 min 57 sec)
Heartbeat CPU 0 instructions: 280000003 cycles: 130142396 heartbeat IPC: 1.392 cumulative IPC: 1.955 (Simulation time: 00 hr 42 min 54 sec)
Heartbeat CPU 0 instructions: 290000004 cycles: 136476021 heartbeat IPC: 1.579 cumulative IPC: 1.936 (Simulation time: 00 hr 44 min 49 sec)
Heartbeat CPU 0 instructions: 300000000 cycles: 141869460 heartbeat IPC: 1.854 cumulative IPC: 1.932 (Simulation time: 00 hr 46 min 33 sec)
Heartbeat CPU 0 instructions: 310000002 cycles: 148156003 heartbeat IPC: 1.591 cumulative IPC: 1.917 (Simulation time: 00 hr 48 min 29 sec)
Heartbeat CPU 0 instructions: 320000001 cycles: 155980307 heartbeat IPC: 1.278 cumulative IPC: 1.882 (Simulation time: 00 hr 50 min 45 sec)
Heartbeat CPU 0 instructions: 330000001 cycles: 164785491 heartbeat IPC: 1.136 cumulative IPC: 1.839 (Simulation time: 00 hr 53 min 14 sec)
Heartbeat CPU 0 instructions: 340000000 cycles: 172915482 heartbeat IPC: 1.23 cumulative IPC: 1.808 (Simulation time: 00 hr 55 min 26 sec)
Heartbeat CPU 0 instructions: 350000000 cycles: 180683229 heartbeat IPC: 1.287 cumulative IPC: 1.784 (Simulation time: 00 hr 57 min 38 sec)
Heartbeat CPU 0 instructions: 360000003 cycles: 188392202 heartbeat IPC: 1.297 cumulative IPC: 1.762 (Simulation time: 00 hr 59 min 47 sec)
Heartbeat CPU 0 instructions: 370000000 cycles: 196950066 heartbeat IPC: 1.169 cumulative IPC: 1.735 (Simulation time: 01 hr 02 min 07 sec)
Heartbeat CPU 0 instructions: 380000000 cycles: 205612043 heartbeat IPC: 1.154 cumulative IPC: 1.709 (Simulation time: 01 hr 04 min 22 sec)
Heartbeat CPU 0 instructions: 390000000 cycles: 214694656 heartbeat IPC: 1.101 cumulative IPC: 1.682 (Simulation time: 01 hr 06 min 41 sec)
Heartbeat CPU 0 instructions: 400000003 cycles: 223202144 heartbeat IPC: 1.175 cumulative IPC: 1.661 (Simulation time: 01 hr 09 min 03 sec)
Heartbeat CPU 0 instructions: 410000002 cycles: 232555713 heartbeat IPC: 1.069 cumulative IPC: 1.636 (Simulation time: 01 hr 11 min 24 sec)
Heartbeat CPU 0 instructions: 420000002 cycles: 242155039 heartbeat IPC: 1.042 cumulative IPC: 1.611 (Simulation time: 01 hr 13 min 50 sec)
Heartbeat CPU 0 instructions: 430000002 cycles: 251376799 heartbeat IPC: 1.084 cumulative IPC: 1.591 (Simulation time: 01 hr 16 min 28 sec)
Heartbeat CPU 0 instructions: 440000002 cycles: 402251462 heartbeat IPC: 0.06628 cumulative IPC: 1.001 (Simulation time: 01 hr 44 min 59 sec)
Heartbeat CPU 0 instructions: 450000003 cycles: 412567896 heartbeat IPC: 0.9693 cumulative IPC: 0.9998 (Simulation time: 01 hr 47 min 27 sec)
Heartbeat CPU 0 instructions: 460000004 cycles: 422982330 heartbeat IPC: 0.9602 cumulative IPC: 0.9988 (Simulation time: 01 hr 50 min 11 sec)
Heartbeat CPU 0 instructions: 470000001 cycles: 433315639 heartbeat IPC: 0.9677 cumulative IPC: 0.9981 (Simulation time: 01 hr 52 min 55 sec)
Heartbeat CPU 0 instructions: 480000001 cycles: 443652333 heartbeat IPC: 0.9674 cumulative IPC: 0.9973 (Simulation time: 01 hr 55 min 39 sec)
Heartbeat CPU 0 instructions: 490000002 cycles: 454631476 heartbeat IPC: 0.9108 cumulative IPC: 0.9952 (Simulation time: 01 hr 58 min 26 sec)
Heartbeat CPU 0 instructions: 500000000 cycles: 467780341 heartbeat IPC: 0.7605 cumulative IPC: 0.9884 (Simulation time: 02 hr 01 min 23 sec)
Heartbeat CPU 0 instructions: 510000001 cycles: 480986095 heartbeat IPC: 0.7572 cumulative IPC: 0.9819 (Simulation time: 02 hr 04 min 25 sec)
Heartbeat CPU 0 instructions: 520000004 cycles: 495037515 heartbeat IPC: 0.7117 cumulative IPC: 0.974 (Simulation time: 02 hr 07 min 53 sec)
Heartbeat CPU 0 instructions: 530000002 cycles: 509234340 heartbeat IPC: 0.7044 cumulative IPC: 0.9663 (Simulation time: 02 hr 11 min 10 sec)
Heartbeat CPU 0 instructions: 540000003 cycles: 523585510 heartbeat IPC: 0.6968 cumulative IPC: 0.9587 (Simulation time: 02 hr 14 min 26 sec)
Heartbeat CPU 0 instructions: 550000002 cycles: 534735294 heartbeat IPC: 0.8969 cumulative IPC: 0.9574 (Simulation time: 02 hr 17 min 03 sec)
Heartbeat CPU 0 instructions: 560000001 cycles: 544247094 heartbeat IPC: 1.051 cumulative IPC: 0.9591 (Simulation time: 02 hr 20 min 25 sec)
Heartbeat CPU 0 instructions: 570000001 cycles: 553504170 heartbeat IPC: 1.08 cumulative IPC: 0.9612 (Simulation time: 02 hr 22 min 52 sec)
Heartbeat CPU 0 instructions: 580000001 cycles: 563539494 heartbeat IPC: 0.9965 cumulative IPC: 0.9618 (Simulation time: 02 hr 25 min 21 sec)
Heartbeat CPU 0 instructions: 590000000 cycles: 574046680 heartbeat IPC: 0.9517 cumulative IPC: 0.9616 (Simulation time: 02 hr 28 min 00 sec)
*** Reached end of trace: (0, "traces/lu.A.champsimtrace")
Heartbeat CPU 0 instructions: 600000001 cycles: 584208266 heartbeat IPC: 0.9841 cumulative IPC: 0.962 (Simulation time: 02 hr 30 min 39 sec)
Heartbeat CPU 0 instructions: 610000003 cycles: 592188108 heartbeat IPC: 1.253 cumulative IPC: 0.966 (Simulation time: 02 hr 32 min 44 sec)
Heartbeat CPU 0 instructions: 620000001 cycles: 594689715 heartbeat IPC: 3.997 cumulative IPC: 0.9791 (Simulation time: 02 hr 33 min 46 sec)
Heartbeat CPU 0 instructions: 630000001 cycles: 597190505 heartbeat IPC: 3.999 cumulative IPC: 0.992 (Simulation time: 02 hr 34 min 45 sec)
Heartbeat CPU 0 instructions: 640000000 cycles: 599690505 heartbeat IPC: 4 cumulative IPC: 1.005 (Simulation time: 02 hr 35 min 50 sec)
Heartbeat CPU 0 instructions: 650000000 cycles: 602190504 heartbeat IPC: 4 cumulative IPC: 1.017 (Simulation time: 02 hr 37 min 14 sec)
Simulation finished CPU 0 instructions: 600000004 cycles: 589690303 cumulative IPC: 1.017 (Simulation time: 02 hr 37 min 14 sec)
Simulation complete CPU 0 instructions: 600000004 cycles: 589690303 cumulative IPC: 1.017 (Simulation time: 02 hr 37 min 14 sec)

ChampSim completed all CPUs

=== Simulation ===
CPU 0 runs traces/lu.A.champsimtrace
Region of Interest Statistics

CPU 0 cumulative IPC: 1.017 instructions: 600000004 cycles: 589690303
CPU 0 Branch Prediction Accuracy: 99.98% MPKI: 0.00386 Average ROB Occupancy at Mispredict: 114.6
Branch type MPKI
BRANCH_DIRECT_JUMP: 5e-06
BRANCH_INDIRECT: 8e-05
BRANCH_CONDITIONAL: 0.00372
BRANCH_DIRECT_CALL: 6.67e-06
BRANCH_INDIRECT_CALL: 3.17e-05
BRANCH_RETURN: 1.67e-05

LLC TOTAL        ACCESS:    7726635 HIT:    2819092 MISS:    4907543
LLC LOAD         ACCESS:    2482905 HIT:    1418591 MISS:    1064314
LLC RFO          ACCESS:     831656 HIT:      43537 MISS:     788119
LLC PREFETCH     ACCESS:    2617025 HIT:     200427 MISS:    2416598
LLC WRITE        ACCESS:    1783132 HIT:    1149323 MISS:     633809
LLC TRANSLATION  ACCESS:      11917 HIT:       7214 MISS:       4703
LLC PREFETCH REQUESTED:    4622286 ISSUED:    2617025 USEFUL:    1754125 USELESS:      37107
LLC AVERAGE MISS LATENCY: 1510 cycles
cpu0_DTLB TOTAL        ACCESS:  124926520 HIT:  117560191 MISS:    7366329
cpu0_DTLB LOAD         ACCESS:  124926520 HIT:  117560191 MISS:    7366329
cpu0_DTLB RFO          ACCESS:          0 HIT:          0 MISS:          0
cpu0_DTLB PREFETCH     ACCESS:          0 HIT:          0 MISS:          0
cpu0_DTLB WRITE        ACCESS:          0 HIT:          0 MISS:          0
cpu0_DTLB TRANSLATION  ACCESS:          0 HIT:          0 MISS:          0
cpu0_DTLB PREFETCH REQUESTED:          0 ISSUED:          0 USEFUL:          0 USELESS:          0
cpu0_DTLB AVERAGE MISS LATENCY: 6.423 cycles
cpu0_ITLB TOTAL        ACCESS:    1254559 HIT:    1254345 MISS:        214
cpu0_ITLB LOAD         ACCESS:    1254559 HIT:    1254345 MISS:        214
cpu0_ITLB RFO          ACCESS:          0 HIT:          0 MISS:          0
cpu0_ITLB PREFETCH     ACCESS:          0 HIT:          0 MISS:          0
cpu0_ITLB WRITE        ACCESS:          0 HIT:          0 MISS:          0
cpu0_ITLB TRANSLATION  ACCESS:          0 HIT:          0 MISS:          0
cpu0_ITLB PREFETCH REQUESTED:          0 ISSUED:          0 USEFUL:          0 USELESS:          0
cpu0_ITLB AVERAGE MISS LATENCY: 413.5 cycles
cpu0_L1D TOTAL        ACCESS:  178900354 HIT:  169226873 MISS:    9673481
cpu0_L1D LOAD         ACCESS:  141848950 HIT:  135991635 MISS:    5857315
cpu0_L1D RFO          ACCESS:          0 HIT:          0 MISS:          0
cpu0_L1D PREFETCH     ACCESS:          0 HIT:          0 MISS:          0
cpu0_L1D WRITE        ACCESS:   36998814 HIT:   33207533 MISS:    3791281
cpu0_L1D TRANSLATION  ACCESS:      52590 HIT:      27705 MISS:      24885
cpu0_L1D PREFETCH REQUESTED:          0 ISSUED:          0 USEFUL:          0 USELESS:          0
cpu0_L1D AVERAGE MISS LATENCY: 300.4 cycles
cpu0_L1I TOTAL        ACCESS:    1576407 HIT:    1573540 MISS:       2867
cpu0_L1I LOAD         ACCESS:    1576407 HIT:    1573540 MISS:       2867
cpu0_L1I RFO          ACCESS:          0 HIT:          0 MISS:          0
cpu0_L1I PREFETCH     ACCESS:          0 HIT:          0 MISS:          0
cpu0_L1I WRITE        ACCESS:          0 HIT:          0 MISS:          0
cpu0_L1I TRANSLATION  ACCESS:          0 HIT:          0 MISS:          0
cpu0_L1I PREFETCH REQUESTED:          0 ISSUED:          0 USEFUL:          0 USELESS:          0
cpu0_L1I AVERAGE MISS LATENCY: 555.3 cycles
cpu0_L2C TOTAL        ACCESS:    5979525 HIT:    2648845 MISS:    3330680
cpu0_L2C LOAD         ACCESS:    3074703 HIT:     591798 MISS:    2482905
cpu0_L2C RFO          ACCESS:     877428 HIT:      45772 MISS:     831656
cpu0_L2C PREFETCH     ACCESS:          0 HIT:          0 MISS:          0
cpu0_L2C WRITE        ACCESS:    2002562 HIT:    1998360 MISS:       4202
cpu0_L2C TRANSLATION  ACCESS:      24832 HIT:      12915 MISS:      11917
cpu0_L2C PREFETCH REQUESTED:          0 ISSUED:          0 USEFUL:          0 USELESS:          0
cpu0_L2C AVERAGE MISS LATENCY: 938.3 cycles
cpu0_STLB TOTAL        ACCESS:    3991929 HIT:    3939347 MISS:      52582
cpu0_STLB LOAD         ACCESS:    3991929 HIT:    3939347 MISS:      52582
cpu0_STLB RFO          ACCESS:          0 HIT:          0 MISS:          0
cpu0_STLB PREFETCH     ACCESS:          0 HIT:          0 MISS:          0
cpu0_STLB WRITE        ACCESS:          0 HIT:          0 MISS:          0
cpu0_STLB TRANSLATION  ACCESS:          0 HIT:          0 MISS:          0
cpu0_STLB PREFETCH REQUESTED:          0 ISSUED:          0 USEFUL:          0 USELESS:          0
cpu0_STLB AVERAGE MISS LATENCY: 714.8 cycles

DRAM Statistics

Channel 0 RQ ROW_BUFFER_HIT:     741241
  ROW_BUFFER_MISS:    2424009
 AVG DBUS CONGESTED CYCLE: 3.976
WQ ROW_BUFFER_HIT: Channel 0 
  ROW_BUFFER_MISS:     231709
  FULL:    1482366
