WARNING: physical memory size is smaller than virtual memory size.

*** ChampSim Multicore Out-of-Order Simulator ***
Warmup Instructions: 50000000
Simulation Instructions: 600000000
Number of CPUs: 1
Page size: 4096

Off-chip DRAM Size: 4 GiB Channels: 1 Width: 64-bit Data Race: 3200 MT/s
Heartbeat CPU 0 instructions: 10000000 cycles: 2500202 heartbeat IPC: 4 cumulative IPC: 4 (Simulation time: 00 hr 00 min 52 sec)
Heartbeat CPU 0 instructions: 20000000 cycles: 5000202 heartbeat IPC: 4 cumulative IPC: 4 (Simulation time: 00 hr 01 min 44 sec)
Heartbeat CPU 0 instructions: 30000000 cycles: 7500202 heartbeat IPC: 4 cumulative IPC: 4 (Simulation time: 00 hr 02 min 27 sec)
Heartbeat CPU 0 instructions: 40000000 cycles: 10000202 heartbeat IPC: 4 cumulative IPC: 4 (Simulation time: 00 hr 03 min 12 sec)
Heartbeat CPU 0 instructions: 50000000 cycles: 12500202 heartbeat IPC: 4 cumulative IPC: 4 (Simulation time: 00 hr 04 min 00 sec)
Warmup finished CPU 0 instructions: 50000000 cycles: 12500203 cumulative IPC: 4 (Simulation time: 00 hr 04 min 00 sec)
Warmup complete CPU 0 instructions: 50000000 cycles: 12500203 cumulative IPC: 4 (Simulation time: 00 hr 04 min 00 sec)
Heartbeat CPU 0 instructions: 60000004 cycles: 15134821 heartbeat IPC: 3.796 cumulative IPC: 3.796 (Simulation time: 00 hr 04 min 49 sec)
Heartbeat CPU 0 instructions: 70000001 cycles: 17770400 heartbeat IPC: 3.794 cumulative IPC: 3.795 (Simulation time: 00 hr 05 min 41 sec)
Heartbeat CPU 0 instructions: 80000003 cycles: 20405507 heartbeat IPC: 3.795 cumulative IPC: 3.795 (Simulation time: 00 hr 06 min 31 sec)
Heartbeat CPU 0 instructions: 90000004 cycles: 23041286 heartbeat IPC: 3.794 cumulative IPC: 3.795 (Simulation time: 00 hr 07 min 23 sec)
Heartbeat CPU 0 instructions: 100000002 cycles: 25675893 heartbeat IPC: 3.796 cumulative IPC: 3.795 (Simulation time: 00 hr 08 min 12 sec)
Heartbeat CPU 0 instructions: 110000003 cycles: 28311243 heartbeat IPC: 3.795 cumulative IPC: 3.795 (Simulation time: 00 hr 09 min 04 sec)
Heartbeat CPU 0 instructions: 120000004 cycles: 30946077 heartbeat IPC: 3.795 cumulative IPC: 3.795 (Simulation time: 00 hr 09 min 55 sec)
Heartbeat CPU 0 instructions: 130000004 cycles: 33581088 heartbeat IPC: 3.795 cumulative IPC: 3.795 (Simulation time: 00 hr 10 min 47 sec)
Heartbeat CPU 0 instructions: 140000004 cycles: 36215702 heartbeat IPC: 3.796 cumulative IPC: 3.795 (Simulation time: 00 hr 11 min 37 sec)
Heartbeat CPU 0 instructions: 150000000 cycles: 38850544 heartbeat IPC: 3.795 cumulative IPC: 3.795 (Simulation time: 00 hr 12 min 27 sec)
Heartbeat CPU 0 instructions: 160000001 cycles: 41485918 heartbeat IPC: 3.795 cumulative IPC: 3.795 (Simulation time: 00 hr 13 min 21 sec)
Heartbeat CPU 0 instructions: 170000000 cycles: 44120903 heartbeat IPC: 3.795 cumulative IPC: 3.795 (Simulation time: 00 hr 14 min 11 sec)
Heartbeat CPU 0 instructions: 180000003 cycles: 46755976 heartbeat IPC: 3.795 cumulative IPC: 3.795 (Simulation time: 00 hr 15 min 03 sec)
Heartbeat CPU 0 instructions: 190000003 cycles: 49390734 heartbeat IPC: 3.795 cumulative IPC: 3.795 (Simulation time: 00 hr 15 min 55 sec)
Heartbeat CPU 0 instructions: 200000002 cycles: 52026260 heartbeat IPC: 3.794 cumulative IPC: 3.795 (Simulation time: 00 hr 16 min 48 sec)
Heartbeat CPU 0 instructions: 210000003 cycles: 54661119 heartbeat IPC: 3.795 cumulative IPC: 3.795 (Simulation time: 00 hr 17 min 39 sec)
Heartbeat CPU 0 instructions: 220000002 cycles: 57296393 heartbeat IPC: 3.795 cumulative IPC: 3.795 (Simulation time: 00 hr 18 min 31 sec)
Heartbeat CPU 0 instructions: 230000002 cycles: 59931223 heartbeat IPC: 3.795 cumulative IPC: 3.795 (Simulation time: 00 hr 19 min 21 sec)
Heartbeat CPU 0 instructions: 240000002 cycles: 91027015 heartbeat IPC: 0.3216 cumulative IPC: 2.42 (Simulation time: 00 hr 24 min 21 sec)
Heartbeat CPU 0 instructions: 250000000 cycles: 100109616 heartbeat IPC: 1.101 cumulative IPC: 2.283 (Simulation time: 00 hr 26 min 27 sec)
Heartbeat CPU 0 instructions: 260000003 cycles: 109186770 heartbeat IPC: 1.102 cumulative IPC: 2.172 (Simulation time: 00 hr 28 min 33 sec)
Heartbeat CPU 0 instructions: 270000000 cycles: 118336222 heartbeat IPC: 1.093 cumulative IPC: 2.079 (Simulation time: 00 hr 30 min 42 sec)
Heartbeat CPU 0 instructions: 280000003 cycles: 126366676 heartbeat IPC: 1.245 cumulative IPC: 2.02 (Simulation time: 00 hr 32 min 38 sec)
Heartbeat CPU 0 instructions: 290000000 cycles: 134271154 heartbeat IPC: 1.265 cumulative IPC: 1.971 (Simulation time: 00 hr 34 min 31 sec)
Heartbeat CPU 0 instructions: 300000002 cycles: 142232752 heartbeat IPC: 1.256 cumulative IPC: 1.927 (Simulation time: 00 hr 36 min 25 sec)
Heartbeat CPU 0 instructions: 310000002 cycles: 150183022 heartbeat IPC: 1.258 cumulative IPC: 1.888 (Simulation time: 00 hr 38 min 21 sec)
Heartbeat CPU 0 instructions: 320000002 cycles: 158207621 heartbeat IPC: 1.246 cumulative IPC: 1.853 (Simulation time: 00 hr 40 min 15 sec)
Heartbeat CPU 0 instructions: 330000003 cycles: 166217018 heartbeat IPC: 1.249 cumulative IPC: 1.822 (Simulation time: 00 hr 42 min 16 sec)
Heartbeat CPU 0 instructions: 340000001 cycles: 174293738 heartbeat IPC: 1.238 cumulative IPC: 1.792 (Simulation time: 00 hr 44 min 15 sec)
Heartbeat CPU 0 instructions: 350000001 cycles: 182378403 heartbeat IPC: 1.237 cumulative IPC: 1.766 (Simulation time: 00 hr 46 min 12 sec)
Heartbeat CPU 0 instructions: 360000000 cycles: 190516079 heartbeat IPC: 1.229 cumulative IPC: 1.741 (Simulation time: 00 hr 48 min 12 sec)
Heartbeat CPU 0 instructions: 370000002 cycles: 198563736 heartbeat IPC: 1.243 cumulative IPC: 1.72 (Simulation time: 00 hr 50 min 15 sec)
Heartbeat CPU 0 instructions: 380000001 cycles: 206934812 heartbeat IPC: 1.195 cumulative IPC: 1.697 (Simulation time: 00 hr 52 min 35 sec)
Heartbeat CPU 0 instructions: 390000003 cycles: 216060812 heartbeat IPC: 1.096 cumulative IPC: 1.67 (Simulation time: 00 hr 54 min 51 sec)
Heartbeat CPU 0 instructions: 400000004 cycles: 224174495 heartbeat IPC: 1.232 cumulative IPC: 1.653 (Simulation time: 00 hr 56 min 58 sec)
Heartbeat CPU 0 instructions: 410000001 cycles: 232949444 heartbeat IPC: 1.14 cumulative IPC: 1.633 (Simulation time: 00 hr 59 min 11 sec)
Heartbeat CPU 0 instructions: 420000000 cycles: 241762913 heartbeat IPC: 1.135 cumulative IPC: 1.614 (Simulation time: 01 hr 01 min 24 sec)
Heartbeat CPU 0 instructions: 430000001 cycles: 250492322 heartbeat IPC: 1.146 cumulative IPC: 1.597 (Simulation time: 01 hr 03 min 36 sec)
Heartbeat CPU 0 instructions: 440000003 cycles: 362751909 heartbeat IPC: 0.08908 cumulative IPC: 1.113 (Simulation time: 01 hr 25 min 56 sec)
Heartbeat CPU 0 instructions: 450000002 cycles: 371920167 heartbeat IPC: 1.091 cumulative IPC: 1.113 (Simulation time: 01 hr 28 min 11 sec)
Heartbeat CPU 0 instructions: 460000002 cycles: 381225824 heartbeat IPC: 1.075 cumulative IPC: 1.112 (Simulation time: 01 hr 30 min 27 sec)
Heartbeat CPU 0 instructions: 470000003 cycles: 390389817 heartbeat IPC: 1.091 cumulative IPC: 1.111 (Simulation time: 01 hr 32 min 43 sec)
Heartbeat CPU 0 instructions: 480000003 cycles: 399792379 heartbeat IPC: 1.064 cumulative IPC: 1.11 (Simulation time: 01 hr 35 min 03 sec)
Heartbeat CPU 0 instructions: 490000001 cycles: 409134507 heartbeat IPC: 1.07 cumulative IPC: 1.109 (Simulation time: 01 hr 37 min 21 sec)
Heartbeat CPU 0 instructions: 500000003 cycles: 426500335 heartbeat IPC: 0.5758 cumulative IPC: 1.087 (Simulation time: 01 hr 41 min 20 sec)
Heartbeat CPU 0 instructions: 510000003 cycles: 444375772 heartbeat IPC: 0.5594 cumulative IPC: 1.065 (Simulation time: 01 hr 45 min 24 sec)
Heartbeat CPU 0 instructions: 520000003 cycles: 462234692 heartbeat IPC: 0.5599 cumulative IPC: 1.045 (Simulation time: 01 hr 49 min 27 sec)
Heartbeat CPU 0 instructions: 530000000 cycles: 479983993 heartbeat IPC: 0.5634 cumulative IPC: 1.027 (Simulation time: 01 hr 53 min 28 sec)
Heartbeat CPU 0 instructions: 540000002 cycles: 497707017 heartbeat IPC: 0.5642 cumulative IPC: 1.01 (Simulation time: 01 hr 57 min 30 sec)
Heartbeat CPU 0 instructions: 550000000 cycles: 510858903 heartbeat IPC: 0.7603 cumulative IPC: 1.003 (Simulation time: 02 hr 00 min 32 sec)
Heartbeat CPU 0 instructions: 560000002 cycles: 522063982 heartbeat IPC: 0.8925 cumulative IPC: 1.001 (Simulation time: 02 hr 03 min 13 sec)
Heartbeat CPU 0 instructions: 570000000 cycles: 533021402 heartbeat IPC: 0.9126 cumulative IPC: 0.999 (Simulation time: 02 hr 06 min 04 sec)
Heartbeat CPU 0 instructions: 580000001 cycles: 544244665 heartbeat IPC: 0.891 cumulative IPC: 0.9967 (Simulation time: 02 hr 08 min 45 sec)
Heartbeat CPU 0 instructions: 590000000 cycles: 555530737 heartbeat IPC: 0.886 cumulative IPC: 0.9944 (Simulation time: 02 hr 11 min 24 sec)
*** Reached end of trace: (0, "traces/lu.A.champsimtrace")
Heartbeat CPU 0 instructions: 600000001 cycles: 566910624 heartbeat IPC: 0.8787 cumulative IPC: 0.992 (Simulation time: 02 hr 14 min 04 sec)
Heartbeat CPU 0 instructions: 610000004 cycles: 576886368 heartbeat IPC: 1.002 cumulative IPC: 0.9922 (Simulation time: 02 hr 16 min 18 sec)
Heartbeat CPU 0 instructions: 620000003 cycles: 579521446 heartbeat IPC: 3.795 cumulative IPC: 1.005 (Simulation time: 02 hr 17 min 11 sec)
Heartbeat CPU 0 instructions: 630000002 cycles: 582156446 heartbeat IPC: 3.795 cumulative IPC: 1.018 (Simulation time: 02 hr 18 min 05 sec)
Heartbeat CPU 0 instructions: 640000000 cycles: 584791290 heartbeat IPC: 3.795 cumulative IPC: 1.031 (Simulation time: 02 hr 18 min 59 sec)
Heartbeat CPU 0 instructions: 650000004 cycles: 587425926 heartbeat IPC: 3.796 cumulative IPC: 1.044 (Simulation time: 02 hr 19 min 53 sec)
Simulation finished CPU 0 instructions: 600000004 cycles: 574925724 cumulative IPC: 1.044 (Simulation time: 02 hr 19 min 53 sec)
Simulation complete CPU 0 instructions: 600000004 cycles: 574925724 cumulative IPC: 1.044 (Simulation time: 02 hr 19 min 53 sec)

ChampSim completed all CPUs

=== Simulation ===
CPU 0 runs traces/lu.A.champsimtrace
Region of Interest Statistics

CPU 0 cumulative IPC: 1.044 instructions: 600000004 cycles: 574925724
CPU 0 Branch Prediction Accuracy: 96.62% MPKI: 0.6481 Average ROB Occupancy at Mispredict: 327.2
Branch type MPKI
BRANCH_DIRECT_JUMP: 5e-06
BRANCH_INDIRECT: 7.83e-05
BRANCH_CONDITIONAL: 0.648
BRANCH_DIRECT_CALL: 6.67e-06
BRANCH_INDIRECT_CALL: 3.5e-05
BRANCH_RETURN: 1.83e-05

LLC TOTAL        ACCESS:    6214910 HIT:     888559 MISS:    5326351
LLC LOAD         ACCESS:    2481924 HIT:     475220 MISS:    2006704
LLC RFO          ACCESS:     831683 HIT:      10255 MISS:     821428
LLC PREFETCH     ACCESS:    1107167 HIT:     294073 MISS:     813094
LLC WRITE        ACCESS:    1782323 HIT:     108742 MISS:    1673581
LLC TRANSLATION  ACCESS:      11813 HIT:        269 MISS:      11544
LLC PREFETCH REQUESTED:    1107167 ISSUED:    1107167 USEFUL:     526424 USELESS:      32902
LLC AVERAGE MISS LATENCY: 683.3 cycles
cpu0_DTLB TOTAL        ACCESS:  117037868 HIT:  109793448 MISS:    7244420
cpu0_DTLB LOAD         ACCESS:  117037868 HIT:  109793448 MISS:    7244420
cpu0_DTLB RFO          ACCESS:          0 HIT:          0 MISS:          0
cpu0_DTLB PREFETCH     ACCESS:          0 HIT:          0 MISS:          0
cpu0_DTLB WRITE        ACCESS:          0 HIT:          0 MISS:          0
cpu0_DTLB TRANSLATION  ACCESS:          0 HIT:          0 MISS:          0
cpu0_DTLB PREFETCH REQUESTED:          0 ISSUED:          0 USEFUL:          0 USELESS:          0
cpu0_DTLB AVERAGE MISS LATENCY: 7.113 cycles
cpu0_ITLB TOTAL        ACCESS:     711870 HIT:     711650 MISS:        220
cpu0_ITLB LOAD         ACCESS:     711870 HIT:     711650 MISS:        220
cpu0_ITLB RFO          ACCESS:          0 HIT:          0 MISS:          0
cpu0_ITLB PREFETCH     ACCESS:          0 HIT:          0 MISS:          0
cpu0_ITLB WRITE        ACCESS:          0 HIT:          0 MISS:          0
cpu0_ITLB TRANSLATION  ACCESS:          0 HIT:          0 MISS:          0
cpu0_ITLB PREFETCH REQUESTED:          0 ISSUED:          0 USEFUL:          0 USELESS:          0
cpu0_ITLB AVERAGE MISS LATENCY: 314.8 cycles
cpu0_L1D TOTAL        ACCESS:  168762979 HIT:  158979761 MISS:    9783218
cpu0_L1D LOAD         ACCESS:  131710298 HIT:  125781729 MISS:    5928569
cpu0_L1D RFO          ACCESS:          0 HIT:          0 MISS:          0
cpu0_L1D PREFETCH     ACCESS:          0 HIT:          0 MISS:          0
cpu0_L1D WRITE        ACCESS:   37000085 HIT:   33170330 MISS:    3829755
cpu0_L1D TRANSLATION  ACCESS:      52596 HIT:      27702 MISS:      24894
cpu0_L1D PREFETCH REQUESTED:          0 ISSUED:          0 USEFUL:          0 USELESS:          0
cpu0_L1D AVERAGE MISS LATENCY: 299 cycles
cpu0_L1I TOTAL        ACCESS:    1089277 HIT:    1086509 MISS:       2768
cpu0_L1I LOAD         ACCESS:    1089277 HIT:    1086509 MISS:       2768
cpu0_L1I RFO          ACCESS:          0 HIT:          0 MISS:          0
cpu0_L1I PREFETCH     ACCESS:          0 HIT:          0 MISS:          0
cpu0_L1I WRITE        ACCESS:          0 HIT:          0 MISS:          0
cpu0_L1I TRANSLATION  ACCESS:          0 HIT:          0 MISS:          0
cpu0_L1I PREFETCH REQUESTED:          0 ISSUED:          0 USEFUL:          0 USELESS:          0
cpu0_L1I AVERAGE MISS LATENCY: 571 cycles
cpu0_L2C TOTAL        ACCESS:    5940733 HIT:    2611078 MISS:    3329655
cpu0_L2C LOAD         ACCESS:    3053107 HIT:     571183 MISS:    2481924
cpu0_L2C RFO          ACCESS:     871857 HIT:      40174 MISS:     831683
cpu0_L2C PREFETCH     ACCESS:          0 HIT:          0 MISS:          0
cpu0_L2C WRITE        ACCESS:    1990920 HIT:    1986685 MISS:       4235
cpu0_L2C TRANSLATION  ACCESS:      24849 HIT:      13036 MISS:      11813
cpu0_L2C PREFETCH REQUESTED:          0 ISSUED:          0 USEFUL:          0 USELESS:          0
cpu0_L2C AVERAGE MISS LATENCY: 944.3 cycles
cpu0_STLB TOTAL        ACCESS:    4001085 HIT:    3948503 MISS:      52582
cpu0_STLB LOAD         ACCESS:    4001085 HIT:    3948503 MISS:      52582
cpu0_STLB RFO          ACCESS:          0 HIT:          0 MISS:          0
cpu0_STLB PREFETCH     ACCESS:          0 HIT:          0 MISS:          0
cpu0_STLB WRITE        ACCESS:          0 HIT:          0 MISS:          0
cpu0_STLB TRANSLATION  ACCESS:          0 HIT:          0 MISS:          0
cpu0_STLB PREFETCH REQUESTED:          0 ISSUED:          0 USEFUL:          0 USELESS:          0
cpu0_STLB AVERAGE MISS LATENCY: 825.5 cycles

DRAM Statistics

Channel 0 RQ ROW_BUFFER_HIT:     906520
  ROW_BUFFER_MISS:    2322793
 AVG DBUS CONGESTED CYCLE: 3.936
WQ ROW_BUFFER_HIT: Channel 0 
  ROW_BUFFER_MISS:     478657
  FULL:    1282792
