WARNING: physical memory size is smaller than virtual memory size.

*** ChampSim Multicore Out-of-Order Simulator ***
Warmup Instructions: 50000000
Simulation Instructions: 600000000
Number of CPUs: 1
Page size: 4096

Off-chip DRAM Size: 4 GiB Channels: 1 Width: 64-bit Data Race: 3200 MT/s
Heartbeat CPU 0 instructions: 10000000 cycles: 2500202 heartbeat IPC: 4 cumulative IPC: 4 (Simulation time: 00 hr 00 min 30 sec)
Heartbeat CPU 0 instructions: 20000000 cycles: 5000202 heartbeat IPC: 4 cumulative IPC: 4 (Simulation time: 00 hr 01 min 01 sec)
Heartbeat CPU 0 instructions: 30000000 cycles: 7500202 heartbeat IPC: 4 cumulative IPC: 4 (Simulation time: 00 hr 01 min 31 sec)
Heartbeat CPU 0 instructions: 40000000 cycles: 10000202 heartbeat IPC: 4 cumulative IPC: 4 (Simulation time: 00 hr 02 min 03 sec)
Heartbeat CPU 0 instructions: 50000000 cycles: 12500202 heartbeat IPC: 4 cumulative IPC: 4 (Simulation time: 00 hr 02 min 35 sec)
Warmup finished CPU 0 instructions: 50000000 cycles: 12500203 cumulative IPC: 4 (Simulation time: 00 hr 02 min 35 sec)
Warmup complete CPU 0 instructions: 50000000 cycles: 12500203 cumulative IPC: 4 (Simulation time: 00 hr 02 min 35 sec)
Heartbeat CPU 0 instructions: 60000004 cycles: 15134822 heartbeat IPC: 3.796 cumulative IPC: 3.796 (Simulation time: 00 hr 03 min 12 sec)
Heartbeat CPU 0 instructions: 70000003 cycles: 17769446 heartbeat IPC: 3.796 cumulative IPC: 3.796 (Simulation time: 00 hr 03 min 48 sec)
Heartbeat CPU 0 instructions: 80000003 cycles: 20404096 heartbeat IPC: 3.796 cumulative IPC: 3.796 (Simulation time: 00 hr 04 min 25 sec)
Heartbeat CPU 0 instructions: 90000004 cycles: 23038744 heartbeat IPC: 3.796 cumulative IPC: 3.796 (Simulation time: 00 hr 05 min 05 sec)
Heartbeat CPU 0 instructions: 100000002 cycles: 25674019 heartbeat IPC: 3.795 cumulative IPC: 3.795 (Simulation time: 00 hr 05 min 40 sec)
Heartbeat CPU 0 instructions: 110000003 cycles: 28309325 heartbeat IPC: 3.795 cumulative IPC: 3.795 (Simulation time: 00 hr 06 min 16 sec)
Heartbeat CPU 0 instructions: 120000004 cycles: 30945110 heartbeat IPC: 3.794 cumulative IPC: 3.795 (Simulation time: 00 hr 06 min 53 sec)
Heartbeat CPU 0 instructions: 130000000 cycles: 33580159 heartbeat IPC: 3.795 cumulative IPC: 3.795 (Simulation time: 00 hr 07 min 29 sec)
Heartbeat CPU 0 instructions: 140000004 cycles: 36215232 heartbeat IPC: 3.795 cumulative IPC: 3.795 (Simulation time: 00 hr 08 min 06 sec)
Heartbeat CPU 0 instructions: 150000000 cycles: 38850076 heartbeat IPC: 3.795 cumulative IPC: 3.795 (Simulation time: 00 hr 08 min 43 sec)
Heartbeat CPU 0 instructions: 160000001 cycles: 41485558 heartbeat IPC: 3.794 cumulative IPC: 3.795 (Simulation time: 00 hr 09 min 20 sec)
Heartbeat CPU 0 instructions: 170000000 cycles: 44120186 heartbeat IPC: 3.796 cumulative IPC: 3.795 (Simulation time: 00 hr 09 min 57 sec)
Heartbeat CPU 0 instructions: 180000003 cycles: 46754829 heartbeat IPC: 3.796 cumulative IPC: 3.795 (Simulation time: 00 hr 10 min 33 sec)
Heartbeat CPU 0 instructions: 190000000 cycles: 49389681 heartbeat IPC: 3.795 cumulative IPC: 3.795 (Simulation time: 00 hr 11 min 12 sec)
Heartbeat CPU 0 instructions: 200000004 cycles: 52025269 heartbeat IPC: 3.794 cumulative IPC: 3.795 (Simulation time: 00 hr 11 min 48 sec)
Heartbeat CPU 0 instructions: 210000004 cycles: 54660726 heartbeat IPC: 3.794 cumulative IPC: 3.795 (Simulation time: 00 hr 12 min 23 sec)
Heartbeat CPU 0 instructions: 220000001 cycles: 57296044 heartbeat IPC: 3.795 cumulative IPC: 3.795 (Simulation time: 00 hr 12 min 58 sec)
Heartbeat CPU 0 instructions: 230000002 cycles: 59930689 heartbeat IPC: 3.796 cumulative IPC: 3.795 (Simulation time: 00 hr 13 min 32 sec)
Heartbeat CPU 0 instructions: 240000000 cycles: 93928011 heartbeat IPC: 0.2941 cumulative IPC: 2.333 (Simulation time: 00 hr 16 min 59 sec)
Heartbeat CPU 0 instructions: 250000000 cycles: 103071778 heartbeat IPC: 1.094 cumulative IPC: 2.208 (Simulation time: 00 hr 18 min 24 sec)
Heartbeat CPU 0 instructions: 260000001 cycles: 112185213 heartbeat IPC: 1.097 cumulative IPC: 2.107 (Simulation time: 00 hr 19 min 48 sec)
Heartbeat CPU 0 instructions: 270000001 cycles: 122015944 heartbeat IPC: 1.017 cumulative IPC: 2.009 (Simulation time: 00 hr 21 min 17 sec)
Heartbeat CPU 0 instructions: 280000003 cycles: 129604359 heartbeat IPC: 1.318 cumulative IPC: 1.964 (Simulation time: 00 hr 22 min 30 sec)
Heartbeat CPU 0 instructions: 290000001 cycles: 134594710 heartbeat IPC: 2.004 cumulative IPC: 1.966 (Simulation time: 00 hr 23 min 25 sec)
Heartbeat CPU 0 instructions: 300000002 cycles: 139623061 heartbeat IPC: 1.989 cumulative IPC: 1.967 (Simulation time: 00 hr 24 min 21 sec)
Heartbeat CPU 0 instructions: 310000001 cycles: 144665426 heartbeat IPC: 1.983 cumulative IPC: 1.967 (Simulation time: 00 hr 25 min 15 sec)
Heartbeat CPU 0 instructions: 320000002 cycles: 150417115 heartbeat IPC: 1.739 cumulative IPC: 1.958 (Simulation time: 00 hr 26 min 16 sec)
Heartbeat CPU 0 instructions: 330000002 cycles: 158644855 heartbeat IPC: 1.215 cumulative IPC: 1.916 (Simulation time: 00 hr 27 min 38 sec)
Heartbeat CPU 0 instructions: 340000004 cycles: 166614487 heartbeat IPC: 1.255 cumulative IPC: 1.882 (Simulation time: 00 hr 28 min 56 sec)
Heartbeat CPU 0 instructions: 350000003 cycles: 174581276 heartbeat IPC: 1.255 cumulative IPC: 1.851 (Simulation time: 00 hr 30 min 15 sec)
Heartbeat CPU 0 instructions: 360000001 cycles: 182537733 heartbeat IPC: 1.257 cumulative IPC: 1.823 (Simulation time: 00 hr 31 min 34 sec)
Heartbeat CPU 0 instructions: 370000002 cycles: 190482311 heartbeat IPC: 1.259 cumulative IPC: 1.798 (Simulation time: 00 hr 32 min 53 sec)
Heartbeat CPU 0 instructions: 380000003 cycles: 198293731 heartbeat IPC: 1.28 cumulative IPC: 1.776 (Simulation time: 00 hr 34 min 14 sec)
Heartbeat CPU 0 instructions: 390000000 cycles: 206922190 heartbeat IPC: 1.159 cumulative IPC: 1.749 (Simulation time: 00 hr 35 min 54 sec)
Heartbeat CPU 0 instructions: 400000000 cycles: 215889717 heartbeat IPC: 1.115 cumulative IPC: 1.721 (Simulation time: 00 hr 37 min 38 sec)
Heartbeat CPU 0 instructions: 410000002 cycles: 224797565 heartbeat IPC: 1.123 cumulative IPC: 1.696 (Simulation time: 00 hr 39 min 21 sec)
Heartbeat CPU 0 instructions: 420000004 cycles: 233730063 heartbeat IPC: 1.12 cumulative IPC: 1.672 (Simulation time: 00 hr 41 min 00 sec)
Heartbeat CPU 0 instructions: 430000002 cycles: 242691144 heartbeat IPC: 1.116 cumulative IPC: 1.651 (Simulation time: 00 hr 42 min 35 sec)
Heartbeat CPU 0 instructions: 440000004 cycles: 394106292 heartbeat IPC: 0.06604 cumulative IPC: 1.022 (Simulation time: 01 hr 01 min 35 sec)
Heartbeat CPU 0 instructions: 450000003 cycles: 403910250 heartbeat IPC: 1.02 cumulative IPC: 1.022 (Simulation time: 01 hr 03 min 12 sec)
Heartbeat CPU 0 instructions: 460000004 cycles: 413074647 heartbeat IPC: 1.091 cumulative IPC: 1.024 (Simulation time: 01 hr 04 min 42 sec)
Heartbeat CPU 0 instructions: 470000001 cycles: 422681654 heartbeat IPC: 1.041 cumulative IPC: 1.024 (Simulation time: 01 hr 06 min 11 sec)
Heartbeat CPU 0 instructions: 480000000 cycles: 431724181 heartbeat IPC: 1.106 cumulative IPC: 1.026 (Simulation time: 01 hr 07 min 36 sec)
Heartbeat CPU 0 instructions: 490000002 cycles: 441779978 heartbeat IPC: 0.9945 cumulative IPC: 1.025 (Simulation time: 01 hr 09 min 10 sec)
Heartbeat CPU 0 instructions: 500000002 cycles: 454259989 heartbeat IPC: 0.8013 cumulative IPC: 1.019 (Simulation time: 01 hr 11 min 05 sec)
Heartbeat CPU 0 instructions: 510000004 cycles: 466332731 heartbeat IPC: 0.8283 cumulative IPC: 1.014 (Simulation time: 01 hr 12 min 58 sec)
Heartbeat CPU 0 instructions: 520000000 cycles: 478936640 heartbeat IPC: 0.7934 cumulative IPC: 1.008 (Simulation time: 01 hr 14 min 49 sec)
Heartbeat CPU 0 instructions: 530000003 cycles: 491167457 heartbeat IPC: 0.8176 cumulative IPC: 1.003 (Simulation time: 01 hr 16 min 40 sec)
Heartbeat CPU 0 instructions: 540000002 cycles: 503643491 heartbeat IPC: 0.8015 cumulative IPC: 0.9977 (Simulation time: 01 hr 18 min 34 sec)
Heartbeat CPU 0 instructions: 550000002 cycles: 513348428 heartbeat IPC: 1.03 cumulative IPC: 0.9983 (Simulation time: 01 hr 20 min 05 sec)
Heartbeat CPU 0 instructions: 560000000 cycles: 523031840 heartbeat IPC: 1.033 cumulative IPC: 0.999 (Simulation time: 01 hr 21 min 36 sec)
Heartbeat CPU 0 instructions: 570000002 cycles: 532786718 heartbeat IPC: 1.025 cumulative IPC: 0.9994 (Simulation time: 01 hr 23 min 07 sec)
Heartbeat CPU 0 instructions: 580000003 cycles: 542530995 heartbeat IPC: 1.026 cumulative IPC: 0.9999 (Simulation time: 01 hr 24 min 37 sec)
Heartbeat CPU 0 instructions: 590000003 cycles: 552205685 heartbeat IPC: 1.034 cumulative IPC: 1.001 (Simulation time: 01 hr 26 min 08 sec)
*** Reached end of trace: (0, "traces/lu.A.champsimtrace")
Heartbeat CPU 0 instructions: 600000001 cycles: 562105279 heartbeat IPC: 1.01 cumulative IPC: 1.001 (Simulation time: 01 hr 27 min 40 sec)
Heartbeat CPU 0 instructions: 610000000 cycles: 568170548 heartbeat IPC: 1.649 cumulative IPC: 1.008 (Simulation time: 01 hr 28 min 40 sec)
Heartbeat CPU 0 instructions: 620000000 cycles: 570805191 heartbeat IPC: 3.796 cumulative IPC: 1.021 (Simulation time: 01 hr 29 min 17 sec)
Heartbeat CPU 0 instructions: 630000004 cycles: 573439830 heartbeat IPC: 3.796 cumulative IPC: 1.034 (Simulation time: 01 hr 29 min 52 sec)
Heartbeat CPU 0 instructions: 640000002 cycles: 576074453 heartbeat IPC: 3.796 cumulative IPC: 1.047 (Simulation time: 01 hr 30 min 27 sec)
Heartbeat CPU 0 instructions: 650000001 cycles: 578709534 heartbeat IPC: 3.795 cumulative IPC: 1.06 (Simulation time: 01 hr 31 min 02 sec)
Simulation finished CPU 0 instructions: 600000001 cycles: 566209332 cumulative IPC: 1.06 (Simulation time: 01 hr 31 min 02 sec)
Simulation complete CPU 0 instructions: 600000001 cycles: 566209332 cumulative IPC: 1.06 (Simulation time: 01 hr 31 min 02 sec)

ChampSim completed all CPUs

=== Simulation ===
CPU 0 runs traces/lu.A.champsimtrace
Region of Interest Statistics

CPU 0 cumulative IPC: 1.06 instructions: 600000001 cycles: 566209332
CPU 0 Branch Prediction Accuracy: 96.65% MPKI: 0.6426 Average ROB Occupancy at Mispredict: 329
Branch type MPKI
BRANCH_DIRECT_JUMP: 5e-06
BRANCH_INDIRECT: 7.33e-05
BRANCH_CONDITIONAL: 0.642
BRANCH_DIRECT_CALL: 6.67e-06
BRANCH_INDIRECT_CALL: 3.17e-05
BRANCH_RETURN: 1.83e-05

LLC TOTAL        ACCESS:    7718103 HIT:    3464009 MISS:    4254094
LLC LOAD         ACCESS:    2481343 HIT:    1416930 MISS:    1064413
LLC RFO          ACCESS:     831681 HIT:      45889 MISS:     785792
LLC PREFETCH     ACCESS:    2610850 HIT:     210222 MISS:    2400628
LLC WRITE        ACCESS:    1782365 HIT:    1781597 MISS:        768
LLC TRANSLATION  ACCESS:      11864 HIT:       9371 MISS:       2493
LLC PREFETCH REQUESTED:    4394563 ISSUED:    2610850 USEFUL:    1747320 USELESS:      36291
LLC AVERAGE MISS LATENCY: 1632 cycles
cpu0_DTLB TOTAL        ACCESS:  115472523 HIT:  108313492 MISS:    7159031
cpu0_DTLB LOAD         ACCESS:  115472523 HIT:  108313492 MISS:    7159031
cpu0_DTLB RFO          ACCESS:          0 HIT:          0 MISS:          0
cpu0_DTLB PREFETCH     ACCESS:          0 HIT:          0 MISS:          0
cpu0_DTLB WRITE        ACCESS:          0 HIT:          0 MISS:          0
cpu0_DTLB TRANSLATION  ACCESS:          0 HIT:          0 MISS:          0
cpu0_DTLB PREFETCH REQUESTED:          0 ISSUED:          0 USEFUL:          0 USELESS:          0
cpu0_DTLB AVERAGE MISS LATENCY: 5.677 cycles
cpu0_ITLB TOTAL        ACCESS:     702886 HIT:     702665 MISS:        221
cpu0_ITLB LOAD         ACCESS:     702886 HIT:     702665 MISS:        221
cpu0_ITLB RFO          ACCESS:          0 HIT:          0 MISS:          0
cpu0_ITLB PREFETCH     ACCESS:          0 HIT:          0 MISS:          0
cpu0_ITLB WRITE        ACCESS:          0 HIT:          0 MISS:          0
cpu0_ITLB TRANSLATION  ACCESS:          0 HIT:          0 MISS:          0
cpu0_ITLB PREFETCH REQUESTED:          0 ISSUED:          0 USEFUL:          0 USELESS:          0
cpu0_ITLB AVERAGE MISS LATENCY: 318.3 cycles
cpu0_L1D TOTAL        ACCESS:  166860092 HIT:  157302880 MISS:    9557212
cpu0_L1D LOAD         ACCESS:  129806857 HIT:  124083022 MISS:    5723835
cpu0_L1D RFO          ACCESS:          0 HIT:          0 MISS:          0
cpu0_L1D PREFETCH     ACCESS:          0 HIT:          0 MISS:          0
cpu0_L1D WRITE        ACCESS:   37000637 HIT:   33192217 MISS:    3808420
cpu0_L1D TRANSLATION  ACCESS:      52598 HIT:      27641 MISS:      24957
cpu0_L1D PREFETCH REQUESTED:          0 ISSUED:          0 USEFUL:          0 USELESS:          0
cpu0_L1D AVERAGE MISS LATENCY: 286.5 cycles
cpu0_L1I TOTAL        ACCESS:    1078479 HIT:    1075759 MISS:       2720
cpu0_L1I LOAD         ACCESS:    1078479 HIT:    1075759 MISS:       2720
cpu0_L1I RFO          ACCESS:          0 HIT:          0 MISS:          0
cpu0_L1I PREFETCH     ACCESS:          0 HIT:          0 MISS:          0
cpu0_L1I WRITE        ACCESS:          0 HIT:          0 MISS:          0
cpu0_L1I TRANSLATION  ACCESS:          0 HIT:          0 MISS:          0
cpu0_L1I PREFETCH REQUESTED:          0 ISSUED:          0 USEFUL:          0 USELESS:          0
cpu0_L1I AVERAGE MISS LATENCY: 426.9 cycles
cpu0_L2C TOTAL        ACCESS:    5990279 HIT:    2661082 MISS:    3329197
cpu0_L2C LOAD         ACCESS:    3069672 HIT:     588328 MISS:    2481344
cpu0_L2C RFO          ACCESS:     876981 HIT:      45300 MISS:     831681
cpu0_L2C PREFETCH     ACCESS:          0 HIT:          0 MISS:          0
cpu0_L2C WRITE        ACCESS:    2018715 HIT:    2014407 MISS:       4308
cpu0_L2C TRANSLATION  ACCESS:      24911 HIT:      13047 MISS:      11864
cpu0_L2C PREFETCH REQUESTED:          0 ISSUED:          0 USEFUL:          0 USELESS:          0
cpu0_L2C AVERAGE MISS LATENCY: 887.7 cycles
cpu0_STLB TOTAL        ACCESS:    3987273 HIT:    3934687 MISS:      52586
cpu0_STLB LOAD         ACCESS:    3987273 HIT:    3934687 MISS:      52586
cpu0_STLB RFO          ACCESS:          0 HIT:          0 MISS:          0
cpu0_STLB PREFETCH     ACCESS:          0 HIT:          0 MISS:          0
cpu0_STLB WRITE        ACCESS:          0 HIT:          0 MISS:          0
cpu0_STLB TRANSLATION  ACCESS:          0 HIT:          0 MISS:          0
cpu0_STLB PREFETCH REQUESTED:          0 ISSUED:          0 USEFUL:          0 USELESS:          0
cpu0_STLB AVERAGE MISS LATENCY: 526.3 cycles

DRAM Statistics

Channel 0 RQ ROW_BUFFER_HIT:     778338
  ROW_BUFFER_MISS:    2366585
 AVG DBUS CONGESTED CYCLE: 3.973
WQ ROW_BUFFER_HIT: Channel 0 
  ROW_BUFFER_MISS:     318897
  FULL:    1350999
