WARNING: physical memory size is smaller than virtual memory size.

*** ChampSim Multicore Out-of-Order Simulator ***
Warmup Instructions: 50000000
Simulation Instructions: 600000000
Number of CPUs: 1
Page size: 4096

Off-chip DRAM Size: 4 GiB Channels: 1 Width: 64-bit Data Race: 3200 MT/s
Heartbeat CPU 0 instructions: 10000000 cycles: 2500202 heartbeat IPC: 4 cumulative IPC: 4 (Simulation time: 00 hr 00 min 33 sec)
Heartbeat CPU 0 instructions: 20000000 cycles: 5000202 heartbeat IPC: 4 cumulative IPC: 4 (Simulation time: 00 hr 01 min 06 sec)
Heartbeat CPU 0 instructions: 30000000 cycles: 7500202 heartbeat IPC: 4 cumulative IPC: 4 (Simulation time: 00 hr 01 min 39 sec)
Heartbeat CPU 0 instructions: 40000000 cycles: 10000202 heartbeat IPC: 4 cumulative IPC: 4 (Simulation time: 00 hr 02 min 13 sec)
Heartbeat CPU 0 instructions: 50000000 cycles: 12500202 heartbeat IPC: 4 cumulative IPC: 4 (Simulation time: 00 hr 02 min 45 sec)
Warmup finished CPU 0 instructions: 50000000 cycles: 12500203 cumulative IPC: 4 (Simulation time: 00 hr 02 min 45 sec)
Warmup complete CPU 0 instructions: 50000000 cycles: 12500203 cumulative IPC: 4 (Simulation time: 00 hr 02 min 45 sec)
Heartbeat CPU 0 instructions: 60000004 cycles: 15001959 heartbeat IPC: 3.997 cumulative IPC: 3.997 (Simulation time: 00 hr 03 min 25 sec)
Heartbeat CPU 0 instructions: 70000003 cycles: 17503710 heartbeat IPC: 3.997 cumulative IPC: 3.997 (Simulation time: 00 hr 04 min 05 sec)
Heartbeat CPU 0 instructions: 80000004 cycles: 20005471 heartbeat IPC: 3.997 cumulative IPC: 3.997 (Simulation time: 00 hr 04 min 45 sec)
Heartbeat CPU 0 instructions: 90000000 cycles: 22508534 heartbeat IPC: 3.995 cumulative IPC: 3.997 (Simulation time: 00 hr 05 min 24 sec)
Heartbeat CPU 0 instructions: 100000001 cycles: 25010777 heartbeat IPC: 3.996 cumulative IPC: 3.997 (Simulation time: 00 hr 06 min 04 sec)
Heartbeat CPU 0 instructions: 110000000 cycles: 27512976 heartbeat IPC: 3.996 cumulative IPC: 3.997 (Simulation time: 00 hr 06 min 44 sec)
Heartbeat CPU 0 instructions: 120000004 cycles: 30015603 heartbeat IPC: 3.996 cumulative IPC: 3.996 (Simulation time: 00 hr 07 min 23 sec)
Heartbeat CPU 0 instructions: 130000000 cycles: 32517881 heartbeat IPC: 3.996 cumulative IPC: 3.996 (Simulation time: 00 hr 08 min 03 sec)
Heartbeat CPU 0 instructions: 140000004 cycles: 35019767 heartbeat IPC: 3.997 cumulative IPC: 3.997 (Simulation time: 00 hr 08 min 43 sec)
Heartbeat CPU 0 instructions: 150000000 cycles: 37522036 heartbeat IPC: 3.996 cumulative IPC: 3.997 (Simulation time: 00 hr 09 min 23 sec)
Heartbeat CPU 0 instructions: 160000001 cycles: 40024529 heartbeat IPC: 3.996 cumulative IPC: 3.996 (Simulation time: 00 hr 10 min 03 sec)
Heartbeat CPU 0 instructions: 170000000 cycles: 42527275 heartbeat IPC: 3.996 cumulative IPC: 3.996 (Simulation time: 00 hr 10 min 43 sec)
Heartbeat CPU 0 instructions: 180000003 cycles: 45029711 heartbeat IPC: 3.996 cumulative IPC: 3.996 (Simulation time: 00 hr 11 min 25 sec)
Heartbeat CPU 0 instructions: 190000000 cycles: 47531936 heartbeat IPC: 3.996 cumulative IPC: 3.996 (Simulation time: 00 hr 12 min 04 sec)
Heartbeat CPU 0 instructions: 200000004 cycles: 50034575 heartbeat IPC: 3.996 cumulative IPC: 3.996 (Simulation time: 00 hr 12 min 44 sec)
Heartbeat CPU 0 instructions: 210000004 cycles: 52536837 heartbeat IPC: 3.996 cumulative IPC: 3.996 (Simulation time: 00 hr 13 min 24 sec)
Heartbeat CPU 0 instructions: 220000001 cycles: 55039492 heartbeat IPC: 3.996 cumulative IPC: 3.996 (Simulation time: 00 hr 14 min 04 sec)
Heartbeat CPU 0 instructions: 230000000 cycles: 57542072 heartbeat IPC: 3.996 cumulative IPC: 3.996 (Simulation time: 00 hr 14 min 43 sec)
Heartbeat CPU 0 instructions: 240000000 cycles: 91463535 heartbeat IPC: 0.2948 cumulative IPC: 2.406 (Simulation time: 00 hr 18 min 23 sec)
Heartbeat CPU 0 instructions: 250000001 cycles: 100626562 heartbeat IPC: 1.091 cumulative IPC: 2.269 (Simulation time: 00 hr 19 min 55 sec)
Heartbeat CPU 0 instructions: 260000001 cycles: 109768228 heartbeat IPC: 1.094 cumulative IPC: 2.159 (Simulation time: 00 hr 21 min 25 sec)
Heartbeat CPU 0 instructions: 270000001 cycles: 119626866 heartbeat IPC: 1.014 cumulative IPC: 2.054 (Simulation time: 00 hr 23 min 02 sec)
Heartbeat CPU 0 instructions: 280000003 cycles: 127320584 heartbeat IPC: 1.3 cumulative IPC: 2.003 (Simulation time: 00 hr 24 min 23 sec)
Heartbeat CPU 0 instructions: 290000001 cycles: 132563424 heartbeat IPC: 1.907 cumulative IPC: 1.999 (Simulation time: 00 hr 25 min 24 sec)
Heartbeat CPU 0 instructions: 300000002 cycles: 137749831 heartbeat IPC: 1.928 cumulative IPC: 1.996 (Simulation time: 00 hr 26 min 25 sec)
Heartbeat CPU 0 instructions: 310000001 cycles: 142965146 heartbeat IPC: 1.917 cumulative IPC: 1.993 (Simulation time: 00 hr 27 min 26 sec)
Heartbeat CPU 0 instructions: 320000002 cycles: 148832031 heartbeat IPC: 1.704 cumulative IPC: 1.98 (Simulation time: 00 hr 28 min 33 sec)
Heartbeat CPU 0 instructions: 330000002 cycles: 157056328 heartbeat IPC: 1.216 cumulative IPC: 1.937 (Simulation time: 00 hr 29 min 59 sec)
Heartbeat CPU 0 instructions: 340000004 cycles: 165050863 heartbeat IPC: 1.251 cumulative IPC: 1.901 (Simulation time: 00 hr 31 min 24 sec)
Heartbeat CPU 0 instructions: 350000003 cycles: 172961840 heartbeat IPC: 1.264 cumulative IPC: 1.87 (Simulation time: 00 hr 32 min 51 sec)
Heartbeat CPU 0 instructions: 360000001 cycles: 180835191 heartbeat IPC: 1.27 cumulative IPC: 1.842 (Simulation time: 00 hr 34 min 17 sec)
Heartbeat CPU 0 instructions: 370000002 cycles: 188736236 heartbeat IPC: 1.266 cumulative IPC: 1.816 (Simulation time: 00 hr 35 min 43 sec)
Heartbeat CPU 0 instructions: 380000003 cycles: 196523358 heartbeat IPC: 1.284 cumulative IPC: 1.793 (Simulation time: 00 hr 37 min 08 sec)
Heartbeat CPU 0 instructions: 390000000 cycles: 205072901 heartbeat IPC: 1.17 cumulative IPC: 1.766 (Simulation time: 00 hr 38 min 40 sec)
Heartbeat CPU 0 instructions: 400000002 cycles: 214064889 heartbeat IPC: 1.112 cumulative IPC: 1.736 (Simulation time: 00 hr 40 min 17 sec)
Heartbeat CPU 0 instructions: 410000000 cycles: 223083424 heartbeat IPC: 1.109 cumulative IPC: 1.71 (Simulation time: 00 hr 41 min 51 sec)
Heartbeat CPU 0 instructions: 420000004 cycles: 232063134 heartbeat IPC: 1.114 cumulative IPC: 1.685 (Simulation time: 00 hr 43 min 28 sec)
Heartbeat CPU 0 instructions: 430000002 cycles: 241064025 heartbeat IPC: 1.111 cumulative IPC: 1.663 (Simulation time: 00 hr 45 min 04 sec)
Heartbeat CPU 0 instructions: 440000004 cycles: 393099297 heartbeat IPC: 0.06577 cumulative IPC: 1.025 (Simulation time: 01 hr 05 min 19 sec)
Heartbeat CPU 0 instructions: 450000003 cycles: 403011060 heartbeat IPC: 1.009 cumulative IPC: 1.024 (Simulation time: 01 hr 06 min 58 sec)
Heartbeat CPU 0 instructions: 460000004 cycles: 412274082 heartbeat IPC: 1.08 cumulative IPC: 1.026 (Simulation time: 01 hr 08 min 34 sec)
Heartbeat CPU 0 instructions: 470000001 cycles: 422005874 heartbeat IPC: 1.028 cumulative IPC: 1.026 (Simulation time: 01 hr 10 min 11 sec)
Heartbeat CPU 0 instructions: 480000000 cycles: 431177844 heartbeat IPC: 1.09 cumulative IPC: 1.027 (Simulation time: 01 hr 11 min 43 sec)
Heartbeat CPU 0 instructions: 490000002 cycles: 441249606 heartbeat IPC: 0.9929 cumulative IPC: 1.026 (Simulation time: 01 hr 13 min 24 sec)
Heartbeat CPU 0 instructions: 500000002 cycles: 453708909 heartbeat IPC: 0.8026 cumulative IPC: 1.02 (Simulation time: 01 hr 15 min 24 sec)
Heartbeat CPU 0 instructions: 510000004 cycles: 466165943 heartbeat IPC: 0.8028 cumulative IPC: 1.014 (Simulation time: 01 hr 17 min 26 sec)
Heartbeat CPU 0 instructions: 520000000 cycles: 478806859 heartbeat IPC: 0.7911 cumulative IPC: 1.008 (Simulation time: 01 hr 19 min 28 sec)
Heartbeat CPU 0 instructions: 530000003 cycles: 491411234 heartbeat IPC: 0.7934 cumulative IPC: 1.002 (Simulation time: 01 hr 21 min 30 sec)
Heartbeat CPU 0 instructions: 540000002 cycles: 503942715 heartbeat IPC: 0.798 cumulative IPC: 0.9971 (Simulation time: 01 hr 23 min 32 sec)
Heartbeat CPU 0 instructions: 550000002 cycles: 513799256 heartbeat IPC: 1.015 cumulative IPC: 0.9974 (Simulation time: 01 hr 25 min 13 sec)
Heartbeat CPU 0 instructions: 560000000 cycles: 523342511 heartbeat IPC: 1.048 cumulative IPC: 0.9984 (Simulation time: 01 hr 26 min 51 sec)
Heartbeat CPU 0 instructions: 570000002 cycles: 533079062 heartbeat IPC: 1.027 cumulative IPC: 0.9989 (Simulation time: 01 hr 28 min 30 sec)
Heartbeat CPU 0 instructions: 580000003 cycles: 542917071 heartbeat IPC: 1.016 cumulative IPC: 0.9992 (Simulation time: 01 hr 30 min 12 sec)
Heartbeat CPU 0 instructions: 590000003 cycles: 552651596 heartbeat IPC: 1.027 cumulative IPC: 0.9997 (Simulation time: 01 hr 31 min 53 sec)
*** Reached end of trace: (0, "traces/lu.A.champsimtrace")
Heartbeat CPU 0 instructions: 600000001 cycles: 562537363 heartbeat IPC: 1.012 cumulative IPC: 0.9999 (Simulation time: 01 hr 33 min 35 sec)
Heartbeat CPU 0 instructions: 610000000 cycles: 568750821 heartbeat IPC: 1.609 cumulative IPC: 1.007 (Simulation time: 01 hr 34 min 42 sec)
Heartbeat CPU 0 instructions: 620000000 cycles: 571252812 heartbeat IPC: 3.997 cumulative IPC: 1.02 (Simulation time: 01 hr 35 min 22 sec)
Heartbeat CPU 0 instructions: 630000004 cycles: 573754575 heartbeat IPC: 3.997 cumulative IPC: 1.033 (Simulation time: 01 hr 36 min 02 sec)
Heartbeat CPU 0 instructions: 640000002 cycles: 576256325 heartbeat IPC: 3.997 cumulative IPC: 1.047 (Simulation time: 01 hr 36 min 41 sec)
Heartbeat CPU 0 instructions: 650000001 cycles: 578758087 heartbeat IPC: 3.997 cumulative IPC: 1.06 (Simulation time: 01 hr 37 min 21 sec)
Simulation finished CPU 0 instructions: 600000001 cycles: 566257885 cumulative IPC: 1.06 (Simulation time: 01 hr 37 min 21 sec)
Simulation complete CPU 0 instructions: 600000001 cycles: 566257885 cumulative IPC: 1.06 (Simulation time: 01 hr 37 min 21 sec)

ChampSim completed all CPUs

=== Simulation ===
CPU 0 runs traces/lu.A.champsimtrace
Region of Interest Statistics

CPU 0 cumulative IPC: 1.06 instructions: 600000001 cycles: 566257885
CPU 0 Branch Prediction Accuracy: 98.73% MPKI: 0.2427 Average ROB Occupancy at Mispredict: 324.3
Branch type MPKI
BRANCH_DIRECT_JUMP: 5e-06
BRANCH_INDIRECT: 7.33e-05
BRANCH_CONDITIONAL: 0.243
BRANCH_DIRECT_CALL: 6.67e-06
BRANCH_INDIRECT_CALL: 3.17e-05
BRANCH_RETURN: 1.83e-05

LLC TOTAL        ACCESS:    7718681 HIT:    3467748 MISS:    4250933
LLC LOAD         ACCESS:    2481375 HIT:    1419030 MISS:    1062345
LLC RFO          ACCESS:     831681 HIT:      46070 MISS:     785611
LLC PREFETCH     ACCESS:    2611415 HIT:     211794 MISS:    2399621
LLC WRITE        ACCESS:    1782357 HIT:    1781534 MISS:        823
LLC TRANSLATION  ACCESS:      11853 HIT:       9320 MISS:       2533
LLC PREFETCH REQUESTED:    4453498 ISSUED:    2611415 USEFUL:    1746044 USELESS:      36484
LLC AVERAGE MISS LATENCY: 1638 cycles
cpu0_DTLB TOTAL        ACCESS:  122569421 HIT:  115406358 MISS:    7163063
cpu0_DTLB LOAD         ACCESS:  122569421 HIT:  115406358 MISS:    7163063
cpu0_DTLB RFO          ACCESS:          0 HIT:          0 MISS:          0
cpu0_DTLB PREFETCH     ACCESS:          0 HIT:          0 MISS:          0
cpu0_DTLB WRITE        ACCESS:          0 HIT:          0 MISS:          0
cpu0_DTLB TRANSLATION  ACCESS:          0 HIT:          0 MISS:          0
cpu0_DTLB PREFETCH REQUESTED:          0 ISSUED:          0 USEFUL:          0 USELESS:          0
cpu0_DTLB AVERAGE MISS LATENCY: 5.808 cycles
cpu0_ITLB TOTAL        ACCESS:     710474 HIT:     710269 MISS:        205
cpu0_ITLB LOAD         ACCESS:     710474 HIT:     710269 MISS:        205
cpu0_ITLB RFO          ACCESS:          0 HIT:          0 MISS:          0
cpu0_ITLB PREFETCH     ACCESS:          0 HIT:          0 MISS:          0
cpu0_ITLB WRITE        ACCESS:          0 HIT:          0 MISS:          0
cpu0_ITLB TRANSLATION  ACCESS:          0 HIT:          0 MISS:          0
cpu0_ITLB PREFETCH REQUESTED:          0 ISSUED:          0 USEFUL:          0 USELESS:          0
cpu0_ITLB AVERAGE MISS LATENCY: 341 cycles
cpu0_L1D TOTAL        ACCESS:  175731014 HIT:  166191526 MISS:    9539488
cpu0_L1D LOAD         ACCESS:  138677838 HIT:  132941703 MISS:    5736135
cpu0_L1D RFO          ACCESS:          0 HIT:          0 MISS:          0
cpu0_L1D PREFETCH     ACCESS:          0 HIT:          0 MISS:          0
cpu0_L1D WRITE        ACCESS:   37000581 HIT:   33222187 MISS:    3778394
cpu0_L1D TRANSLATION  ACCESS:      52595 HIT:      27636 MISS:      24959
cpu0_L1D PREFETCH REQUESTED:          0 ISSUED:          0 USEFUL:          0 USELESS:          0
cpu0_L1D AVERAGE MISS LATENCY: 289.1 cycles
cpu0_L1I TOTAL        ACCESS:    1095069 HIT:    1092366 MISS:       2703
cpu0_L1I LOAD         ACCESS:    1095069 HIT:    1092366 MISS:       2703
cpu0_L1I RFO          ACCESS:          0 HIT:          0 MISS:          0
cpu0_L1I PREFETCH     ACCESS:          0 HIT:          0 MISS:          0
cpu0_L1I WRITE        ACCESS:          0 HIT:          0 MISS:          0
cpu0_L1I TRANSLATION  ACCESS:          0 HIT:          0 MISS:          0
cpu0_L1I PREFETCH REQUESTED:          0 ISSUED:          0 USEFUL:          0 USELESS:          0
cpu0_L1I AVERAGE MISS LATENCY: 417.6 cycles
cpu0_L2C TOTAL        ACCESS:    5991338 HIT:    2662155 MISS:    3329183
cpu0_L2C LOAD         ACCESS:    3070238 HIT:     588861 MISS:    2481377
cpu0_L2C RFO          ACCESS:     876970 HIT:      45289 MISS:     831681
cpu0_L2C PREFETCH     ACCESS:          0 HIT:          0 MISS:          0
cpu0_L2C WRITE        ACCESS:    2019216 HIT:    2014944 MISS:       4272
cpu0_L2C TRANSLATION  ACCESS:      24914 HIT:      13061 MISS:      11853
cpu0_L2C PREFETCH REQUESTED:          0 ISSUED:          0 USEFUL:          0 USELESS:          0
cpu0_L2C AVERAGE MISS LATENCY: 892.4 cycles
cpu0_STLB TOTAL        ACCESS:    3987140 HIT:    3934554 MISS:      52586
cpu0_STLB LOAD         ACCESS:    3987140 HIT:    3934554 MISS:      52586
cpu0_STLB RFO          ACCESS:          0 HIT:          0 MISS:          0
cpu0_STLB PREFETCH     ACCESS:          0 HIT:          0 MISS:          0
cpu0_STLB WRITE        ACCESS:          0 HIT:          0 MISS:          0
cpu0_STLB TRANSLATION  ACCESS:          0 HIT:          0 MISS:          0
cpu0_STLB PREFETCH REQUESTED:          0 ISSUED:          0 USEFUL:          0 USELESS:          0
cpu0_STLB AVERAGE MISS LATENCY: 552.2 cycles

DRAM Statistics

Channel 0 RQ ROW_BUFFER_HIT:     781649
  ROW_BUFFER_MISS:    2361624
 AVG DBUS CONGESTED CYCLE: 3.973
WQ ROW_BUFFER_HIT: Channel 0 
  ROW_BUFFER_MISS:     300897
  FULL:    1369336
