WARNING: physical memory size is smaller than virtual memory size.

*** ChampSim Multicore Out-of-Order Simulator ***
Warmup Instructions: 50000000
Simulation Instructions: 600000000
Number of CPUs: 1
Page size: 4096

Off-chip DRAM Size: 4 GiB Channels: 1 Width: 64-bit Data Race: 3200 MT/s
Heartbeat CPU 0 instructions: 10000000 cycles: 2500202 heartbeat IPC: 4 cumulative IPC: 4 (Simulation time: 00 hr 00 min 33 sec)
Heartbeat CPU 0 instructions: 20000000 cycles: 5000202 heartbeat IPC: 4 cumulative IPC: 4 (Simulation time: 00 hr 01 min 06 sec)
Heartbeat CPU 0 instructions: 30000000 cycles: 7500202 heartbeat IPC: 4 cumulative IPC: 4 (Simulation time: 00 hr 01 min 38 sec)
Heartbeat CPU 0 instructions: 40000000 cycles: 10000202 heartbeat IPC: 4 cumulative IPC: 4 (Simulation time: 00 hr 02 min 11 sec)
Heartbeat CPU 0 instructions: 50000000 cycles: 12500202 heartbeat IPC: 4 cumulative IPC: 4 (Simulation time: 00 hr 02 min 43 sec)
Warmup finished CPU 0 instructions: 50000000 cycles: 12500203 cumulative IPC: 4 (Simulation time: 00 hr 02 min 43 sec)
Warmup complete CPU 0 instructions: 50000000 cycles: 12500203 cumulative IPC: 4 (Simulation time: 00 hr 02 min 43 sec)
Heartbeat CPU 0 instructions: 60000004 cycles: 15134822 heartbeat IPC: 3.796 cumulative IPC: 3.796 (Simulation time: 00 hr 03 min 22 sec)
Heartbeat CPU 0 instructions: 70000003 cycles: 17769446 heartbeat IPC: 3.796 cumulative IPC: 3.796 (Simulation time: 00 hr 04 min 02 sec)
Heartbeat CPU 0 instructions: 80000003 cycles: 20404096 heartbeat IPC: 3.796 cumulative IPC: 3.796 (Simulation time: 00 hr 04 min 42 sec)
Heartbeat CPU 0 instructions: 90000004 cycles: 23039190 heartbeat IPC: 3.795 cumulative IPC: 3.795 (Simulation time: 00 hr 05 min 20 sec)
Heartbeat CPU 0 instructions: 100000002 cycles: 25674702 heartbeat IPC: 3.794 cumulative IPC: 3.795 (Simulation time: 00 hr 05 min 58 sec)
Heartbeat CPU 0 instructions: 110000003 cycles: 28309799 heartbeat IPC: 3.795 cumulative IPC: 3.795 (Simulation time: 00 hr 06 min 36 sec)
Heartbeat CPU 0 instructions: 120000004 cycles: 30944652 heartbeat IPC: 3.795 cumulative IPC: 3.795 (Simulation time: 00 hr 07 min 13 sec)
Heartbeat CPU 0 instructions: 130000000 cycles: 33580426 heartbeat IPC: 3.794 cumulative IPC: 3.795 (Simulation time: 00 hr 07 min 51 sec)
Heartbeat CPU 0 instructions: 140000004 cycles: 36215518 heartbeat IPC: 3.795 cumulative IPC: 3.795 (Simulation time: 00 hr 08 min 29 sec)
Heartbeat CPU 0 instructions: 150000000 cycles: 38850613 heartbeat IPC: 3.795 cumulative IPC: 3.795 (Simulation time: 00 hr 09 min 08 sec)
Heartbeat CPU 0 instructions: 160000001 cycles: 41485490 heartbeat IPC: 3.795 cumulative IPC: 3.795 (Simulation time: 00 hr 09 min 47 sec)
Heartbeat CPU 0 instructions: 170000000 cycles: 44120575 heartbeat IPC: 3.795 cumulative IPC: 3.795 (Simulation time: 00 hr 10 min 28 sec)
Heartbeat CPU 0 instructions: 180000003 cycles: 46755898 heartbeat IPC: 3.795 cumulative IPC: 3.795 (Simulation time: 00 hr 11 min 06 sec)
Heartbeat CPU 0 instructions: 190000000 cycles: 49391433 heartbeat IPC: 3.794 cumulative IPC: 3.795 (Simulation time: 00 hr 11 min 44 sec)
Heartbeat CPU 0 instructions: 200000004 cycles: 52026258 heartbeat IPC: 3.795 cumulative IPC: 3.795 (Simulation time: 00 hr 12 min 21 sec)
Heartbeat CPU 0 instructions: 210000004 cycles: 54661355 heartbeat IPC: 3.795 cumulative IPC: 3.795 (Simulation time: 00 hr 13 min 00 sec)
Heartbeat CPU 0 instructions: 220000001 cycles: 57296374 heartbeat IPC: 3.795 cumulative IPC: 3.795 (Simulation time: 00 hr 13 min 39 sec)
Heartbeat CPU 0 instructions: 230000002 cycles: 59931679 heartbeat IPC: 3.795 cumulative IPC: 3.795 (Simulation time: 00 hr 14 min 18 sec)
Heartbeat CPU 0 instructions: 240000000 cycles: 94475825 heartbeat IPC: 0.2895 cumulative IPC: 2.318 (Simulation time: 00 hr 18 min 06 sec)
Heartbeat CPU 0 instructions: 250000000 cycles: 103629774 heartbeat IPC: 1.092 cumulative IPC: 2.195 (Simulation time: 00 hr 19 min 40 sec)
Heartbeat CPU 0 instructions: 260000001 cycles: 112767693 heartbeat IPC: 1.094 cumulative IPC: 2.094 (Simulation time: 00 hr 21 min 12 sec)
Heartbeat CPU 0 instructions: 270000001 cycles: 122685051 heartbeat IPC: 1.008 cumulative IPC: 1.997 (Simulation time: 00 hr 22 min 50 sec)
Heartbeat CPU 0 instructions: 280000003 cycles: 131355890 heartbeat IPC: 1.153 cumulative IPC: 1.935 (Simulation time: 00 hr 24 min 19 sec)
Heartbeat CPU 0 instructions: 290000001 cycles: 137946660 heartbeat IPC: 1.517 cumulative IPC: 1.913 (Simulation time: 00 hr 25 min 31 sec)
Heartbeat CPU 0 instructions: 300000002 cycles: 144580623 heartbeat IPC: 1.507 cumulative IPC: 1.893 (Simulation time: 00 hr 26 min 43 sec)
Heartbeat CPU 0 instructions: 310000002 cycles: 151208889 heartbeat IPC: 1.509 cumulative IPC: 1.874 (Simulation time: 00 hr 27 min 56 sec)
Heartbeat CPU 0 instructions: 320000001 cycles: 158228742 heartbeat IPC: 1.425 cumulative IPC: 1.853 (Simulation time: 00 hr 29 min 12 sec)
Heartbeat CPU 0 instructions: 330000002 cycles: 166746491 heartbeat IPC: 1.174 cumulative IPC: 1.815 (Simulation time: 00 hr 30 min 41 sec)
Heartbeat CPU 0 instructions: 340000004 cycles: 175254397 heartbeat IPC: 1.175 cumulative IPC: 1.782 (Simulation time: 00 hr 32 min 10 sec)
Heartbeat CPU 0 instructions: 350000003 cycles: 183655681 heartbeat IPC: 1.19 cumulative IPC: 1.753 (Simulation time: 00 hr 33 min 38 sec)
Heartbeat CPU 0 instructions: 360000001 cycles: 192104745 heartbeat IPC: 1.184 cumulative IPC: 1.726 (Simulation time: 00 hr 35 min 06 sec)
Heartbeat CPU 0 instructions: 370000002 cycles: 200489604 heartbeat IPC: 1.193 cumulative IPC: 1.702 (Simulation time: 00 hr 36 min 34 sec)
Heartbeat CPU 0 instructions: 380000003 cycles: 208157037 heartbeat IPC: 1.304 cumulative IPC: 1.687 (Simulation time: 00 hr 37 min 59 sec)
Heartbeat CPU 0 instructions: 390000000 cycles: 216107976 heartbeat IPC: 1.258 cumulative IPC: 1.67 (Simulation time: 00 hr 39 min 27 sec)
Heartbeat CPU 0 instructions: 400000000 cycles: 224353284 heartbeat IPC: 1.213 cumulative IPC: 1.652 (Simulation time: 00 hr 40 min 57 sec)
Heartbeat CPU 0 instructions: 410000002 cycles: 232574460 heartbeat IPC: 1.216 cumulative IPC: 1.636 (Simulation time: 00 hr 42 min 31 sec)
Heartbeat CPU 0 instructions: 420000000 cycles: 240845260 heartbeat IPC: 1.209 cumulative IPC: 1.62 (Simulation time: 00 hr 44 min 01 sec)
Heartbeat CPU 0 instructions: 430000002 cycles: 249153778 heartbeat IPC: 1.204 cumulative IPC: 1.606 (Simulation time: 00 hr 45 min 30 sec)
Heartbeat CPU 0 instructions: 440000004 cycles: 404809270 heartbeat IPC: 0.06424 cumulative IPC: 0.9941 (Simulation time: 01 hr 06 min 20 sec)
Heartbeat CPU 0 instructions: 450000003 cycles: 414823729 heartbeat IPC: 0.9986 cumulative IPC: 0.9942 (Simulation time: 01 hr 07 min 59 sec)
Heartbeat CPU 0 instructions: 460000004 cycles: 424251633 heartbeat IPC: 1.061 cumulative IPC: 0.9957 (Simulation time: 01 hr 09 min 35 sec)
Heartbeat CPU 0 instructions: 470000002 cycles: 434047458 heartbeat IPC: 1.021 cumulative IPC: 0.9963 (Simulation time: 01 hr 11 min 16 sec)
Heartbeat CPU 0 instructions: 480000004 cycles: 443320553 heartbeat IPC: 1.078 cumulative IPC: 0.9981 (Simulation time: 01 hr 12 min 53 sec)
Heartbeat CPU 0 instructions: 490000002 cycles: 453501778 heartbeat IPC: 0.9822 cumulative IPC: 0.9977 (Simulation time: 01 hr 14 min 36 sec)
Heartbeat CPU 0 instructions: 500000003 cycles: 466222313 heartbeat IPC: 0.7861 cumulative IPC: 0.9918 (Simulation time: 01 hr 16 min 41 sec)
Heartbeat CPU 0 instructions: 510000003 cycles: 479036596 heartbeat IPC: 0.7804 cumulative IPC: 0.986 (Simulation time: 01 hr 18 min 48 sec)
Heartbeat CPU 0 instructions: 520000000 cycles: 492519176 heartbeat IPC: 0.7417 cumulative IPC: 0.9791 (Simulation time: 01 hr 21 min 02 sec)
Heartbeat CPU 0 instructions: 530000004 cycles: 505981789 heartbeat IPC: 0.7428 cumulative IPC: 0.9727 (Simulation time: 01 hr 23 min 15 sec)
Heartbeat CPU 0 instructions: 540000002 cycles: 519351226 heartbeat IPC: 0.748 cumulative IPC: 0.9668 (Simulation time: 01 hr 25 min 24 sec)
Heartbeat CPU 0 instructions: 550000002 cycles: 530353283 heartbeat IPC: 0.9089 cumulative IPC: 0.9655 (Simulation time: 01 hr 27 min 13 sec)
Heartbeat CPU 0 instructions: 560000000 cycles: 541454169 heartbeat IPC: 0.9008 cumulative IPC: 0.9642 (Simulation time: 01 hr 29 min 00 sec)
Heartbeat CPU 0 instructions: 570000002 cycles: 552667996 heartbeat IPC: 0.8918 cumulative IPC: 0.9627 (Simulation time: 01 hr 30 min 49 sec)
Heartbeat CPU 0 instructions: 580000003 cycles: 563890678 heartbeat IPC: 0.8911 cumulative IPC: 0.9612 (Simulation time: 01 hr 32 min 41 sec)
Heartbeat CPU 0 instructions: 590000003 cycles: 575009097 heartbeat IPC: 0.8994 cumulative IPC: 0.96 (Simulation time: 01 hr 34 min 31 sec)
*** Reached end of trace: (0, "traces/lu.A.champsimtrace")
Heartbeat CPU 0 instructions: 600000001 cycles: 586232839 heartbeat IPC: 0.891 cumulative IPC: 0.9586 (Simulation time: 01 hr 36 min 20 sec)
Heartbeat CPU 0 instructions: 610000000 cycles: 592936832 heartbeat IPC: 1.492 cumulative IPC: 0.9648 (Simulation time: 01 hr 37 min 29 sec)
Heartbeat CPU 0 instructions: 620000000 cycles: 595571475 heartbeat IPC: 3.796 cumulative IPC: 0.9776 (Simulation time: 01 hr 38 min 08 sec)
Heartbeat CPU 0 instructions: 630000004 cycles: 598206114 heartbeat IPC: 3.796 cumulative IPC: 0.9903 (Simulation time: 01 hr 38 min 46 sec)
Heartbeat CPU 0 instructions: 640000002 cycles: 600840738 heartbeat IPC: 3.796 cumulative IPC: 1.003 (Simulation time: 01 hr 39 min 25 sec)
Heartbeat CPU 0 instructions: 650000001 cycles: 603475377 heartbeat IPC: 3.796 cumulative IPC: 1.015 (Simulation time: 01 hr 40 min 04 sec)
Simulation finished CPU 0 instructions: 600000001 cycles: 590975175 cumulative IPC: 1.015 (Simulation time: 01 hr 40 min 04 sec)
Simulation complete CPU 0 instructions: 600000001 cycles: 590975175 cumulative IPC: 1.015 (Simulation time: 01 hr 40 min 04 sec)

ChampSim completed all CPUs

=== Simulation ===
CPU 0 runs traces/lu.A.champsimtrace
Region of Interest Statistics

CPU 0 cumulative IPC: 1.015 instructions: 600000001 cycles: 590975175
CPU 0 Branch Prediction Accuracy: 96.65% MPKI: 0.6426 Average ROB Occupancy at Mispredict: 330
Branch type MPKI
BRANCH_DIRECT_JUMP: 5e-06
BRANCH_INDIRECT: 7.33e-05
BRANCH_CONDITIONAL: 0.642
BRANCH_DIRECT_CALL: 6.67e-06
BRANCH_INDIRECT_CALL: 3.17e-05
BRANCH_RETURN: 1.83e-05

LLC TOTAL        ACCESS:    5107205 HIT:    1983502 MISS:    3123703
LLC LOAD         ACCESS:    2481306 HIT:     193775 MISS:    2287531
LLC RFO          ACCESS:     831679 HIT:       8812 MISS:     822867
LLC PREFETCH     ACCESS:          0 HIT:          0 MISS:          0
LLC WRITE        ACCESS:    1782346 HIT:    1771461 MISS:      10885
LLC TRANSLATION  ACCESS:      11874 HIT:       9454 MISS:       2420
LLC PREFETCH REQUESTED:          0 ISSUED:          0 USEFUL:          0 USELESS:          0
LLC AVERAGE MISS LATENCY: 1085 cycles
cpu0_DTLB TOTAL        ACCESS:  115946821 HIT:  108722671 MISS:    7224150
cpu0_DTLB LOAD         ACCESS:  115946821 HIT:  108722671 MISS:    7224150
cpu0_DTLB RFO          ACCESS:          0 HIT:          0 MISS:          0
cpu0_DTLB PREFETCH     ACCESS:          0 HIT:          0 MISS:          0
cpu0_DTLB WRITE        ACCESS:          0 HIT:          0 MISS:          0
cpu0_DTLB TRANSLATION  ACCESS:          0 HIT:          0 MISS:          0
cpu0_DTLB PREFETCH REQUESTED:          0 ISSUED:          0 USEFUL:          0 USELESS:          0
cpu0_DTLB AVERAGE MISS LATENCY: 5.32 cycles
cpu0_ITLB TOTAL        ACCESS:     710866 HIT:     710651 MISS:        215
cpu0_ITLB LOAD         ACCESS:     710866 HIT:     710651 MISS:        215
cpu0_ITLB RFO          ACCESS:          0 HIT:          0 MISS:          0
cpu0_ITLB PREFETCH     ACCESS:          0 HIT:          0 MISS:          0
cpu0_ITLB WRITE        ACCESS:          0 HIT:          0 MISS:          0
cpu0_ITLB TRANSLATION  ACCESS:          0 HIT:          0 MISS:          0
cpu0_ITLB PREFETCH REQUESTED:          0 ISSUED:          0 USEFUL:          0 USELESS:          0
cpu0_ITLB AVERAGE MISS LATENCY: 298.5 cycles
cpu0_L1D TOTAL        ACCESS:  167478709 HIT:  157819226 MISS:    9659483
cpu0_L1D LOAD         ACCESS:  130425066 HIT:  124596739 MISS:    5828327
cpu0_L1D RFO          ACCESS:          0 HIT:          0 MISS:          0
cpu0_L1D PREFETCH     ACCESS:          0 HIT:          0 MISS:          0
cpu0_L1D WRITE        ACCESS:   37001044 HIT:   33194825 MISS:    3806219
cpu0_L1D TRANSLATION  ACCESS:      52599 HIT:      27662 MISS:      24937
cpu0_L1D PREFETCH REQUESTED:          0 ISSUED:          0 USEFUL:          0 USELESS:          0
cpu0_L1D AVERAGE MISS LATENCY: 336.8 cycles
cpu0_L1I TOTAL        ACCESS:    1088071 HIT:    1085327 MISS:       2744
cpu0_L1I LOAD         ACCESS:    1088071 HIT:    1085327 MISS:       2744
cpu0_L1I RFO          ACCESS:          0 HIT:          0 MISS:          0
cpu0_L1I PREFETCH     ACCESS:          0 HIT:          0 MISS:          0
cpu0_L1I WRITE        ACCESS:          0 HIT:          0 MISS:          0
cpu0_L1I TRANSLATION  ACCESS:          0 HIT:          0 MISS:          0
cpu0_L1I PREFETCH REQUESTED:          0 ISSUED:          0 USEFUL:          0 USELESS:          0
cpu0_L1I AVERAGE MISS LATENCY: 487.1 cycles
cpu0_L2C TOTAL        ACCESS:    5977928 HIT:    2648723 MISS:    3329205
cpu0_L2C LOAD         ACCESS:    3057359 HIT:     576052 MISS:    2481307
cpu0_L2C RFO          ACCESS:     878251 HIT:      46572 MISS:     831679
cpu0_L2C PREFETCH     ACCESS:          0 HIT:          0 MISS:          0
cpu0_L2C WRITE        ACCESS:    2017427 HIT:    2013082 MISS:       4345
cpu0_L2C TRANSLATION  ACCESS:      24891 HIT:      13017 MISS:      11874
cpu0_L2C PREFETCH REQUESTED:          0 ISSUED:          0 USEFUL:          0 USELESS:          0
cpu0_L2C AVERAGE MISS LATENCY: 1038 cycles
cpu0_STLB TOTAL        ACCESS:    3989000 HIT:    3936414 MISS:      52586
cpu0_STLB LOAD         ACCESS:    3989000 HIT:    3936414 MISS:      52586
cpu0_STLB RFO          ACCESS:          0 HIT:          0 MISS:          0
cpu0_STLB PREFETCH     ACCESS:          0 HIT:          0 MISS:          0
cpu0_STLB WRITE        ACCESS:          0 HIT:          0 MISS:          0
cpu0_STLB TRANSLATION  ACCESS:          0 HIT:          0 MISS:          0
cpu0_STLB PREFETCH REQUESTED:          0 ISSUED:          0 USEFUL:          0 USELESS:          0
cpu0_STLB AVERAGE MISS LATENCY: 493.3 cycles

DRAM Statistics

Channel 0 RQ ROW_BUFFER_HIT:     753776
  ROW_BUFFER_MISS:    2358998
 AVG DBUS CONGESTED CYCLE: 3.933
WQ ROW_BUFFER_HIT: Channel 0 
  ROW_BUFFER_MISS:     246495
  FULL:    1422714
