WARNING: physical memory size is smaller than virtual memory size.

*** ChampSim Multicore Out-of-Order Simulator ***
Warmup Instructions: 50000000
Simulation Instructions: 600000000
Number of CPUs: 1
Page size: 4096

CPU 0 Tage branch predictor
Off-chip DRAM Size: 4 GiB Channels: 1 Width: 64-bit Data Race: 3200 MT/s
Heartbeat CPU 0 instructions: 10000000 cycles: 2500202 heartbeat IPC: 4 cumulative IPC: 4 (Simulation time: 00 hr 00 min 39 sec)
Heartbeat CPU 0 instructions: 20000000 cycles: 5000202 heartbeat IPC: 4 cumulative IPC: 4 (Simulation time: 00 hr 01 min 17 sec)
Heartbeat CPU 0 instructions: 30000000 cycles: 7500202 heartbeat IPC: 4 cumulative IPC: 4 (Simulation time: 00 hr 01 min 56 sec)
Heartbeat CPU 0 instructions: 40000000 cycles: 10000202 heartbeat IPC: 4 cumulative IPC: 4 (Simulation time: 00 hr 02 min 34 sec)
Heartbeat CPU 0 instructions: 50000000 cycles: 12500202 heartbeat IPC: 4 cumulative IPC: 4 (Simulation time: 00 hr 03 min 14 sec)
Warmup finished CPU 0 instructions: 50000000 cycles: 12500203 cumulative IPC: 4 (Simulation time: 00 hr 03 min 14 sec)
Warmup complete CPU 0 instructions: 50000000 cycles: 12500203 cumulative IPC: 4 (Simulation time: 00 hr 03 min 14 sec)
Heartbeat CPU 0 instructions: 60000004 cycles: 15000241 heartbeat IPC: 4 cumulative IPC: 4 (Simulation time: 00 hr 03 min 59 sec)
Heartbeat CPU 0 instructions: 70000003 cycles: 17500265 heartbeat IPC: 4 cumulative IPC: 4 (Simulation time: 00 hr 04 min 43 sec)
Heartbeat CPU 0 instructions: 80000004 cycles: 20000298 heartbeat IPC: 4 cumulative IPC: 4 (Simulation time: 00 hr 05 min 27 sec)
Heartbeat CPU 0 instructions: 90000000 cycles: 22503740 heartbeat IPC: 3.994 cumulative IPC: 3.999 (Simulation time: 00 hr 06 min 12 sec)
Heartbeat CPU 0 instructions: 100000001 cycles: 25003764 heartbeat IPC: 4 cumulative IPC: 3.999 (Simulation time: 00 hr 06 min 57 sec)
Heartbeat CPU 0 instructions: 110000000 cycles: 27503801 heartbeat IPC: 4 cumulative IPC: 3.999 (Simulation time: 00 hr 07 min 40 sec)
Heartbeat CPU 0 instructions: 120000004 cycles: 30006349 heartbeat IPC: 3.996 cumulative IPC: 3.999 (Simulation time: 00 hr 08 min 25 sec)
Heartbeat CPU 0 instructions: 130000000 cycles: 32507567 heartbeat IPC: 3.998 cumulative IPC: 3.999 (Simulation time: 00 hr 09 min 09 sec)
Heartbeat CPU 0 instructions: 140000004 cycles: 35007927 heartbeat IPC: 3.999 cumulative IPC: 3.999 (Simulation time: 00 hr 09 min 53 sec)
Heartbeat CPU 0 instructions: 150000000 cycles: 37510419 heartbeat IPC: 3.996 cumulative IPC: 3.998 (Simulation time: 00 hr 10 min 39 sec)
Heartbeat CPU 0 instructions: 160000001 cycles: 40011833 heartbeat IPC: 3.998 cumulative IPC: 3.998 (Simulation time: 00 hr 11 min 26 sec)
Heartbeat CPU 0 instructions: 170000000 cycles: 42512058 heartbeat IPC: 4 cumulative IPC: 3.998 (Simulation time: 00 hr 12 min 11 sec)
Heartbeat CPU 0 instructions: 180000003 cycles: 45013687 heartbeat IPC: 3.997 cumulative IPC: 3.998 (Simulation time: 00 hr 12 min 56 sec)
Heartbeat CPU 0 instructions: 190000000 cycles: 47514367 heartbeat IPC: 3.999 cumulative IPC: 3.998 (Simulation time: 00 hr 13 min 40 sec)
Heartbeat CPU 0 instructions: 200000004 cycles: 50014902 heartbeat IPC: 3.999 cumulative IPC: 3.998 (Simulation time: 00 hr 14 min 24 sec)
Heartbeat CPU 0 instructions: 210000004 cycles: 52515000 heartbeat IPC: 4 cumulative IPC: 3.999 (Simulation time: 00 hr 15 min 08 sec)
Heartbeat CPU 0 instructions: 220000001 cycles: 55017161 heartbeat IPC: 3.997 cumulative IPC: 3.998 (Simulation time: 00 hr 15 min 51 sec)
Heartbeat CPU 0 instructions: 230000000 cycles: 57517437 heartbeat IPC: 4 cumulative IPC: 3.998 (Simulation time: 00 hr 16 min 35 sec)
Heartbeat CPU 0 instructions: 240000000 cycles: 89618721 heartbeat IPC: 0.3115 cumulative IPC: 2.464 (Simulation time: 00 hr 20 min 19 sec)
Heartbeat CPU 0 instructions: 250000001 cycles: 98324972 heartbeat IPC: 1.149 cumulative IPC: 2.33 (Simulation time: 00 hr 21 min 53 sec)
Heartbeat CPU 0 instructions: 260000001 cycles: 107014244 heartbeat IPC: 1.151 cumulative IPC: 2.222 (Simulation time: 00 hr 23 min 28 sec)
Heartbeat CPU 0 instructions: 270000003 cycles: 114698629 heartbeat IPC: 1.301 cumulative IPC: 2.153 (Simulation time: 00 hr 24 min 53 sec)
Heartbeat CPU 0 instructions: 280000003 cycles: 120304206 heartbeat IPC: 1.784 cumulative IPC: 2.134 (Simulation time: 00 hr 26 min 02 sec)
Heartbeat CPU 0 instructions: 290000000 cycles: 125873793 heartbeat IPC: 1.795 cumulative IPC: 2.117 (Simulation time: 00 hr 27 min 12 sec)
Heartbeat CPU 0 instructions: 300000002 cycles: 131483603 heartbeat IPC: 1.783 cumulative IPC: 2.101 (Simulation time: 00 hr 28 min 24 sec)
Heartbeat CPU 0 instructions: 310000002 cycles: 137067615 heartbeat IPC: 1.791 cumulative IPC: 2.087 (Simulation time: 00 hr 29 min 35 sec)
Heartbeat CPU 0 instructions: 320000000 cycles: 143234810 heartbeat IPC: 1.621 cumulative IPC: 2.065 (Simulation time: 00 hr 30 min 50 sec)
Heartbeat CPU 0 instructions: 330000002 cycles: 151352307 heartbeat IPC: 1.232 cumulative IPC: 2.017 (Simulation time: 00 hr 32 min 23 sec)
Heartbeat CPU 0 instructions: 340000000 cycles: 159441305 heartbeat IPC: 1.236 cumulative IPC: 1.974 (Simulation time: 00 hr 33 min 53 sec)
Heartbeat CPU 0 instructions: 350000003 cycles: 167518842 heartbeat IPC: 1.238 cumulative IPC: 1.935 (Simulation time: 00 hr 35 min 24 sec)
Heartbeat CPU 0 instructions: 360000003 cycles: 175651180 heartbeat IPC: 1.23 cumulative IPC: 1.9 (Simulation time: 00 hr 36 min 58 sec)
Heartbeat CPU 0 instructions: 370000002 cycles: 183636416 heartbeat IPC: 1.252 cumulative IPC: 1.87 (Simulation time: 00 hr 38 min 31 sec)
Heartbeat CPU 0 instructions: 380000003 cycles: 191878525 heartbeat IPC: 1.213 cumulative IPC: 1.84 (Simulation time: 00 hr 40 min 04 sec)
Heartbeat CPU 0 instructions: 390000000 cycles: 200323171 heartbeat IPC: 1.184 cumulative IPC: 1.81 (Simulation time: 00 hr 41 min 39 sec)
Heartbeat CPU 0 instructions: 400000000 cycles: 208667245 heartbeat IPC: 1.198 cumulative IPC: 1.784 (Simulation time: 00 hr 43 min 18 sec)
Heartbeat CPU 0 instructions: 410000002 cycles: 216967050 heartbeat IPC: 1.205 cumulative IPC: 1.761 (Simulation time: 00 hr 44 min 53 sec)
Heartbeat CPU 0 instructions: 420000004 cycles: 225282084 heartbeat IPC: 1.203 cumulative IPC: 1.739 (Simulation time: 00 hr 46 min 28 sec)
Heartbeat CPU 0 instructions: 430000002 cycles: 233601128 heartbeat IPC: 1.202 cumulative IPC: 1.719 (Simulation time: 00 hr 48 min 03 sec)
Heartbeat CPU 0 instructions: 440000004 cycles: 363829830 heartbeat IPC: 0.07679 cumulative IPC: 1.11 (Simulation time: 01 hr 05 min 25 sec)
Heartbeat CPU 0 instructions: 450000003 cycles: 371391968 heartbeat IPC: 1.322 cumulative IPC: 1.115 (Simulation time: 01 hr 06 min 53 sec)
Heartbeat CPU 0 instructions: 460000004 cycles: 380567210 heartbeat IPC: 1.09 cumulative IPC: 1.114 (Simulation time: 01 hr 08 min 34 sec)
Heartbeat CPU 0 instructions: 470000002 cycles: 389349584 heartbeat IPC: 1.139 cumulative IPC: 1.115 (Simulation time: 01 hr 10 min 10 sec)
Heartbeat CPU 0 instructions: 480000004 cycles: 398489083 heartbeat IPC: 1.094 cumulative IPC: 1.114 (Simulation time: 01 hr 11 min 48 sec)
Heartbeat CPU 0 instructions: 490000002 cycles: 407599178 heartbeat IPC: 1.098 cumulative IPC: 1.114 (Simulation time: 01 hr 13 min 28 sec)
Heartbeat CPU 0 instructions: 500000003 cycles: 418843824 heartbeat IPC: 0.8893 cumulative IPC: 1.107 (Simulation time: 01 hr 15 min 25 sec)
Heartbeat CPU 0 instructions: 510000004 cycles: 433215217 heartbeat IPC: 0.6958 cumulative IPC: 1.093 (Simulation time: 01 hr 17 min 49 sec)
Heartbeat CPU 0 instructions: 520000000 cycles: 448547276 heartbeat IPC: 0.6522 cumulative IPC: 1.078 (Simulation time: 01 hr 20 min 19 sec)
Heartbeat CPU 0 instructions: 530000004 cycles: 464165574 heartbeat IPC: 0.6403 cumulative IPC: 1.063 (Simulation time: 01 hr 22 min 52 sec)
Heartbeat CPU 0 instructions: 540000000 cycles: 479232016 heartbeat IPC: 0.6637 cumulative IPC: 1.05 (Simulation time: 01 hr 25 min 25 sec)
Heartbeat CPU 0 instructions: 550000002 cycles: 490879111 heartbeat IPC: 0.8586 cumulative IPC: 1.045 (Simulation time: 01 hr 27 min 27 sec)
Heartbeat CPU 0 instructions: 560000000 cycles: 501255892 heartbeat IPC: 0.9637 cumulative IPC: 1.043 (Simulation time: 01 hr 29 min 19 sec)
Heartbeat CPU 0 instructions: 570000002 cycles: 511669021 heartbeat IPC: 0.9603 cumulative IPC: 1.042 (Simulation time: 01 hr 31 min 09 sec)
Heartbeat CPU 0 instructions: 580000000 cycles: 522089632 heartbeat IPC: 0.9596 cumulative IPC: 1.04 (Simulation time: 01 hr 32 min 58 sec)
Heartbeat CPU 0 instructions: 590000003 cycles: 532439774 heartbeat IPC: 0.9662 cumulative IPC: 1.039 (Simulation time: 01 hr 34 min 47 sec)
*** Reached end of trace: (0, "traces/lu.A.champsimtrace")
Heartbeat CPU 0 instructions: 600000001 cycles: 542919029 heartbeat IPC: 0.9543 cumulative IPC: 1.037 (Simulation time: 01 hr 36 min 36 sec)
Heartbeat CPU 0 instructions: 610000000 cycles: 546845929 heartbeat IPC: 2.547 cumulative IPC: 1.048 (Simulation time: 01 hr 37 min 29 sec)
Heartbeat CPU 0 instructions: 620000000 cycles: 549345930 heartbeat IPC: 4 cumulative IPC: 1.062 (Simulation time: 01 hr 38 min 14 sec)
Heartbeat CPU 0 instructions: 630000004 cycles: 551845931 heartbeat IPC: 4 cumulative IPC: 1.075 (Simulation time: 01 hr 38 min 59 sec)
Heartbeat CPU 0 instructions: 640000002 cycles: 554345931 heartbeat IPC: 4 cumulative IPC: 1.089 (Simulation time: 01 hr 39 min 44 sec)
Heartbeat CPU 0 instructions: 650000001 cycles: 556845930 heartbeat IPC: 4 cumulative IPC: 1.102 (Simulation time: 01 hr 40 min 29 sec)
Simulation finished CPU 0 instructions: 600000001 cycles: 544345728 cumulative IPC: 1.102 (Simulation time: 01 hr 40 min 29 sec)
Simulation complete CPU 0 instructions: 600000001 cycles: 544345728 cumulative IPC: 1.102 (Simulation time: 01 hr 40 min 29 sec)

ChampSim completed all CPUs

=== Simulation ===
CPU 0 runs traces/lu.A.champsimtrace
Region of Interest Statistics

CPU 0 cumulative IPC: 1.102 instructions: 600000001 cycles: 544345728
CPU 0 Branch Prediction Accuracy: 99.98% MPKI: 0.004037 Average ROB Occupancy at Mispredict: 118.1
Branch type MPKI
BRANCH_DIRECT_JUMP: 5e-06
BRANCH_INDIRECT: 7.33e-05
BRANCH_CONDITIONAL: 0.0039
BRANCH_DIRECT_CALL: 6.67e-06
BRANCH_INDIRECT_CALL: 3.17e-05
BRANCH_RETURN: 1.83e-05

LLC TOTAL        ACCESS:    5107191 HIT:    1044794 MISS:    4062397
LLC LOAD         ACCESS:    2481352 HIT:     324962 MISS:    2156390
LLC RFO          ACCESS:     831673 HIT:      58847 MISS:     772826
LLC PREFETCH     ACCESS:          0 HIT:          0 MISS:          0
LLC WRITE        ACCESS:    1782310 HIT:     657224 MISS:    1125086
LLC TRANSLATION  ACCESS:      11856 HIT:       3761 MISS:       8095
LLC PREFETCH REQUESTED:          0 ISSUED:          0 USEFUL:          0 USELESS:          0
LLC AVERAGE MISS LATENCY: 735.4 cycles
cpu0_DTLB TOTAL        ACCESS:  125452325 HIT:  118045780 MISS:    7406545
cpu0_DTLB LOAD         ACCESS:  125452325 HIT:  118045780 MISS:    7406545
cpu0_DTLB RFO          ACCESS:          0 HIT:          0 MISS:          0
cpu0_DTLB PREFETCH     ACCESS:          0 HIT:          0 MISS:          0
cpu0_DTLB WRITE        ACCESS:          0 HIT:          0 MISS:          0
cpu0_DTLB TRANSLATION  ACCESS:          0 HIT:          0 MISS:          0
cpu0_DTLB PREFETCH REQUESTED:          0 ISSUED:          0 USEFUL:          0 USELESS:          0
cpu0_DTLB AVERAGE MISS LATENCY: 5.966 cycles
cpu0_ITLB TOTAL        ACCESS:    1263094 HIT:    1262866 MISS:        228
cpu0_ITLB LOAD         ACCESS:    1263094 HIT:    1262866 MISS:        228
cpu0_ITLB RFO          ACCESS:          0 HIT:          0 MISS:          0
cpu0_ITLB PREFETCH     ACCESS:          0 HIT:          0 MISS:          0
cpu0_ITLB WRITE        ACCESS:          0 HIT:          0 MISS:          0
cpu0_ITLB TRANSLATION  ACCESS:          0 HIT:          0 MISS:          0
cpu0_ITLB PREFETCH REQUESTED:          0 ISSUED:          0 USEFUL:          0 USELESS:          0
cpu0_ITLB AVERAGE MISS LATENCY: 254.8 cycles
cpu0_L1D TOTAL        ACCESS:  179667275 HIT:  170030348 MISS:    9636927
cpu0_L1D LOAD         ACCESS:  142608753 HIT:  136679283 MISS:    5929470
cpu0_L1D RFO          ACCESS:          0 HIT:          0 MISS:          0
cpu0_L1D PREFETCH     ACCESS:          0 HIT:          0 MISS:          0
cpu0_L1D WRITE        ACCESS:   37005922 HIT:   33323365 MISS:    3682557
cpu0_L1D TRANSLATION  ACCESS:      52600 HIT:      27700 MISS:      24900
cpu0_L1D PREFETCH REQUESTED:          0 ISSUED:          0 USEFUL:          0 USELESS:          0
cpu0_L1D AVERAGE MISS LATENCY: 298.9 cycles
cpu0_L1I TOTAL        ACCESS:    1589831 HIT:    1586924 MISS:       2907
cpu0_L1I LOAD         ACCESS:    1589831 HIT:    1586924 MISS:       2907
cpu0_L1I RFO          ACCESS:          0 HIT:          0 MISS:          0
cpu0_L1I PREFETCH     ACCESS:          0 HIT:          0 MISS:          0
cpu0_L1I WRITE        ACCESS:          0 HIT:          0 MISS:          0
cpu0_L1I TRANSLATION  ACCESS:          0 HIT:          0 MISS:          0
cpu0_L1I PREFETCH REQUESTED:          0 ISSUED:          0 USEFUL:          0 USELESS:          0
cpu0_L1I AVERAGE MISS LATENCY: 499.2 cycles
cpu0_L2C TOTAL        ACCESS:    5979064 HIT:    2649871 MISS:    3329193
cpu0_L2C LOAD         ACCESS:    3058359 HIT:     577007 MISS:    2481352
cpu0_L2C RFO          ACCESS:     878164 HIT:      46491 MISS:     831673
cpu0_L2C PREFETCH     ACCESS:          0 HIT:          0 MISS:          0
cpu0_L2C WRITE        ACCESS:    2017688 HIT:    2013376 MISS:       4312
cpu0_L2C TRANSLATION  ACCESS:      24853 HIT:      12997 MISS:      11856
cpu0_L2C PREFETCH REQUESTED:          0 ISSUED:          0 USEFUL:          0 USELESS:          0
cpu0_L2C AVERAGE MISS LATENCY: 918.3 cycles
cpu0_STLB TOTAL        ACCESS:    3994014 HIT:    3941428 MISS:      52586
cpu0_STLB LOAD         ACCESS:    3994014 HIT:    3941428 MISS:      52586
cpu0_STLB RFO          ACCESS:          0 HIT:          0 MISS:          0
cpu0_STLB PREFETCH     ACCESS:          0 HIT:          0 MISS:          0
cpu0_STLB WRITE        ACCESS:          0 HIT:          0 MISS:          0
cpu0_STLB TRANSLATION  ACCESS:          0 HIT:          0 MISS:          0
cpu0_STLB PREFETCH REQUESTED:          0 ISSUED:          0 USEFUL:          0 USELESS:          0
cpu0_STLB AVERAGE MISS LATENCY: 648.8 cycles

DRAM Statistics

Channel 0 RQ ROW_BUFFER_HIT:     744819
  ROW_BUFFER_MISS:    2190783
 AVG DBUS CONGESTED CYCLE: 3.933
WQ ROW_BUFFER_HIT: Channel 0 
  ROW_BUFFER_MISS:     476194
  FULL:    1185133
