WARNING: physical memory size is smaller than virtual memory size.

*** ChampSim Multicore Out-of-Order Simulator ***
Warmup Instructions: 50000000
Simulation Instructions: 600000000
Number of CPUs: 1
Page size: 4096

CPU 0 Tage branch predictor
Off-chip DRAM Size: 4 GiB Channels: 1 Width: 64-bit Data Race: 3200 MT/s
Heartbeat CPU 0 instructions: 10000000 cycles: 2500202 heartbeat IPC: 4 cumulative IPC: 4 (Simulation time: 00 hr 00 min 39 sec)
Heartbeat CPU 0 instructions: 20000000 cycles: 5000202 heartbeat IPC: 4 cumulative IPC: 4 (Simulation time: 00 hr 01 min 28 sec)
Heartbeat CPU 0 instructions: 30000000 cycles: 7500202 heartbeat IPC: 4 cumulative IPC: 4 (Simulation time: 00 hr 02 min 17 sec)
Heartbeat CPU 0 instructions: 40000000 cycles: 10000202 heartbeat IPC: 4 cumulative IPC: 4 (Simulation time: 00 hr 03 min 06 sec)
Heartbeat CPU 0 instructions: 50000000 cycles: 12500202 heartbeat IPC: 4 cumulative IPC: 4 (Simulation time: 00 hr 03 min 55 sec)
Warmup finished CPU 0 instructions: 50000000 cycles: 12500203 cumulative IPC: 4 (Simulation time: 00 hr 03 min 55 sec)
Warmup complete CPU 0 instructions: 50000000 cycles: 12500203 cumulative IPC: 4 (Simulation time: 00 hr 03 min 55 sec)
Heartbeat CPU 0 instructions: 60000004 cycles: 15000620 heartbeat IPC: 3.999 cumulative IPC: 3.999 (Simulation time: 00 hr 04 min 50 sec)
Heartbeat CPU 0 instructions: 70000001 cycles: 17500972 heartbeat IPC: 3.999 cumulative IPC: 3.999 (Simulation time: 00 hr 05 min 44 sec)
Heartbeat CPU 0 instructions: 80000004 cycles: 20001040 heartbeat IPC: 4 cumulative IPC: 4 (Simulation time: 00 hr 06 min 38 sec)
Heartbeat CPU 0 instructions: 90000000 cycles: 22505316 heartbeat IPC: 3.993 cumulative IPC: 3.998 (Simulation time: 00 hr 07 min 33 sec)
Heartbeat CPU 0 instructions: 100000004 cycles: 25006211 heartbeat IPC: 3.999 cumulative IPC: 3.998 (Simulation time: 00 hr 08 min 26 sec)
Heartbeat CPU 0 instructions: 110000003 cycles: 27506243 heartbeat IPC: 4 cumulative IPC: 3.998 (Simulation time: 00 hr 09 min 20 sec)
Heartbeat CPU 0 instructions: 120000004 cycles: 30007269 heartbeat IPC: 3.998 cumulative IPC: 3.998 (Simulation time: 00 hr 10 min 15 sec)
Heartbeat CPU 0 instructions: 130000004 cycles: 32507476 heartbeat IPC: 4 cumulative IPC: 3.999 (Simulation time: 00 hr 11 min 09 sec)
Heartbeat CPU 0 instructions: 140000004 cycles: 35007501 heartbeat IPC: 4 cumulative IPC: 3.999 (Simulation time: 00 hr 12 min 03 sec)
Heartbeat CPU 0 instructions: 150000000 cycles: 37507886 heartbeat IPC: 3.999 cumulative IPC: 3.999 (Simulation time: 00 hr 12 min 57 sec)
Heartbeat CPU 0 instructions: 160000001 cycles: 40008640 heartbeat IPC: 3.999 cumulative IPC: 3.999 (Simulation time: 00 hr 13 min 50 sec)
Heartbeat CPU 0 instructions: 170000000 cycles: 42509018 heartbeat IPC: 3.999 cumulative IPC: 3.999 (Simulation time: 00 hr 14 min 44 sec)
Heartbeat CPU 0 instructions: 180000003 cycles: 45009370 heartbeat IPC: 3.999 cumulative IPC: 3.999 (Simulation time: 00 hr 15 min 40 sec)
Heartbeat CPU 0 instructions: 190000003 cycles: 47510393 heartbeat IPC: 3.998 cumulative IPC: 3.999 (Simulation time: 00 hr 16 min 37 sec)
Heartbeat CPU 0 instructions: 200000002 cycles: 50012990 heartbeat IPC: 3.996 cumulative IPC: 3.999 (Simulation time: 00 hr 17 min 33 sec)
Heartbeat CPU 0 instructions: 210000000 cycles: 52513012 heartbeat IPC: 4 cumulative IPC: 3.999 (Simulation time: 00 hr 18 min 29 sec)
Heartbeat CPU 0 instructions: 220000002 cycles: 55013799 heartbeat IPC: 3.999 cumulative IPC: 3.999 (Simulation time: 00 hr 19 min 24 sec)
Heartbeat CPU 0 instructions: 230000003 cycles: 57515871 heartbeat IPC: 3.997 cumulative IPC: 3.999 (Simulation time: 00 hr 20 min 18 sec)
Heartbeat CPU 0 instructions: 240000002 cycles: 92166445 heartbeat IPC: 0.2886 cumulative IPC: 2.385 (Simulation time: 00 hr 25 min 48 sec)
Heartbeat CPU 0 instructions: 250000000 cycles: 100448328 heartbeat IPC: 1.207 cumulative IPC: 2.274 (Simulation time: 00 hr 27 min 46 sec)
Heartbeat CPU 0 instructions: 260000003 cycles: 109096461 heartbeat IPC: 1.156 cumulative IPC: 2.174 (Simulation time: 00 hr 29 min 48 sec)
Heartbeat CPU 0 instructions: 270000004 cycles: 118299536 heartbeat IPC: 1.087 cumulative IPC: 2.079 (Simulation time: 00 hr 31 min 58 sec)
Heartbeat CPU 0 instructions: 280000003 cycles: 124225760 heartbeat IPC: 1.687 cumulative IPC: 2.059 (Simulation time: 00 hr 33 min 32 sec)
Heartbeat CPU 0 instructions: 290000000 cycles: 129787063 heartbeat IPC: 1.798 cumulative IPC: 2.046 (Simulation time: 00 hr 35 min 02 sec)
Heartbeat CPU 0 instructions: 300000003 cycles: 135370511 heartbeat IPC: 1.791 cumulative IPC: 2.035 (Simulation time: 00 hr 36 min 33 sec)
Heartbeat CPU 0 instructions: 310000003 cycles: 140948407 heartbeat IPC: 1.793 cumulative IPC: 2.024 (Simulation time: 00 hr 38 min 04 sec)
Heartbeat CPU 0 instructions: 320000004 cycles: 147061498 heartbeat IPC: 1.636 cumulative IPC: 2.007 (Simulation time: 00 hr 39 min 41 sec)
Heartbeat CPU 0 instructions: 330000002 cycles: 154820114 heartbeat IPC: 1.289 cumulative IPC: 1.967 (Simulation time: 00 hr 41 min 40 sec)
Heartbeat CPU 0 instructions: 340000001 cycles: 162819139 heartbeat IPC: 1.25 cumulative IPC: 1.929 (Simulation time: 00 hr 43 min 40 sec)
Heartbeat CPU 0 instructions: 350000001 cycles: 170825842 heartbeat IPC: 1.249 cumulative IPC: 1.895 (Simulation time: 00 hr 45 min 41 sec)
Heartbeat CPU 0 instructions: 360000001 cycles: 178859249 heartbeat IPC: 1.245 cumulative IPC: 1.863 (Simulation time: 00 hr 47 min 41 sec)
Heartbeat CPU 0 instructions: 370000001 cycles: 186815348 heartbeat IPC: 1.257 cumulative IPC: 1.836 (Simulation time: 00 hr 49 min 41 sec)
Heartbeat CPU 0 instructions: 380000001 cycles: 195026774 heartbeat IPC: 1.218 cumulative IPC: 1.808 (Simulation time: 00 hr 51 min 44 sec)
Heartbeat CPU 0 instructions: 390000003 cycles: 203427090 heartbeat IPC: 1.19 cumulative IPC: 1.781 (Simulation time: 00 hr 53 min 48 sec)
Heartbeat CPU 0 instructions: 400000004 cycles: 211961847 heartbeat IPC: 1.172 cumulative IPC: 1.755 (Simulation time: 00 hr 55 min 53 sec)
Heartbeat CPU 0 instructions: 410000001 cycles: 220603634 heartbeat IPC: 1.157 cumulative IPC: 1.73 (Simulation time: 00 hr 57 min 58 sec)
Heartbeat CPU 0 instructions: 420000000 cycles: 229239878 heartbeat IPC: 1.158 cumulative IPC: 1.707 (Simulation time: 01 hr 00 min 04 sec)
Heartbeat CPU 0 instructions: 430000003 cycles: 237728998 heartbeat IPC: 1.178 cumulative IPC: 1.687 (Simulation time: 01 hr 02 min 10 sec)
Heartbeat CPU 0 instructions: 440000004 cycles: 387222689 heartbeat IPC: 0.06689 cumulative IPC: 1.041 (Simulation time: 01 hr 29 min 26 sec)
Heartbeat CPU 0 instructions: 450000002 cycles: 398013424 heartbeat IPC: 0.9267 cumulative IPC: 1.038 (Simulation time: 01 hr 31 min 57 sec)
Heartbeat CPU 0 instructions: 460000000 cycles: 406975731 heartbeat IPC: 1.116 cumulative IPC: 1.039 (Simulation time: 01 hr 34 min 10 sec)
Heartbeat CPU 0 instructions: 470000003 cycles: 415831294 heartbeat IPC: 1.129 cumulative IPC: 1.041 (Simulation time: 01 hr 36 min 19 sec)
Heartbeat CPU 0 instructions: 480000003 cycles: 424941009 heartbeat IPC: 1.098 cumulative IPC: 1.043 (Simulation time: 01 hr 38 min 32 sec)
Heartbeat CPU 0 instructions: 490000001 cycles: 433829543 heartbeat IPC: 1.125 cumulative IPC: 1.044 (Simulation time: 01 hr 40 min 48 sec)
Heartbeat CPU 0 instructions: 500000004 cycles: 447584510 heartbeat IPC: 0.727 cumulative IPC: 1.034 (Simulation time: 01 hr 43 min 57 sec)
Heartbeat CPU 0 instructions: 510000002 cycles: 462199280 heartbeat IPC: 0.6842 cumulative IPC: 1.023 (Simulation time: 01 hr 47 min 18 sec)
Heartbeat CPU 0 instructions: 520000003 cycles: 477294625 heartbeat IPC: 0.6625 cumulative IPC: 1.011 (Simulation time: 01 hr 50 min 41 sec)
Heartbeat CPU 0 instructions: 530000001 cycles: 491944105 heartbeat IPC: 0.6826 cumulative IPC: 1.001 (Simulation time: 01 hr 54 min 02 sec)
Heartbeat CPU 0 instructions: 540000001 cycles: 506877118 heartbeat IPC: 0.6697 cumulative IPC: 0.9911 (Simulation time: 01 hr 57 min 22 sec)
Heartbeat CPU 0 instructions: 550000000 cycles: 518170668 heartbeat IPC: 0.8855 cumulative IPC: 0.9888 (Simulation time: 02 hr 00 min 00 sec)
Heartbeat CPU 0 instructions: 560000002 cycles: 528711725 heartbeat IPC: 0.9487 cumulative IPC: 0.988 (Simulation time: 02 hr 02 min 31 sec)
Heartbeat CPU 0 instructions: 570000000 cycles: 539981013 heartbeat IPC: 0.8874 cumulative IPC: 0.9858 (Simulation time: 02 hr 05 min 07 sec)
Heartbeat CPU 0 instructions: 580000001 cycles: 551187175 heartbeat IPC: 0.8924 cumulative IPC: 0.9839 (Simulation time: 02 hr 07 min 45 sec)
Heartbeat CPU 0 instructions: 590000000 cycles: 562440407 heartbeat IPC: 0.8886 cumulative IPC: 0.9819 (Simulation time: 02 hr 10 min 24 sec)
*** Reached end of trace: (0, "traces/lu.A.champsimtrace")
Heartbeat CPU 0 instructions: 600000001 cycles: 573988054 heartbeat IPC: 0.866 cumulative IPC: 0.9795 (Simulation time: 02 hr 13 min 02 sec)
Heartbeat CPU 0 instructions: 610000004 cycles: 583636414 heartbeat IPC: 1.036 cumulative IPC: 0.9805 (Simulation time: 02 hr 15 min 13 sec)
Heartbeat CPU 0 instructions: 620000003 cycles: 586137687 heartbeat IPC: 3.998 cumulative IPC: 0.9937 (Simulation time: 02 hr 16 min 09 sec)
Heartbeat CPU 0 instructions: 630000002 cycles: 588639331 heartbeat IPC: 3.997 cumulative IPC: 1.007 (Simulation time: 02 hr 17 min 07 sec)
Heartbeat CPU 0 instructions: 640000000 cycles: 591139478 heartbeat IPC: 4 cumulative IPC: 1.02 (Simulation time: 02 hr 18 min 05 sec)
Heartbeat CPU 0 instructions: 650000004 cycles: 593639804 heartbeat IPC: 3.999 cumulative IPC: 1.032 (Simulation time: 02 hr 19 min 03 sec)
Simulation finished CPU 0 instructions: 600000004 cycles: 581139602 cumulative IPC: 1.032 (Simulation time: 02 hr 19 min 03 sec)
Simulation complete CPU 0 instructions: 600000004 cycles: 581139602 cumulative IPC: 1.032 (Simulation time: 02 hr 19 min 03 sec)

ChampSim completed all CPUs

=== Simulation ===
CPU 0 runs traces/lu.A.champsimtrace
Region of Interest Statistics

CPU 0 cumulative IPC: 1.032 instructions: 600000004 cycles: 581139602
CPU 0 Branch Prediction Accuracy: 99.98% MPKI: 0.00408 Average ROB Occupancy at Mispredict: 127.2
Branch type MPKI
BRANCH_DIRECT_JUMP: 5e-06
BRANCH_INDIRECT: 7.83e-05
BRANCH_CONDITIONAL: 0.00394
BRANCH_DIRECT_CALL: 6.67e-06
BRANCH_INDIRECT_CALL: 3.5e-05
BRANCH_RETURN: 1.83e-05

LLC TOTAL        ACCESS:    5107766 HIT:     710473 MISS:    4397293
LLC LOAD         ACCESS:    2481917 HIT:     230255 MISS:    2251662
LLC RFO          ACCESS:     831683 HIT:      10687 MISS:     820996
LLC PREFETCH     ACCESS:          0 HIT:          0 MISS:          0
LLC WRITE        ACCESS:    1782340 HIT:     460374 MISS:    1321966
LLC TRANSLATION  ACCESS:      11826 HIT:       9157 MISS:       2669
LLC PREFETCH REQUESTED:          0 ISSUED:          0 USEFUL:          0 USELESS:          0
LLC AVERAGE MISS LATENCY: 761.1 cycles
cpu0_DTLB TOTAL        ACCESS:  125520992 HIT:  118104593 MISS:    7416399
cpu0_DTLB LOAD         ACCESS:  125520992 HIT:  118104593 MISS:    7416399
cpu0_DTLB RFO          ACCESS:          0 HIT:          0 MISS:          0
cpu0_DTLB PREFETCH     ACCESS:          0 HIT:          0 MISS:          0
cpu0_DTLB WRITE        ACCESS:          0 HIT:          0 MISS:          0
cpu0_DTLB TRANSLATION  ACCESS:          0 HIT:          0 MISS:          0
cpu0_DTLB PREFETCH REQUESTED:          0 ISSUED:          0 USEFUL:          0 USELESS:          0
cpu0_DTLB AVERAGE MISS LATENCY: 5.253 cycles
cpu0_ITLB TOTAL        ACCESS:    1264435 HIT:    1264202 MISS:        233
cpu0_ITLB LOAD         ACCESS:    1264435 HIT:    1264202 MISS:        233
cpu0_ITLB RFO          ACCESS:          0 HIT:          0 MISS:          0
cpu0_ITLB PREFETCH     ACCESS:          0 HIT:          0 MISS:          0
cpu0_ITLB WRITE        ACCESS:          0 HIT:          0 MISS:          0
cpu0_ITLB TRANSLATION  ACCESS:          0 HIT:          0 MISS:          0
cpu0_ITLB PREFETCH REQUESTED:          0 ISSUED:          0 USEFUL:          0 USELESS:          0
cpu0_ITLB AVERAGE MISS LATENCY: 326.8 cycles
cpu0_L1D TOTAL        ACCESS:  179617650 HIT:  169924725 MISS:    9692925
cpu0_L1D LOAD         ACCESS:  142564985 HIT:  136644048 MISS:    5920937
cpu0_L1D RFO          ACCESS:          0 HIT:          0 MISS:          0
cpu0_L1D PREFETCH     ACCESS:          0 HIT:          0 MISS:          0
cpu0_L1D WRITE        ACCESS:   37000069 HIT:   33252969 MISS:    3747100
cpu0_L1D TRANSLATION  ACCESS:      52596 HIT:      27708 MISS:      24888
cpu0_L1D PREFETCH REQUESTED:          0 ISSUED:          0 USEFUL:          0 USELESS:          0
cpu0_L1D AVERAGE MISS LATENCY: 332.9 cycles
cpu0_L1I TOTAL        ACCESS:    1591046 HIT:    1588107 MISS:       2939
cpu0_L1I LOAD         ACCESS:    1591046 HIT:    1588107 MISS:       2939
cpu0_L1I RFO          ACCESS:          0 HIT:          0 MISS:          0
cpu0_L1I PREFETCH     ACCESS:          0 HIT:          0 MISS:          0
cpu0_L1I WRITE        ACCESS:          0 HIT:          0 MISS:          0
cpu0_L1I TRANSLATION  ACCESS:          0 HIT:          0 MISS:          0
cpu0_L1I PREFETCH REQUESTED:          0 ISSUED:          0 USEFUL:          0 USELESS:          0
cpu0_L1I AVERAGE MISS LATENCY: 594.8 cycles
cpu0_L2C TOTAL        ACCESS:    5941029 HIT:    2611370 MISS:    3329659
cpu0_L2C LOAD         ACCESS:    3052790 HIT:     570872 MISS:    2481918
cpu0_L2C RFO          ACCESS:     872201 HIT:      40518 MISS:     831683
cpu0_L2C PREFETCH     ACCESS:          0 HIT:          0 MISS:          0
cpu0_L2C WRITE        ACCESS:    1991198 HIT:    1986966 MISS:       4232
cpu0_L2C TRANSLATION  ACCESS:      24840 HIT:      13014 MISS:      11826
cpu0_L2C PREFETCH REQUESTED:          0 ISSUED:          0 USEFUL:          0 USELESS:          0
cpu0_L2C AVERAGE MISS LATENCY: 1026 cycles
cpu0_STLB TOTAL        ACCESS:    4005131 HIT:    3952549 MISS:      52582
cpu0_STLB LOAD         ACCESS:    4005131 HIT:    3952549 MISS:      52582
cpu0_STLB RFO          ACCESS:          0 HIT:          0 MISS:          0
cpu0_STLB PREFETCH     ACCESS:          0 HIT:          0 MISS:          0
cpu0_STLB WRITE        ACCESS:          0 HIT:          0 MISS:          0
cpu0_STLB TRANSLATION  ACCESS:          0 HIT:          0 MISS:          0
cpu0_STLB PREFETCH REQUESTED:          0 ISSUED:          0 USEFUL:          0 USELESS:          0
cpu0_STLB AVERAGE MISS LATENCY: 516.9 cycles

DRAM Statistics

Channel 0 RQ ROW_BUFFER_HIT:     757867
  ROW_BUFFER_MISS:    2317426
 AVG DBUS CONGESTED CYCLE: 3.937
WQ ROW_BUFFER_HIT: Channel 0 
  ROW_BUFFER_MISS:     397211
  FULL:    1313115
Final OPTGen Hits: 5340
Final OPTGen Access: 52793
Final OPTGEN Hit Rate: 10.115
