WARNING: physical memory size is smaller than virtual memory size.

*** ChampSim Multicore Out-of-Order Simulator ***
Warmup Instructions: 50000000
Simulation Instructions: 600000000
Number of CPUs: 1
Page size: 4096

Off-chip DRAM Size: 4 GiB Channels: 1 Width: 64-bit Data Race: 3200 MT/s
Heartbeat CPU 0 instructions: 10000000 cycles: 2500202 heartbeat IPC: 4 cumulative IPC: 4 (Simulation time: 00 hr 00 min 33 sec)
Heartbeat CPU 0 instructions: 20000000 cycles: 5000202 heartbeat IPC: 4 cumulative IPC: 4 (Simulation time: 00 hr 01 min 06 sec)
Heartbeat CPU 0 instructions: 30000000 cycles: 7500202 heartbeat IPC: 4 cumulative IPC: 4 (Simulation time: 00 hr 01 min 39 sec)
Heartbeat CPU 0 instructions: 40000000 cycles: 10000202 heartbeat IPC: 4 cumulative IPC: 4 (Simulation time: 00 hr 02 min 13 sec)
Heartbeat CPU 0 instructions: 50000000 cycles: 12500202 heartbeat IPC: 4 cumulative IPC: 4 (Simulation time: 00 hr 02 min 46 sec)
Warmup finished CPU 0 instructions: 50000000 cycles: 12500203 cumulative IPC: 4 (Simulation time: 00 hr 02 min 46 sec)
Warmup complete CPU 0 instructions: 50000000 cycles: 12500203 cumulative IPC: 4 (Simulation time: 00 hr 02 min 46 sec)
Heartbeat CPU 0 instructions: 60000004 cycles: 15001959 heartbeat IPC: 3.997 cumulative IPC: 3.997 (Simulation time: 00 hr 03 min 26 sec)
Heartbeat CPU 0 instructions: 70000003 cycles: 17503710 heartbeat IPC: 3.997 cumulative IPC: 3.997 (Simulation time: 00 hr 04 min 06 sec)
Heartbeat CPU 0 instructions: 80000004 cycles: 20005471 heartbeat IPC: 3.997 cumulative IPC: 3.997 (Simulation time: 00 hr 04 min 45 sec)
Heartbeat CPU 0 instructions: 90000000 cycles: 22509015 heartbeat IPC: 3.994 cumulative IPC: 3.996 (Simulation time: 00 hr 05 min 25 sec)
Heartbeat CPU 0 instructions: 100000001 cycles: 25010754 heartbeat IPC: 3.997 cumulative IPC: 3.997 (Simulation time: 00 hr 06 min 05 sec)
Heartbeat CPU 0 instructions: 110000000 cycles: 27512517 heartbeat IPC: 3.997 cumulative IPC: 3.997 (Simulation time: 00 hr 06 min 45 sec)
Heartbeat CPU 0 instructions: 120000004 cycles: 30015191 heartbeat IPC: 3.996 cumulative IPC: 3.997 (Simulation time: 00 hr 07 min 25 sec)
Heartbeat CPU 0 instructions: 130000000 cycles: 32519304 heartbeat IPC: 3.993 cumulative IPC: 3.996 (Simulation time: 00 hr 08 min 05 sec)
Heartbeat CPU 0 instructions: 140000004 cycles: 35021056 heartbeat IPC: 3.997 cumulative IPC: 3.996 (Simulation time: 00 hr 08 min 44 sec)
Heartbeat CPU 0 instructions: 150000000 cycles: 37523753 heartbeat IPC: 3.996 cumulative IPC: 3.996 (Simulation time: 00 hr 09 min 24 sec)
Heartbeat CPU 0 instructions: 160000001 cycles: 40026273 heartbeat IPC: 3.996 cumulative IPC: 3.996 (Simulation time: 00 hr 10 min 03 sec)
Heartbeat CPU 0 instructions: 170000000 cycles: 42529189 heartbeat IPC: 3.995 cumulative IPC: 3.996 (Simulation time: 00 hr 10 min 41 sec)
Heartbeat CPU 0 instructions: 180000003 cycles: 45033097 heartbeat IPC: 3.994 cumulative IPC: 3.996 (Simulation time: 00 hr 11 min 20 sec)
Heartbeat CPU 0 instructions: 190000000 cycles: 47535580 heartbeat IPC: 3.996 cumulative IPC: 3.996 (Simulation time: 00 hr 11 min 58 sec)
Heartbeat CPU 0 instructions: 200000004 cycles: 50039199 heartbeat IPC: 3.994 cumulative IPC: 3.996 (Simulation time: 00 hr 12 min 37 sec)
Heartbeat CPU 0 instructions: 210000004 cycles: 52541707 heartbeat IPC: 3.996 cumulative IPC: 3.996 (Simulation time: 00 hr 13 min 15 sec)
Heartbeat CPU 0 instructions: 220000001 cycles: 55043874 heartbeat IPC: 3.997 cumulative IPC: 3.996 (Simulation time: 00 hr 13 min 53 sec)
Heartbeat CPU 0 instructions: 230000000 cycles: 57545834 heartbeat IPC: 3.997 cumulative IPC: 3.996 (Simulation time: 00 hr 14 min 33 sec)
Heartbeat CPU 0 instructions: 240000000 cycles: 89621096 heartbeat IPC: 0.3118 cumulative IPC: 2.464 (Simulation time: 00 hr 18 min 06 sec)
Heartbeat CPU 0 instructions: 250000001 cycles: 98358343 heartbeat IPC: 1.145 cumulative IPC: 2.329 (Simulation time: 00 hr 19 min 34 sec)
Heartbeat CPU 0 instructions: 260000001 cycles: 107074705 heartbeat IPC: 1.147 cumulative IPC: 2.22 (Simulation time: 00 hr 21 min 03 sec)
Heartbeat CPU 0 instructions: 270000001 cycles: 114818586 heartbeat IPC: 1.291 cumulative IPC: 2.15 (Simulation time: 00 hr 22 min 26 sec)
Heartbeat CPU 0 instructions: 280000003 cycles: 120510384 heartbeat IPC: 1.757 cumulative IPC: 2.129 (Simulation time: 00 hr 23 min 32 sec)
Heartbeat CPU 0 instructions: 290000001 cycles: 126171796 heartbeat IPC: 1.766 cumulative IPC: 2.111 (Simulation time: 00 hr 24 min 38 sec)
Heartbeat CPU 0 instructions: 300000002 cycles: 131863290 heartbeat IPC: 1.757 cumulative IPC: 2.094 (Simulation time: 00 hr 25 min 43 sec)
Heartbeat CPU 0 instructions: 310000002 cycles: 137539963 heartbeat IPC: 1.762 cumulative IPC: 2.079 (Simulation time: 00 hr 26 min 49 sec)
Heartbeat CPU 0 instructions: 320000000 cycles: 143767321 heartbeat IPC: 1.606 cumulative IPC: 2.057 (Simulation time: 00 hr 27 min 59 sec)
Heartbeat CPU 0 instructions: 330000002 cycles: 151891517 heartbeat IPC: 1.231 cumulative IPC: 2.009 (Simulation time: 00 hr 29 min 27 sec)
Heartbeat CPU 0 instructions: 340000004 cycles: 159930034 heartbeat IPC: 1.244 cumulative IPC: 1.967 (Simulation time: 00 hr 30 min 54 sec)
Heartbeat CPU 0 instructions: 350000003 cycles: 167993985 heartbeat IPC: 1.24 cumulative IPC: 1.929 (Simulation time: 00 hr 32 min 21 sec)
Heartbeat CPU 0 instructions: 360000001 cycles: 176091255 heartbeat IPC: 1.235 cumulative IPC: 1.895 (Simulation time: 00 hr 33 min 52 sec)
Heartbeat CPU 0 instructions: 370000002 cycles: 184102128 heartbeat IPC: 1.248 cumulative IPC: 1.865 (Simulation time: 00 hr 35 min 18 sec)
Heartbeat CPU 0 instructions: 380000003 cycles: 192362514 heartbeat IPC: 1.211 cumulative IPC: 1.835 (Simulation time: 00 hr 36 min 49 sec)
Heartbeat CPU 0 instructions: 390000000 cycles: 200899863 heartbeat IPC: 1.171 cumulative IPC: 1.805 (Simulation time: 00 hr 38 min 20 sec)
Heartbeat CPU 0 instructions: 400000000 cycles: 209356889 heartbeat IPC: 1.182 cumulative IPC: 1.778 (Simulation time: 00 hr 39 min 50 sec)
Heartbeat CPU 0 instructions: 410000004 cycles: 217783428 heartbeat IPC: 1.187 cumulative IPC: 1.754 (Simulation time: 00 hr 41 min 19 sec)
Heartbeat CPU 0 instructions: 420000004 cycles: 226239143 heartbeat IPC: 1.183 cumulative IPC: 1.731 (Simulation time: 00 hr 42 min 49 sec)
Heartbeat CPU 0 instructions: 430000002 cycles: 234682905 heartbeat IPC: 1.184 cumulative IPC: 1.71 (Simulation time: 00 hr 44 min 20 sec)
Heartbeat CPU 0 instructions: 440000004 cycles: 364938473 heartbeat IPC: 0.07677 cumulative IPC: 1.107 (Simulation time: 01 hr 01 min 51 sec)
Heartbeat CPU 0 instructions: 450000003 cycles: 372504160 heartbeat IPC: 1.322 cumulative IPC: 1.111 (Simulation time: 01 hr 03 min 12 sec)
Heartbeat CPU 0 instructions: 460000004 cycles: 381612360 heartbeat IPC: 1.098 cumulative IPC: 1.111 (Simulation time: 01 hr 04 min 45 sec)
Heartbeat CPU 0 instructions: 470000002 cycles: 390383375 heartbeat IPC: 1.14 cumulative IPC: 1.111 (Simulation time: 01 hr 06 min 17 sec)
Heartbeat CPU 0 instructions: 480000004 cycles: 399504218 heartbeat IPC: 1.096 cumulative IPC: 1.111 (Simulation time: 01 hr 07 min 50 sec)
Heartbeat CPU 0 instructions: 490000002 cycles: 408618562 heartbeat IPC: 1.097 cumulative IPC: 1.111 (Simulation time: 01 hr 09 min 26 sec)
Heartbeat CPU 0 instructions: 500000003 cycles: 419843113 heartbeat IPC: 0.8909 cumulative IPC: 1.105 (Simulation time: 01 hr 11 min 23 sec)
Heartbeat CPU 0 instructions: 510000000 cycles: 434114873 heartbeat IPC: 0.7007 cumulative IPC: 1.091 (Simulation time: 01 hr 13 min 41 sec)
Heartbeat CPU 0 instructions: 520000000 cycles: 449493421 heartbeat IPC: 0.6503 cumulative IPC: 1.076 (Simulation time: 01 hr 16 min 10 sec)
Heartbeat CPU 0 instructions: 530000004 cycles: 465225560 heartbeat IPC: 0.6356 cumulative IPC: 1.06 (Simulation time: 01 hr 18 min 47 sec)
Heartbeat CPU 0 instructions: 540000002 cycles: 480378203 heartbeat IPC: 0.66 cumulative IPC: 1.047 (Simulation time: 01 hr 21 min 17 sec)
Heartbeat CPU 0 instructions: 550000002 cycles: 492026479 heartbeat IPC: 0.8585 cumulative IPC: 1.043 (Simulation time: 01 hr 23 min 14 sec)
Heartbeat CPU 0 instructions: 560000000 cycles: 502461796 heartbeat IPC: 0.9583 cumulative IPC: 1.041 (Simulation time: 01 hr 24 min 59 sec)
Heartbeat CPU 0 instructions: 570000002 cycles: 512918876 heartbeat IPC: 0.9563 cumulative IPC: 1.039 (Simulation time: 01 hr 26 min 44 sec)
Heartbeat CPU 0 instructions: 580000003 cycles: 523363845 heartbeat IPC: 0.9574 cumulative IPC: 1.037 (Simulation time: 01 hr 28 min 28 sec)
Heartbeat CPU 0 instructions: 590000003 cycles: 533757474 heartbeat IPC: 0.9621 cumulative IPC: 1.036 (Simulation time: 01 hr 30 min 12 sec)
*** Reached end of trace: (0, "traces/lu.A.champsimtrace")
Heartbeat CPU 0 instructions: 600000001 cycles: 544297506 heartbeat IPC: 0.9488 cumulative IPC: 1.034 (Simulation time: 01 hr 32 min 01 sec)
Heartbeat CPU 0 instructions: 610000000 cycles: 548507417 heartbeat IPC: 2.375 cumulative IPC: 1.045 (Simulation time: 01 hr 32 min 51 sec)
Heartbeat CPU 0 instructions: 620000000 cycles: 551009196 heartbeat IPC: 3.997 cumulative IPC: 1.058 (Simulation time: 01 hr 33 min 31 sec)
Heartbeat CPU 0 instructions: 630000004 cycles: 553510959 heartbeat IPC: 3.997 cumulative IPC: 1.072 (Simulation time: 01 hr 34 min 11 sec)
Heartbeat CPU 0 instructions: 640000002 cycles: 556012709 heartbeat IPC: 3.997 cumulative IPC: 1.086 (Simulation time: 01 hr 34 min 51 sec)
Heartbeat CPU 0 instructions: 650000001 cycles: 558514471 heartbeat IPC: 3.997 cumulative IPC: 1.099 (Simulation time: 01 hr 35 min 31 sec)
Simulation finished CPU 0 instructions: 600000001 cycles: 546014269 cumulative IPC: 1.099 (Simulation time: 01 hr 35 min 31 sec)
Simulation complete CPU 0 instructions: 600000001 cycles: 546014269 cumulative IPC: 1.099 (Simulation time: 01 hr 35 min 31 sec)

ChampSim completed all CPUs

=== Simulation ===
CPU 0 runs traces/lu.A.champsimtrace
Region of Interest Statistics

CPU 0 cumulative IPC: 1.099 instructions: 600000001 cycles: 546014269
CPU 0 Branch Prediction Accuracy: 98.73% MPKI: 0.2427 Average ROB Occupancy at Mispredict: 326.6
Branch type MPKI
BRANCH_DIRECT_JUMP: 5e-06
BRANCH_INDIRECT: 7.33e-05
BRANCH_CONDITIONAL: 0.243
BRANCH_DIRECT_CALL: 6.67e-06
BRANCH_INDIRECT_CALL: 3.17e-05
BRANCH_RETURN: 1.83e-05

LLC TOTAL        ACCESS:    5107202 HIT:    1047841 MISS:    4059361
LLC LOAD         ACCESS:    2481343 HIT:     326829 MISS:    2154514
LLC RFO          ACCESS:     831678 HIT:      58200 MISS:     773478
LLC PREFETCH     ACCESS:          0 HIT:          0 MISS:          0
LLC WRITE        ACCESS:    1782317 HIT:     659054 MISS:    1123263
LLC TRANSLATION  ACCESS:      11864 HIT:       3758 MISS:       8106
LLC PREFETCH REQUESTED:          0 ISSUED:          0 USEFUL:          0 USELESS:          0
LLC AVERAGE MISS LATENCY: 733 cycles
cpu0_DTLB TOTAL        ACCESS:  123228772 HIT:  116000954 MISS:    7227818
cpu0_DTLB LOAD         ACCESS:  123228772 HIT:  116000954 MISS:    7227818
cpu0_DTLB RFO          ACCESS:          0 HIT:          0 MISS:          0
cpu0_DTLB PREFETCH     ACCESS:          0 HIT:          0 MISS:          0
cpu0_DTLB WRITE        ACCESS:          0 HIT:          0 MISS:          0
cpu0_DTLB TRANSLATION  ACCESS:          0 HIT:          0 MISS:          0
cpu0_DTLB PREFETCH REQUESTED:          0 ISSUED:          0 USEFUL:          0 USELESS:          0
cpu0_DTLB AVERAGE MISS LATENCY: 6.167 cycles
cpu0_ITLB TOTAL        ACCESS:     719091 HIT:     718888 MISS:        203
cpu0_ITLB LOAD         ACCESS:     719091 HIT:     718888 MISS:        203
cpu0_ITLB RFO          ACCESS:          0 HIT:          0 MISS:          0
cpu0_ITLB PREFETCH     ACCESS:          0 HIT:          0 MISS:          0
cpu0_ITLB WRITE        ACCESS:          0 HIT:          0 MISS:          0
cpu0_ITLB TRANSLATION  ACCESS:          0 HIT:          0 MISS:          0
cpu0_ITLB PREFETCH REQUESTED:          0 ISSUED:          0 USEFUL:          0 USELESS:          0
cpu0_ITLB AVERAGE MISS LATENCY: 329.5 cycles
cpu0_L1D TOTAL        ACCESS:  176612689 HIT:  167043969 MISS:    9568720
cpu0_L1D LOAD         ACCESS:  139553611 HIT:  133693463 MISS:    5860148
cpu0_L1D RFO          ACCESS:          0 HIT:          0 MISS:          0
cpu0_L1D PREFETCH     ACCESS:          0 HIT:          0 MISS:          0
cpu0_L1D WRITE        ACCESS:   37006482 HIT:   33322809 MISS:    3683673
cpu0_L1D TRANSLATION  ACCESS:      52596 HIT:      27697 MISS:      24899
cpu0_L1D PREFETCH REQUESTED:          0 ISSUED:          0 USEFUL:          0 USELESS:          0
cpu0_L1D AVERAGE MISS LATENCY: 299.5 cycles
cpu0_L1I TOTAL        ACCESS:    1105532 HIT:    1102807 MISS:       2725
cpu0_L1I LOAD         ACCESS:    1105532 HIT:    1102807 MISS:       2725
cpu0_L1I RFO          ACCESS:          0 HIT:          0 MISS:          0
cpu0_L1I PREFETCH     ACCESS:          0 HIT:          0 MISS:          0
cpu0_L1I WRITE        ACCESS:          0 HIT:          0 MISS:          0
cpu0_L1I TRANSLATION  ACCESS:          0 HIT:          0 MISS:          0
cpu0_L1I PREFETCH REQUESTED:          0 ISSUED:          0 USEFUL:          0 USELESS:          0
cpu0_L1I AVERAGE MISS LATENCY: 537.2 cycles
cpu0_L2C TOTAL        ACCESS:    5978612 HIT:    2649419 MISS:    3329193
cpu0_L2C LOAD         ACCESS:    3058461 HIT:     577118 MISS:    2481343
cpu0_L2C RFO          ACCESS:     877779 HIT:      46101 MISS:     831678
cpu0_L2C PREFETCH     ACCESS:          0 HIT:          0 MISS:          0
cpu0_L2C WRITE        ACCESS:    2017516 HIT:    2013208 MISS:       4308
cpu0_L2C TRANSLATION  ACCESS:      24856 HIT:      12992 MISS:      11864
cpu0_L2C PREFETCH REQUESTED:          0 ISSUED:          0 USEFUL:          0 USELESS:          0
cpu0_L2C AVERAGE MISS LATENCY: 914.7 cycles
cpu0_STLB TOTAL        ACCESS:    3989413 HIT:    3936827 MISS:      52586
cpu0_STLB LOAD         ACCESS:    3989413 HIT:    3936827 MISS:      52586
cpu0_STLB RFO          ACCESS:          0 HIT:          0 MISS:          0
cpu0_STLB PREFETCH     ACCESS:          0 HIT:          0 MISS:          0
cpu0_STLB WRITE        ACCESS:          0 HIT:          0 MISS:          0
cpu0_STLB TRANSLATION  ACCESS:          0 HIT:          0 MISS:          0
cpu0_STLB PREFETCH REQUESTED:          0 ISSUED:          0 USEFUL:          0 USELESS:          0
cpu0_STLB AVERAGE MISS LATENCY: 641.6 cycles

DRAM Statistics

Channel 0 RQ ROW_BUFFER_HIT:     745054
  ROW_BUFFER_MISS:    2189430
 AVG DBUS CONGESTED CYCLE: 3.925
WQ ROW_BUFFER_HIT: Channel 0 
  ROW_BUFFER_MISS:     476808
  FULL:    1183664
