WARNING: physical memory size is smaller than virtual memory size.

*** ChampSim Multicore Out-of-Order Simulator ***
Warmup Instructions: 50000000
Simulation Instructions: 600000000
Number of CPUs: 1
Page size: 4096

CPU 0 Tage branch predictor
Off-chip DRAM Size: 4 GiB Channels: 1 Width: 64-bit Data Race: 3200 MT/s
Heartbeat CPU 0 instructions: 10000000 cycles: 2500202 heartbeat IPC: 4 cumulative IPC: 4 (Simulation time: 00 hr 01 min 00 sec)
Heartbeat CPU 0 instructions: 20000000 cycles: 5000202 heartbeat IPC: 4 cumulative IPC: 4 (Simulation time: 00 hr 01 min 52 sec)
Heartbeat CPU 0 instructions: 30000000 cycles: 7500202 heartbeat IPC: 4 cumulative IPC: 4 (Simulation time: 00 hr 02 min 42 sec)
Heartbeat CPU 0 instructions: 40000000 cycles: 10000202 heartbeat IPC: 4 cumulative IPC: 4 (Simulation time: 00 hr 03 min 33 sec)
Heartbeat CPU 0 instructions: 50000000 cycles: 12500202 heartbeat IPC: 4 cumulative IPC: 4 (Simulation time: 00 hr 04 min 24 sec)
Warmup finished CPU 0 instructions: 50000000 cycles: 12500203 cumulative IPC: 4 (Simulation time: 00 hr 04 min 24 sec)
Warmup complete CPU 0 instructions: 50000000 cycles: 12500203 cumulative IPC: 4 (Simulation time: 00 hr 04 min 24 sec)
Heartbeat CPU 0 instructions: 60000004 cycles: 15001460 heartbeat IPC: 3.998 cumulative IPC: 3.998 (Simulation time: 00 hr 05 min 23 sec)
Heartbeat CPU 0 instructions: 70000001 cycles: 17501480 heartbeat IPC: 4 cumulative IPC: 3.999 (Simulation time: 00 hr 06 min 19 sec)
Heartbeat CPU 0 instructions: 80000004 cycles: 20002001 heartbeat IPC: 3.999 cumulative IPC: 3.999 (Simulation time: 00 hr 07 min 18 sec)
Heartbeat CPU 0 instructions: 90000000 cycles: 22504502 heartbeat IPC: 3.996 cumulative IPC: 3.998 (Simulation time: 00 hr 08 min 15 sec)
Heartbeat CPU 0 instructions: 100000004 cycles: 25004527 heartbeat IPC: 4 cumulative IPC: 3.999 (Simulation time: 00 hr 09 min 13 sec)
Heartbeat CPU 0 instructions: 110000003 cycles: 27505023 heartbeat IPC: 3.999 cumulative IPC: 3.999 (Simulation time: 00 hr 10 min 09 sec)
Heartbeat CPU 0 instructions: 120000004 cycles: 30006014 heartbeat IPC: 3.998 cumulative IPC: 3.999 (Simulation time: 00 hr 11 min 06 sec)
Heartbeat CPU 0 instructions: 130000004 cycles: 32506049 heartbeat IPC: 4 cumulative IPC: 3.999 (Simulation time: 00 hr 12 min 04 sec)
Heartbeat CPU 0 instructions: 140000004 cycles: 35006074 heartbeat IPC: 4 cumulative IPC: 3.999 (Simulation time: 00 hr 13 min 03 sec)
Heartbeat CPU 0 instructions: 150000000 cycles: 37507246 heartbeat IPC: 3.998 cumulative IPC: 3.999 (Simulation time: 00 hr 13 min 59 sec)
Heartbeat CPU 0 instructions: 160000001 cycles: 40008619 heartbeat IPC: 3.998 cumulative IPC: 3.999 (Simulation time: 00 hr 14 min 59 sec)
Heartbeat CPU 0 instructions: 170000000 cycles: 42508822 heartbeat IPC: 4 cumulative IPC: 3.999 (Simulation time: 00 hr 15 min 54 sec)
Heartbeat CPU 0 instructions: 180000003 cycles: 45008859 heartbeat IPC: 4 cumulative IPC: 3.999 (Simulation time: 00 hr 16 min 52 sec)
Heartbeat CPU 0 instructions: 190000003 cycles: 47509040 heartbeat IPC: 4 cumulative IPC: 3.999 (Simulation time: 00 hr 17 min 48 sec)
Heartbeat CPU 0 instructions: 200000002 cycles: 50010745 heartbeat IPC: 3.997 cumulative IPC: 3.999 (Simulation time: 00 hr 18 min 47 sec)
Heartbeat CPU 0 instructions: 210000000 cycles: 52511232 heartbeat IPC: 3.999 cumulative IPC: 3.999 (Simulation time: 00 hr 19 min 44 sec)
Heartbeat CPU 0 instructions: 220000002 cycles: 55012224 heartbeat IPC: 3.998 cumulative IPC: 3.999 (Simulation time: 00 hr 20 min 42 sec)
Heartbeat CPU 0 instructions: 230000003 cycles: 57512224 heartbeat IPC: 4 cumulative IPC: 3.999 (Simulation time: 00 hr 21 min 38 sec)
Heartbeat CPU 0 instructions: 240000002 cycles: 89520725 heartbeat IPC: 0.3124 cumulative IPC: 2.467 (Simulation time: 00 hr 26 min 55 sec)
Heartbeat CPU 0 instructions: 250000000 cycles: 98170936 heartbeat IPC: 1.156 cumulative IPC: 2.335 (Simulation time: 00 hr 29 min 02 sec)
Heartbeat CPU 0 instructions: 260000003 cycles: 106824157 heartbeat IPC: 1.156 cumulative IPC: 2.226 (Simulation time: 00 hr 31 min 09 sec)
Heartbeat CPU 0 instructions: 270000004 cycles: 114166798 heartbeat IPC: 1.362 cumulative IPC: 2.164 (Simulation time: 00 hr 33 min 03 sec)
Heartbeat CPU 0 instructions: 280000003 cycles: 119760690 heartbeat IPC: 1.788 cumulative IPC: 2.144 (Simulation time: 00 hr 34 min 36 sec)
Heartbeat CPU 0 instructions: 290000000 cycles: 125321598 heartbeat IPC: 1.798 cumulative IPC: 2.127 (Simulation time: 00 hr 36 min 09 sec)
Heartbeat CPU 0 instructions: 300000003 cycles: 130929986 heartbeat IPC: 1.783 cumulative IPC: 2.111 (Simulation time: 00 hr 37 min 43 sec)
Heartbeat CPU 0 instructions: 310000003 cycles: 136507507 heartbeat IPC: 1.793 cumulative IPC: 2.097 (Simulation time: 00 hr 39 min 16 sec)
Heartbeat CPU 0 instructions: 320000004 cycles: 142758880 heartbeat IPC: 1.6 cumulative IPC: 2.073 (Simulation time: 00 hr 40 min 57 sec)
Heartbeat CPU 0 instructions: 330000002 cycles: 150769430 heartbeat IPC: 1.248 cumulative IPC: 2.025 (Simulation time: 00 hr 42 min 59 sec)
Heartbeat CPU 0 instructions: 340000001 cycles: 158828886 heartbeat IPC: 1.241 cumulative IPC: 1.982 (Simulation time: 00 hr 45 min 00 sec)
Heartbeat CPU 0 instructions: 350000001 cycles: 166880182 heartbeat IPC: 1.242 cumulative IPC: 1.943 (Simulation time: 00 hr 47 min 03 sec)
Heartbeat CPU 0 instructions: 360000001 cycles: 174991223 heartbeat IPC: 1.233 cumulative IPC: 1.908 (Simulation time: 00 hr 49 min 07 sec)
Heartbeat CPU 0 instructions: 370000001 cycles: 182976610 heartbeat IPC: 1.252 cumulative IPC: 1.877 (Simulation time: 00 hr 51 min 05 sec)
Heartbeat CPU 0 instructions: 380000001 cycles: 191259620 heartbeat IPC: 1.207 cumulative IPC: 1.846 (Simulation time: 00 hr 53 min 08 sec)
Heartbeat CPU 0 instructions: 390000003 cycles: 199941926 heartbeat IPC: 1.152 cumulative IPC: 1.814 (Simulation time: 00 hr 55 min 16 sec)
Heartbeat CPU 0 instructions: 400000004 cycles: 208480811 heartbeat IPC: 1.171 cumulative IPC: 1.786 (Simulation time: 00 hr 57 min 23 sec)
Heartbeat CPU 0 instructions: 410000001 cycles: 217090139 heartbeat IPC: 1.162 cumulative IPC: 1.76 (Simulation time: 00 hr 59 min 31 sec)
Heartbeat CPU 0 instructions: 420000000 cycles: 225723923 heartbeat IPC: 1.158 cumulative IPC: 1.735 (Simulation time: 01 hr 01 min 38 sec)
Heartbeat CPU 0 instructions: 430000003 cycles: 234167134 heartbeat IPC: 1.184 cumulative IPC: 1.714 (Simulation time: 01 hr 03 min 44 sec)
Heartbeat CPU 0 instructions: 440000004 cycles: 373107342 heartbeat IPC: 0.07197 cumulative IPC: 1.082 (Simulation time: 01 hr 29 min 04 sec)
Heartbeat CPU 0 instructions: 450000002 cycles: 381816896 heartbeat IPC: 1.148 cumulative IPC: 1.083 (Simulation time: 01 hr 31 min 13 sec)
Heartbeat CPU 0 instructions: 460000000 cycles: 390676349 heartbeat IPC: 1.129 cumulative IPC: 1.084 (Simulation time: 01 hr 33 min 26 sec)
Heartbeat CPU 0 instructions: 470000003 cycles: 399386732 heartbeat IPC: 1.148 cumulative IPC: 1.086 (Simulation time: 01 hr 35 min 34 sec)
Heartbeat CPU 0 instructions: 480000003 cycles: 408378336 heartbeat IPC: 1.112 cumulative IPC: 1.086 (Simulation time: 01 hr 37 min 48 sec)
Heartbeat CPU 0 instructions: 490000002 cycles: 417288648 heartbeat IPC: 1.122 cumulative IPC: 1.087 (Simulation time: 01 hr 39 min 59 sec)
Heartbeat CPU 0 instructions: 500000004 cycles: 433387081 heartbeat IPC: 0.6212 cumulative IPC: 1.069 (Simulation time: 01 hr 43 min 33 sec)
Heartbeat CPU 0 instructions: 510000003 cycles: 450437112 heartbeat IPC: 0.5865 cumulative IPC: 1.05 (Simulation time: 01 hr 47 min 18 sec)
Heartbeat CPU 0 instructions: 520000003 cycles: 467422390 heartbeat IPC: 0.5887 cumulative IPC: 1.033 (Simulation time: 01 hr 51 min 01 sec)
Heartbeat CPU 0 instructions: 530000001 cycles: 484534787 heartbeat IPC: 0.5844 cumulative IPC: 1.017 (Simulation time: 01 hr 54 min 44 sec)
Heartbeat CPU 0 instructions: 540000001 cycles: 501582609 heartbeat IPC: 0.5866 cumulative IPC: 1.002 (Simulation time: 01 hr 58 min 27 sec)
Heartbeat CPU 0 instructions: 550000000 cycles: 514400446 heartbeat IPC: 0.7802 cumulative IPC: 0.9962 (Simulation time: 02 hr 01 min 19 sec)
Heartbeat CPU 0 instructions: 560000002 cycles: 525697196 heartbeat IPC: 0.8852 cumulative IPC: 0.9938 (Simulation time: 02 hr 03 min 54 sec)
Heartbeat CPU 0 instructions: 570000000 cycles: 536945079 heartbeat IPC: 0.8891 cumulative IPC: 0.9915 (Simulation time: 02 hr 06 min 27 sec)
Heartbeat CPU 0 instructions: 580000001 cycles: 548186257 heartbeat IPC: 0.8896 cumulative IPC: 0.9894 (Simulation time: 02 hr 09 min 01 sec)
Heartbeat CPU 0 instructions: 590000000 cycles: 559412420 heartbeat IPC: 0.8908 cumulative IPC: 0.9874 (Simulation time: 02 hr 11 min 33 sec)
*** Reached end of trace: (0, "traces/lu.A.champsimtrace")
Heartbeat CPU 0 instructions: 600000001 cycles: 570753033 heartbeat IPC: 0.8818 cumulative IPC: 0.9852 (Simulation time: 02 hr 14 min 09 sec)
Heartbeat CPU 0 instructions: 610000004 cycles: 573940401 heartbeat IPC: 3.137 cumulative IPC: 0.9974 (Simulation time: 02 hr 15 min 12 sec)
Heartbeat CPU 0 instructions: 620000003 cycles: 576440400 heartbeat IPC: 4 cumulative IPC: 1.011 (Simulation time: 02 hr 16 min 10 sec)
Heartbeat CPU 0 instructions: 630000002 cycles: 578940398 heartbeat IPC: 4 cumulative IPC: 1.024 (Simulation time: 02 hr 17 min 07 sec)
Heartbeat CPU 0 instructions: 640000000 cycles: 581440872 heartbeat IPC: 3.999 cumulative IPC: 1.037 (Simulation time: 02 hr 18 min 04 sec)
Heartbeat CPU 0 instructions: 650000004 cycles: 583941652 heartbeat IPC: 3.999 cumulative IPC: 1.05 (Simulation time: 02 hr 19 min 02 sec)
Simulation finished CPU 0 instructions: 600000004 cycles: 571441450 cumulative IPC: 1.05 (Simulation time: 02 hr 19 min 02 sec)
Simulation complete CPU 0 instructions: 600000004 cycles: 571441450 cumulative IPC: 1.05 (Simulation time: 02 hr 19 min 02 sec)

ChampSim completed all CPUs

=== Simulation ===
CPU 0 runs traces/lu.A.champsimtrace
Region of Interest Statistics

CPU 0 cumulative IPC: 1.05 instructions: 600000004 cycles: 571441450
CPU 0 Branch Prediction Accuracy: 99.98% MPKI: 0.00408 Average ROB Occupancy at Mispredict: 127.1
Branch type MPKI
BRANCH_DIRECT_JUMP: 5e-06
BRANCH_INDIRECT: 7.83e-05
BRANCH_CONDITIONAL: 0.00394
BRANCH_DIRECT_CALL: 6.67e-06
BRANCH_INDIRECT_CALL: 3.5e-05
BRANCH_RETURN: 1.83e-05

LLC TOTAL        ACCESS:    5107727 HIT:     284320 MISS:    4823407
LLC LOAD         ACCESS:    2481925 HIT:     158427 MISS:    2323498
LLC RFO          ACCESS:     831684 HIT:      37650 MISS:     794034
LLC PREFETCH     ACCESS:          0 HIT:          0 MISS:          0
LLC WRITE        ACCESS:    1782301 HIT:      84489 MISS:    1697812
LLC TRANSLATION  ACCESS:      11817 HIT:       3754 MISS:       8063
LLC PREFETCH REQUESTED:          0 ISSUED:          0 USEFUL:          0 USELESS:          0
LLC AVERAGE MISS LATENCY: 667.3 cycles
cpu0_DTLB TOTAL        ACCESS:  125470880 HIT:  118050382 MISS:    7420498
cpu0_DTLB LOAD         ACCESS:  125470880 HIT:  118050382 MISS:    7420498
cpu0_DTLB RFO          ACCESS:          0 HIT:          0 MISS:          0
cpu0_DTLB PREFETCH     ACCESS:          0 HIT:          0 MISS:          0
cpu0_DTLB WRITE        ACCESS:          0 HIT:          0 MISS:          0
cpu0_DTLB TRANSLATION  ACCESS:          0 HIT:          0 MISS:          0
cpu0_DTLB PREFETCH REQUESTED:          0 ISSUED:          0 USEFUL:          0 USELESS:          0
cpu0_DTLB AVERAGE MISS LATENCY: 6.154 cycles
cpu0_ITLB TOTAL        ACCESS:    1264012 HIT:    1263785 MISS:        227
cpu0_ITLB LOAD         ACCESS:    1264012 HIT:    1263785 MISS:        227
cpu0_ITLB RFO          ACCESS:          0 HIT:          0 MISS:          0
cpu0_ITLB PREFETCH     ACCESS:          0 HIT:          0 MISS:          0
cpu0_ITLB WRITE        ACCESS:          0 HIT:          0 MISS:          0
cpu0_ITLB TRANSLATION  ACCESS:          0 HIT:          0 MISS:          0
cpu0_ITLB PREFETCH REQUESTED:          0 ISSUED:          0 USEFUL:          0 USELESS:          0
cpu0_ITLB AVERAGE MISS LATENCY: 156.8 cycles
cpu0_L1D TOTAL        ACCESS:  179460731 HIT:  169923232 MISS:    9537499
cpu0_L1D LOAD         ACCESS:  142401200 HIT:  136574380 MISS:    5826820
cpu0_L1D RFO          ACCESS:          0 HIT:          0 MISS:          0
cpu0_L1D PREFETCH     ACCESS:          0 HIT:          0 MISS:          0
cpu0_L1D WRITE        ACCESS:   37006935 HIT:   33321136 MISS:    3685799
cpu0_L1D TRANSLATION  ACCESS:      52596 HIT:      27716 MISS:      24880
cpu0_L1D PREFETCH REQUESTED:          0 ISSUED:          0 USEFUL:          0 USELESS:          0
cpu0_L1D AVERAGE MISS LATENCY: 324.5 cycles
cpu0_L1I TOTAL        ACCESS:    1590332 HIT:    1587450 MISS:       2882
cpu0_L1I LOAD         ACCESS:    1590332 HIT:    1587450 MISS:       2882
cpu0_L1I RFO          ACCESS:          0 HIT:          0 MISS:          0
cpu0_L1I PREFETCH     ACCESS:          0 HIT:          0 MISS:          0
cpu0_L1I WRITE        ACCESS:          0 HIT:          0 MISS:          0
cpu0_L1I TRANSLATION  ACCESS:          0 HIT:          0 MISS:          0
cpu0_L1I PREFETCH REQUESTED:          0 ISSUED:          0 USEFUL:          0 USELESS:          0
cpu0_L1I AVERAGE MISS LATENCY: 365.9 cycles
cpu0_L2C TOTAL        ACCESS:    5940624 HIT:    2610987 MISS:    3329637
cpu0_L2C LOAD         ACCESS:    3052491 HIT:     570566 MISS:    2481925
cpu0_L2C RFO          ACCESS:     872187 HIT:      40503 MISS:     831684
cpu0_L2C PREFETCH     ACCESS:          0 HIT:          0 MISS:          0
cpu0_L2C WRITE        ACCESS:    1991116 HIT:    1986905 MISS:       4211
cpu0_L2C TRANSLATION  ACCESS:      24830 HIT:      13013 MISS:      11817
cpu0_L2C PREFETCH REQUESTED:          0 ISSUED:          0 USEFUL:          0 USELESS:          0
cpu0_L2C AVERAGE MISS LATENCY: 987.6 cycles
cpu0_STLB TOTAL        ACCESS:    4005235 HIT:    3952653 MISS:      52582
cpu0_STLB LOAD         ACCESS:    4005235 HIT:    3952653 MISS:      52582
cpu0_STLB RFO          ACCESS:          0 HIT:          0 MISS:          0
cpu0_STLB PREFETCH     ACCESS:          0 HIT:          0 MISS:          0
cpu0_STLB WRITE        ACCESS:          0 HIT:          0 MISS:          0
cpu0_STLB TRANSLATION  ACCESS:          0 HIT:          0 MISS:          0
cpu0_STLB PREFETCH REQUESTED:          0 ISSUED:          0 USEFUL:          0 USELESS:          0
cpu0_STLB AVERAGE MISS LATENCY: 685.5 cycles

DRAM Statistics

Channel 0 RQ ROW_BUFFER_HIT:     776188
  ROW_BUFFER_MISS:    2347515
 AVG DBUS CONGESTED CYCLE: 3.933
WQ ROW_BUFFER_HIT: Channel 0 
  ROW_BUFFER_MISS:     513723
  FULL:    1225268
