WARNING: physical memory size is smaller than virtual memory size.

*** ChampSim Multicore Out-of-Order Simulator ***
Warmup Instructions: 50000000
Simulation Instructions: 600000000
Number of CPUs: 1
Page size: 4096

Off-chip DRAM Size: 4 GiB Channels: 1 Width: 64-bit Data Race: 3200 MT/s
Heartbeat CPU 0 instructions: 10000000 cycles: 2500202 heartbeat IPC: 4 cumulative IPC: 4 (Simulation time: 00 hr 00 min 34 sec)
Heartbeat CPU 0 instructions: 20000000 cycles: 5000202 heartbeat IPC: 4 cumulative IPC: 4 (Simulation time: 00 hr 01 min 08 sec)
Heartbeat CPU 0 instructions: 30000000 cycles: 7500202 heartbeat IPC: 4 cumulative IPC: 4 (Simulation time: 00 hr 01 min 42 sec)
Heartbeat CPU 0 instructions: 40000000 cycles: 10000202 heartbeat IPC: 4 cumulative IPC: 4 (Simulation time: 00 hr 02 min 16 sec)
Heartbeat CPU 0 instructions: 50000000 cycles: 12500202 heartbeat IPC: 4 cumulative IPC: 4 (Simulation time: 00 hr 02 min 51 sec)
Warmup finished CPU 0 instructions: 50000000 cycles: 12500203 cumulative IPC: 4 (Simulation time: 00 hr 02 min 51 sec)
Warmup complete CPU 0 instructions: 50000000 cycles: 12500203 cumulative IPC: 4 (Simulation time: 00 hr 02 min 51 sec)
Heartbeat CPU 0 instructions: 60000004 cycles: 15134822 heartbeat IPC: 3.796 cumulative IPC: 3.796 (Simulation time: 00 hr 03 min 29 sec)
Heartbeat CPU 0 instructions: 70000003 cycles: 17769446 heartbeat IPC: 3.796 cumulative IPC: 3.796 (Simulation time: 00 hr 04 min 08 sec)
Heartbeat CPU 0 instructions: 80000003 cycles: 20404096 heartbeat IPC: 3.796 cumulative IPC: 3.796 (Simulation time: 00 hr 04 min 47 sec)
Heartbeat CPU 0 instructions: 90000004 cycles: 23039663 heartbeat IPC: 3.794 cumulative IPC: 3.795 (Simulation time: 00 hr 05 min 26 sec)
Heartbeat CPU 0 instructions: 100000002 cycles: 25674684 heartbeat IPC: 3.795 cumulative IPC: 3.795 (Simulation time: 00 hr 06 min 05 sec)
Heartbeat CPU 0 instructions: 110000003 cycles: 28310740 heartbeat IPC: 3.794 cumulative IPC: 3.795 (Simulation time: 00 hr 06 min 44 sec)
Heartbeat CPU 0 instructions: 120000004 cycles: 30945380 heartbeat IPC: 3.796 cumulative IPC: 3.795 (Simulation time: 00 hr 07 min 23 sec)
Heartbeat CPU 0 instructions: 130000000 cycles: 33580671 heartbeat IPC: 3.795 cumulative IPC: 3.795 (Simulation time: 00 hr 08 min 01 sec)
Heartbeat CPU 0 instructions: 140000004 cycles: 36215297 heartbeat IPC: 3.796 cumulative IPC: 3.795 (Simulation time: 00 hr 08 min 42 sec)
Heartbeat CPU 0 instructions: 150000000 cycles: 38850635 heartbeat IPC: 3.795 cumulative IPC: 3.795 (Simulation time: 00 hr 09 min 22 sec)
Heartbeat CPU 0 instructions: 160000001 cycles: 41486634 heartbeat IPC: 3.794 cumulative IPC: 3.795 (Simulation time: 00 hr 10 min 01 sec)
Heartbeat CPU 0 instructions: 170000000 cycles: 44121719 heartbeat IPC: 3.795 cumulative IPC: 3.795 (Simulation time: 00 hr 10 min 39 sec)
Heartbeat CPU 0 instructions: 180000003 cycles: 46756362 heartbeat IPC: 3.796 cumulative IPC: 3.795 (Simulation time: 00 hr 11 min 17 sec)
Heartbeat CPU 0 instructions: 190000000 cycles: 49390993 heartbeat IPC: 3.796 cumulative IPC: 3.795 (Simulation time: 00 hr 11 min 56 sec)
Heartbeat CPU 0 instructions: 200000004 cycles: 52026083 heartbeat IPC: 3.795 cumulative IPC: 3.795 (Simulation time: 00 hr 12 min 36 sec)
Heartbeat CPU 0 instructions: 210000004 cycles: 54661885 heartbeat IPC: 3.794 cumulative IPC: 3.795 (Simulation time: 00 hr 13 min 16 sec)
Heartbeat CPU 0 instructions: 220000001 cycles: 57297910 heartbeat IPC: 3.794 cumulative IPC: 3.795 (Simulation time: 00 hr 13 min 54 sec)
Heartbeat CPU 0 instructions: 230000002 cycles: 59932768 heartbeat IPC: 3.795 cumulative IPC: 3.795 (Simulation time: 00 hr 14 min 33 sec)
Heartbeat CPU 0 instructions: 240000000 cycles: 93920263 heartbeat IPC: 0.2942 cumulative IPC: 2.334 (Simulation time: 00 hr 18 min 22 sec)
Heartbeat CPU 0 instructions: 250000001 cycles: 103059121 heartbeat IPC: 1.094 cumulative IPC: 2.209 (Simulation time: 00 hr 19 min 57 sec)
Heartbeat CPU 0 instructions: 260000001 cycles: 112177625 heartbeat IPC: 1.097 cumulative IPC: 2.107 (Simulation time: 00 hr 21 min 30 sec)
Heartbeat CPU 0 instructions: 270000001 cycles: 124555820 heartbeat IPC: 0.8079 cumulative IPC: 1.963 (Simulation time: 00 hr 23 min 31 sec)
Heartbeat CPU 0 instructions: 280000002 cycles: 136237836 heartbeat IPC: 0.856 cumulative IPC: 1.859 (Simulation time: 00 hr 25 min 27 sec)
Heartbeat CPU 0 instructions: 290000001 cycles: 145164855 heartbeat IPC: 1.12 cumulative IPC: 1.809 (Simulation time: 00 hr 27 min 00 sec)
Heartbeat CPU 0 instructions: 300000002 cycles: 154077263 heartbeat IPC: 1.122 cumulative IPC: 1.766 (Simulation time: 00 hr 28 min 34 sec)
Heartbeat CPU 0 instructions: 310000001 cycles: 163021265 heartbeat IPC: 1.118 cumulative IPC: 1.727 (Simulation time: 00 hr 30 min 06 sec)
Heartbeat CPU 0 instructions: 320000000 cycles: 171856511 heartbeat IPC: 1.132 cumulative IPC: 1.694 (Simulation time: 00 hr 31 min 36 sec)
Heartbeat CPU 0 instructions: 330000002 cycles: 180469190 heartbeat IPC: 1.161 cumulative IPC: 1.667 (Simulation time: 00 hr 33 min 06 sec)
Heartbeat CPU 0 instructions: 340000004 cycles: 188860641 heartbeat IPC: 1.192 cumulative IPC: 1.644 (Simulation time: 00 hr 34 min 39 sec)
Heartbeat CPU 0 instructions: 350000003 cycles: 197255492 heartbeat IPC: 1.191 cumulative IPC: 1.624 (Simulation time: 00 hr 36 min 09 sec)
Heartbeat CPU 0 instructions: 360000001 cycles: 205627878 heartbeat IPC: 1.194 cumulative IPC: 1.605 (Simulation time: 00 hr 37 min 39 sec)
Heartbeat CPU 0 instructions: 370000002 cycles: 213915202 heartbeat IPC: 1.207 cumulative IPC: 1.589 (Simulation time: 00 hr 39 min 09 sec)
Heartbeat CPU 0 instructions: 380000003 cycles: 221537548 heartbeat IPC: 1.312 cumulative IPC: 1.579 (Simulation time: 00 hr 40 min 33 sec)
Heartbeat CPU 0 instructions: 390000000 cycles: 229469187 heartbeat IPC: 1.261 cumulative IPC: 1.567 (Simulation time: 00 hr 42 min 00 sec)
Heartbeat CPU 0 instructions: 400000000 cycles: 237804662 heartbeat IPC: 1.2 cumulative IPC: 1.553 (Simulation time: 00 hr 43 min 29 sec)
Heartbeat CPU 0 instructions: 410000002 cycles: 246079489 heartbeat IPC: 1.208 cumulative IPC: 1.541 (Simulation time: 00 hr 45 min 02 sec)
Heartbeat CPU 0 instructions: 420000004 cycles: 254367339 heartbeat IPC: 1.207 cumulative IPC: 1.53 (Simulation time: 00 hr 46 min 33 sec)
Heartbeat CPU 0 instructions: 430000002 cycles: 262709919 heartbeat IPC: 1.199 cumulative IPC: 1.519 (Simulation time: 00 hr 48 min 05 sec)
Heartbeat CPU 0 instructions: 440000004 cycles: 381673401 heartbeat IPC: 0.08406 cumulative IPC: 1.056 (Simulation time: 01 hr 04 min 27 sec)
Heartbeat CPU 0 instructions: 450000003 cycles: 392009511 heartbeat IPC: 0.9675 cumulative IPC: 1.054 (Simulation time: 01 hr 06 min 12 sec)
Heartbeat CPU 0 instructions: 460000004 cycles: 401926656 heartbeat IPC: 1.008 cumulative IPC: 1.053 (Simulation time: 01 hr 07 min 56 sec)
Heartbeat CPU 0 instructions: 470000002 cycles: 412294795 heartbeat IPC: 0.9645 cumulative IPC: 1.051 (Simulation time: 01 hr 09 min 41 sec)
Heartbeat CPU 0 instructions: 480000004 cycles: 422202112 heartbeat IPC: 1.009 cumulative IPC: 1.05 (Simulation time: 01 hr 11 min 22 sec)
Heartbeat CPU 0 instructions: 490000001 cycles: 432863759 heartbeat IPC: 0.9379 cumulative IPC: 1.047 (Simulation time: 01 hr 13 min 09 sec)
Heartbeat CPU 0 instructions: 500000003 cycles: 445720720 heartbeat IPC: 0.7778 cumulative IPC: 1.039 (Simulation time: 01 hr 15 min 17 sec)
Heartbeat CPU 0 instructions: 510000004 cycles: 458691994 heartbeat IPC: 0.7709 cumulative IPC: 1.031 (Simulation time: 01 hr 17 min 27 sec)
Heartbeat CPU 0 instructions: 520000000 cycles: 471838203 heartbeat IPC: 0.7607 cumulative IPC: 1.023 (Simulation time: 01 hr 19 min 40 sec)
Heartbeat CPU 0 instructions: 530000004 cycles: 484845469 heartbeat IPC: 0.7688 cumulative IPC: 1.016 (Simulation time: 01 hr 21 min 48 sec)
Heartbeat CPU 0 instructions: 540000002 cycles: 497801141 heartbeat IPC: 0.7719 cumulative IPC: 1.01 (Simulation time: 01 hr 23 min 58 sec)
Heartbeat CPU 0 instructions: 550000002 cycles: 508700783 heartbeat IPC: 0.9175 cumulative IPC: 1.008 (Simulation time: 01 hr 25 min 46 sec)
Heartbeat CPU 0 instructions: 560000000 cycles: 519698616 heartbeat IPC: 0.9093 cumulative IPC: 1.006 (Simulation time: 01 hr 27 min 35 sec)
Heartbeat CPU 0 instructions: 570000002 cycles: 530819522 heartbeat IPC: 0.8992 cumulative IPC: 1.003 (Simulation time: 01 hr 29 min 24 sec)
Heartbeat CPU 0 instructions: 580000003 cycles: 541882336 heartbeat IPC: 0.9039 cumulative IPC: 1.001 (Simulation time: 01 hr 31 min 15 sec)
Heartbeat CPU 0 instructions: 590000003 cycles: 552881609 heartbeat IPC: 0.9092 cumulative IPC: 0.9993 (Simulation time: 01 hr 33 min 04 sec)
*** Reached end of trace: (0, "traces/lu.A.champsimtrace")
Heartbeat CPU 0 instructions: 600000001 cycles: 564034575 heartbeat IPC: 0.8966 cumulative IPC: 0.9972 (Simulation time: 01 hr 34 min 54 sec)
Heartbeat CPU 0 instructions: 610000000 cycles: 570495501 heartbeat IPC: 1.548 cumulative IPC: 1.004 (Simulation time: 01 hr 36 min 01 sec)
Heartbeat CPU 0 instructions: 620000000 cycles: 573130144 heartbeat IPC: 3.796 cumulative IPC: 1.017 (Simulation time: 01 hr 36 min 39 sec)
Heartbeat CPU 0 instructions: 630000004 cycles: 575764783 heartbeat IPC: 3.796 cumulative IPC: 1.03 (Simulation time: 01 hr 37 min 21 sec)
Heartbeat CPU 0 instructions: 640000002 cycles: 578399406 heartbeat IPC: 3.796 cumulative IPC: 1.043 (Simulation time: 01 hr 38 min 01 sec)
Heartbeat CPU 0 instructions: 650000001 cycles: 581034045 heartbeat IPC: 3.796 cumulative IPC: 1.055 (Simulation time: 01 hr 38 min 41 sec)
Simulation finished CPU 0 instructions: 600000001 cycles: 568533843 cumulative IPC: 1.055 (Simulation time: 01 hr 38 min 41 sec)
Simulation complete CPU 0 instructions: 600000001 cycles: 568533843 cumulative IPC: 1.055 (Simulation time: 01 hr 38 min 41 sec)

ChampSim completed all CPUs

=== Simulation ===
CPU 0 runs traces/lu.A.champsimtrace
Region of Interest Statistics

CPU 0 cumulative IPC: 1.055 instructions: 600000001 cycles: 568533843
CPU 0 Branch Prediction Accuracy: 96.65% MPKI: 0.6426 Average ROB Occupancy at Mispredict: 330.1
Branch type MPKI
BRANCH_DIRECT_JUMP: 5e-06
BRANCH_INDIRECT: 7.33e-05
BRANCH_CONDITIONAL: 0.642
BRANCH_DIRECT_CALL: 6.67e-06
BRANCH_INDIRECT_CALL: 3.17e-05
BRANCH_RETURN: 1.83e-05

LLC TOTAL        ACCESS:    6209975 HIT:    2688383 MISS:    3521592
LLC LOAD         ACCESS:    2481308 HIT:     550295 MISS:    1931013
LLC RFO          ACCESS:     831678 HIT:       8902 MISS:     822776
LLC PREFETCH     ACCESS:    1102779 HIT:     338285 MISS:     764494
LLC WRITE        ACCESS:    1782354 HIT:    1781577 MISS:        777
LLC TRANSLATION  ACCESS:      11856 HIT:       9324 MISS:       2532
LLC PREFETCH REQUESTED:    1102779 ISSUED:    1102779 USEFUL:     522475 USELESS:       8097
LLC AVERAGE MISS LATENCY: 1041 cycles
cpu0_DTLB TOTAL        ACCESS:  116625086 HIT:  109406436 MISS:    7218650
cpu0_DTLB LOAD         ACCESS:  116625086 HIT:  109406436 MISS:    7218650
cpu0_DTLB RFO          ACCESS:          0 HIT:          0 MISS:          0
cpu0_DTLB PREFETCH     ACCESS:          0 HIT:          0 MISS:          0
cpu0_DTLB WRITE        ACCESS:          0 HIT:          0 MISS:          0
cpu0_DTLB TRANSLATION  ACCESS:          0 HIT:          0 MISS:          0
cpu0_DTLB PREFETCH REQUESTED:          0 ISSUED:          0 USEFUL:          0 USELESS:          0
cpu0_DTLB AVERAGE MISS LATENCY: 5.039 cycles
cpu0_ITLB TOTAL        ACCESS:     710869 HIT:     710647 MISS:        222
cpu0_ITLB LOAD         ACCESS:     710869 HIT:     710647 MISS:        222
cpu0_ITLB RFO          ACCESS:          0 HIT:          0 MISS:          0
cpu0_ITLB PREFETCH     ACCESS:          0 HIT:          0 MISS:          0
cpu0_ITLB WRITE        ACCESS:          0 HIT:          0 MISS:          0
cpu0_ITLB TRANSLATION  ACCESS:          0 HIT:          0 MISS:          0
cpu0_ITLB PREFETCH REQUESTED:          0 ISSUED:          0 USEFUL:          0 USELESS:          0
cpu0_ITLB AVERAGE MISS LATENCY: 283.3 cycles
cpu0_L1D TOTAL        ACCESS:  168474060 HIT:  158601490 MISS:    9872570
cpu0_L1D LOAD         ACCESS:  131420420 HIT:  125424718 MISS:    5995702
cpu0_L1D RFO          ACCESS:          0 HIT:          0 MISS:          0
cpu0_L1D PREFETCH     ACCESS:          0 HIT:          0 MISS:          0
cpu0_L1D WRITE        ACCESS:   37001041 HIT:   33149102 MISS:    3851939
cpu0_L1D TRANSLATION  ACCESS:      52599 HIT:      27670 MISS:      24929
cpu0_L1D PREFETCH REQUESTED:          0 ISSUED:          0 USEFUL:          0 USELESS:          0
cpu0_L1D AVERAGE MISS LATENCY: 296.7 cycles
cpu0_L1I TOTAL        ACCESS:    1088140 HIT:    1085401 MISS:       2739
cpu0_L1I LOAD         ACCESS:    1088140 HIT:    1085401 MISS:       2739
cpu0_L1I RFO          ACCESS:          0 HIT:          0 MISS:          0
cpu0_L1I PREFETCH     ACCESS:          0 HIT:          0 MISS:          0
cpu0_L1I WRITE        ACCESS:          0 HIT:          0 MISS:          0
cpu0_L1I TRANSLATION  ACCESS:          0 HIT:          0 MISS:          0
cpu0_L1I PREFETCH REQUESTED:          0 ISSUED:          0 USEFUL:          0 USELESS:          0
cpu0_L1I AVERAGE MISS LATENCY: 490.5 cycles
cpu0_L2C TOTAL        ACCESS:    5978028 HIT:    2648832 MISS:    3329196
cpu0_L2C LOAD         ACCESS:    3057432 HIT:     576122 MISS:    2481310
cpu0_L2C RFO          ACCESS:     878264 HIT:      46586 MISS:     831678
cpu0_L2C PREFETCH     ACCESS:          0 HIT:          0 MISS:          0
cpu0_L2C WRITE        ACCESS:    2017447 HIT:    2013095 MISS:       4352
cpu0_L2C TRANSLATION  ACCESS:      24885 HIT:      13029 MISS:      11856
cpu0_L2C PREFETCH REQUESTED:          0 ISSUED:          0 USEFUL:          0 USELESS:          0
cpu0_L2C AVERAGE MISS LATENCY: 944.3 cycles
cpu0_STLB TOTAL        ACCESS:    3988930 HIT:    3936344 MISS:      52586
cpu0_STLB LOAD         ACCESS:    3988930 HIT:    3936344 MISS:      52586
cpu0_STLB RFO          ACCESS:          0 HIT:          0 MISS:          0
cpu0_STLB PREFETCH     ACCESS:          0 HIT:          0 MISS:          0
cpu0_STLB WRITE        ACCESS:          0 HIT:          0 MISS:          0
cpu0_STLB TRANSLATION  ACCESS:          0 HIT:          0 MISS:          0
cpu0_STLB PREFETCH REQUESTED:          0 ISSUED:          0 USEFUL:          0 USELESS:          0
cpu0_STLB AVERAGE MISS LATENCY: 441.6 cycles

DRAM Statistics

Channel 0 RQ ROW_BUFFER_HIT:     821486
  ROW_BUFFER_MISS:    2295262
 AVG DBUS CONGESTED CYCLE: 3.938
WQ ROW_BUFFER_HIT: Channel 0 
  ROW_BUFFER_MISS:     269712
  FULL:    1399474
