WARNING: physical memory size is smaller than virtual memory size.

*** ChampSim Multicore Out-of-Order Simulator ***
Warmup Instructions: 50000000
Simulation Instructions: 600000000
Number of CPUs: 1
Page size: 4096

CPU 0 Tage branch predictor
Off-chip DRAM Size: 4 GiB Channels: 1 Width: 64-bit Data Race: 3200 MT/s
Heartbeat CPU 0 instructions: 10000000 cycles: 2500202 heartbeat IPC: 4 cumulative IPC: 4 (Simulation time: 00 hr 00 min 38 sec)
Heartbeat CPU 0 instructions: 20000000 cycles: 5000202 heartbeat IPC: 4 cumulative IPC: 4 (Simulation time: 00 hr 01 min 16 sec)
Heartbeat CPU 0 instructions: 30000000 cycles: 7500202 heartbeat IPC: 4 cumulative IPC: 4 (Simulation time: 00 hr 01 min 53 sec)
Heartbeat CPU 0 instructions: 40000000 cycles: 10000202 heartbeat IPC: 4 cumulative IPC: 4 (Simulation time: 00 hr 02 min 32 sec)
Heartbeat CPU 0 instructions: 50000000 cycles: 12500202 heartbeat IPC: 4 cumulative IPC: 4 (Simulation time: 00 hr 03 min 10 sec)
Warmup finished CPU 0 instructions: 50000000 cycles: 12500203 cumulative IPC: 4 (Simulation time: 00 hr 03 min 10 sec)
Warmup complete CPU 0 instructions: 50000000 cycles: 12500203 cumulative IPC: 4 (Simulation time: 00 hr 03 min 10 sec)
Heartbeat CPU 0 instructions: 60000004 cycles: 15000241 heartbeat IPC: 4 cumulative IPC: 4 (Simulation time: 00 hr 03 min 56 sec)
Heartbeat CPU 0 instructions: 70000003 cycles: 17500265 heartbeat IPC: 4 cumulative IPC: 4 (Simulation time: 00 hr 04 min 40 sec)
Heartbeat CPU 0 instructions: 80000004 cycles: 20001276 heartbeat IPC: 3.998 cumulative IPC: 3.999 (Simulation time: 00 hr 05 min 25 sec)
Heartbeat CPU 0 instructions: 90000000 cycles: 22501851 heartbeat IPC: 3.999 cumulative IPC: 3.999 (Simulation time: 00 hr 06 min 10 sec)
Heartbeat CPU 0 instructions: 100000001 cycles: 25001875 heartbeat IPC: 4 cumulative IPC: 3.999 (Simulation time: 00 hr 06 min 54 sec)
Heartbeat CPU 0 instructions: 110000000 cycles: 27501909 heartbeat IPC: 4 cumulative IPC: 4 (Simulation time: 00 hr 07 min 39 sec)
Heartbeat CPU 0 instructions: 120000004 cycles: 30002699 heartbeat IPC: 3.999 cumulative IPC: 3.999 (Simulation time: 00 hr 08 min 23 sec)
Heartbeat CPU 0 instructions: 130000000 cycles: 32503780 heartbeat IPC: 3.998 cumulative IPC: 3.999 (Simulation time: 00 hr 09 min 08 sec)
Heartbeat CPU 0 instructions: 140000004 cycles: 35003804 heartbeat IPC: 4 cumulative IPC: 3.999 (Simulation time: 00 hr 09 min 52 sec)
Heartbeat CPU 0 instructions: 150000000 cycles: 37503837 heartbeat IPC: 4 cumulative IPC: 3.999 (Simulation time: 00 hr 10 min 37 sec)
Heartbeat CPU 0 instructions: 160000001 cycles: 40005224 heartbeat IPC: 3.998 cumulative IPC: 3.999 (Simulation time: 00 hr 11 min 22 sec)
Heartbeat CPU 0 instructions: 170000000 cycles: 42505325 heartbeat IPC: 4 cumulative IPC: 3.999 (Simulation time: 00 hr 12 min 07 sec)
Heartbeat CPU 0 instructions: 180000003 cycles: 45005360 heartbeat IPC: 4 cumulative IPC: 3.999 (Simulation time: 00 hr 12 min 53 sec)
Heartbeat CPU 0 instructions: 190000000 cycles: 47505360 heartbeat IPC: 4 cumulative IPC: 3.999 (Simulation time: 00 hr 13 min 38 sec)
Heartbeat CPU 0 instructions: 200000004 cycles: 50006775 heartbeat IPC: 3.998 cumulative IPC: 3.999 (Simulation time: 00 hr 14 min 23 sec)
Heartbeat CPU 0 instructions: 210000004 cycles: 52507320 heartbeat IPC: 3.999 cumulative IPC: 3.999 (Simulation time: 00 hr 15 min 08 sec)
Heartbeat CPU 0 instructions: 220000001 cycles: 55009131 heartbeat IPC: 3.997 cumulative IPC: 3.999 (Simulation time: 00 hr 15 min 53 sec)
Heartbeat CPU 0 instructions: 230000000 cycles: 57510406 heartbeat IPC: 3.998 cumulative IPC: 3.999 (Simulation time: 00 hr 16 min 38 sec)
Heartbeat CPU 0 instructions: 240000000 cycles: 94070703 heartbeat IPC: 0.2735 cumulative IPC: 2.329 (Simulation time: 00 hr 20 min 42 sec)
Heartbeat CPU 0 instructions: 250000001 cycles: 104209164 heartbeat IPC: 0.9863 cumulative IPC: 2.181 (Simulation time: 00 hr 22 min 27 sec)
Heartbeat CPU 0 instructions: 260000000 cycles: 114305636 heartbeat IPC: 0.9904 cumulative IPC: 2.063 (Simulation time: 00 hr 24 min 12 sec)
Heartbeat CPU 0 instructions: 270000003 cycles: 127064957 heartbeat IPC: 0.7837 cumulative IPC: 1.92 (Simulation time: 00 hr 26 min 18 sec)
Heartbeat CPU 0 instructions: 280000003 cycles: 139262098 heartbeat IPC: 0.8199 cumulative IPC: 1.814 (Simulation time: 00 hr 28 min 21 sec)
Heartbeat CPU 0 instructions: 290000000 cycles: 150049522 heartbeat IPC: 0.927 cumulative IPC: 1.745 (Simulation time: 00 hr 30 min 14 sec)
Heartbeat CPU 0 instructions: 300000002 cycles: 160428880 heartbeat IPC: 0.9635 cumulative IPC: 1.69 (Simulation time: 00 hr 32 min 02 sec)
Heartbeat CPU 0 instructions: 310000001 cycles: 170503954 heartbeat IPC: 0.9925 cumulative IPC: 1.646 (Simulation time: 00 hr 33 min 47 sec)
Heartbeat CPU 0 instructions: 320000001 cycles: 180279729 heartbeat IPC: 1.023 cumulative IPC: 1.609 (Simulation time: 00 hr 35 min 29 sec)
Heartbeat CPU 0 instructions: 330000002 cycles: 188925292 heartbeat IPC: 1.157 cumulative IPC: 1.587 (Simulation time: 00 hr 37 min 09 sec)
Heartbeat CPU 0 instructions: 340000000 cycles: 197600630 heartbeat IPC: 1.153 cumulative IPC: 1.567 (Simulation time: 00 hr 38 min 45 sec)
Heartbeat CPU 0 instructions: 350000003 cycles: 206276661 heartbeat IPC: 1.153 cumulative IPC: 1.548 (Simulation time: 00 hr 40 min 21 sec)
Heartbeat CPU 0 instructions: 360000003 cycles: 214967765 heartbeat IPC: 1.151 cumulative IPC: 1.531 (Simulation time: 00 hr 41 min 58 sec)
Heartbeat CPU 0 instructions: 370000002 cycles: 223603088 heartbeat IPC: 1.158 cumulative IPC: 1.516 (Simulation time: 00 hr 43 min 34 sec)
Heartbeat CPU 0 instructions: 380000003 cycles: 231447109 heartbeat IPC: 1.275 cumulative IPC: 1.507 (Simulation time: 00 hr 45 min 04 sec)
Heartbeat CPU 0 instructions: 390000000 cycles: 239199665 heartbeat IPC: 1.29 cumulative IPC: 1.5 (Simulation time: 00 hr 46 min 34 sec)
Heartbeat CPU 0 instructions: 400000000 cycles: 247195304 heartbeat IPC: 1.251 cumulative IPC: 1.491 (Simulation time: 00 hr 48 min 05 sec)
Heartbeat CPU 0 instructions: 410000002 cycles: 255282348 heartbeat IPC: 1.237 cumulative IPC: 1.483 (Simulation time: 00 hr 49 min 37 sec)
Heartbeat CPU 0 instructions: 420000002 cycles: 263412782 heartbeat IPC: 1.23 cumulative IPC: 1.475 (Simulation time: 00 hr 51 min 09 sec)
Heartbeat CPU 0 instructions: 430000002 cycles: 271599316 heartbeat IPC: 1.222 cumulative IPC: 1.467 (Simulation time: 00 hr 52 min 41 sec)
Heartbeat CPU 0 instructions: 440000004 cycles: 393314432 heartbeat IPC: 0.08216 cumulative IPC: 1.024 (Simulation time: 01 hr 07 min 33 sec)
Heartbeat CPU 0 instructions: 450000003 cycles: 404656706 heartbeat IPC: 0.8817 cumulative IPC: 1.02 (Simulation time: 01 hr 09 min 09 sec)
Heartbeat CPU 0 instructions: 460000004 cycles: 415988805 heartbeat IPC: 0.8824 cumulative IPC: 1.016 (Simulation time: 01 hr 10 min 44 sec)
Heartbeat CPU 0 instructions: 470000002 cycles: 427392533 heartbeat IPC: 0.8769 cumulative IPC: 1.012 (Simulation time: 01 hr 12 min 19 sec)
Heartbeat CPU 0 instructions: 480000004 cycles: 438750058 heartbeat IPC: 0.8805 cumulative IPC: 1.009 (Simulation time: 01 hr 13 min 54 sec)
Heartbeat CPU 0 instructions: 490000002 cycles: 450263367 heartbeat IPC: 0.8686 cumulative IPC: 1.005 (Simulation time: 01 hr 15 min 25 sec)
Heartbeat CPU 0 instructions: 500000003 cycles: 463818482 heartbeat IPC: 0.7377 cumulative IPC: 0.9971 (Simulation time: 01 hr 17 min 06 sec)
Heartbeat CPU 0 instructions: 510000004 cycles: 477333840 heartbeat IPC: 0.7399 cumulative IPC: 0.9896 (Simulation time: 01 hr 18 min 47 sec)
Heartbeat CPU 0 instructions: 520000000 cycles: 491005334 heartbeat IPC: 0.7314 cumulative IPC: 0.9822 (Simulation time: 01 hr 20 min 26 sec)
Heartbeat CPU 0 instructions: 530000004 cycles: 504572033 heartbeat IPC: 0.7371 cumulative IPC: 0.9755 (Simulation time: 01 hr 21 min 58 sec)
Heartbeat CPU 0 instructions: 540000000 cycles: 518082345 heartbeat IPC: 0.7402 cumulative IPC: 0.9692 (Simulation time: 01 hr 23 min 28 sec)
Heartbeat CPU 0 instructions: 550000002 cycles: 528927825 heartbeat IPC: 0.922 cumulative IPC: 0.9682 (Simulation time: 01 hr 24 min 43 sec)
Heartbeat CPU 0 instructions: 560000000 cycles: 539607642 heartbeat IPC: 0.9363 cumulative IPC: 0.9675 (Simulation time: 01 hr 26 min 00 sec)
Heartbeat CPU 0 instructions: 570000002 cycles: 550668693 heartbeat IPC: 0.9041 cumulative IPC: 0.9662 (Simulation time: 01 hr 27 min 16 sec)
Heartbeat CPU 0 instructions: 580000000 cycles: 561852034 heartbeat IPC: 0.8942 cumulative IPC: 0.9648 (Simulation time: 01 hr 28 min 36 sec)
Heartbeat CPU 0 instructions: 590000003 cycles: 573123890 heartbeat IPC: 0.8872 cumulative IPC: 0.9632 (Simulation time: 01 hr 29 min 53 sec)
*** Reached end of trace: (0, "traces/lu.A.champsimtrace")
Heartbeat CPU 0 instructions: 600000001 cycles: 584502130 heartbeat IPC: 0.8789 cumulative IPC: 0.9615 (Simulation time: 01 hr 31 min 12 sec)
Heartbeat CPU 0 instructions: 610000000 cycles: 590846863 heartbeat IPC: 1.576 cumulative IPC: 0.9683 (Simulation time: 01 hr 32 min 00 sec)
Heartbeat CPU 0 instructions: 620000000 cycles: 593347360 heartbeat IPC: 3.999 cumulative IPC: 0.9813 (Simulation time: 01 hr 32 min 29 sec)
Heartbeat CPU 0 instructions: 630000004 cycles: 595847812 heartbeat IPC: 3.999 cumulative IPC: 0.9943 (Simulation time: 01 hr 33 min 01 sec)
Heartbeat CPU 0 instructions: 640000002 cycles: 598348701 heartbeat IPC: 3.999 cumulative IPC: 1.007 (Simulation time: 01 hr 33 min 30 sec)
Heartbeat CPU 0 instructions: 650000001 cycles: 600849185 heartbeat IPC: 3.999 cumulative IPC: 1.02 (Simulation time: 01 hr 34 min 01 sec)
Simulation finished CPU 0 instructions: 600000001 cycles: 588348983 cumulative IPC: 1.02 (Simulation time: 01 hr 34 min 01 sec)
Simulation complete CPU 0 instructions: 600000001 cycles: 588348983 cumulative IPC: 1.02 (Simulation time: 01 hr 34 min 01 sec)

ChampSim completed all CPUs

=== Simulation ===
CPU 0 runs traces/lu.A.champsimtrace
Region of Interest Statistics

CPU 0 cumulative IPC: 1.02 instructions: 600000001 cycles: 588348983
CPU 0 Branch Prediction Accuracy: 99.98% MPKI: 0.004037 Average ROB Occupancy at Mispredict: 109.2
Branch type MPKI
BRANCH_DIRECT_JUMP: 5e-06
BRANCH_INDIRECT: 7.33e-05
BRANCH_CONDITIONAL: 0.0039
BRANCH_DIRECT_CALL: 6.67e-06
BRANCH_INDIRECT_CALL: 3.17e-05
BRANCH_RETURN: 1.83e-05

LLC TOTAL        ACCESS:    6238450 HIT:    2647998 MISS:    3590452
LLC LOAD         ACCESS:    2481288 HIT:     566149 MISS:    1915139
LLC RFO          ACCESS:     831677 HIT:      13539 MISS:     818138
LLC PREFETCH     ACCESS:    1131311 HIT:     366054 MISS:     765257
LLC WRITE        ACCESS:    1782303 HIT:    1693829 MISS:      88474
LLC TRANSLATION  ACCESS:      11871 HIT:       8427 MISS:       3444
LLC PREFETCH REQUESTED:    1131311 ISSUED:    1131311 USEFUL:     527684 USELESS:       8542
LLC AVERAGE MISS LATENCY: 1078 cycles
cpu0_DTLB TOTAL        ACCESS:  125873727 HIT:  118478615 MISS:    7395112
cpu0_DTLB LOAD         ACCESS:  125873727 HIT:  118478615 MISS:    7395112
cpu0_DTLB RFO          ACCESS:          0 HIT:          0 MISS:          0
cpu0_DTLB PREFETCH     ACCESS:          0 HIT:          0 MISS:          0
cpu0_DTLB WRITE        ACCESS:          0 HIT:          0 MISS:          0
cpu0_DTLB TRANSLATION  ACCESS:          0 HIT:          0 MISS:          0
cpu0_DTLB PREFETCH REQUESTED:          0 ISSUED:          0 USEFUL:          0 USELESS:          0
cpu0_DTLB AVERAGE MISS LATENCY: 5.272 cycles
cpu0_ITLB TOTAL        ACCESS:    1261930 HIT:    1261705 MISS:        225
cpu0_ITLB LOAD         ACCESS:    1261930 HIT:    1261705 MISS:        225
cpu0_ITLB RFO          ACCESS:          0 HIT:          0 MISS:          0
cpu0_ITLB PREFETCH     ACCESS:          0 HIT:          0 MISS:          0
cpu0_ITLB WRITE        ACCESS:          0 HIT:          0 MISS:          0
cpu0_ITLB TRANSLATION  ACCESS:          0 HIT:          0 MISS:          0
cpu0_ITLB PREFETCH REQUESTED:          0 ISSUED:          0 USEFUL:          0 USELESS:          0
cpu0_ITLB AVERAGE MISS LATENCY: 107.5 cycles
cpu0_L1D TOTAL        ACCESS:  180319275 HIT:  170403005 MISS:    9916270
cpu0_L1D LOAD         ACCESS:  143266309 HIT:  137206752 MISS:    6059557
cpu0_L1D RFO          ACCESS:          0 HIT:          0 MISS:          0
cpu0_L1D PREFETCH     ACCESS:          0 HIT:          0 MISS:          0
cpu0_L1D WRITE        ACCESS:   37000368 HIT:   33168585 MISS:    3831783
cpu0_L1D TRANSLATION  ACCESS:      52598 HIT:      27668 MISS:      24930
cpu0_L1D PREFETCH REQUESTED:          0 ISSUED:          0 USEFUL:          0 USELESS:          0
cpu0_L1D AVERAGE MISS LATENCY: 311.2 cycles
cpu0_L1I TOTAL        ACCESS:    1589256 HIT:    1586448 MISS:       2808
cpu0_L1I LOAD         ACCESS:    1589256 HIT:    1586448 MISS:       2808
cpu0_L1I RFO          ACCESS:          0 HIT:          0 MISS:          0
cpu0_L1I PREFETCH     ACCESS:          0 HIT:          0 MISS:          0
cpu0_L1I WRITE        ACCESS:          0 HIT:          0 MISS:          0
cpu0_L1I TRANSLATION  ACCESS:          0 HIT:          0 MISS:          0
cpu0_L1I PREFETCH REQUESTED:          0 ISSUED:          0 USEFUL:          0 USELESS:          0
cpu0_L1I AVERAGE MISS LATENCY: 305.8 cycles
cpu0_L2C TOTAL        ACCESS:    5979265 HIT:    2650124 MISS:    3329141
cpu0_L2C LOAD         ACCESS:    3058060 HIT:     576771 MISS:    2481289
cpu0_L2C RFO          ACCESS:     878380 HIT:      46703 MISS:     831677
cpu0_L2C PREFETCH     ACCESS:          0 HIT:          0 MISS:          0
cpu0_L2C WRITE        ACCESS:    2017936 HIT:    2013632 MISS:       4304
cpu0_L2C TRANSLATION  ACCESS:      24889 HIT:      13018 MISS:      11871
cpu0_L2C PREFETCH REQUESTED:          0 ISSUED:          0 USEFUL:          0 USELESS:          0
cpu0_L2C AVERAGE MISS LATENCY: 992.4 cycles
cpu0_STLB TOTAL        ACCESS:    3993555 HIT:    3940969 MISS:      52586
cpu0_STLB LOAD         ACCESS:    3993555 HIT:    3940969 MISS:      52586
cpu0_STLB RFO          ACCESS:          0 HIT:          0 MISS:          0
cpu0_STLB PREFETCH     ACCESS:          0 HIT:          0 MISS:          0
cpu0_STLB WRITE        ACCESS:          0 HIT:          0 MISS:          0
cpu0_STLB TRANSLATION  ACCESS:          0 HIT:          0 MISS:          0
cpu0_STLB PREFETCH REQUESTED:          0 ISSUED:          0 USEFUL:          0 USELESS:          0
cpu0_STLB AVERAGE MISS LATENCY: 520.1 cycles

DRAM Statistics

Channel 0 RQ ROW_BUFFER_HIT:     793871
  ROW_BUFFER_MISS:    2302997
 AVG DBUS CONGESTED CYCLE: 3.952
WQ ROW_BUFFER_HIT: Channel 0 
  ROW_BUFFER_MISS:      27103
  FULL:    1644971
