WARNING: physical memory size is smaller than virtual memory size.

*** ChampSim Multicore Out-of-Order Simulator ***
Warmup Instructions: 50000000
Simulation Instructions: 600000000
Number of CPUs: 1
Page size: 4096

CPU 0 Tage branch predictor
Off-chip DRAM Size: 4 GiB Channels: 1 Width: 64-bit Data Race: 3200 MT/s
Heartbeat CPU 0 instructions: 10000000 cycles: 2500202 heartbeat IPC: 4 cumulative IPC: 4 (Simulation time: 00 hr 01 min 06 sec)
Heartbeat CPU 0 instructions: 20000000 cycles: 5000202 heartbeat IPC: 4 cumulative IPC: 4 (Simulation time: 00 hr 01 min 57 sec)
Heartbeat CPU 0 instructions: 30000000 cycles: 7500202 heartbeat IPC: 4 cumulative IPC: 4 (Simulation time: 00 hr 02 min 48 sec)
Heartbeat CPU 0 instructions: 40000000 cycles: 10000202 heartbeat IPC: 4 cumulative IPC: 4 (Simulation time: 00 hr 03 min 40 sec)
Heartbeat CPU 0 instructions: 50000000 cycles: 12500202 heartbeat IPC: 4 cumulative IPC: 4 (Simulation time: 00 hr 04 min 33 sec)
Warmup finished CPU 0 instructions: 50000000 cycles: 12500203 cumulative IPC: 4 (Simulation time: 00 hr 04 min 33 sec)
Warmup complete CPU 0 instructions: 50000000 cycles: 12500203 cumulative IPC: 4 (Simulation time: 00 hr 04 min 33 sec)
Heartbeat CPU 0 instructions: 60000004 cycles: 15001392 heartbeat IPC: 3.998 cumulative IPC: 3.998 (Simulation time: 00 hr 05 min 30 sec)
Heartbeat CPU 0 instructions: 70000001 cycles: 17501412 heartbeat IPC: 4 cumulative IPC: 3.999 (Simulation time: 00 hr 06 min 27 sec)
Heartbeat CPU 0 instructions: 80000004 cycles: 20001449 heartbeat IPC: 4 cumulative IPC: 3.999 (Simulation time: 00 hr 07 min 25 sec)
Heartbeat CPU 0 instructions: 90000000 cycles: 22504652 heartbeat IPC: 3.995 cumulative IPC: 3.998 (Simulation time: 00 hr 08 min 21 sec)
Heartbeat CPU 0 instructions: 100000004 cycles: 25005174 heartbeat IPC: 3.999 cumulative IPC: 3.998 (Simulation time: 00 hr 09 min 21 sec)
Heartbeat CPU 0 instructions: 110000003 cycles: 27505529 heartbeat IPC: 3.999 cumulative IPC: 3.999 (Simulation time: 00 hr 10 min 18 sec)
Heartbeat CPU 0 instructions: 120000004 cycles: 30006174 heartbeat IPC: 3.999 cumulative IPC: 3.999 (Simulation time: 00 hr 11 min 17 sec)
Heartbeat CPU 0 instructions: 130000004 cycles: 32506816 heartbeat IPC: 3.999 cumulative IPC: 3.999 (Simulation time: 00 hr 12 min 13 sec)
Heartbeat CPU 0 instructions: 140000004 cycles: 35006841 heartbeat IPC: 4 cumulative IPC: 3.999 (Simulation time: 00 hr 13 min 11 sec)
Heartbeat CPU 0 instructions: 150000000 cycles: 37507518 heartbeat IPC: 3.999 cumulative IPC: 3.999 (Simulation time: 00 hr 14 min 08 sec)
Heartbeat CPU 0 instructions: 160000001 cycles: 40008579 heartbeat IPC: 3.998 cumulative IPC: 3.999 (Simulation time: 00 hr 15 min 08 sec)
Heartbeat CPU 0 instructions: 170000000 cycles: 42508679 heartbeat IPC: 4 cumulative IPC: 3.999 (Simulation time: 00 hr 16 min 06 sec)
Heartbeat CPU 0 instructions: 180000003 cycles: 45009650 heartbeat IPC: 3.998 cumulative IPC: 3.999 (Simulation time: 00 hr 17 min 04 sec)
Heartbeat CPU 0 instructions: 190000003 cycles: 47509683 heartbeat IPC: 4 cumulative IPC: 3.999 (Simulation time: 00 hr 18 min 03 sec)
Heartbeat CPU 0 instructions: 200000002 cycles: 50011826 heartbeat IPC: 3.997 cumulative IPC: 3.999 (Simulation time: 00 hr 18 min 59 sec)
Heartbeat CPU 0 instructions: 210000000 cycles: 52511848 heartbeat IPC: 4 cumulative IPC: 3.999 (Simulation time: 00 hr 19 min 58 sec)
Heartbeat CPU 0 instructions: 220000002 cycles: 55012856 heartbeat IPC: 3.998 cumulative IPC: 3.999 (Simulation time: 00 hr 20 min 55 sec)
Heartbeat CPU 0 instructions: 230000003 cycles: 57512885 heartbeat IPC: 4 cumulative IPC: 3.999 (Simulation time: 00 hr 21 min 55 sec)
Heartbeat CPU 0 instructions: 240000002 cycles: 92179085 heartbeat IPC: 0.2885 cumulative IPC: 2.385 (Simulation time: 00 hr 27 min 36 sec)
Heartbeat CPU 0 instructions: 250000000 cycles: 100425098 heartbeat IPC: 1.213 cumulative IPC: 2.275 (Simulation time: 00 hr 29 min 39 sec)
Heartbeat CPU 0 instructions: 260000003 cycles: 109073025 heartbeat IPC: 1.156 cumulative IPC: 2.175 (Simulation time: 00 hr 31 min 46 sec)
Heartbeat CPU 0 instructions: 270000004 cycles: 120055811 heartbeat IPC: 0.9105 cumulative IPC: 2.045 (Simulation time: 00 hr 34 min 18 sec)
Heartbeat CPU 0 instructions: 280000003 cycles: 128612900 heartbeat IPC: 1.169 cumulative IPC: 1.981 (Simulation time: 00 hr 36 min 24 sec)
Heartbeat CPU 0 instructions: 290000000 cycles: 136924211 heartbeat IPC: 1.203 cumulative IPC: 1.929 (Simulation time: 00 hr 38 min 28 sec)
Heartbeat CPU 0 instructions: 300000003 cycles: 145353574 heartbeat IPC: 1.186 cumulative IPC: 1.882 (Simulation time: 00 hr 40 min 34 sec)
Heartbeat CPU 0 instructions: 310000002 cycles: 153663264 heartbeat IPC: 1.203 cumulative IPC: 1.842 (Simulation time: 00 hr 42 min 39 sec)
Heartbeat CPU 0 instructions: 320000004 cycles: 162234955 heartbeat IPC: 1.167 cumulative IPC: 1.803 (Simulation time: 00 hr 44 min 50 sec)
Heartbeat CPU 0 instructions: 330000002 cycles: 170094175 heartbeat IPC: 1.272 cumulative IPC: 1.777 (Simulation time: 00 hr 46 min 57 sec)
Heartbeat CPU 0 instructions: 340000001 cycles: 178111568 heartbeat IPC: 1.247 cumulative IPC: 1.751 (Simulation time: 00 hr 49 min 04 sec)
Heartbeat CPU 0 instructions: 350000001 cycles: 186160071 heartbeat IPC: 1.242 cumulative IPC: 1.728 (Simulation time: 00 hr 51 min 12 sec)
Heartbeat CPU 0 instructions: 360000001 cycles: 194218248 heartbeat IPC: 1.241 cumulative IPC: 1.706 (Simulation time: 00 hr 53 min 18 sec)
Heartbeat CPU 0 instructions: 370000002 cycles: 202227370 heartbeat IPC: 1.249 cumulative IPC: 1.687 (Simulation time: 00 hr 55 min 27 sec)
Heartbeat CPU 0 instructions: 380000001 cycles: 210472338 heartbeat IPC: 1.213 cumulative IPC: 1.667 (Simulation time: 00 hr 57 min 38 sec)
Heartbeat CPU 0 instructions: 390000003 cycles: 218954105 heartbeat IPC: 1.179 cumulative IPC: 1.647 (Simulation time: 00 hr 59 min 52 sec)
Heartbeat CPU 0 instructions: 400000004 cycles: 227466320 heartbeat IPC: 1.175 cumulative IPC: 1.628 (Simulation time: 01 hr 02 min 05 sec)
Heartbeat CPU 0 instructions: 410000001 cycles: 236071004 heartbeat IPC: 1.162 cumulative IPC: 1.61 (Simulation time: 01 hr 04 min 18 sec)
Heartbeat CPU 0 instructions: 420000000 cycles: 244676700 heartbeat IPC: 1.162 cumulative IPC: 1.594 (Simulation time: 01 hr 06 min 33 sec)
Heartbeat CPU 0 instructions: 430000003 cycles: 253072371 heartbeat IPC: 1.191 cumulative IPC: 1.58 (Simulation time: 01 hr 08 min 44 sec)
Heartbeat CPU 0 instructions: 440000003 cycles: 367183018 heartbeat IPC: 0.08763 cumulative IPC: 1.1 (Simulation time: 01 hr 31 min 18 sec)
Heartbeat CPU 0 instructions: 450000002 cycles: 377011266 heartbeat IPC: 1.017 cumulative IPC: 1.097 (Simulation time: 01 hr 33 min 47 sec)
Heartbeat CPU 0 instructions: 460000000 cycles: 386645192 heartbeat IPC: 1.038 cumulative IPC: 1.096 (Simulation time: 01 hr 36 min 12 sec)
Heartbeat CPU 0 instructions: 470000003 cycles: 396084404 heartbeat IPC: 1.059 cumulative IPC: 1.095 (Simulation time: 01 hr 38 min 35 sec)
Heartbeat CPU 0 instructions: 480000003 cycles: 405733010 heartbeat IPC: 1.036 cumulative IPC: 1.093 (Simulation time: 01 hr 41 min 01 sec)
Heartbeat CPU 0 instructions: 490000002 cycles: 415318739 heartbeat IPC: 1.043 cumulative IPC: 1.092 (Simulation time: 01 hr 43 min 26 sec)
Heartbeat CPU 0 instructions: 500000004 cycles: 427717303 heartbeat IPC: 0.8065 cumulative IPC: 1.084 (Simulation time: 01 hr 46 min 26 sec)
Heartbeat CPU 0 instructions: 510000002 cycles: 442431279 heartbeat IPC: 0.6796 cumulative IPC: 1.07 (Simulation time: 01 hr 49 min 58 sec)
Heartbeat CPU 0 instructions: 520000003 cycles: 457557875 heartbeat IPC: 0.6611 cumulative IPC: 1.056 (Simulation time: 01 hr 53 min 34 sec)
Heartbeat CPU 0 instructions: 530000000 cycles: 472447741 heartbeat IPC: 0.6716 cumulative IPC: 1.044 (Simulation time: 01 hr 57 min 06 sec)
Heartbeat CPU 0 instructions: 540000001 cycles: 487637045 heartbeat IPC: 0.6584 cumulative IPC: 1.031 (Simulation time: 02 hr 00 min 42 sec)
Heartbeat CPU 0 instructions: 550000000 cycles: 498877740 heartbeat IPC: 0.8896 cumulative IPC: 1.028 (Simulation time: 02 hr 03 min 30 sec)
Heartbeat CPU 0 instructions: 560000002 cycles: 509559061 heartbeat IPC: 0.9362 cumulative IPC: 1.026 (Simulation time: 02 hr 06 min 09 sec)
Heartbeat CPU 0 instructions: 570000000 cycles: 520766086 heartbeat IPC: 0.8923 cumulative IPC: 1.023 (Simulation time: 02 hr 08 min 53 sec)
Heartbeat CPU 0 instructions: 580000001 cycles: 532115987 heartbeat IPC: 0.8811 cumulative IPC: 1.02 (Simulation time: 02 hr 11 min 38 sec)
Heartbeat CPU 0 instructions: 590000000 cycles: 543383607 heartbeat IPC: 0.8875 cumulative IPC: 1.017 (Simulation time: 02 hr 14 min 25 sec)
*** Reached end of trace: (0, "traces/lu.A.champsimtrace")
Heartbeat CPU 0 instructions: 600000001 cycles: 554779420 heartbeat IPC: 0.8775 cumulative IPC: 1.014 (Simulation time: 02 hr 17 min 13 sec)
Heartbeat CPU 0 instructions: 610000004 cycles: 564312887 heartbeat IPC: 1.049 cumulative IPC: 1.015 (Simulation time: 02 hr 19 min 28 sec)
Heartbeat CPU 0 instructions: 620000003 cycles: 566814238 heartbeat IPC: 3.998 cumulative IPC: 1.028 (Simulation time: 02 hr 20 min 30 sec)
Heartbeat CPU 0 instructions: 630000002 cycles: 569318001 heartbeat IPC: 3.994 cumulative IPC: 1.042 (Simulation time: 02 hr 21 min 33 sec)
Heartbeat CPU 0 instructions: 640000000 cycles: 571818463 heartbeat IPC: 3.999 cumulative IPC: 1.055 (Simulation time: 02 hr 22 min 34 sec)
Heartbeat CPU 0 instructions: 650000004 cycles: 574319324 heartbeat IPC: 3.999 cumulative IPC: 1.068 (Simulation time: 02 hr 23 min 35 sec)
Simulation finished CPU 0 instructions: 600000004 cycles: 561819122 cumulative IPC: 1.068 (Simulation time: 02 hr 23 min 35 sec)
Simulation complete CPU 0 instructions: 600000004 cycles: 561819122 cumulative IPC: 1.068 (Simulation time: 02 hr 23 min 35 sec)

ChampSim completed all CPUs

=== Simulation ===
CPU 0 runs traces/lu.A.champsimtrace
Region of Interest Statistics

CPU 0 cumulative IPC: 1.068 instructions: 600000004 cycles: 561819122
CPU 0 Branch Prediction Accuracy: 99.98% MPKI: 0.00408 Average ROB Occupancy at Mispredict: 126.9
Branch type MPKI
BRANCH_DIRECT_JUMP: 5e-06
BRANCH_INDIRECT: 7.83e-05
BRANCH_CONDITIONAL: 0.00394
BRANCH_DIRECT_CALL: 6.67e-06
BRANCH_INDIRECT_CALL: 3.5e-05
BRANCH_RETURN: 1.83e-05

LLC TOTAL        ACCESS:    6236674 HIT:    1413247 MISS:    4823427
LLC LOAD         ACCESS:    2481893 HIT:     578963 MISS:    1902930
LLC RFO          ACCESS:     831685 HIT:      10937 MISS:     820748
LLC PREFETCH     ACCESS:    1128930 HIT:     371506 MISS:     757424
LLC WRITE        ACCESS:    1782346 HIT:     447858 MISS:    1334488
LLC TRANSLATION  ACCESS:      11820 HIT:       3983 MISS:       7837
LLC PREFETCH REQUESTED:    1128930 ISSUED:    1128930 USEFUL:     517281 USELESS:       7661
LLC AVERAGE MISS LATENCY: 743.9 cycles
cpu0_DTLB TOTAL        ACCESS:  126169752 HIT:  118754558 MISS:    7415194
cpu0_DTLB LOAD         ACCESS:  126169752 HIT:  118754558 MISS:    7415194
cpu0_DTLB RFO          ACCESS:          0 HIT:          0 MISS:          0
cpu0_DTLB PREFETCH     ACCESS:          0 HIT:          0 MISS:          0
cpu0_DTLB WRITE        ACCESS:          0 HIT:          0 MISS:          0
cpu0_DTLB TRANSLATION  ACCESS:          0 HIT:          0 MISS:          0
cpu0_DTLB PREFETCH REQUESTED:          0 ISSUED:          0 USEFUL:          0 USELESS:          0
cpu0_DTLB AVERAGE MISS LATENCY: 6.119 cycles
cpu0_ITLB TOTAL        ACCESS:    1264045 HIT:    1263814 MISS:        231
cpu0_ITLB LOAD         ACCESS:    1264045 HIT:    1263814 MISS:        231
cpu0_ITLB RFO          ACCESS:          0 HIT:          0 MISS:          0
cpu0_ITLB PREFETCH     ACCESS:          0 HIT:          0 MISS:          0
cpu0_ITLB WRITE        ACCESS:          0 HIT:          0 MISS:          0
cpu0_ITLB TRANSLATION  ACCESS:          0 HIT:          0 MISS:          0
cpu0_ITLB PREFETCH REQUESTED:          0 ISSUED:          0 USEFUL:          0 USELESS:          0
cpu0_ITLB AVERAGE MISS LATENCY: 341.4 cycles
cpu0_L1D TOTAL        ACCESS:  180534433 HIT:  170623372 MISS:    9911061
cpu0_L1D LOAD         ACCESS:  143481728 HIT:  137392007 MISS:    6089721
cpu0_L1D RFO          ACCESS:          0 HIT:          0 MISS:          0
cpu0_L1D PREFETCH     ACCESS:          0 HIT:          0 MISS:          0
cpu0_L1D WRITE        ACCESS:   37000109 HIT:   33203684 MISS:    3796425
cpu0_L1D TRANSLATION  ACCESS:      52596 HIT:      27681 MISS:      24915
cpu0_L1D PREFETCH REQUESTED:          0 ISSUED:          0 USEFUL:          0 USELESS:          0
cpu0_L1D AVERAGE MISS LATENCY: 295 cycles
cpu0_L1I TOTAL        ACCESS:    1590959 HIT:    1588018 MISS:       2941
cpu0_L1I LOAD         ACCESS:    1590959 HIT:    1588018 MISS:       2941
cpu0_L1I RFO          ACCESS:          0 HIT:          0 MISS:          0
cpu0_L1I PREFETCH     ACCESS:          0 HIT:          0 MISS:          0
cpu0_L1I WRITE        ACCESS:          0 HIT:          0 MISS:          0
cpu0_L1I TRANSLATION  ACCESS:          0 HIT:          0 MISS:          0
cpu0_L1I PREFETCH REQUESTED:          0 ISSUED:          0 USEFUL:          0 USELESS:          0
cpu0_L1I AVERAGE MISS LATENCY: 588.6 cycles
cpu0_L2C TOTAL        ACCESS:    5941455 HIT:    2611819 MISS:    3329636
cpu0_L2C LOAD         ACCESS:    3053046 HIT:     571152 MISS:    2481894
cpu0_L2C RFO          ACCESS:     872208 HIT:      40523 MISS:     831685
cpu0_L2C PREFETCH     ACCESS:          0 HIT:          0 MISS:          0
cpu0_L2C WRITE        ACCESS:    1991334 HIT:    1987097 MISS:       4237
cpu0_L2C TRANSLATION  ACCESS:      24867 HIT:      13047 MISS:      11820
cpu0_L2C PREFETCH REQUESTED:          0 ISSUED:          0 USEFUL:          0 USELESS:          0
cpu0_L2C AVERAGE MISS LATENCY: 938.9 cycles
cpu0_STLB TOTAL        ACCESS:    4005163 HIT:    3952581 MISS:      52582
cpu0_STLB LOAD         ACCESS:    4005163 HIT:    3952581 MISS:      52582
cpu0_STLB RFO          ACCESS:          0 HIT:          0 MISS:          0
cpu0_STLB PREFETCH     ACCESS:          0 HIT:          0 MISS:          0
cpu0_STLB WRITE        ACCESS:          0 HIT:          0 MISS:          0
cpu0_STLB TRANSLATION  ACCESS:          0 HIT:          0 MISS:          0
cpu0_STLB PREFETCH REQUESTED:          0 ISSUED:          0 USEFUL:          0 USELESS:          0
cpu0_STLB AVERAGE MISS LATENCY: 690.6 cycles

DRAM Statistics

Channel 0 RQ ROW_BUFFER_HIT:     830911
  ROW_BUFFER_MISS:    2251008
 AVG DBUS CONGESTED CYCLE: 3.942
WQ ROW_BUFFER_HIT: Channel 0 
  ROW_BUFFER_MISS:     378261
  FULL:    1330084
Final OPTGen Hits: 16024
Final OPTGen Access: 52795
Final OPTGEN Hit Rate: 30.3514
