WARNING: physical memory size is smaller than virtual memory size.

*** ChampSim Multicore Out-of-Order Simulator ***
Warmup Instructions: 50000000
Simulation Instructions: 600000000
Number of CPUs: 1
Page size: 4096

Off-chip DRAM Size: 4 GiB Channels: 1 Width: 64-bit Data Race: 3200 MT/s
Heartbeat CPU 0 instructions: 10000000 cycles: 2500202 heartbeat IPC: 4 cumulative IPC: 4 (Simulation time: 00 hr 00 min 32 sec)
Heartbeat CPU 0 instructions: 20000000 cycles: 5000202 heartbeat IPC: 4 cumulative IPC: 4 (Simulation time: 00 hr 01 min 05 sec)
Heartbeat CPU 0 instructions: 30000000 cycles: 7500202 heartbeat IPC: 4 cumulative IPC: 4 (Simulation time: 00 hr 01 min 38 sec)
Heartbeat CPU 0 instructions: 40000000 cycles: 10000202 heartbeat IPC: 4 cumulative IPC: 4 (Simulation time: 00 hr 02 min 14 sec)
Heartbeat CPU 0 instructions: 50000000 cycles: 12500202 heartbeat IPC: 4 cumulative IPC: 4 (Simulation time: 00 hr 02 min 48 sec)
Warmup finished CPU 0 instructions: 50000000 cycles: 12500203 cumulative IPC: 4 (Simulation time: 00 hr 02 min 48 sec)
Warmup complete CPU 0 instructions: 50000000 cycles: 12500203 cumulative IPC: 4 (Simulation time: 00 hr 02 min 48 sec)
Heartbeat CPU 0 instructions: 60000004 cycles: 15134999 heartbeat IPC: 3.795 cumulative IPC: 3.795 (Simulation time: 00 hr 03 min 27 sec)
Heartbeat CPU 0 instructions: 70000003 cycles: 17769623 heartbeat IPC: 3.796 cumulative IPC: 3.795 (Simulation time: 00 hr 04 min 04 sec)
Heartbeat CPU 0 instructions: 80000003 cycles: 20404725 heartbeat IPC: 3.795 cumulative IPC: 3.795 (Simulation time: 00 hr 04 min 43 sec)
Heartbeat CPU 0 instructions: 90000004 cycles: 23039491 heartbeat IPC: 3.795 cumulative IPC: 3.795 (Simulation time: 00 hr 05 min 22 sec)
Heartbeat CPU 0 instructions: 100000002 cycles: 25674100 heartbeat IPC: 3.796 cumulative IPC: 3.795 (Simulation time: 00 hr 06 min 00 sec)
Heartbeat CPU 0 instructions: 110000003 cycles: 28308736 heartbeat IPC: 3.796 cumulative IPC: 3.795 (Simulation time: 00 hr 06 min 39 sec)
Heartbeat CPU 0 instructions: 120000004 cycles: 30943589 heartbeat IPC: 3.795 cumulative IPC: 3.795 (Simulation time: 00 hr 07 min 19 sec)
Heartbeat CPU 0 instructions: 130000000 cycles: 33578681 heartbeat IPC: 3.795 cumulative IPC: 3.795 (Simulation time: 00 hr 07 min 58 sec)
Heartbeat CPU 0 instructions: 140000004 cycles: 36213305 heartbeat IPC: 3.796 cumulative IPC: 3.795 (Simulation time: 00 hr 08 min 37 sec)
Heartbeat CPU 0 instructions: 150000000 cycles: 38847936 heartbeat IPC: 3.796 cumulative IPC: 3.795 (Simulation time: 00 hr 09 min 17 sec)
Heartbeat CPU 0 instructions: 160000001 cycles: 41483944 heartbeat IPC: 3.794 cumulative IPC: 3.795 (Simulation time: 00 hr 09 min 59 sec)
Heartbeat CPU 0 instructions: 170000000 cycles: 44119964 heartbeat IPC: 3.794 cumulative IPC: 3.795 (Simulation time: 00 hr 10 min 37 sec)
Heartbeat CPU 0 instructions: 180000003 cycles: 46755280 heartbeat IPC: 3.795 cumulative IPC: 3.795 (Simulation time: 00 hr 11 min 16 sec)
Heartbeat CPU 0 instructions: 190000000 cycles: 49390313 heartbeat IPC: 3.795 cumulative IPC: 3.795 (Simulation time: 00 hr 11 min 54 sec)
Heartbeat CPU 0 instructions: 200000004 cycles: 52025160 heartbeat IPC: 3.795 cumulative IPC: 3.795 (Simulation time: 00 hr 12 min 32 sec)
Heartbeat CPU 0 instructions: 210000004 cycles: 54660232 heartbeat IPC: 3.795 cumulative IPC: 3.795 (Simulation time: 00 hr 13 min 11 sec)
Heartbeat CPU 0 instructions: 220000001 cycles: 57295524 heartbeat IPC: 3.795 cumulative IPC: 3.795 (Simulation time: 00 hr 13 min 50 sec)
Heartbeat CPU 0 instructions: 230000002 cycles: 59930604 heartbeat IPC: 3.795 cumulative IPC: 3.795 (Simulation time: 00 hr 14 min 30 sec)
Heartbeat CPU 0 instructions: 240000000 cycles: 96502253 heartbeat IPC: 0.2734 cumulative IPC: 2.262 (Simulation time: 00 hr 18 min 27 sec)
Heartbeat CPU 0 instructions: 250000001 cycles: 106638202 heartbeat IPC: 0.9866 cumulative IPC: 2.125 (Simulation time: 00 hr 20 min 08 sec)
Heartbeat CPU 0 instructions: 260000000 cycles: 116767071 heartbeat IPC: 0.9873 cumulative IPC: 2.014 (Simulation time: 00 hr 21 min 47 sec)
Heartbeat CPU 0 instructions: 270000001 cycles: 127005704 heartbeat IPC: 0.9767 cumulative IPC: 1.921 (Simulation time: 00 hr 23 min 25 sec)
Heartbeat CPU 0 instructions: 280000003 cycles: 135565913 heartbeat IPC: 1.168 cumulative IPC: 1.869 (Simulation time: 00 hr 24 min 54 sec)
Heartbeat CPU 0 instructions: 290000001 cycles: 143141940 heartbeat IPC: 1.32 cumulative IPC: 1.837 (Simulation time: 00 hr 26 min 15 sec)
Heartbeat CPU 0 instructions: 300000002 cycles: 150388677 heartbeat IPC: 1.38 cumulative IPC: 1.813 (Simulation time: 00 hr 27 min 32 sec)
Heartbeat CPU 0 instructions: 310000002 cycles: 157477949 heartbeat IPC: 1.411 cumulative IPC: 1.793 (Simulation time: 00 hr 28 min 49 sec)
Heartbeat CPU 0 instructions: 320000002 cycles: 164919274 heartbeat IPC: 1.344 cumulative IPC: 1.771 (Simulation time: 00 hr 30 min 09 sec)
Heartbeat CPU 0 instructions: 330000002 cycles: 173314201 heartbeat IPC: 1.191 cumulative IPC: 1.741 (Simulation time: 00 hr 31 min 35 sec)
Heartbeat CPU 0 instructions: 340000004 cycles: 181641914 heartbeat IPC: 1.201 cumulative IPC: 1.715 (Simulation time: 00 hr 33 min 03 sec)
Heartbeat CPU 0 instructions: 350000003 cycles: 189917578 heartbeat IPC: 1.208 cumulative IPC: 1.691 (Simulation time: 00 hr 34 min 31 sec)
Heartbeat CPU 0 instructions: 360000001 cycles: 198231153 heartbeat IPC: 1.203 cumulative IPC: 1.669 (Simulation time: 00 hr 35 min 59 sec)
Heartbeat CPU 0 instructions: 370000002 cycles: 206526732 heartbeat IPC: 1.205 cumulative IPC: 1.649 (Simulation time: 00 hr 37 min 26 sec)
Heartbeat CPU 0 instructions: 380000003 cycles: 214652484 heartbeat IPC: 1.231 cumulative IPC: 1.632 (Simulation time: 00 hr 38 min 54 sec)
Heartbeat CPU 0 instructions: 390000000 cycles: 223161443 heartbeat IPC: 1.175 cumulative IPC: 1.614 (Simulation time: 00 hr 40 min 25 sec)
Heartbeat CPU 0 instructions: 400000000 cycles: 231980397 heartbeat IPC: 1.134 cumulative IPC: 1.595 (Simulation time: 00 hr 41 min 59 sec)
Heartbeat CPU 0 instructions: 410000002 cycles: 240915804 heartbeat IPC: 1.119 cumulative IPC: 1.576 (Simulation time: 00 hr 43 min 32 sec)
Heartbeat CPU 0 instructions: 420000004 cycles: 249897155 heartbeat IPC: 1.113 cumulative IPC: 1.559 (Simulation time: 00 hr 45 min 05 sec)
Heartbeat CPU 0 instructions: 430000002 cycles: 258947673 heartbeat IPC: 1.105 cumulative IPC: 1.542 (Simulation time: 00 hr 46 min 38 sec)
Heartbeat CPU 0 instructions: 440000004 cycles: 412716067 heartbeat IPC: 0.06503 cumulative IPC: 0.9745 (Simulation time: 01 hr 06 min 51 sec)
Heartbeat CPU 0 instructions: 450000003 cycles: 423959929 heartbeat IPC: 0.8894 cumulative IPC: 0.9721 (Simulation time: 01 hr 08 min 41 sec)
Heartbeat CPU 0 instructions: 460000004 cycles: 435118785 heartbeat IPC: 0.8961 cumulative IPC: 0.9701 (Simulation time: 01 hr 10 min 29 sec)
Heartbeat CPU 0 instructions: 470000001 cycles: 446259614 heartbeat IPC: 0.8976 cumulative IPC: 0.9683 (Simulation time: 01 hr 12 min 18 sec)
Heartbeat CPU 0 instructions: 480000000 cycles: 457409550 heartbeat IPC: 0.8969 cumulative IPC: 0.9665 (Simulation time: 01 hr 14 min 07 sec)
Heartbeat CPU 0 instructions: 490000002 cycles: 468805813 heartbeat IPC: 0.8775 cumulative IPC: 0.9643 (Simulation time: 01 hr 15 min 59 sec)
Heartbeat CPU 0 instructions: 500000002 cycles: 482080707 heartbeat IPC: 0.7533 cumulative IPC: 0.9583 (Simulation time: 01 hr 18 min 08 sec)
Heartbeat CPU 0 instructions: 510000004 cycles: 495174405 heartbeat IPC: 0.7637 cumulative IPC: 0.953 (Simulation time: 01 hr 20 min 17 sec)
Heartbeat CPU 0 instructions: 520000000 cycles: 508516613 heartbeat IPC: 0.7495 cumulative IPC: 0.9475 (Simulation time: 01 hr 22 min 27 sec)
Heartbeat CPU 0 instructions: 530000003 cycles: 521681231 heartbeat IPC: 0.7596 cumulative IPC: 0.9427 (Simulation time: 01 hr 24 min 36 sec)
Heartbeat CPU 0 instructions: 540000002 cycles: 534868470 heartbeat IPC: 0.7583 cumulative IPC: 0.938 (Simulation time: 01 hr 26 min 43 sec)
Heartbeat CPU 0 instructions: 550000002 cycles: 544736258 heartbeat IPC: 1.013 cumulative IPC: 0.9394 (Simulation time: 01 hr 28 min 21 sec)
Heartbeat CPU 0 instructions: 560000000 cycles: 554145738 heartbeat IPC: 1.063 cumulative IPC: 0.9416 (Simulation time: 01 hr 29 min 57 sec)
Heartbeat CPU 0 instructions: 570000002 cycles: 563859595 heartbeat IPC: 1.029 cumulative IPC: 0.9431 (Simulation time: 01 hr 31 min 39 sec)
Heartbeat CPU 0 instructions: 580000003 cycles: 573680087 heartbeat IPC: 1.018 cumulative IPC: 0.9444 (Simulation time: 01 hr 33 min 17 sec)
Heartbeat CPU 0 instructions: 590000003 cycles: 583661372 heartbeat IPC: 1.002 cumulative IPC: 0.9454 (Simulation time: 01 hr 34 min 57 sec)
*** Reached end of trace: (0, "traces/lu.A.champsimtrace")
Heartbeat CPU 0 instructions: 600000001 cycles: 593700648 heartbeat IPC: 0.9961 cumulative IPC: 0.9463 (Simulation time: 01 hr 36 min 36 sec)
Heartbeat CPU 0 instructions: 610000000 cycles: 600016693 heartbeat IPC: 1.583 cumulative IPC: 0.9532 (Simulation time: 01 hr 37 min 42 sec)
Heartbeat CPU 0 instructions: 620000000 cycles: 602651802 heartbeat IPC: 3.795 cumulative IPC: 0.9659 (Simulation time: 01 hr 38 min 21 sec)
Heartbeat CPU 0 instructions: 630000004 cycles: 605286630 heartbeat IPC: 3.795 cumulative IPC: 0.9784 (Simulation time: 01 hr 38 min 59 sec)
Heartbeat CPU 0 instructions: 640000002 cycles: 607921253 heartbeat IPC: 3.796 cumulative IPC: 0.9909 (Simulation time: 01 hr 39 min 38 sec)
Heartbeat CPU 0 instructions: 650000001 cycles: 610555894 heartbeat IPC: 3.796 cumulative IPC: 1.003 (Simulation time: 01 hr 40 min 17 sec)
Simulation finished CPU 0 instructions: 600000001 cycles: 598055692 cumulative IPC: 1.003 (Simulation time: 01 hr 40 min 17 sec)
Simulation complete CPU 0 instructions: 600000001 cycles: 598055692 cumulative IPC: 1.003 (Simulation time: 01 hr 40 min 17 sec)

ChampSim completed all CPUs

=== Simulation ===
CPU 0 runs traces/lu.A.champsimtrace
Region of Interest Statistics

CPU 0 cumulative IPC: 1.003 instructions: 600000001 cycles: 598055692
CPU 0 Branch Prediction Accuracy: 96.65% MPKI: 0.6426 Average ROB Occupancy at Mispredict: 328.8
Branch type MPKI
BRANCH_DIRECT_JUMP: 5e-06
BRANCH_INDIRECT: 7.33e-05
BRANCH_CONDITIONAL: 0.642
BRANCH_DIRECT_CALL: 6.67e-06
BRANCH_INDIRECT_CALL: 3.17e-05
BRANCH_RETURN: 1.83e-05

LLC TOTAL        ACCESS:    7719323 HIT:    3401651 MISS:    4317672
LLC LOAD         ACCESS:    2481344 HIT:    1424004 MISS:    1057340
LLC RFO          ACCESS:     831684 HIT:      50153 MISS:     781531
LLC PREFETCH     ACCESS:    2612046 HIT:     226749 MISS:    2385297
LLC WRITE        ACCESS:    1782371 HIT:    1692355 MISS:      90016
LLC TRANSLATION  ACCESS:      11878 HIT:       8390 MISS:       3488
LLC PREFETCH REQUESTED:    4424341 ISSUED:    2612046 USEFUL:    1721655 USELESS:      38352
LLC AVERAGE MISS LATENCY: 1669 cycles
cpu0_DTLB TOTAL        ACCESS:  115427232 HIT:  108268619 MISS:    7158613
cpu0_DTLB LOAD         ACCESS:  115427232 HIT:  108268619 MISS:    7158613
cpu0_DTLB RFO          ACCESS:          0 HIT:          0 MISS:          0
cpu0_DTLB PREFETCH     ACCESS:          0 HIT:          0 MISS:          0
cpu0_DTLB WRITE        ACCESS:          0 HIT:          0 MISS:          0
cpu0_DTLB TRANSLATION  ACCESS:          0 HIT:          0 MISS:          0
cpu0_DTLB PREFETCH REQUESTED:          0 ISSUED:          0 USEFUL:          0 USELESS:          0
cpu0_DTLB AVERAGE MISS LATENCY: 6.372 cycles
cpu0_ITLB TOTAL        ACCESS:     702967 HIT:     702756 MISS:        211
cpu0_ITLB LOAD         ACCESS:     702967 HIT:     702756 MISS:        211
cpu0_ITLB RFO          ACCESS:          0 HIT:          0 MISS:          0
cpu0_ITLB PREFETCH     ACCESS:          0 HIT:          0 MISS:          0
cpu0_ITLB WRITE        ACCESS:          0 HIT:          0 MISS:          0
cpu0_ITLB TRANSLATION  ACCESS:          0 HIT:          0 MISS:          0
cpu0_ITLB PREFETCH REQUESTED:          0 ISSUED:          0 USEFUL:          0 USELESS:          0
cpu0_ITLB AVERAGE MISS LATENCY: 205.7 cycles
cpu0_L1D TOTAL        ACCESS:  166792921 HIT:  157223245 MISS:    9569676
cpu0_L1D LOAD         ACCESS:  129739473 HIT:  124009934 MISS:    5729539
cpu0_L1D RFO          ACCESS:          0 HIT:          0 MISS:          0
cpu0_L1D PREFETCH     ACCESS:          0 HIT:          0 MISS:          0
cpu0_L1D WRITE        ACCESS:   37000850 HIT:   33185694 MISS:    3815156
cpu0_L1D TRANSLATION  ACCESS:      52598 HIT:      27617 MISS:      24981
cpu0_L1D PREFETCH REQUESTED:          0 ISSUED:          0 USEFUL:          0 USELESS:          0
cpu0_L1D AVERAGE MISS LATENCY: 306.2 cycles
cpu0_L1I TOTAL        ACCESS:    1078576 HIT:    1075869 MISS:       2707
cpu0_L1I LOAD         ACCESS:    1078576 HIT:    1075869 MISS:       2707
cpu0_L1I RFO          ACCESS:          0 HIT:          0 MISS:          0
cpu0_L1I PREFETCH     ACCESS:          0 HIT:          0 MISS:          0
cpu0_L1I WRITE        ACCESS:          0 HIT:          0 MISS:          0
cpu0_L1I TRANSLATION  ACCESS:          0 HIT:          0 MISS:          0
cpu0_L1I PREFETCH REQUESTED:          0 ISSUED:          0 USEFUL:          0 USELESS:          0
cpu0_L1I AVERAGE MISS LATENCY: 302.9 cycles
cpu0_L2C TOTAL        ACCESS:    5990530 HIT:    2661327 MISS:    3329203
cpu0_L2C LOAD         ACCESS:    3070039 HIT:     588695 MISS:    2481344
cpu0_L2C RFO          ACCESS:     876846 HIT:      45162 MISS:     831684
cpu0_L2C PREFETCH     ACCESS:          0 HIT:          0 MISS:          0
cpu0_L2C WRITE        ACCESS:    2018708 HIT:    2014411 MISS:       4297
cpu0_L2C TRANSLATION  ACCESS:      24937 HIT:      13059 MISS:      11878
cpu0_L2C PREFETCH REQUESTED:          0 ISSUED:          0 USEFUL:          0 USELESS:          0
cpu0_L2C AVERAGE MISS LATENCY: 948.8 cycles
cpu0_STLB TOTAL        ACCESS:    3987251 HIT:    3934665 MISS:      52586
cpu0_STLB LOAD         ACCESS:    3987251 HIT:    3934665 MISS:      52586
cpu0_STLB RFO          ACCESS:          0 HIT:          0 MISS:          0
cpu0_STLB PREFETCH     ACCESS:          0 HIT:          0 MISS:          0
cpu0_STLB WRITE        ACCESS:          0 HIT:          0 MISS:          0
cpu0_STLB TRANSLATION  ACCESS:          0 HIT:          0 MISS:          0
cpu0_STLB PREFETCH REQUESTED:          0 ISSUED:          0 USEFUL:          0 USELESS:          0
cpu0_STLB AVERAGE MISS LATENCY: 645.8 cycles

DRAM Statistics

Channel 0 RQ ROW_BUFFER_HIT:     703488
  ROW_BUFFER_MISS:    2423739
 AVG DBUS CONGESTED CYCLE: 3.98
WQ ROW_BUFFER_HIT: Channel 0 
  ROW_BUFFER_MISS:      25947
  FULL:    1647184
