WARNING: physical memory size is smaller than virtual memory size.

*** ChampSim Multicore Out-of-Order Simulator ***
Warmup Instructions: 50000000
Simulation Instructions: 600000000
Number of CPUs: 1
Page size: 4096

CPU 0 Tage branch predictor
Off-chip DRAM Size: 4 GiB Channels: 1 Width: 64-bit Data Race: 3200 MT/s
Heartbeat CPU 0 instructions: 10000000 cycles: 2500202 heartbeat IPC: 4 cumulative IPC: 4 (Simulation time: 00 hr 00 min 35 sec)
Heartbeat CPU 0 instructions: 20000000 cycles: 5000202 heartbeat IPC: 4 cumulative IPC: 4 (Simulation time: 00 hr 01 min 10 sec)
Heartbeat CPU 0 instructions: 30000000 cycles: 7500202 heartbeat IPC: 4 cumulative IPC: 4 (Simulation time: 00 hr 01 min 45 sec)
Heartbeat CPU 0 instructions: 40000000 cycles: 10000202 heartbeat IPC: 4 cumulative IPC: 4 (Simulation time: 00 hr 02 min 22 sec)
Heartbeat CPU 0 instructions: 50000000 cycles: 12500202 heartbeat IPC: 4 cumulative IPC: 4 (Simulation time: 00 hr 02 min 57 sec)
Warmup finished CPU 0 instructions: 50000000 cycles: 12500203 cumulative IPC: 4 (Simulation time: 00 hr 02 min 57 sec)
Warmup complete CPU 0 instructions: 50000000 cycles: 12500203 cumulative IPC: 4 (Simulation time: 00 hr 02 min 57 sec)
Heartbeat CPU 0 instructions: 60000004 cycles: 15000241 heartbeat IPC: 4 cumulative IPC: 4 (Simulation time: 00 hr 03 min 39 sec)
Heartbeat CPU 0 instructions: 70000003 cycles: 17500265 heartbeat IPC: 4 cumulative IPC: 4 (Simulation time: 00 hr 04 min 22 sec)
Heartbeat CPU 0 instructions: 80000004 cycles: 20000298 heartbeat IPC: 4 cumulative IPC: 4 (Simulation time: 00 hr 05 min 05 sec)
Heartbeat CPU 0 instructions: 90000000 cycles: 22501470 heartbeat IPC: 3.998 cumulative IPC: 3.999 (Simulation time: 00 hr 05 min 46 sec)
Heartbeat CPU 0 instructions: 100000001 cycles: 25002486 heartbeat IPC: 3.998 cumulative IPC: 3.999 (Simulation time: 00 hr 06 min 29 sec)
Heartbeat CPU 0 instructions: 110000000 cycles: 27505213 heartbeat IPC: 3.996 cumulative IPC: 3.999 (Simulation time: 00 hr 07 min 10 sec)
Heartbeat CPU 0 instructions: 120000004 cycles: 30005247 heartbeat IPC: 4 cumulative IPC: 3.999 (Simulation time: 00 hr 07 min 51 sec)
Heartbeat CPU 0 instructions: 130000000 cycles: 32506424 heartbeat IPC: 3.998 cumulative IPC: 3.999 (Simulation time: 00 hr 08 min 32 sec)
Heartbeat CPU 0 instructions: 140000004 cycles: 35007111 heartbeat IPC: 3.999 cumulative IPC: 3.999 (Simulation time: 00 hr 09 min 13 sec)
Heartbeat CPU 0 instructions: 150000000 cycles: 37508682 heartbeat IPC: 3.997 cumulative IPC: 3.999 (Simulation time: 00 hr 09 min 54 sec)
Heartbeat CPU 0 instructions: 160000001 cycles: 40010062 heartbeat IPC: 3.998 cumulative IPC: 3.999 (Simulation time: 00 hr 10 min 35 sec)
Heartbeat CPU 0 instructions: 170000000 cycles: 42511232 heartbeat IPC: 3.998 cumulative IPC: 3.999 (Simulation time: 00 hr 11 min 17 sec)
Heartbeat CPU 0 instructions: 180000003 cycles: 45012242 heartbeat IPC: 3.998 cumulative IPC: 3.999 (Simulation time: 00 hr 11 min 58 sec)
Heartbeat CPU 0 instructions: 190000000 cycles: 47513387 heartbeat IPC: 3.998 cumulative IPC: 3.998 (Simulation time: 00 hr 12 min 39 sec)
Heartbeat CPU 0 instructions: 200000004 cycles: 50014458 heartbeat IPC: 3.998 cumulative IPC: 3.998 (Simulation time: 00 hr 13 min 20 sec)
Heartbeat CPU 0 instructions: 210000004 cycles: 52515070 heartbeat IPC: 3.999 cumulative IPC: 3.999 (Simulation time: 00 hr 14 min 01 sec)
Heartbeat CPU 0 instructions: 220000001 cycles: 55016105 heartbeat IPC: 3.998 cumulative IPC: 3.999 (Simulation time: 00 hr 14 min 42 sec)
Heartbeat CPU 0 instructions: 230000000 cycles: 57516107 heartbeat IPC: 4 cumulative IPC: 3.999 (Simulation time: 00 hr 15 min 23 sec)
Heartbeat CPU 0 instructions: 240000000 cycles: 91426190 heartbeat IPC: 0.2949 cumulative IPC: 2.407 (Simulation time: 00 hr 19 min 01 sec)
Heartbeat CPU 0 instructions: 250000001 cycles: 100510922 heartbeat IPC: 1.101 cumulative IPC: 2.272 (Simulation time: 00 hr 20 min 36 sec)
Heartbeat CPU 0 instructions: 260000001 cycles: 109603165 heartbeat IPC: 1.1 cumulative IPC: 2.163 (Simulation time: 00 hr 22 min 12 sec)
Heartbeat CPU 0 instructions: 270000003 cycles: 119474023 heartbeat IPC: 1.013 cumulative IPC: 2.057 (Simulation time: 00 hr 24 min 00 sec)
Heartbeat CPU 0 instructions: 280000003 cycles: 127273960 heartbeat IPC: 1.282 cumulative IPC: 2.004 (Simulation time: 00 hr 25 min 38 sec)
Heartbeat CPU 0 instructions: 290000000 cycles: 132609851 heartbeat IPC: 1.874 cumulative IPC: 1.998 (Simulation time: 00 hr 26 min 56 sec)
Heartbeat CPU 0 instructions: 300000002 cycles: 137936925 heartbeat IPC: 1.877 cumulative IPC: 1.993 (Simulation time: 00 hr 28 min 10 sec)
Heartbeat CPU 0 instructions: 310000002 cycles: 143302323 heartbeat IPC: 1.864 cumulative IPC: 1.988 (Simulation time: 00 hr 29 min 23 sec)
Heartbeat CPU 0 instructions: 320000002 cycles: 149284642 heartbeat IPC: 1.672 cumulative IPC: 1.974 (Simulation time: 00 hr 30 min 39 sec)
Heartbeat CPU 0 instructions: 330000002 cycles: 157481771 heartbeat IPC: 1.22 cumulative IPC: 1.931 (Simulation time: 00 hr 32 min 11 sec)
Heartbeat CPU 0 instructions: 340000000 cycles: 165451439 heartbeat IPC: 1.255 cumulative IPC: 1.896 (Simulation time: 00 hr 33 min 37 sec)
Heartbeat CPU 0 instructions: 350000003 cycles: 173394834 heartbeat IPC: 1.259 cumulative IPC: 1.865 (Simulation time: 00 hr 35 min 05 sec)
Heartbeat CPU 0 instructions: 360000001 cycles: 181320357 heartbeat IPC: 1.262 cumulative IPC: 1.836 (Simulation time: 00 hr 36 min 31 sec)
Heartbeat CPU 0 instructions: 370000002 cycles: 189275430 heartbeat IPC: 1.257 cumulative IPC: 1.81 (Simulation time: 00 hr 37 min 55 sec)
Heartbeat CPU 0 instructions: 380000003 cycles: 197033822 heartbeat IPC: 1.289 cumulative IPC: 1.788 (Simulation time: 00 hr 39 min 18 sec)
Heartbeat CPU 0 instructions: 390000000 cycles: 205620490 heartbeat IPC: 1.165 cumulative IPC: 1.761 (Simulation time: 00 hr 40 min 48 sec)
Heartbeat CPU 0 instructions: 400000002 cycles: 214566338 heartbeat IPC: 1.118 cumulative IPC: 1.732 (Simulation time: 00 hr 42 min 22 sec)
Heartbeat CPU 0 instructions: 410000000 cycles: 223482429 heartbeat IPC: 1.122 cumulative IPC: 1.706 (Simulation time: 00 hr 43 min 54 sec)
Heartbeat CPU 0 instructions: 420000000 cycles: 232390206 heartbeat IPC: 1.123 cumulative IPC: 1.683 (Simulation time: 00 hr 45 min 25 sec)
Heartbeat CPU 0 instructions: 430000002 cycles: 241337756 heartbeat IPC: 1.118 cumulative IPC: 1.661 (Simulation time: 00 hr 47 min 01 sec)
Heartbeat CPU 0 instructions: 440000004 cycles: 392743368 heartbeat IPC: 0.06605 cumulative IPC: 1.026 (Simulation time: 01 hr 05 min 56 sec)
Heartbeat CPU 0 instructions: 450000003 cycles: 402762765 heartbeat IPC: 0.9981 cumulative IPC: 1.025 (Simulation time: 01 hr 07 min 35 sec)
Heartbeat CPU 0 instructions: 460000004 cycles: 412090593 heartbeat IPC: 1.072 cumulative IPC: 1.026 (Simulation time: 01 hr 09 min 09 sec)
Heartbeat CPU 0 instructions: 470000001 cycles: 421905858 heartbeat IPC: 1.019 cumulative IPC: 1.026 (Simulation time: 01 hr 10 min 47 sec)
Heartbeat CPU 0 instructions: 480000000 cycles: 431096965 heartbeat IPC: 1.088 cumulative IPC: 1.027 (Simulation time: 01 hr 12 min 17 sec)
Heartbeat CPU 0 instructions: 490000000 cycles: 441304569 heartbeat IPC: 0.9797 cumulative IPC: 1.026 (Simulation time: 01 hr 13 min 55 sec)
Heartbeat CPU 0 instructions: 500000003 cycles: 453790732 heartbeat IPC: 0.8009 cumulative IPC: 1.02 (Simulation time: 01 hr 15 min 53 sec)
Heartbeat CPU 0 instructions: 510000004 cycles: 465870814 heartbeat IPC: 0.8278 cumulative IPC: 1.015 (Simulation time: 01 hr 17 min 48 sec)
Heartbeat CPU 0 instructions: 520000000 cycles: 478499913 heartbeat IPC: 0.7918 cumulative IPC: 1.009 (Simulation time: 01 hr 19 min 48 sec)
Heartbeat CPU 0 instructions: 530000004 cycles: 490732135 heartbeat IPC: 0.8175 cumulative IPC: 1.004 (Simulation time: 01 hr 21 min 46 sec)
Heartbeat CPU 0 instructions: 540000002 cycles: 503142544 heartbeat IPC: 0.8058 cumulative IPC: 0.9987 (Simulation time: 01 hr 23 min 45 sec)
Heartbeat CPU 0 instructions: 550000002 cycles: 512781975 heartbeat IPC: 1.037 cumulative IPC: 0.9994 (Simulation time: 01 hr 25 min 29 sec)
Heartbeat CPU 0 instructions: 560000000 cycles: 522406456 heartbeat IPC: 1.039 cumulative IPC: 1 (Simulation time: 01 hr 27 min 15 sec)
Heartbeat CPU 0 instructions: 570000002 cycles: 532079342 heartbeat IPC: 1.034 cumulative IPC: 1.001 (Simulation time: 01 hr 29 min 01 sec)
Heartbeat CPU 0 instructions: 580000002 cycles: 541794018 heartbeat IPC: 1.029 cumulative IPC: 1.001 (Simulation time: 01 hr 30 min 48 sec)
Heartbeat CPU 0 instructions: 590000003 cycles: 551390599 heartbeat IPC: 1.042 cumulative IPC: 1.002 (Simulation time: 01 hr 32 min 31 sec)
*** Reached end of trace: (0, "traces/lu.A.champsimtrace")
Heartbeat CPU 0 instructions: 600000001 cycles: 561227174 heartbeat IPC: 1.017 cumulative IPC: 1.002 (Simulation time: 01 hr 34 min 16 sec)
Heartbeat CPU 0 instructions: 610000000 cycles: 567177328 heartbeat IPC: 1.681 cumulative IPC: 1.01 (Simulation time: 01 hr 35 min 25 sec)
Heartbeat CPU 0 instructions: 620000000 cycles: 569677329 heartbeat IPC: 4 cumulative IPC: 1.023 (Simulation time: 01 hr 36 min 12 sec)
Heartbeat CPU 0 instructions: 630000004 cycles: 572177330 heartbeat IPC: 4 cumulative IPC: 1.036 (Simulation time: 01 hr 36 min 56 sec)
Heartbeat CPU 0 instructions: 640000002 cycles: 574677330 heartbeat IPC: 4 cumulative IPC: 1.049 (Simulation time: 01 hr 37 min 40 sec)
Heartbeat CPU 0 instructions: 650000001 cycles: 577177501 heartbeat IPC: 4 cumulative IPC: 1.063 (Simulation time: 01 hr 38 min 25 sec)
Simulation finished CPU 0 instructions: 600000001 cycles: 564677299 cumulative IPC: 1.063 (Simulation time: 01 hr 38 min 25 sec)
Simulation complete CPU 0 instructions: 600000001 cycles: 564677299 cumulative IPC: 1.063 (Simulation time: 01 hr 38 min 25 sec)

ChampSim completed all CPUs

=== Simulation ===
CPU 0 runs traces/lu.A.champsimtrace
Region of Interest Statistics

CPU 0 cumulative IPC: 1.063 instructions: 600000001 cycles: 564677299
CPU 0 Branch Prediction Accuracy: 99.98% MPKI: 0.004037 Average ROB Occupancy at Mispredict: 116.8
Branch type MPKI
BRANCH_DIRECT_JUMP: 5e-06
BRANCH_INDIRECT: 7.33e-05
BRANCH_CONDITIONAL: 0.0039
BRANCH_DIRECT_CALL: 6.67e-06
BRANCH_INDIRECT_CALL: 3.17e-05
BRANCH_RETURN: 1.83e-05

LLC TOTAL        ACCESS:    7718292 HIT:    3464542 MISS:    4253750
LLC LOAD         ACCESS:    2481368 HIT:    1417533 MISS:    1063835
LLC RFO          ACCESS:     831674 HIT:      45842 MISS:     785832
LLC PREFETCH     ACCESS:    2611031 HIT:     210194 MISS:    2400837
LLC WRITE        ACCESS:    1782353 HIT:    1781587 MISS:        766
LLC TRANSLATION  ACCESS:      11866 HIT:       9386 MISS:       2480
LLC PREFETCH REQUESTED:    4359337 ISSUED:    2611031 USEFUL:    1755286 USELESS:      36288
LLC AVERAGE MISS LATENCY: 1640 cycles
cpu0_DTLB TOTAL        ACCESS:  124999887 HIT:  117619727 MISS:    7380160
cpu0_DTLB LOAD         ACCESS:  124999887 HIT:  117619727 MISS:    7380160
cpu0_DTLB RFO          ACCESS:          0 HIT:          0 MISS:          0
cpu0_DTLB PREFETCH     ACCESS:          0 HIT:          0 MISS:          0
cpu0_DTLB WRITE        ACCESS:          0 HIT:          0 MISS:          0
cpu0_DTLB TRANSLATION  ACCESS:          0 HIT:          0 MISS:          0
cpu0_DTLB PREFETCH REQUESTED:          0 ISSUED:          0 USEFUL:          0 USELESS:          0
cpu0_DTLB AVERAGE MISS LATENCY: 5.464 cycles
cpu0_ITLB TOTAL        ACCESS:    1251455 HIT:    1251226 MISS:        229
cpu0_ITLB LOAD         ACCESS:    1251455 HIT:    1251226 MISS:        229
cpu0_ITLB RFO          ACCESS:          0 HIT:          0 MISS:          0
cpu0_ITLB PREFETCH     ACCESS:          0 HIT:          0 MISS:          0
cpu0_ITLB WRITE        ACCESS:          0 HIT:          0 MISS:          0
cpu0_ITLB TRANSLATION  ACCESS:          0 HIT:          0 MISS:          0
cpu0_ITLB PREFETCH REQUESTED:          0 ISSUED:          0 USEFUL:          0 USELESS:          0
cpu0_ITLB AVERAGE MISS LATENCY: 280.8 cycles
cpu0_L1D TOTAL        ACCESS:  179015263 HIT:  169334187 MISS:    9681076
cpu0_L1D LOAD         ACCESS:  141963065 HIT:  136087159 MISS:    5875906
cpu0_L1D RFO          ACCESS:          0 HIT:          0 MISS:          0
cpu0_L1D PREFETCH     ACCESS:          0 HIT:          0 MISS:          0
cpu0_L1D WRITE        ACCESS:   36999599 HIT:   33219354 MISS:    3780245
cpu0_L1D TRANSLATION  ACCESS:      52599 HIT:      27674 MISS:      24925
cpu0_L1D PREFETCH REQUESTED:          0 ISSUED:          0 USEFUL:          0 USELESS:          0
cpu0_L1D AVERAGE MISS LATENCY: 285.9 cycles
cpu0_L1I TOTAL        ACCESS:    1575774 HIT:    1572893 MISS:       2881
cpu0_L1I LOAD         ACCESS:    1575774 HIT:    1572893 MISS:       2881
cpu0_L1I RFO          ACCESS:          0 HIT:          0 MISS:          0
cpu0_L1I PREFETCH     ACCESS:          0 HIT:          0 MISS:          0
cpu0_L1I WRITE        ACCESS:          0 HIT:          0 MISS:          0
cpu0_L1I TRANSLATION  ACCESS:          0 HIT:          0 MISS:          0
cpu0_L1I PREFETCH REQUESTED:          0 ISSUED:          0 USEFUL:          0 USELESS:          0
cpu0_L1I AVERAGE MISS LATENCY: 398.9 cycles
cpu0_L2C TOTAL        ACCESS:    5991871 HIT:    2662689 MISS:    3329182
cpu0_L2C LOAD         ACCESS:    3069990 HIT:     588620 MISS:    2481370
cpu0_L2C RFO          ACCESS:     877673 HIT:      45999 MISS:     831674
cpu0_L2C PREFETCH     ACCESS:          0 HIT:          0 MISS:          0
cpu0_L2C WRITE        ACCESS:    2019330 HIT:    2015058 MISS:       4272
cpu0_L2C TRANSLATION  ACCESS:      24878 HIT:      13012 MISS:      11866
cpu0_L2C PREFETCH REQUESTED:          0 ISSUED:          0 USEFUL:          0 USELESS:          0
cpu0_L2C AVERAGE MISS LATENCY: 894 cycles
cpu0_STLB TOTAL        ACCESS:    3992637 HIT:    3940051 MISS:      52586
cpu0_STLB LOAD         ACCESS:    3992637 HIT:    3940051 MISS:      52586
cpu0_STLB RFO          ACCESS:          0 HIT:          0 MISS:          0
cpu0_STLB PREFETCH     ACCESS:          0 HIT:          0 MISS:          0
cpu0_STLB WRITE        ACCESS:          0 HIT:          0 MISS:          0
cpu0_STLB TRANSLATION  ACCESS:          0 HIT:          0 MISS:          0
cpu0_STLB PREFETCH REQUESTED:          0 ISSUED:          0 USEFUL:          0 USELESS:          0
cpu0_STLB AVERAGE MISS LATENCY: 536.2 cycles

DRAM Statistics

Channel 0 RQ ROW_BUFFER_HIT:     774064
  ROW_BUFFER_MISS:    2370839
 AVG DBUS CONGESTED CYCLE: 3.975
WQ ROW_BUFFER_HIT: Channel 0 
  ROW_BUFFER_MISS:     313569
  FULL:    1356325
