WARNING: physical memory size is smaller than virtual memory size.

*** ChampSim Multicore Out-of-Order Simulator ***
Warmup Instructions: 50000000
Simulation Instructions: 600000000
Number of CPUs: 1
Page size: 4096

Off-chip DRAM Size: 4 GiB Channels: 1 Width: 64-bit Data Race: 3200 MT/s
Heartbeat CPU 0 instructions: 10000000 cycles: 2500202 heartbeat IPC: 4 cumulative IPC: 4 (Simulation time: 00 hr 00 min 56 sec)
Heartbeat CPU 0 instructions: 20000000 cycles: 5000202 heartbeat IPC: 4 cumulative IPC: 4 (Simulation time: 00 hr 01 min 46 sec)
Heartbeat CPU 0 instructions: 30000000 cycles: 7500202 heartbeat IPC: 4 cumulative IPC: 4 (Simulation time: 00 hr 02 min 33 sec)
Heartbeat CPU 0 instructions: 40000000 cycles: 10000202 heartbeat IPC: 4 cumulative IPC: 4 (Simulation time: 00 hr 03 min 19 sec)
Heartbeat CPU 0 instructions: 50000000 cycles: 12500202 heartbeat IPC: 4 cumulative IPC: 4 (Simulation time: 00 hr 04 min 06 sec)
Warmup finished CPU 0 instructions: 50000000 cycles: 12500203 cumulative IPC: 4 (Simulation time: 00 hr 04 min 06 sec)
Warmup complete CPU 0 instructions: 50000000 cycles: 12500203 cumulative IPC: 4 (Simulation time: 00 hr 04 min 06 sec)
Heartbeat CPU 0 instructions: 60000004 cycles: 15002386 heartbeat IPC: 3.997 cumulative IPC: 3.997 (Simulation time: 00 hr 04 min 59 sec)
Heartbeat CPU 0 instructions: 70000001 cycles: 17504700 heartbeat IPC: 3.996 cumulative IPC: 3.996 (Simulation time: 00 hr 05 min 54 sec)
Heartbeat CPU 0 instructions: 80000004 cycles: 20007221 heartbeat IPC: 3.996 cumulative IPC: 3.996 (Simulation time: 00 hr 06 min 48 sec)
Heartbeat CPU 0 instructions: 90000000 cycles: 22509529 heartbeat IPC: 3.996 cumulative IPC: 3.996 (Simulation time: 00 hr 07 min 42 sec)
Heartbeat CPU 0 instructions: 100000004 cycles: 25011735 heartbeat IPC: 3.996 cumulative IPC: 3.996 (Simulation time: 00 hr 08 min 36 sec)
Heartbeat CPU 0 instructions: 110000003 cycles: 27515460 heartbeat IPC: 3.994 cumulative IPC: 3.996 (Simulation time: 00 hr 09 min 30 sec)
Heartbeat CPU 0 instructions: 120000004 cycles: 30018260 heartbeat IPC: 3.996 cumulative IPC: 3.996 (Simulation time: 00 hr 10 min 24 sec)
Heartbeat CPU 0 instructions: 130000000 cycles: 32520917 heartbeat IPC: 3.996 cumulative IPC: 3.996 (Simulation time: 00 hr 11 min 17 sec)
Heartbeat CPU 0 instructions: 140000004 cycles: 35022659 heartbeat IPC: 3.997 cumulative IPC: 3.996 (Simulation time: 00 hr 12 min 11 sec)
Heartbeat CPU 0 instructions: 150000000 cycles: 37524608 heartbeat IPC: 3.997 cumulative IPC: 3.996 (Simulation time: 00 hr 13 min 05 sec)
Heartbeat CPU 0 instructions: 160000001 cycles: 40028351 heartbeat IPC: 3.994 cumulative IPC: 3.996 (Simulation time: 00 hr 13 min 59 sec)
Heartbeat CPU 0 instructions: 170000000 cycles: 42530774 heartbeat IPC: 3.996 cumulative IPC: 3.996 (Simulation time: 00 hr 14 min 53 sec)
Heartbeat CPU 0 instructions: 180000003 cycles: 45032770 heartbeat IPC: 3.997 cumulative IPC: 3.996 (Simulation time: 00 hr 15 min 47 sec)
Heartbeat CPU 0 instructions: 190000003 cycles: 47536597 heartbeat IPC: 3.994 cumulative IPC: 3.996 (Simulation time: 00 hr 16 min 42 sec)
Heartbeat CPU 0 instructions: 200000002 cycles: 50039593 heartbeat IPC: 3.995 cumulative IPC: 3.996 (Simulation time: 00 hr 17 min 35 sec)
Heartbeat CPU 0 instructions: 210000000 cycles: 52542856 heartbeat IPC: 3.995 cumulative IPC: 3.996 (Simulation time: 00 hr 18 min 30 sec)
Heartbeat CPU 0 instructions: 220000002 cycles: 55046006 heartbeat IPC: 3.995 cumulative IPC: 3.996 (Simulation time: 00 hr 19 min 24 sec)
Heartbeat CPU 0 instructions: 230000003 cycles: 57548137 heartbeat IPC: 3.997 cumulative IPC: 3.996 (Simulation time: 00 hr 20 min 17 sec)
Heartbeat CPU 0 instructions: 240000002 cycles: 88522647 heartbeat IPC: 0.3228 cumulative IPC: 2.499 (Simulation time: 00 hr 25 min 32 sec)
Heartbeat CPU 0 instructions: 250000000 cycles: 97598387 heartbeat IPC: 1.102 cumulative IPC: 2.35 (Simulation time: 00 hr 27 min 42 sec)
Heartbeat CPU 0 instructions: 260000003 cycles: 106658936 heartbeat IPC: 1.104 cumulative IPC: 2.23 (Simulation time: 00 hr 29 min 53 sec)
Heartbeat CPU 0 instructions: 270000000 cycles: 114554907 heartbeat IPC: 1.266 cumulative IPC: 2.156 (Simulation time: 00 hr 31 min 51 sec)
Heartbeat CPU 0 instructions: 280000003 cycles: 121080966 heartbeat IPC: 1.532 cumulative IPC: 2.118 (Simulation time: 00 hr 33 min 34 sec)
Heartbeat CPU 0 instructions: 290000000 cycles: 127647482 heartbeat IPC: 1.523 cumulative IPC: 2.084 (Simulation time: 00 hr 35 min 17 sec)
Heartbeat CPU 0 instructions: 300000002 cycles: 134380162 heartbeat IPC: 1.485 cumulative IPC: 2.051 (Simulation time: 00 hr 37 min 02 sec)
Heartbeat CPU 0 instructions: 310000002 cycles: 141034742 heartbeat IPC: 1.503 cumulative IPC: 2.023 (Simulation time: 00 hr 38 min 46 sec)
Heartbeat CPU 0 instructions: 320000004 cycles: 148208387 heartbeat IPC: 1.394 cumulative IPC: 1.99 (Simulation time: 00 hr 40 min 39 sec)
Heartbeat CPU 0 instructions: 330000003 cycles: 156352593 heartbeat IPC: 1.228 cumulative IPC: 1.946 (Simulation time: 00 hr 42 min 43 sec)
Heartbeat CPU 0 instructions: 340000001 cycles: 164369132 heartbeat IPC: 1.247 cumulative IPC: 1.91 (Simulation time: 00 hr 44 min 48 sec)
Heartbeat CPU 0 instructions: 350000001 cycles: 172380888 heartbeat IPC: 1.248 cumulative IPC: 1.876 (Simulation time: 00 hr 46 min 51 sec)
Heartbeat CPU 0 instructions: 360000000 cycles: 180432954 heartbeat IPC: 1.242 cumulative IPC: 1.846 (Simulation time: 00 hr 48 min 55 sec)
Heartbeat CPU 0 instructions: 370000002 cycles: 188390883 heartbeat IPC: 1.257 cumulative IPC: 1.819 (Simulation time: 00 hr 50 min 59 sec)
Heartbeat CPU 0 instructions: 380000001 cycles: 196763080 heartbeat IPC: 1.194 cumulative IPC: 1.791 (Simulation time: 00 hr 53 min 07 sec)
Heartbeat CPU 0 instructions: 390000003 cycles: 205524632 heartbeat IPC: 1.141 cumulative IPC: 1.761 (Simulation time: 00 hr 55 min 19 sec)
Heartbeat CPU 0 instructions: 400000004 cycles: 214120967 heartbeat IPC: 1.163 cumulative IPC: 1.736 (Simulation time: 00 hr 57 min 28 sec)
Heartbeat CPU 0 instructions: 410000001 cycles: 222881517 heartbeat IPC: 1.141 cumulative IPC: 1.711 (Simulation time: 00 hr 59 min 41 sec)
Heartbeat CPU 0 instructions: 420000000 cycles: 231383052 heartbeat IPC: 1.176 cumulative IPC: 1.69 (Simulation time: 01 hr 01 min 49 sec)
Heartbeat CPU 0 instructions: 430000001 cycles: 240198721 heartbeat IPC: 1.134 cumulative IPC: 1.669 (Simulation time: 01 hr 04 min 02 sec)
Heartbeat CPU 0 instructions: 440000004 cycles: 379363190 heartbeat IPC: 0.07186 cumulative IPC: 1.063 (Simulation time: 01 hr 29 min 30 sec)
Heartbeat CPU 0 instructions: 450000002 cycles: 388069411 heartbeat IPC: 1.149 cumulative IPC: 1.065 (Simulation time: 01 hr 31 min 23 sec)
Heartbeat CPU 0 instructions: 460000002 cycles: 396981132 heartbeat IPC: 1.122 cumulative IPC: 1.066 (Simulation time: 01 hr 33 min 19 sec)
Heartbeat CPU 0 instructions: 470000003 cycles: 405786132 heartbeat IPC: 1.136 cumulative IPC: 1.068 (Simulation time: 01 hr 35 min 14 sec)
Heartbeat CPU 0 instructions: 480000003 cycles: 414773552 heartbeat IPC: 1.113 cumulative IPC: 1.069 (Simulation time: 01 hr 37 min 10 sec)
Heartbeat CPU 0 instructions: 490000001 cycles: 423882502 heartbeat IPC: 1.098 cumulative IPC: 1.07 (Simulation time: 01 hr 39 min 08 sec)
Heartbeat CPU 0 instructions: 500000003 cycles: 440311877 heartbeat IPC: 0.6087 cumulative IPC: 1.052 (Simulation time: 01 hr 42 min 24 sec)
Heartbeat CPU 0 instructions: 510000003 cycles: 457625816 heartbeat IPC: 0.5776 cumulative IPC: 1.033 (Simulation time: 01 hr 45 min 38 sec)
Heartbeat CPU 0 instructions: 520000003 cycles: 475034370 heartbeat IPC: 0.5744 cumulative IPC: 1.016 (Simulation time: 01 hr 48 min 40 sec)
Heartbeat CPU 0 instructions: 530000002 cycles: 492297176 heartbeat IPC: 0.5793 cumulative IPC: 1 (Simulation time: 01 hr 51 min 42 sec)
Heartbeat CPU 0 instructions: 540000002 cycles: 509470592 heartbeat IPC: 0.5823 cumulative IPC: 0.986 (Simulation time: 01 hr 54 min 43 sec)
Heartbeat CPU 0 instructions: 550000000 cycles: 522305928 heartbeat IPC: 0.7791 cumulative IPC: 0.9808 (Simulation time: 01 hr 57 min 01 sec)
Heartbeat CPU 0 instructions: 560000002 cycles: 533636952 heartbeat IPC: 0.8825 cumulative IPC: 0.9786 (Simulation time: 01 hr 59 min 03 sec)
Heartbeat CPU 0 instructions: 570000000 cycles: 544806313 heartbeat IPC: 0.8953 cumulative IPC: 0.9769 (Simulation time: 02 hr 01 min 04 sec)
Heartbeat CPU 0 instructions: 580000001 cycles: 555975105 heartbeat IPC: 0.8954 cumulative IPC: 0.9752 (Simulation time: 02 hr 03 min 06 sec)
Heartbeat CPU 0 instructions: 590000000 cycles: 567052947 heartbeat IPC: 0.9027 cumulative IPC: 0.9738 (Simulation time: 02 hr 05 min 08 sec)
*** Reached end of trace: (0, "traces/lu.A.champsimtrace")
Heartbeat CPU 0 instructions: 600000001 cycles: 578135178 heartbeat IPC: 0.9023 cumulative IPC: 0.9724 (Simulation time: 02 hr 07 min 08 sec)
Heartbeat CPU 0 instructions: 610000004 cycles: 588376977 heartbeat IPC: 0.9764 cumulative IPC: 0.9724 (Simulation time: 02 hr 08 min 54 sec)
Heartbeat CPU 0 instructions: 620000003 cycles: 590880158 heartbeat IPC: 3.995 cumulative IPC: 0.9855 (Simulation time: 02 hr 09 min 36 sec)
Heartbeat CPU 0 instructions: 630000002 cycles: 593383018 heartbeat IPC: 3.995 cumulative IPC: 0.9985 (Simulation time: 02 hr 10 min 18 sec)
Heartbeat CPU 0 instructions: 640000000 cycles: 595885079 heartbeat IPC: 3.997 cumulative IPC: 1.011 (Simulation time: 02 hr 11 min 00 sec)
Heartbeat CPU 0 instructions: 650000004 cycles: 598387513 heartbeat IPC: 3.996 cumulative IPC: 1.024 (Simulation time: 02 hr 11 min 42 sec)
Simulation finished CPU 0 instructions: 600000004 cycles: 585887311 cumulative IPC: 1.024 (Simulation time: 02 hr 11 min 42 sec)
Simulation complete CPU 0 instructions: 600000004 cycles: 585887311 cumulative IPC: 1.024 (Simulation time: 02 hr 11 min 42 sec)

ChampSim completed all CPUs

=== Simulation ===
CPU 0 runs traces/lu.A.champsimtrace
Region of Interest Statistics

CPU 0 cumulative IPC: 1.024 instructions: 600000004 cycles: 585887311
CPU 0 Branch Prediction Accuracy: 98.73% MPKI: 0.2427 Average ROB Occupancy at Mispredict: 326.4
Branch type MPKI
BRANCH_DIRECT_JUMP: 5e-06
BRANCH_INDIRECT: 7.83e-05
BRANCH_CONDITIONAL: 0.243
BRANCH_DIRECT_CALL: 6.67e-06
BRANCH_INDIRECT_CALL: 3.5e-05
BRANCH_RETURN: 1.83e-05

LLC TOTAL        ACCESS:    5107722 HIT:     246173 MISS:    4861549
LLC LOAD         ACCESS:    2481910 HIT:     114952 MISS:    2366958
LLC RFO          ACCESS:     831689 HIT:       8604 MISS:     823085
LLC PREFETCH     ACCESS:          0 HIT:          0 MISS:          0
LLC WRITE        ACCESS:    1782313 HIT:     122367 MISS:    1659946
LLC TRANSLATION  ACCESS:      11810 HIT:        250 MISS:      11560
LLC PREFETCH REQUESTED:          0 ISSUED:          0 USEFUL:          0 USELESS:          0
LLC AVERAGE MISS LATENCY: 682.8 cycles
cpu0_DTLB TOTAL        ACCESS:  123182266 HIT:  115929069 MISS:    7253197
cpu0_DTLB LOAD         ACCESS:  123182266 HIT:  115929069 MISS:    7253197
cpu0_DTLB RFO          ACCESS:          0 HIT:          0 MISS:          0
cpu0_DTLB PREFETCH     ACCESS:          0 HIT:          0 MISS:          0
cpu0_DTLB WRITE        ACCESS:          0 HIT:          0 MISS:          0
cpu0_DTLB TRANSLATION  ACCESS:          0 HIT:          0 MISS:          0
cpu0_DTLB PREFETCH REQUESTED:          0 ISSUED:          0 USEFUL:          0 USELESS:          0
cpu0_DTLB AVERAGE MISS LATENCY: 7.209 cycles
cpu0_ITLB TOTAL        ACCESS:     719706 HIT:     719504 MISS:        202
cpu0_ITLB LOAD         ACCESS:     719706 HIT:     719504 MISS:        202
cpu0_ITLB RFO          ACCESS:          0 HIT:          0 MISS:          0
cpu0_ITLB PREFETCH     ACCESS:          0 HIT:          0 MISS:          0
cpu0_ITLB WRITE        ACCESS:          0 HIT:          0 MISS:          0
cpu0_ITLB TRANSLATION  ACCESS:          0 HIT:          0 MISS:          0
cpu0_ITLB PREFETCH REQUESTED:          0 ISSUED:          0 USEFUL:          0 USELESS:          0
cpu0_ITLB AVERAGE MISS LATENCY: 325.7 cycles
cpu0_L1D TOTAL        ACCESS:  176218467 HIT:  166668937 MISS:    9549530
cpu0_L1D LOAD         ACCESS:  139165859 HIT:  133392264 MISS:    5773595
cpu0_L1D RFO          ACCESS:          0 HIT:          0 MISS:          0
cpu0_L1D PREFETCH     ACCESS:          0 HIT:          0 MISS:          0
cpu0_L1D WRITE        ACCESS:   37000016 HIT:   33248980 MISS:    3751036
cpu0_L1D TRANSLATION  ACCESS:      52592 HIT:      27693 MISS:      24899
cpu0_L1D PREFETCH REQUESTED:          0 ISSUED:          0 USEFUL:          0 USELESS:          0
cpu0_L1D AVERAGE MISS LATENCY: 333.4 cycles
cpu0_L1I TOTAL        ACCESS:    1106030 HIT:    1103325 MISS:       2705
cpu0_L1I LOAD         ACCESS:    1106030 HIT:    1103325 MISS:       2705
cpu0_L1I RFO          ACCESS:          0 HIT:          0 MISS:          0
cpu0_L1I PREFETCH     ACCESS:          0 HIT:          0 MISS:          0
cpu0_L1I WRITE        ACCESS:          0 HIT:          0 MISS:          0
cpu0_L1I TRANSLATION  ACCESS:          0 HIT:          0 MISS:          0
cpu0_L1I PREFETCH REQUESTED:          0 ISSUED:          0 USEFUL:          0 USELESS:          0
cpu0_L1I AVERAGE MISS LATENCY: 548.4 cycles
cpu0_L2C TOTAL        ACCESS:    5941193 HIT:    2611578 MISS:    3329615
cpu0_L2C LOAD         ACCESS:    3052631 HIT:     570721 MISS:    2481910
cpu0_L2C RFO          ACCESS:     872254 HIT:      40565 MISS:     831689
cpu0_L2C PREFETCH     ACCESS:          0 HIT:          0 MISS:          0
cpu0_L2C WRITE        ACCESS:    1991460 HIT:    1987254 MISS:       4206
cpu0_L2C TRANSLATION  ACCESS:      24848 HIT:      13038 MISS:      11810
cpu0_L2C PREFETCH REQUESTED:          0 ISSUED:          0 USEFUL:          0 USELESS:          0
cpu0_L2C AVERAGE MISS LATENCY: 1018 cycles
cpu0_STLB TOTAL        ACCESS:    4000979 HIT:    3948397 MISS:      52582
cpu0_STLB LOAD         ACCESS:    4000979 HIT:    3948397 MISS:      52582
cpu0_STLB RFO          ACCESS:          0 HIT:          0 MISS:          0
cpu0_STLB PREFETCH     ACCESS:          0 HIT:          0 MISS:          0
cpu0_STLB WRITE        ACCESS:          0 HIT:          0 MISS:          0
cpu0_STLB TRANSLATION  ACCESS:          0 HIT:          0 MISS:          0
cpu0_STLB PREFETCH REQUESTED:          0 ISSUED:          0 USEFUL:          0 USELESS:          0
cpu0_STLB AVERAGE MISS LATENCY: 841.8 cycles

DRAM Statistics

Channel 0 RQ ROW_BUFFER_HIT:     817112
  ROW_BUFFER_MISS:    2382750
 AVG DBUS CONGESTED CYCLE: 3.93
WQ ROW_BUFFER_HIT: Channel 0 
  ROW_BUFFER_MISS:     431750
  FULL:    1309756
