WARNING: physical memory size is smaller than virtual memory size.

*** ChampSim Multicore Out-of-Order Simulator ***
Warmup Instructions: 50000000
Simulation Instructions: 600000000
Number of CPUs: 1
Page size: 4096

Off-chip DRAM Size: 4 GiB Channels: 1 Width: 64-bit Data Race: 3200 MT/s
Heartbeat CPU 0 instructions: 10000000 cycles: 2500202 heartbeat IPC: 4 cumulative IPC: 4 (Simulation time: 00 hr 00 min 33 sec)
Heartbeat CPU 0 instructions: 20000000 cycles: 5000202 heartbeat IPC: 4 cumulative IPC: 4 (Simulation time: 00 hr 01 min 07 sec)
Heartbeat CPU 0 instructions: 30000000 cycles: 7500202 heartbeat IPC: 4 cumulative IPC: 4 (Simulation time: 00 hr 01 min 40 sec)
Heartbeat CPU 0 instructions: 40000000 cycles: 10000202 heartbeat IPC: 4 cumulative IPC: 4 (Simulation time: 00 hr 02 min 13 sec)
Heartbeat CPU 0 instructions: 50000000 cycles: 12500202 heartbeat IPC: 4 cumulative IPC: 4 (Simulation time: 00 hr 02 min 45 sec)
Warmup finished CPU 0 instructions: 50000000 cycles: 12500203 cumulative IPC: 4 (Simulation time: 00 hr 02 min 45 sec)
Warmup complete CPU 0 instructions: 50000000 cycles: 12500203 cumulative IPC: 4 (Simulation time: 00 hr 02 min 45 sec)
Heartbeat CPU 0 instructions: 60000004 cycles: 15134822 heartbeat IPC: 3.796 cumulative IPC: 3.796 (Simulation time: 00 hr 03 min 24 sec)
Heartbeat CPU 0 instructions: 70000003 cycles: 17769446 heartbeat IPC: 3.796 cumulative IPC: 3.796 (Simulation time: 00 hr 04 min 02 sec)
Heartbeat CPU 0 instructions: 80000003 cycles: 20404096 heartbeat IPC: 3.796 cumulative IPC: 3.796 (Simulation time: 00 hr 04 min 40 sec)
Heartbeat CPU 0 instructions: 90000004 cycles: 23039194 heartbeat IPC: 3.795 cumulative IPC: 3.795 (Simulation time: 00 hr 05 min 18 sec)
Heartbeat CPU 0 instructions: 100000002 cycles: 25674007 heartbeat IPC: 3.795 cumulative IPC: 3.795 (Simulation time: 00 hr 05 min 55 sec)
Heartbeat CPU 0 instructions: 110000003 cycles: 28309106 heartbeat IPC: 3.795 cumulative IPC: 3.795 (Simulation time: 00 hr 06 min 34 sec)
Heartbeat CPU 0 instructions: 120000004 cycles: 30944896 heartbeat IPC: 3.794 cumulative IPC: 3.795 (Simulation time: 00 hr 07 min 12 sec)
Heartbeat CPU 0 instructions: 130000000 cycles: 33579949 heartbeat IPC: 3.795 cumulative IPC: 3.795 (Simulation time: 00 hr 07 min 54 sec)
Heartbeat CPU 0 instructions: 140000004 cycles: 36215031 heartbeat IPC: 3.795 cumulative IPC: 3.795 (Simulation time: 00 hr 08 min 34 sec)
Heartbeat CPU 0 instructions: 150000000 cycles: 38850602 heartbeat IPC: 3.794 cumulative IPC: 3.795 (Simulation time: 00 hr 09 min 13 sec)
Heartbeat CPU 0 instructions: 160000001 cycles: 41485934 heartbeat IPC: 3.795 cumulative IPC: 3.795 (Simulation time: 00 hr 09 min 53 sec)
Heartbeat CPU 0 instructions: 170000000 cycles: 44120560 heartbeat IPC: 3.796 cumulative IPC: 3.795 (Simulation time: 00 hr 10 min 30 sec)
Heartbeat CPU 0 instructions: 180000003 cycles: 46755203 heartbeat IPC: 3.796 cumulative IPC: 3.795 (Simulation time: 00 hr 11 min 08 sec)
Heartbeat CPU 0 instructions: 190000000 cycles: 49389830 heartbeat IPC: 3.796 cumulative IPC: 3.795 (Simulation time: 00 hr 11 min 46 sec)
Heartbeat CPU 0 instructions: 200000004 cycles: 52024683 heartbeat IPC: 3.795 cumulative IPC: 3.795 (Simulation time: 00 hr 12 min 25 sec)
Heartbeat CPU 0 instructions: 210000004 cycles: 54659764 heartbeat IPC: 3.795 cumulative IPC: 3.795 (Simulation time: 00 hr 13 min 04 sec)
Heartbeat CPU 0 instructions: 220000001 cycles: 57295069 heartbeat IPC: 3.795 cumulative IPC: 3.795 (Simulation time: 00 hr 13 min 43 sec)
Heartbeat CPU 0 instructions: 230000002 cycles: 59930169 heartbeat IPC: 3.795 cumulative IPC: 3.795 (Simulation time: 00 hr 14 min 23 sec)
Heartbeat CPU 0 instructions: 240000003 cycles: 96509416 heartbeat IPC: 0.2734 cumulative IPC: 2.262 (Simulation time: 00 hr 18 min 17 sec)
Heartbeat CPU 0 instructions: 250000001 cycles: 106645772 heartbeat IPC: 0.9865 cumulative IPC: 2.124 (Simulation time: 00 hr 19 min 55 sec)
Heartbeat CPU 0 instructions: 260000001 cycles: 116796248 heartbeat IPC: 0.9852 cumulative IPC: 2.013 (Simulation time: 00 hr 21 min 32 sec)
Heartbeat CPU 0 instructions: 270000001 cycles: 129344520 heartbeat IPC: 0.7969 cumulative IPC: 1.883 (Simulation time: 00 hr 23 min 29 sec)
Heartbeat CPU 0 instructions: 280000002 cycles: 141253037 heartbeat IPC: 0.8397 cumulative IPC: 1.786 (Simulation time: 00 hr 25 min 21 sec)
Heartbeat CPU 0 instructions: 290000001 cycles: 151822104 heartbeat IPC: 0.9462 cumulative IPC: 1.723 (Simulation time: 00 hr 27 min 02 sec)
Heartbeat CPU 0 instructions: 300000002 cycles: 161826087 heartbeat IPC: 0.9996 cumulative IPC: 1.674 (Simulation time: 00 hr 28 min 41 sec)
Heartbeat CPU 0 instructions: 310000001 cycles: 171646069 heartbeat IPC: 1.018 cumulative IPC: 1.634 (Simulation time: 00 hr 30 min 22 sec)
Heartbeat CPU 0 instructions: 320000000 cycles: 181203601 heartbeat IPC: 1.046 cumulative IPC: 1.6 (Simulation time: 00 hr 32 min 00 sec)
Heartbeat CPU 0 instructions: 330000002 cycles: 189875452 heartbeat IPC: 1.153 cumulative IPC: 1.579 (Simulation time: 00 hr 33 min 33 sec)
Heartbeat CPU 0 instructions: 340000004 cycles: 198591962 heartbeat IPC: 1.147 cumulative IPC: 1.558 (Simulation time: 00 hr 35 min 05 sec)
Heartbeat CPU 0 instructions: 350000003 cycles: 207300615 heartbeat IPC: 1.148 cumulative IPC: 1.54 (Simulation time: 00 hr 36 min 36 sec)
Heartbeat CPU 0 instructions: 360000001 cycles: 216010327 heartbeat IPC: 1.148 cumulative IPC: 1.523 (Simulation time: 00 hr 38 min 06 sec)
Heartbeat CPU 0 instructions: 370000002 cycles: 224709894 heartbeat IPC: 1.149 cumulative IPC: 1.508 (Simulation time: 00 hr 39 min 40 sec)
Heartbeat CPU 0 instructions: 380000003 cycles: 232667841 heartbeat IPC: 1.257 cumulative IPC: 1.499 (Simulation time: 00 hr 41 min 06 sec)
Heartbeat CPU 0 instructions: 390000000 cycles: 240568545 heartbeat IPC: 1.266 cumulative IPC: 1.491 (Simulation time: 00 hr 42 min 30 sec)
Heartbeat CPU 0 instructions: 400000002 cycles: 248674677 heartbeat IPC: 1.234 cumulative IPC: 1.482 (Simulation time: 00 hr 43 min 57 sec)
Heartbeat CPU 0 instructions: 410000002 cycles: 256877679 heartbeat IPC: 1.219 cumulative IPC: 1.473 (Simulation time: 00 hr 45 min 25 sec)
Heartbeat CPU 0 instructions: 420000002 cycles: 265113010 heartbeat IPC: 1.214 cumulative IPC: 1.465 (Simulation time: 00 hr 46 min 54 sec)
Heartbeat CPU 0 instructions: 430000002 cycles: 273399418 heartbeat IPC: 1.207 cumulative IPC: 1.457 (Simulation time: 00 hr 48 min 25 sec)
Heartbeat CPU 0 instructions: 440000004 cycles: 395057512 heartbeat IPC: 0.0822 cumulative IPC: 1.019 (Simulation time: 01 hr 04 min 37 sec)
Heartbeat CPU 0 instructions: 450000003 cycles: 406274969 heartbeat IPC: 0.8915 cumulative IPC: 1.016 (Simulation time: 01 hr 06 min 26 sec)
Heartbeat CPU 0 instructions: 460000004 cycles: 417448779 heartbeat IPC: 0.8949 cumulative IPC: 1.012 (Simulation time: 01 hr 08 min 20 sec)
Heartbeat CPU 0 instructions: 470000002 cycles: 428595020 heartbeat IPC: 0.8972 cumulative IPC: 1.009 (Simulation time: 01 hr 10 min 09 sec)
Heartbeat CPU 0 instructions: 480000004 cycles: 439788314 heartbeat IPC: 0.8934 cumulative IPC: 1.006 (Simulation time: 01 hr 11 min 58 sec)
Heartbeat CPU 0 instructions: 490000002 cycles: 451197779 heartbeat IPC: 0.8765 cumulative IPC: 1.003 (Simulation time: 01 hr 13 min 48 sec)
Heartbeat CPU 0 instructions: 500000003 cycles: 464817778 heartbeat IPC: 0.7342 cumulative IPC: 0.9949 (Simulation time: 01 hr 16 min 00 sec)
Heartbeat CPU 0 instructions: 510000004 cycles: 478321025 heartbeat IPC: 0.7406 cumulative IPC: 0.9875 (Simulation time: 01 hr 18 min 10 sec)
Heartbeat CPU 0 instructions: 520000000 cycles: 492100195 heartbeat IPC: 0.7257 cumulative IPC: 0.98 (Simulation time: 01 hr 20 min 23 sec)
Heartbeat CPU 0 instructions: 530000004 cycles: 505611831 heartbeat IPC: 0.7401 cumulative IPC: 0.9734 (Simulation time: 01 hr 22 min 34 sec)
Heartbeat CPU 0 instructions: 540000002 cycles: 519169644 heartbeat IPC: 0.7376 cumulative IPC: 0.9671 (Simulation time: 01 hr 24 min 42 sec)
Heartbeat CPU 0 instructions: 550000002 cycles: 530082867 heartbeat IPC: 0.9163 cumulative IPC: 0.966 (Simulation time: 01 hr 26 min 23 sec)
Heartbeat CPU 0 instructions: 560000000 cycles: 540779433 heartbeat IPC: 0.9349 cumulative IPC: 0.9654 (Simulation time: 01 hr 27 min 59 sec)
Heartbeat CPU 0 instructions: 570000002 cycles: 551818852 heartbeat IPC: 0.9058 cumulative IPC: 0.9642 (Simulation time: 01 hr 29 min 40 sec)
Heartbeat CPU 0 instructions: 580000003 cycles: 563028298 heartbeat IPC: 0.8921 cumulative IPC: 0.9627 (Simulation time: 01 hr 31 min 20 sec)
Heartbeat CPU 0 instructions: 590000003 cycles: 574321739 heartbeat IPC: 0.8855 cumulative IPC: 0.9612 (Simulation time: 01 hr 32 min 58 sec)
*** Reached end of trace: (0, "traces/lu.A.champsimtrace")
Heartbeat CPU 0 instructions: 600000001 cycles: 585695840 heartbeat IPC: 0.8792 cumulative IPC: 0.9595 (Simulation time: 01 hr 34 min 34 sec)
Heartbeat CPU 0 instructions: 610000000 cycles: 592178459 heartbeat IPC: 1.543 cumulative IPC: 0.9661 (Simulation time: 01 hr 35 min 33 sec)
Heartbeat CPU 0 instructions: 620000000 cycles: 594813287 heartbeat IPC: 3.795 cumulative IPC: 0.9789 (Simulation time: 01 hr 36 min 06 sec)
Heartbeat CPU 0 instructions: 630000004 cycles: 597447926 heartbeat IPC: 3.796 cumulative IPC: 0.9915 (Simulation time: 01 hr 36 min 39 sec)
Heartbeat CPU 0 instructions: 640000002 cycles: 600082549 heartbeat IPC: 3.796 cumulative IPC: 1.004 (Simulation time: 01 hr 37 min 12 sec)
Heartbeat CPU 0 instructions: 650000001 cycles: 602717377 heartbeat IPC: 3.795 cumulative IPC: 1.017 (Simulation time: 01 hr 37 min 44 sec)
Simulation finished CPU 0 instructions: 600000001 cycles: 590217175 cumulative IPC: 1.017 (Simulation time: 01 hr 37 min 44 sec)
Simulation complete CPU 0 instructions: 600000001 cycles: 590217175 cumulative IPC: 1.017 (Simulation time: 01 hr 37 min 44 sec)

ChampSim completed all CPUs

=== Simulation ===
CPU 0 runs traces/lu.A.champsimtrace
Region of Interest Statistics

CPU 0 cumulative IPC: 1.017 instructions: 600000001 cycles: 590217175
CPU 0 Branch Prediction Accuracy: 96.65% MPKI: 0.6426 Average ROB Occupancy at Mispredict: 329.8
Branch type MPKI
BRANCH_DIRECT_JUMP: 5e-06
BRANCH_INDIRECT: 7.33e-05
BRANCH_CONDITIONAL: 0.642
BRANCH_DIRECT_CALL: 6.67e-06
BRANCH_INDIRECT_CALL: 3.17e-05
BRANCH_RETURN: 1.83e-05

LLC TOTAL        ACCESS:    6214082 HIT:    2628901 MISS:    3585181
LLC LOAD         ACCESS:    2481296 HIT:     564418 MISS:    1916878
LLC RFO          ACCESS:     831681 HIT:      13652 MISS:     818029
LLC PREFETCH     ACCESS:    1106893 HIT:     348971 MISS:     757922
LLC WRITE        ACCESS:    1782340 HIT:    1693436 MISS:      88904
LLC TRANSLATION  ACCESS:      11872 HIT:       8424 MISS:       3448
LLC PREFETCH REQUESTED:    1106893 ISSUED:    1106893 USEFUL:     519029 USELESS:       8609
LLC AVERAGE MISS LATENCY: 1074 cycles
cpu0_DTLB TOTAL        ACCESS:  116500704 HIT:  109282433 MISS:    7218271
cpu0_DTLB LOAD         ACCESS:  116500704 HIT:  109282433 MISS:    7218271
cpu0_DTLB RFO          ACCESS:          0 HIT:          0 MISS:          0
cpu0_DTLB PREFETCH     ACCESS:          0 HIT:          0 MISS:          0
cpu0_DTLB WRITE        ACCESS:          0 HIT:          0 MISS:          0
cpu0_DTLB TRANSLATION  ACCESS:          0 HIT:          0 MISS:          0
cpu0_DTLB PREFETCH REQUESTED:          0 ISSUED:          0 USEFUL:          0 USELESS:          0
cpu0_DTLB AVERAGE MISS LATENCY: 5.453 cycles
cpu0_ITLB TOTAL        ACCESS:     710434 HIT:     710225 MISS:        209
cpu0_ITLB LOAD         ACCESS:     710434 HIT:     710225 MISS:        209
cpu0_ITLB RFO          ACCESS:          0 HIT:          0 MISS:          0
cpu0_ITLB PREFETCH     ACCESS:          0 HIT:          0 MISS:          0
cpu0_ITLB WRITE        ACCESS:          0 HIT:          0 MISS:          0
cpu0_ITLB TRANSLATION  ACCESS:          0 HIT:          0 MISS:          0
cpu0_ITLB PREFETCH REQUESTED:          0 ISSUED:          0 USEFUL:          0 USELESS:          0
cpu0_ITLB AVERAGE MISS LATENCY: 106.5 cycles
cpu0_L1D TOTAL        ACCESS:  168298870 HIT:  158452964 MISS:    9845906
cpu0_L1D LOAD         ACCESS:  131244923 HIT:  125283121 MISS:    5961802
cpu0_L1D RFO          ACCESS:          0 HIT:          0 MISS:          0
cpu0_L1D PREFETCH     ACCESS:          0 HIT:          0 MISS:          0
cpu0_L1D WRITE        ACCESS:   37001349 HIT:   33142192 MISS:    3859157
cpu0_L1D TRANSLATION  ACCESS:      52598 HIT:      27651 MISS:      24947
cpu0_L1D PREFETCH REQUESTED:          0 ISSUED:          0 USEFUL:          0 USELESS:          0
cpu0_L1D AVERAGE MISS LATENCY: 312.1 cycles
cpu0_L1I TOTAL        ACCESS:    1087543 HIT:    1084830 MISS:       2713
cpu0_L1I LOAD         ACCESS:    1087543 HIT:    1084830 MISS:       2713
cpu0_L1I RFO          ACCESS:          0 HIT:          0 MISS:          0
cpu0_L1I PREFETCH     ACCESS:          0 HIT:          0 MISS:          0
cpu0_L1I WRITE        ACCESS:          0 HIT:          0 MISS:          0
cpu0_L1I TRANSLATION  ACCESS:          0 HIT:          0 MISS:          0
cpu0_L1I PREFETCH REQUESTED:          0 ISSUED:          0 USEFUL:          0 USELESS:          0
cpu0_L1I AVERAGE MISS LATENCY: 320 cycles
cpu0_L2C TOTAL        ACCESS:    5978280 HIT:    2649096 MISS:    3329184
cpu0_L2C LOAD         ACCESS:    3057843 HIT:     576546 MISS:    2481297
cpu0_L2C RFO          ACCESS:     878096 HIT:      46415 MISS:     831681
cpu0_L2C PREFETCH     ACCESS:          0 HIT:          0 MISS:          0
cpu0_L2C WRITE        ACCESS:    2017434 HIT:    2013100 MISS:       4334
cpu0_L2C TRANSLATION  ACCESS:      24907 HIT:      13035 MISS:      11872
cpu0_L2C PREFETCH REQUESTED:          0 ISSUED:          0 USEFUL:          0 USELESS:          0
cpu0_L2C AVERAGE MISS LATENCY: 989.8 cycles
cpu0_STLB TOTAL        ACCESS:    3988979 HIT:    3936393 MISS:      52586
cpu0_STLB LOAD         ACCESS:    3988979 HIT:    3936393 MISS:      52586
cpu0_STLB RFO          ACCESS:          0 HIT:          0 MISS:          0
cpu0_STLB PREFETCH     ACCESS:          0 HIT:          0 MISS:          0
cpu0_STLB WRITE        ACCESS:          0 HIT:          0 MISS:          0
cpu0_STLB TRANSLATION  ACCESS:          0 HIT:          0 MISS:          0
cpu0_STLB PREFETCH REQUESTED:          0 ISSUED:          0 USEFUL:          0 USELESS:          0
cpu0_STLB AVERAGE MISS LATENCY: 512.8 cycles

DRAM Statistics

Channel 0 RQ ROW_BUFFER_HIT:     786776
  ROW_BUFFER_MISS:    2309478
 AVG DBUS CONGESTED CYCLE: 3.949
WQ ROW_BUFFER_HIT: Channel 0 
  ROW_BUFFER_MISS:      27508
  FULL:    1644415
