WARNING: physical memory size is smaller than virtual memory size.

*** ChampSim Multicore Out-of-Order Simulator ***
Warmup Instructions: 50000000
Simulation Instructions: 600000000
Number of CPUs: 1
Page size: 4096

Off-chip DRAM Size: 4 GiB Channels: 1 Width: 64-bit Data Race: 3200 MT/s
Heartbeat CPU 0 instructions: 10000000 cycles: 2500202 heartbeat IPC: 4 cumulative IPC: 4 (Simulation time: 00 hr 00 min 56 sec)
Heartbeat CPU 0 instructions: 20000000 cycles: 5000202 heartbeat IPC: 4 cumulative IPC: 4 (Simulation time: 00 hr 01 min 43 sec)
Heartbeat CPU 0 instructions: 30000000 cycles: 7500202 heartbeat IPC: 4 cumulative IPC: 4 (Simulation time: 00 hr 02 min 29 sec)
Heartbeat CPU 0 instructions: 40000000 cycles: 10000202 heartbeat IPC: 4 cumulative IPC: 4 (Simulation time: 00 hr 03 min 16 sec)
Heartbeat CPU 0 instructions: 50000000 cycles: 12500202 heartbeat IPC: 4 cumulative IPC: 4 (Simulation time: 00 hr 04 min 02 sec)
Warmup finished CPU 0 instructions: 50000000 cycles: 12500203 cumulative IPC: 4 (Simulation time: 00 hr 04 min 02 sec)
Warmup complete CPU 0 instructions: 50000000 cycles: 12500203 cumulative IPC: 4 (Simulation time: 00 hr 04 min 02 sec)
Heartbeat CPU 0 instructions: 60000004 cycles: 15135271 heartbeat IPC: 3.795 cumulative IPC: 3.795 (Simulation time: 00 hr 04 min 55 sec)
Heartbeat CPU 0 instructions: 70000001 cycles: 17769904 heartbeat IPC: 3.796 cumulative IPC: 3.795 (Simulation time: 00 hr 05 min 47 sec)
Heartbeat CPU 0 instructions: 80000003 cycles: 20405052 heartbeat IPC: 3.795 cumulative IPC: 3.795 (Simulation time: 00 hr 06 min 41 sec)
Heartbeat CPU 0 instructions: 90000004 cycles: 23039902 heartbeat IPC: 3.795 cumulative IPC: 3.795 (Simulation time: 00 hr 07 min 33 sec)
Heartbeat CPU 0 instructions: 100000002 cycles: 25674976 heartbeat IPC: 3.795 cumulative IPC: 3.795 (Simulation time: 00 hr 08 min 26 sec)
Heartbeat CPU 0 instructions: 110000003 cycles: 28309943 heartbeat IPC: 3.795 cumulative IPC: 3.795 (Simulation time: 00 hr 09 min 18 sec)
Heartbeat CPU 0 instructions: 120000004 cycles: 30945301 heartbeat IPC: 3.795 cumulative IPC: 3.795 (Simulation time: 00 hr 10 min 11 sec)
Heartbeat CPU 0 instructions: 130000004 cycles: 33580139 heartbeat IPC: 3.795 cumulative IPC: 3.795 (Simulation time: 00 hr 11 min 04 sec)
Heartbeat CPU 0 instructions: 140000004 cycles: 36214753 heartbeat IPC: 3.796 cumulative IPC: 3.795 (Simulation time: 00 hr 11 min 57 sec)
Heartbeat CPU 0 instructions: 150000000 cycles: 38850726 heartbeat IPC: 3.794 cumulative IPC: 3.795 (Simulation time: 00 hr 12 min 49 sec)
Heartbeat CPU 0 instructions: 160000001 cycles: 41486638 heartbeat IPC: 3.794 cumulative IPC: 3.795 (Simulation time: 00 hr 13 min 43 sec)
Heartbeat CPU 0 instructions: 170000000 cycles: 44121730 heartbeat IPC: 3.795 cumulative IPC: 3.795 (Simulation time: 00 hr 14 min 36 sec)
Heartbeat CPU 0 instructions: 180000003 cycles: 46756819 heartbeat IPC: 3.795 cumulative IPC: 3.795 (Simulation time: 00 hr 15 min 29 sec)
Heartbeat CPU 0 instructions: 190000003 cycles: 49391446 heartbeat IPC: 3.796 cumulative IPC: 3.795 (Simulation time: 00 hr 16 min 22 sec)
Heartbeat CPU 0 instructions: 200000002 cycles: 52026772 heartbeat IPC: 3.795 cumulative IPC: 3.795 (Simulation time: 00 hr 17 min 15 sec)
Heartbeat CPU 0 instructions: 210000003 cycles: 54661427 heartbeat IPC: 3.796 cumulative IPC: 3.795 (Simulation time: 00 hr 18 min 09 sec)
Heartbeat CPU 0 instructions: 220000002 cycles: 57296698 heartbeat IPC: 3.795 cumulative IPC: 3.795 (Simulation time: 00 hr 19 min 02 sec)
Heartbeat CPU 0 instructions: 230000002 cycles: 59932126 heartbeat IPC: 3.794 cumulative IPC: 3.795 (Simulation time: 00 hr 19 min 54 sec)
Heartbeat CPU 0 instructions: 240000002 cycles: 90912687 heartbeat IPC: 0.3228 cumulative IPC: 2.423 (Simulation time: 00 hr 25 min 14 sec)
Heartbeat CPU 0 instructions: 250000000 cycles: 100019113 heartbeat IPC: 1.098 cumulative IPC: 2.285 (Simulation time: 00 hr 27 min 25 sec)
Heartbeat CPU 0 instructions: 260000003 cycles: 109061003 heartbeat IPC: 1.106 cumulative IPC: 2.175 (Simulation time: 00 hr 29 min 35 sec)
Heartbeat CPU 0 instructions: 270000000 cycles: 116961207 heartbeat IPC: 1.266 cumulative IPC: 2.106 (Simulation time: 00 hr 31 min 32 sec)
Heartbeat CPU 0 instructions: 280000003 cycles: 123487266 heartbeat IPC: 1.532 cumulative IPC: 2.072 (Simulation time: 00 hr 33 min 14 sec)
Heartbeat CPU 0 instructions: 290000000 cycles: 130053782 heartbeat IPC: 1.523 cumulative IPC: 2.042 (Simulation time: 00 hr 34 min 57 sec)
Heartbeat CPU 0 instructions: 300000002 cycles: 136786462 heartbeat IPC: 1.485 cumulative IPC: 2.011 (Simulation time: 00 hr 36 min 41 sec)
Heartbeat CPU 0 instructions: 310000002 cycles: 143441042 heartbeat IPC: 1.503 cumulative IPC: 1.986 (Simulation time: 00 hr 38 min 24 sec)
Heartbeat CPU 0 instructions: 320000004 cycles: 150619381 heartbeat IPC: 1.393 cumulative IPC: 1.955 (Simulation time: 00 hr 40 min 13 sec)
Heartbeat CPU 0 instructions: 330000003 cycles: 158777812 heartbeat IPC: 1.226 cumulative IPC: 1.914 (Simulation time: 00 hr 42 min 16 sec)
Heartbeat CPU 0 instructions: 340000001 cycles: 166808667 heartbeat IPC: 1.245 cumulative IPC: 1.879 (Simulation time: 00 hr 44 min 18 sec)
Heartbeat CPU 0 instructions: 350000001 cycles: 174820423 heartbeat IPC: 1.248 cumulative IPC: 1.848 (Simulation time: 00 hr 46 min 19 sec)
Heartbeat CPU 0 instructions: 360000000 cycles: 182872489 heartbeat IPC: 1.242 cumulative IPC: 1.82 (Simulation time: 00 hr 48 min 21 sec)
Heartbeat CPU 0 instructions: 370000002 cycles: 190830408 heartbeat IPC: 1.257 cumulative IPC: 1.794 (Simulation time: 00 hr 50 min 22 sec)
Heartbeat CPU 0 instructions: 380000001 cycles: 199209581 heartbeat IPC: 1.193 cumulative IPC: 1.767 (Simulation time: 00 hr 52 min 29 sec)
Heartbeat CPU 0 instructions: 390000003 cycles: 207944547 heartbeat IPC: 1.145 cumulative IPC: 1.74 (Simulation time: 00 hr 54 min 39 sec)
Heartbeat CPU 0 instructions: 400000004 cycles: 217249207 heartbeat IPC: 1.075 cumulative IPC: 1.709 (Simulation time: 00 hr 56 min 55 sec)
Heartbeat CPU 0 instructions: 410000001 cycles: 225069002 heartbeat IPC: 1.279 cumulative IPC: 1.694 (Simulation time: 00 hr 58 min 55 sec)
Heartbeat CPU 0 instructions: 420000000 cycles: 233859750 heartbeat IPC: 1.138 cumulative IPC: 1.671 (Simulation time: 01 hr 01 min 07 sec)
Heartbeat CPU 0 instructions: 430000001 cycles: 242646268 heartbeat IPC: 1.138 cumulative IPC: 1.651 (Simulation time: 01 hr 03 min 18 sec)
Heartbeat CPU 0 instructions: 440000004 cycles: 381717225 heartbeat IPC: 0.07191 cumulative IPC: 1.056 (Simulation time: 01 hr 30 min 38 sec)
Heartbeat CPU 0 instructions: 450000002 cycles: 390483596 heartbeat IPC: 1.141 cumulative IPC: 1.058 (Simulation time: 01 hr 32 min 48 sec)
Heartbeat CPU 0 instructions: 460000002 cycles: 399376597 heartbeat IPC: 1.124 cumulative IPC: 1.06 (Simulation time: 01 hr 34 min 59 sec)
Heartbeat CPU 0 instructions: 470000003 cycles: 408183807 heartbeat IPC: 1.135 cumulative IPC: 1.061 (Simulation time: 01 hr 37 min 07 sec)
Heartbeat CPU 0 instructions: 480000003 cycles: 417175112 heartbeat IPC: 1.112 cumulative IPC: 1.063 (Simulation time: 01 hr 39 min 18 sec)
Heartbeat CPU 0 instructions: 490000001 cycles: 426287218 heartbeat IPC: 1.097 cumulative IPC: 1.063 (Simulation time: 01 hr 41 min 31 sec)
Heartbeat CPU 0 instructions: 500000003 cycles: 442821991 heartbeat IPC: 0.6048 cumulative IPC: 1.046 (Simulation time: 01 hr 45 min 15 sec)
Heartbeat CPU 0 instructions: 510000003 cycles: 460124206 heartbeat IPC: 0.578 cumulative IPC: 1.028 (Simulation time: 01 hr 49 min 12 sec)
Heartbeat CPU 0 instructions: 520000003 cycles: 477465212 heartbeat IPC: 0.5767 cumulative IPC: 1.011 (Simulation time: 01 hr 53 min 06 sec)
Heartbeat CPU 0 instructions: 530000000 cycles: 494683236 heartbeat IPC: 0.5808 cumulative IPC: 0.9955 (Simulation time: 01 hr 57 min 02 sec)
Heartbeat CPU 0 instructions: 540000002 cycles: 511874217 heartbeat IPC: 0.5817 cumulative IPC: 0.9812 (Simulation time: 02 hr 00 min 54 sec)
Heartbeat CPU 0 instructions: 550000000 cycles: 524717084 heartbeat IPC: 0.7786 cumulative IPC: 0.9761 (Simulation time: 02 hr 03 min 52 sec)
Heartbeat CPU 0 instructions: 560000002 cycles: 536096723 heartbeat IPC: 0.8788 cumulative IPC: 0.974 (Simulation time: 02 hr 06 min 31 sec)
Heartbeat CPU 0 instructions: 570000000 cycles: 547297923 heartbeat IPC: 0.8928 cumulative IPC: 0.9723 (Simulation time: 02 hr 09 min 09 sec)
Heartbeat CPU 0 instructions: 580000001 cycles: 558518613 heartbeat IPC: 0.8912 cumulative IPC: 0.9707 (Simulation time: 02 hr 11 min 46 sec)
Heartbeat CPU 0 instructions: 590000000 cycles: 569636800 heartbeat IPC: 0.8994 cumulative IPC: 0.9692 (Simulation time: 02 hr 14 min 23 sec)
*** Reached end of trace: (0, "traces/lu.A.champsimtrace")
Heartbeat CPU 0 instructions: 600000001 cycles: 580602388 heartbeat IPC: 0.9119 cumulative IPC: 0.9681 (Simulation time: 02 hr 16 min 59 sec)
Heartbeat CPU 0 instructions: 610000004 cycles: 590899178 heartbeat IPC: 0.9712 cumulative IPC: 0.9682 (Simulation time: 02 hr 19 min 16 sec)
Heartbeat CPU 0 instructions: 620000003 cycles: 593537160 heartbeat IPC: 3.791 cumulative IPC: 0.981 (Simulation time: 02 hr 20 min 10 sec)
Heartbeat CPU 0 instructions: 630000002 cycles: 596172255 heartbeat IPC: 3.795 cumulative IPC: 0.9937 (Simulation time: 02 hr 21 min 04 sec)
Heartbeat CPU 0 instructions: 640000000 cycles: 598806882 heartbeat IPC: 3.796 cumulative IPC: 1.006 (Simulation time: 02 hr 21 min 58 sec)
Heartbeat CPU 0 instructions: 650000004 cycles: 601441518 heartbeat IPC: 3.796 cumulative IPC: 1.019 (Simulation time: 02 hr 22 min 51 sec)
Simulation finished CPU 0 instructions: 600000004 cycles: 588941316 cumulative IPC: 1.019 (Simulation time: 02 hr 22 min 51 sec)
Simulation complete CPU 0 instructions: 600000004 cycles: 588941316 cumulative IPC: 1.019 (Simulation time: 02 hr 22 min 51 sec)

ChampSim completed all CPUs

=== Simulation ===
CPU 0 runs traces/lu.A.champsimtrace
Region of Interest Statistics

CPU 0 cumulative IPC: 1.019 instructions: 600000004 cycles: 588941316
CPU 0 Branch Prediction Accuracy: 96.62% MPKI: 0.6481 Average ROB Occupancy at Mispredict: 327.2
Branch type MPKI
BRANCH_DIRECT_JUMP: 5e-06
BRANCH_INDIRECT: 7.83e-05
BRANCH_CONDITIONAL: 0.648
BRANCH_DIRECT_CALL: 6.67e-06
BRANCH_INDIRECT_CALL: 3.5e-05
BRANCH_RETURN: 1.83e-05

LLC TOTAL        ACCESS:    5107741 HIT:     244454 MISS:    4863287
LLC LOAD         ACCESS:    2481923 HIT:     114644 MISS:    2367279
LLC RFO          ACCESS:     831685 HIT:       8538 MISS:     823147
LLC PREFETCH     ACCESS:          0 HIT:          0 MISS:          0
LLC WRITE        ACCESS:    1782321 HIT:     120979 MISS:    1661342
LLC TRANSLATION  ACCESS:      11812 HIT:        293 MISS:      11519
LLC PREFETCH REQUESTED:          0 ISSUED:          0 USEFUL:          0 USELESS:          0
LLC AVERAGE MISS LATENCY: 684.3 cycles
cpu0_DTLB TOTAL        ACCESS:  116410475 HIT:  109164825 MISS:    7245650
cpu0_DTLB LOAD         ACCESS:  116410475 HIT:  109164825 MISS:    7245650
cpu0_DTLB RFO          ACCESS:          0 HIT:          0 MISS:          0
cpu0_DTLB PREFETCH     ACCESS:          0 HIT:          0 MISS:          0
cpu0_DTLB WRITE        ACCESS:          0 HIT:          0 MISS:          0
cpu0_DTLB TRANSLATION  ACCESS:          0 HIT:          0 MISS:          0
cpu0_DTLB PREFETCH REQUESTED:          0 ISSUED:          0 USEFUL:          0 USELESS:          0
cpu0_DTLB AVERAGE MISS LATENCY: 7.266 cycles
cpu0_ITLB TOTAL        ACCESS:     712053 HIT:     711833 MISS:        220
cpu0_ITLB LOAD         ACCESS:     712053 HIT:     711833 MISS:        220
cpu0_ITLB RFO          ACCESS:          0 HIT:          0 MISS:          0
cpu0_ITLB PREFETCH     ACCESS:          0 HIT:          0 MISS:          0
cpu0_ITLB WRITE        ACCESS:          0 HIT:          0 MISS:          0
cpu0_ITLB TRANSLATION  ACCESS:          0 HIT:          0 MISS:          0
cpu0_ITLB PREFETCH REQUESTED:          0 ISSUED:          0 USEFUL:          0 USELESS:          0
cpu0_ITLB AVERAGE MISS LATENCY: 291.7 cycles
cpu0_L1D TOTAL        ACCESS:  167844013 HIT:  158271479 MISS:    9572534
cpu0_L1D LOAD         ACCESS:  130791400 HIT:  125022643 MISS:    5768757
cpu0_L1D RFO          ACCESS:          0 HIT:          0 MISS:          0
cpu0_L1D PREFETCH     ACCESS:          0 HIT:          0 MISS:          0
cpu0_L1D WRITE        ACCESS:   37000017 HIT:   33221133 MISS:    3778884
cpu0_L1D TRANSLATION  ACCESS:      52596 HIT:      27703 MISS:      24893
cpu0_L1D PREFETCH REQUESTED:          0 ISSUED:          0 USEFUL:          0 USELESS:          0
cpu0_L1D AVERAGE MISS LATENCY: 332.9 cycles
cpu0_L1I TOTAL        ACCESS:    1089498 HIT:    1086734 MISS:       2764
cpu0_L1I LOAD         ACCESS:    1089498 HIT:    1086734 MISS:       2764
cpu0_L1I RFO          ACCESS:          0 HIT:          0 MISS:          0
cpu0_L1I PREFETCH     ACCESS:          0 HIT:          0 MISS:          0
cpu0_L1I WRITE        ACCESS:          0 HIT:          0 MISS:          0
cpu0_L1I TRANSLATION  ACCESS:          0 HIT:          0 MISS:          0
cpu0_L1I PREFETCH REQUESTED:          0 ISSUED:          0 USEFUL:          0 USELESS:          0
cpu0_L1I AVERAGE MISS LATENCY: 531.9 cycles
cpu0_L2C TOTAL        ACCESS:    5940466 HIT:    2610837 MISS:    3329629
cpu0_L2C LOAD         ACCESS:    3052590 HIT:     570667 MISS:    2481923
cpu0_L2C RFO          ACCESS:     871917 HIT:      40232 MISS:     831685
cpu0_L2C PREFETCH     ACCESS:          0 HIT:          0 MISS:          0
cpu0_L2C WRITE        ACCESS:    1991114 HIT:    1986905 MISS:       4209
cpu0_L2C TRANSLATION  ACCESS:      24845 HIT:      13033 MISS:      11812
cpu0_L2C PREFETCH REQUESTED:          0 ISSUED:          0 USEFUL:          0 USELESS:          0
cpu0_L2C AVERAGE MISS LATENCY: 1020 cycles
cpu0_STLB TOTAL        ACCESS:    4001062 HIT:    3948480 MISS:      52582
cpu0_STLB LOAD         ACCESS:    4001062 HIT:    3948480 MISS:      52582
cpu0_STLB RFO          ACCESS:          0 HIT:          0 MISS:          0
cpu0_STLB PREFETCH     ACCESS:          0 HIT:          0 MISS:          0
cpu0_STLB WRITE        ACCESS:          0 HIT:          0 MISS:          0
cpu0_STLB TRANSLATION  ACCESS:          0 HIT:          0 MISS:          0
cpu0_STLB PREFETCH REQUESTED:          0 ISSUED:          0 USEFUL:          0 USELESS:          0
cpu0_STLB AVERAGE MISS LATENCY: 848.5 cycles

DRAM Statistics

Channel 0 RQ ROW_BUFFER_HIT:     807583
  ROW_BUFFER_MISS:    2392561
 AVG DBUS CONGESTED CYCLE: 3.929
WQ ROW_BUFFER_HIT: Channel 0 
  ROW_BUFFER_MISS:     441697
  FULL:    1301056
