WARNING: physical memory size is smaller than virtual memory size.

*** ChampSim Multicore Out-of-Order Simulator ***
Warmup Instructions: 50000000
Simulation Instructions: 600000000
Number of CPUs: 1
Page size: 4096

Off-chip DRAM Size: 4 GiB Channels: 1 Width: 64-bit Data Race: 3200 MT/s
Heartbeat CPU 0 instructions: 10000000 cycles: 2500202 heartbeat IPC: 4 cumulative IPC: 4 (Simulation time: 00 hr 00 min 44 sec)
Heartbeat CPU 0 instructions: 20000000 cycles: 5000202 heartbeat IPC: 4 cumulative IPC: 4 (Simulation time: 00 hr 01 min 40 sec)
Heartbeat CPU 0 instructions: 30000000 cycles: 7500202 heartbeat IPC: 4 cumulative IPC: 4 (Simulation time: 00 hr 02 min 25 sec)
Heartbeat CPU 0 instructions: 40000000 cycles: 10000202 heartbeat IPC: 4 cumulative IPC: 4 (Simulation time: 00 hr 03 min 08 sec)
Heartbeat CPU 0 instructions: 50000000 cycles: 12500202 heartbeat IPC: 4 cumulative IPC: 4 (Simulation time: 00 hr 03 min 50 sec)
Warmup finished CPU 0 instructions: 50000000 cycles: 12500203 cumulative IPC: 4 (Simulation time: 00 hr 03 min 50 sec)
Warmup complete CPU 0 instructions: 50000000 cycles: 12500203 cumulative IPC: 4 (Simulation time: 00 hr 03 min 50 sec)
Heartbeat CPU 0 instructions: 60000004 cycles: 15135483 heartbeat IPC: 3.795 cumulative IPC: 3.795 (Simulation time: 00 hr 04 min 38 sec)
Heartbeat CPU 0 instructions: 70000001 cycles: 17770112 heartbeat IPC: 3.796 cumulative IPC: 3.795 (Simulation time: 00 hr 05 min 25 sec)
Heartbeat CPU 0 instructions: 80000003 cycles: 20405208 heartbeat IPC: 3.795 cumulative IPC: 3.795 (Simulation time: 00 hr 06 min 14 sec)
Heartbeat CPU 0 instructions: 90000004 cycles: 23041526 heartbeat IPC: 3.793 cumulative IPC: 3.795 (Simulation time: 00 hr 07 min 02 sec)
Heartbeat CPU 0 instructions: 100000002 cycles: 25676133 heartbeat IPC: 3.796 cumulative IPC: 3.795 (Simulation time: 00 hr 07 min 50 sec)
Heartbeat CPU 0 instructions: 110000003 cycles: 28310766 heartbeat IPC: 3.796 cumulative IPC: 3.795 (Simulation time: 00 hr 08 min 38 sec)
Heartbeat CPU 0 instructions: 120000004 cycles: 30945849 heartbeat IPC: 3.795 cumulative IPC: 3.795 (Simulation time: 00 hr 09 min 26 sec)
Heartbeat CPU 0 instructions: 130000004 cycles: 33580486 heartbeat IPC: 3.796 cumulative IPC: 3.795 (Simulation time: 00 hr 10 min 14 sec)
Heartbeat CPU 0 instructions: 140000004 cycles: 36215098 heartbeat IPC: 3.796 cumulative IPC: 3.795 (Simulation time: 00 hr 11 min 03 sec)
Heartbeat CPU 0 instructions: 150000000 cycles: 38849864 heartbeat IPC: 3.795 cumulative IPC: 3.795 (Simulation time: 00 hr 11 min 51 sec)
Heartbeat CPU 0 instructions: 160000001 cycles: 41485827 heartbeat IPC: 3.794 cumulative IPC: 3.795 (Simulation time: 00 hr 12 min 40 sec)
Heartbeat CPU 0 instructions: 170000000 cycles: 44120446 heartbeat IPC: 3.796 cumulative IPC: 3.795 (Simulation time: 00 hr 13 min 28 sec)
Heartbeat CPU 0 instructions: 180000003 cycles: 46755085 heartbeat IPC: 3.796 cumulative IPC: 3.795 (Simulation time: 00 hr 14 min 16 sec)
Heartbeat CPU 0 instructions: 190000003 cycles: 49390158 heartbeat IPC: 3.795 cumulative IPC: 3.795 (Simulation time: 00 hr 15 min 04 sec)
Heartbeat CPU 0 instructions: 200000002 cycles: 52026945 heartbeat IPC: 3.792 cumulative IPC: 3.795 (Simulation time: 00 hr 15 min 53 sec)
Heartbeat CPU 0 instructions: 210000003 cycles: 54661762 heartbeat IPC: 3.795 cumulative IPC: 3.795 (Simulation time: 00 hr 16 min 41 sec)
Heartbeat CPU 0 instructions: 220000002 cycles: 57297198 heartbeat IPC: 3.794 cumulative IPC: 3.795 (Simulation time: 00 hr 17 min 29 sec)
Heartbeat CPU 0 instructions: 230000002 cycles: 59931819 heartbeat IPC: 3.796 cumulative IPC: 3.795 (Simulation time: 00 hr 18 min 18 sec)
Heartbeat CPU 0 instructions: 240000003 cycles: 93728673 heartbeat IPC: 0.2959 cumulative IPC: 2.339 (Simulation time: 00 hr 23 min 29 sec)
Heartbeat CPU 0 instructions: 250000000 cycles: 102126534 heartbeat IPC: 1.191 cumulative IPC: 2.231 (Simulation time: 00 hr 25 min 21 sec)
Heartbeat CPU 0 instructions: 260000003 cycles: 110829227 heartbeat IPC: 1.149 cumulative IPC: 2.136 (Simulation time: 00 hr 27 min 17 sec)
Heartbeat CPU 0 instructions: 270000000 cycles: 120166860 heartbeat IPC: 1.071 cumulative IPC: 2.043 (Simulation time: 00 hr 29 min 19 sec)
Heartbeat CPU 0 instructions: 280000003 cycles: 127614307 heartbeat IPC: 1.343 cumulative IPC: 1.998 (Simulation time: 00 hr 31 min 04 sec)
Heartbeat CPU 0 instructions: 290000000 cycles: 132462171 heartbeat IPC: 2.063 cumulative IPC: 2.001 (Simulation time: 00 hr 32 min 21 sec)
Heartbeat CPU 0 instructions: 300000002 cycles: 137330020 heartbeat IPC: 2.054 cumulative IPC: 2.003 (Simulation time: 00 hr 33 min 37 sec)
Heartbeat CPU 0 instructions: 310000003 cycles: 142205460 heartbeat IPC: 2.051 cumulative IPC: 2.005 (Simulation time: 00 hr 34 min 54 sec)
Heartbeat CPU 0 instructions: 320000003 cycles: 147832817 heartbeat IPC: 1.777 cumulative IPC: 1.995 (Simulation time: 00 hr 36 min 21 sec)
Heartbeat CPU 0 instructions: 330000003 cycles: 154707026 heartbeat IPC: 1.455 cumulative IPC: 1.969 (Simulation time: 00 hr 38 min 03 sec)
Heartbeat CPU 0 instructions: 340000001 cycles: 162570731 heartbeat IPC: 1.272 cumulative IPC: 1.932 (Simulation time: 00 hr 40 min 01 sec)
Heartbeat CPU 0 instructions: 350000001 cycles: 170433142 heartbeat IPC: 1.272 cumulative IPC: 1.9 (Simulation time: 00 hr 42 min 00 sec)
Heartbeat CPU 0 instructions: 360000000 cycles: 178259825 heartbeat IPC: 1.278 cumulative IPC: 1.87 (Simulation time: 00 hr 44 min 02 sec)
Heartbeat CPU 0 instructions: 370000002 cycles: 185972660 heartbeat IPC: 1.297 cumulative IPC: 1.845 (Simulation time: 00 hr 46 min 01 sec)
Heartbeat CPU 0 instructions: 380000001 cycles: 193885374 heartbeat IPC: 1.264 cumulative IPC: 1.819 (Simulation time: 00 hr 48 min 04 sec)
Heartbeat CPU 0 instructions: 390000003 cycles: 202906508 heartbeat IPC: 1.109 cumulative IPC: 1.786 (Simulation time: 00 hr 50 min 22 sec)
Heartbeat CPU 0 instructions: 400000004 cycles: 212237691 heartbeat IPC: 1.072 cumulative IPC: 1.752 (Simulation time: 00 hr 52 min 44 sec)
Heartbeat CPU 0 instructions: 410000001 cycles: 221466750 heartbeat IPC: 1.084 cumulative IPC: 1.723 (Simulation time: 00 hr 55 min 04 sec)
Heartbeat CPU 0 instructions: 420000000 cycles: 230659060 heartbeat IPC: 1.088 cumulative IPC: 1.696 (Simulation time: 00 hr 57 min 23 sec)
Heartbeat CPU 0 instructions: 430000001 cycles: 239965513 heartbeat IPC: 1.075 cumulative IPC: 1.671 (Simulation time: 00 hr 59 min 43 sec)
Heartbeat CPU 0 instructions: 440000004 cycles: 386202359 heartbeat IPC: 0.06838 cumulative IPC: 1.044 (Simulation time: 01 hr 28 min 21 sec)
Heartbeat CPU 0 instructions: 450000002 cycles: 396761857 heartbeat IPC: 0.947 cumulative IPC: 1.041 (Simulation time: 01 hr 30 min 53 sec)
Heartbeat CPU 0 instructions: 460000002 cycles: 406056037 heartbeat IPC: 1.076 cumulative IPC: 1.042 (Simulation time: 01 hr 33 min 09 sec)
Heartbeat CPU 0 instructions: 470000003 cycles: 415118584 heartbeat IPC: 1.103 cumulative IPC: 1.043 (Simulation time: 01 hr 35 min 24 sec)
Heartbeat CPU 0 instructions: 480000003 cycles: 424397577 heartbeat IPC: 1.078 cumulative IPC: 1.044 (Simulation time: 01 hr 37 min 40 sec)
Heartbeat CPU 0 instructions: 490000001 cycles: 434419590 heartbeat IPC: 0.9978 cumulative IPC: 1.043 (Simulation time: 01 hr 40 min 04 sec)
Heartbeat CPU 0 instructions: 500000003 cycles: 447952261 heartbeat IPC: 0.739 cumulative IPC: 1.033 (Simulation time: 01 hr 43 min 11 sec)
Heartbeat CPU 0 instructions: 510000002 cycles: 461487894 heartbeat IPC: 0.7388 cumulative IPC: 1.025 (Simulation time: 01 hr 46 min 19 sec)
Heartbeat CPU 0 instructions: 520000003 cycles: 475425740 heartbeat IPC: 0.7175 cumulative IPC: 1.015 (Simulation time: 01 hr 49 min 33 sec)
Heartbeat CPU 0 instructions: 530000003 cycles: 488880544 heartbeat IPC: 0.7432 cumulative IPC: 1.008 (Simulation time: 01 hr 52 min 41 sec)
Heartbeat CPU 0 instructions: 540000002 cycles: 502373445 heartbeat IPC: 0.7411 cumulative IPC: 1 (Simulation time: 01 hr 55 min 49 sec)
Heartbeat CPU 0 instructions: 550000000 cycles: 512622805 heartbeat IPC: 0.9757 cumulative IPC: 0.9998 (Simulation time: 01 hr 58 min 17 sec)
Heartbeat CPU 0 instructions: 560000002 cycles: 522073655 heartbeat IPC: 1.058 cumulative IPC: 1.001 (Simulation time: 02 hr 00 min 33 sec)
Heartbeat CPU 0 instructions: 570000000 cycles: 532046678 heartbeat IPC: 1.003 cumulative IPC: 1.001 (Simulation time: 02 hr 02 min 56 sec)
Heartbeat CPU 0 instructions: 580000001 cycles: 542195215 heartbeat IPC: 0.9854 cumulative IPC: 1.001 (Simulation time: 02 hr 05 min 20 sec)
Heartbeat CPU 0 instructions: 590000000 cycles: 552363100 heartbeat IPC: 0.9835 cumulative IPC: 1 (Simulation time: 02 hr 07 min 45 sec)
*** Reached end of trace: (0, "traces/lu.A.champsimtrace")
Heartbeat CPU 0 instructions: 600000003 cycles: 562670968 heartbeat IPC: 0.9701 cumulative IPC: 0.9997 (Simulation time: 02 hr 10 min 11 sec)
Heartbeat CPU 0 instructions: 610000004 cycles: 571072937 heartbeat IPC: 1.19 cumulative IPC: 1.003 (Simulation time: 02 hr 12 min 07 sec)
Heartbeat CPU 0 instructions: 620000003 cycles: 573709485 heartbeat IPC: 3.793 cumulative IPC: 1.016 (Simulation time: 02 hr 13 min 00 sec)
Heartbeat CPU 0 instructions: 630000002 cycles: 576347241 heartbeat IPC: 3.791 cumulative IPC: 1.029 (Simulation time: 02 hr 13 min 54 sec)
Heartbeat CPU 0 instructions: 640000000 cycles: 578982078 heartbeat IPC: 3.795 cumulative IPC: 1.042 (Simulation time: 02 hr 14 min 47 sec)
Heartbeat CPU 0 instructions: 650000004 cycles: 581616912 heartbeat IPC: 3.795 cumulative IPC: 1.054 (Simulation time: 02 hr 15 min 40 sec)
Simulation finished CPU 0 instructions: 600000004 cycles: 569116710 cumulative IPC: 1.054 (Simulation time: 02 hr 15 min 40 sec)
Simulation complete CPU 0 instructions: 600000004 cycles: 569116710 cumulative IPC: 1.054 (Simulation time: 02 hr 15 min 40 sec)

ChampSim completed all CPUs

=== Simulation ===
CPU 0 runs traces/lu.A.champsimtrace
Region of Interest Statistics

CPU 0 cumulative IPC: 1.054 instructions: 600000004 cycles: 569116710
CPU 0 Branch Prediction Accuracy: 96.62% MPKI: 0.6481 Average ROB Occupancy at Mispredict: 326.2
Branch type MPKI
BRANCH_DIRECT_JUMP: 5e-06
BRANCH_INDIRECT: 7.83e-05
BRANCH_CONDITIONAL: 0.648
BRANCH_DIRECT_CALL: 6.67e-06
BRANCH_INDIRECT_CALL: 3.5e-05
BRANCH_RETURN: 1.83e-05

LLC TOTAL        ACCESS:    7727612 HIT:    2195165 MISS:    5532447
LLC LOAD         ACCESS:    2481999 HIT:    1429685 MISS:    1052314
LLC RFO          ACCESS:     831687 HIT:      49464 MISS:     782223
LLC PREFETCH     ACCESS:    2619773 HIT:     208017 MISS:    2411756
LLC WRITE        ACCESS:    1782321 HIT:     505782 MISS:    1276539
LLC TRANSLATION  ACCESS:      11832 HIT:       2217 MISS:       9615
LLC PREFETCH REQUESTED:    4520896 ISSUED:    2619773 USEFUL:    1753114 USELESS:      35214
LLC AVERAGE MISS LATENCY: 1274 cycles
cpu0_DTLB TOTAL        ACCESS:  115971557 HIT:  108776173 MISS:    7195384
cpu0_DTLB LOAD         ACCESS:  115971557 HIT:  108776173 MISS:    7195384
cpu0_DTLB RFO          ACCESS:          0 HIT:          0 MISS:          0
cpu0_DTLB PREFETCH     ACCESS:          0 HIT:          0 MISS:          0
cpu0_DTLB WRITE        ACCESS:          0 HIT:          0 MISS:          0
cpu0_DTLB TRANSLATION  ACCESS:          0 HIT:          0 MISS:          0
cpu0_DTLB PREFETCH REQUESTED:          0 ISSUED:          0 USEFUL:          0 USELESS:          0
cpu0_DTLB AVERAGE MISS LATENCY: 7.993 cycles
cpu0_ITLB TOTAL        ACCESS:     701860 HIT:     701641 MISS:        219
cpu0_ITLB LOAD         ACCESS:     701860 HIT:     701641 MISS:        219
cpu0_ITLB RFO          ACCESS:          0 HIT:          0 MISS:          0
cpu0_ITLB PREFETCH     ACCESS:          0 HIT:          0 MISS:          0
cpu0_ITLB WRITE        ACCESS:          0 HIT:          0 MISS:          0
cpu0_ITLB TRANSLATION  ACCESS:          0 HIT:          0 MISS:          0
cpu0_ITLB PREFETCH REQUESTED:          0 ISSUED:          0 USEFUL:          0 USELESS:          0
cpu0_ITLB AVERAGE MISS LATENCY: 454.1 cycles
cpu0_L1D TOTAL        ACCESS:  167380424 HIT:  157864627 MISS:    9515797
cpu0_L1D LOAD         ACCESS:  130327623 HIT:  124620913 MISS:    5706710
cpu0_L1D RFO          ACCESS:          0 HIT:          0 MISS:          0
cpu0_L1D PREFETCH     ACCESS:          0 HIT:          0 MISS:          0
cpu0_L1D WRITE        ACCESS:   37000206 HIT:   33216061 MISS:    3784145
cpu0_L1D TRANSLATION  ACCESS:      52595 HIT:      27653 MISS:      24942
cpu0_L1D PREFETCH REQUESTED:          0 ISSUED:          0 USEFUL:          0 USELESS:          0
cpu0_L1D AVERAGE MISS LATENCY: 289.8 cycles
cpu0_L1I TOTAL        ACCESS:    1077045 HIT:    1074290 MISS:       2755
cpu0_L1I LOAD         ACCESS:    1077045 HIT:    1074290 MISS:       2755
cpu0_L1I RFO          ACCESS:          0 HIT:          0 MISS:          0
cpu0_L1I PREFETCH     ACCESS:          0 HIT:          0 MISS:          0
cpu0_L1I WRITE        ACCESS:          0 HIT:          0 MISS:          0
cpu0_L1I TRANSLATION  ACCESS:          0 HIT:          0 MISS:          0
cpu0_L1I PREFETCH REQUESTED:          0 ISSUED:          0 USEFUL:          0 USELESS:          0
cpu0_L1I AVERAGE MISS LATENCY: 548.8 cycles
cpu0_L2C TOTAL        ACCESS:    5959518 HIT:    2629844 MISS:    3329674
cpu0_L2C LOAD         ACCESS:    3068436 HIT:     586436 MISS:    2482000
cpu0_L2C RFO          ACCESS:     872583 HIT:      40896 MISS:     831687
cpu0_L2C PREFETCH     ACCESS:          0 HIT:          0 MISS:          0
cpu0_L2C WRITE        ACCESS:    1993607 HIT:    1989452 MISS:       4155
cpu0_L2C TRANSLATION  ACCESS:      24892 HIT:      13060 MISS:      11832
cpu0_L2C PREFETCH REQUESTED:          0 ISSUED:          0 USEFUL:          0 USELESS:          0
cpu0_L2C AVERAGE MISS LATENCY: 892 cycles
cpu0_STLB TOTAL        ACCESS:    3999579 HIT:    3946997 MISS:      52582
cpu0_STLB LOAD         ACCESS:    3999579 HIT:    3946997 MISS:      52582
cpu0_STLB RFO          ACCESS:          0 HIT:          0 MISS:          0
cpu0_STLB PREFETCH     ACCESS:          0 HIT:          0 MISS:          0
cpu0_STLB WRITE        ACCESS:          0 HIT:          0 MISS:          0
cpu0_STLB TRANSLATION  ACCESS:          0 HIT:          0 MISS:          0
cpu0_STLB PREFETCH REQUESTED:          0 ISSUED:          0 USEFUL:          0 USELESS:          0
cpu0_STLB AVERAGE MISS LATENCY: 951.4 cycles

DRAM Statistics

Channel 0 RQ ROW_BUFFER_HIT:     772386
  ROW_BUFFER_MISS:    2378691
 AVG DBUS CONGESTED CYCLE: 3.969
WQ ROW_BUFFER_HIT: Channel 0 
  ROW_BUFFER_MISS:     395539
  FULL:    1293182
Final OPTGen Hits: 27006
Final OPTGen Access: 52798
Final OPTGEN Hit Rate: 51.1497
