WARNING: physical memory size is smaller than virtual memory size.

*** ChampSim Multicore Out-of-Order Simulator ***
Warmup Instructions: 50000000
Simulation Instructions: 600000000
Number of CPUs: 1
Page size: 4096

Off-chip DRAM Size: 4 GiB Channels: 1 Width: 64-bit Data Race: 3200 MT/s
Heartbeat CPU 0 instructions: 10000001 cycles: 2500202 heartbeat IPC: 4 cumulative IPC: 4 (Simulation time: 00 hr 00 min 52 sec)
Heartbeat CPU 0 instructions: 20000001 cycles: 5000202 heartbeat IPC: 4 cumulative IPC: 4 (Simulation time: 00 hr 01 min 46 sec)
Heartbeat CPU 0 instructions: 30000001 cycles: 7500202 heartbeat IPC: 4 cumulative IPC: 4 (Simulation time: 00 hr 02 min 37 sec)
Heartbeat CPU 0 instructions: 40000001 cycles: 10000202 heartbeat IPC: 4 cumulative IPC: 4 (Simulation time: 00 hr 03 min 28 sec)
Heartbeat CPU 0 instructions: 50000001 cycles: 12500202 heartbeat IPC: 4 cumulative IPC: 4 (Simulation time: 00 hr 04 min 19 sec)
Warmup finished CPU 0 instructions: 50000001 cycles: 12500203 cumulative IPC: 4 (Simulation time: 00 hr 04 min 19 sec)
Warmup complete CPU 0 instructions: 50000001 cycles: 12500203 cumulative IPC: 4 (Simulation time: 00 hr 04 min 19 sec)
Heartbeat CPU 0 instructions: 60000001 cycles: 15135536 heartbeat IPC: 3.795 cumulative IPC: 3.795 (Simulation time: 00 hr 05 min 18 sec)
Heartbeat CPU 0 instructions: 70000004 cycles: 17770160 heartbeat IPC: 3.796 cumulative IPC: 3.795 (Simulation time: 00 hr 06 min 16 sec)
Heartbeat CPU 0 instructions: 80000003 cycles: 20404795 heartbeat IPC: 3.796 cumulative IPC: 3.795 (Simulation time: 00 hr 07 min 16 sec)
Heartbeat CPU 0 instructions: 90000003 cycles: 23040461 heartbeat IPC: 3.794 cumulative IPC: 3.795 (Simulation time: 00 hr 08 min 35 sec)
Heartbeat CPU 0 instructions: 100000002 cycles: 25675069 heartbeat IPC: 3.796 cumulative IPC: 3.795 (Simulation time: 00 hr 09 min 33 sec)
Heartbeat CPU 0 instructions: 110000002 cycles: 28310938 heartbeat IPC: 3.794 cumulative IPC: 3.795 (Simulation time: 00 hr 10 min 30 sec)
Heartbeat CPU 0 instructions: 120000001 cycles: 30946888 heartbeat IPC: 3.794 cumulative IPC: 3.795 (Simulation time: 00 hr 11 min 30 sec)
Heartbeat CPU 0 instructions: 130000001 cycles: 33582761 heartbeat IPC: 3.794 cumulative IPC: 3.795 (Simulation time: 00 hr 12 min 29 sec)
Heartbeat CPU 0 instructions: 140000002 cycles: 36217371 heartbeat IPC: 3.796 cumulative IPC: 3.795 (Simulation time: 00 hr 13 min 26 sec)
Heartbeat CPU 0 instructions: 150000004 cycles: 38852492 heartbeat IPC: 3.795 cumulative IPC: 3.795 (Simulation time: 00 hr 14 min 24 sec)
Heartbeat CPU 0 instructions: 160000000 cycles: 41487737 heartbeat IPC: 3.795 cumulative IPC: 3.795 (Simulation time: 00 hr 15 min 20 sec)
Heartbeat CPU 0 instructions: 170000004 cycles: 44122355 heartbeat IPC: 3.796 cumulative IPC: 3.795 (Simulation time: 00 hr 16 min 16 sec)
Heartbeat CPU 0 instructions: 180000000 cycles: 46758599 heartbeat IPC: 3.793 cumulative IPC: 3.795 (Simulation time: 00 hr 17 min 12 sec)
Heartbeat CPU 0 instructions: 190000000 cycles: 49394082 heartbeat IPC: 3.794 cumulative IPC: 3.795 (Simulation time: 00 hr 18 min 07 sec)
Heartbeat CPU 0 instructions: 200000001 cycles: 52030146 heartbeat IPC: 3.794 cumulative IPC: 3.795 (Simulation time: 00 hr 19 min 12 sec)
Heartbeat CPU 0 instructions: 210000001 cycles: 54665061 heartbeat IPC: 3.795 cumulative IPC: 3.795 (Simulation time: 00 hr 20 min 11 sec)
Heartbeat CPU 0 instructions: 220000002 cycles: 57300136 heartbeat IPC: 3.795 cumulative IPC: 3.795 (Simulation time: 00 hr 21 min 10 sec)
Heartbeat CPU 0 instructions: 230000001 cycles: 59935012 heartbeat IPC: 3.795 cumulative IPC: 3.795 (Simulation time: 00 hr 22 min 06 sec)
Heartbeat CPU 0 instructions: 240000003 cycles: 93361255 heartbeat IPC: 0.2992 cumulative IPC: 2.35 (Simulation time: 00 hr 27 min 28 sec)
Heartbeat CPU 0 instructions: 250000004 cycles: 102663979 heartbeat IPC: 1.075 cumulative IPC: 2.218 (Simulation time: 00 hr 29 min 48 sec)
Heartbeat CPU 0 instructions: 260000004 cycles: 111741927 heartbeat IPC: 1.102 cumulative IPC: 2.116 (Simulation time: 00 hr 32 min 07 sec)
Heartbeat CPU 0 instructions: 270000001 cycles: 119078862 heartbeat IPC: 1.363 cumulative IPC: 2.064 (Simulation time: 00 hr 34 min 44 sec)
Heartbeat CPU 0 instructions: 280000003 cycles: 124579467 heartbeat IPC: 1.818 cumulative IPC: 2.052 (Simulation time: 00 hr 36 min 17 sec)
Heartbeat CPU 0 instructions: 290000003 cycles: 130031111 heartbeat IPC: 1.834 cumulative IPC: 2.042 (Simulation time: 00 hr 37 min 48 sec)
Heartbeat CPU 0 instructions: 300000000 cycles: 135548346 heartbeat IPC: 1.813 cumulative IPC: 2.032 (Simulation time: 00 hr 39 min 22 sec)
Heartbeat CPU 0 instructions: 310000002 cycles: 140514196 heartbeat IPC: 2.014 cumulative IPC: 2.031 (Simulation time: 00 hr 40 min 49 sec)
Heartbeat CPU 0 instructions: 320000003 cycles: 146463943 heartbeat IPC: 1.681 cumulative IPC: 2.015 (Simulation time: 00 hr 42 min 26 sec)
Heartbeat CPU 0 instructions: 330000000 cycles: 155660995 heartbeat IPC: 1.087 cumulative IPC: 1.956 (Simulation time: 00 hr 44 min 38 sec)
Heartbeat CPU 0 instructions: 340000000 cycles: 164361966 heartbeat IPC: 1.149 cumulative IPC: 1.91 (Simulation time: 00 hr 46 min 45 sec)
Heartbeat CPU 0 instructions: 350000001 cycles: 173402975 heartbeat IPC: 1.106 cumulative IPC: 1.864 (Simulation time: 00 hr 48 min 57 sec)
Heartbeat CPU 0 instructions: 360000004 cycles: 181791809 heartbeat IPC: 1.192 cumulative IPC: 1.831 (Simulation time: 00 hr 51 min 01 sec)
Heartbeat CPU 0 instructions: 370000000 cycles: 190207228 heartbeat IPC: 1.188 cumulative IPC: 1.801 (Simulation time: 00 hr 53 min 06 sec)
Heartbeat CPU 0 instructions: 380000000 cycles: 198079681 heartbeat IPC: 1.27 cumulative IPC: 1.778 (Simulation time: 00 hr 55 min 04 sec)
Heartbeat CPU 0 instructions: 390000000 cycles: 206607551 heartbeat IPC: 1.173 cumulative IPC: 1.752 (Simulation time: 00 hr 57 min 12 sec)
Heartbeat CPU 0 instructions: 400000001 cycles: 215125850 heartbeat IPC: 1.174 cumulative IPC: 1.727 (Simulation time: 00 hr 59 min 23 sec)
Heartbeat CPU 0 instructions: 410000002 cycles: 223613780 heartbeat IPC: 1.178 cumulative IPC: 1.705 (Simulation time: 01 hr 01 min 28 sec)
Heartbeat CPU 0 instructions: 420000002 cycles: 232164537 heartbeat IPC: 1.169 cumulative IPC: 1.684 (Simulation time: 01 hr 03 min 38 sec)
Heartbeat CPU 0 instructions: 430000000 cycles: 240658561 heartbeat IPC: 1.177 cumulative IPC: 1.666 (Simulation time: 01 hr 05 min 50 sec)
Heartbeat CPU 0 instructions: 440000002 cycles: 379343532 heartbeat IPC: 0.07211 cumulative IPC: 1.063 (Simulation time: 01 hr 31 min 21 sec)
Heartbeat CPU 0 instructions: 450000001 cycles: 388086340 heartbeat IPC: 1.144 cumulative IPC: 1.065 (Simulation time: 01 hr 33 min 36 sec)
Heartbeat CPU 0 instructions: 460000004 cycles: 396992297 heartbeat IPC: 1.123 cumulative IPC: 1.066 (Simulation time: 01 hr 35 min 46 sec)
Heartbeat CPU 0 instructions: 470000002 cycles: 405828110 heartbeat IPC: 1.132 cumulative IPC: 1.068 (Simulation time: 01 hr 37 min 55 sec)
Heartbeat CPU 0 instructions: 480000001 cycles: 414933830 heartbeat IPC: 1.098 cumulative IPC: 1.068 (Simulation time: 01 hr 40 min 13 sec)
Heartbeat CPU 0 instructions: 490000003 cycles: 423893692 heartbeat IPC: 1.116 cumulative IPC: 1.07 (Simulation time: 01 hr 42 min 34 sec)
Heartbeat CPU 0 instructions: 500000000 cycles: 439333397 heartbeat IPC: 0.6477 cumulative IPC: 1.054 (Simulation time: 01 hr 45 min 55 sec)
Heartbeat CPU 0 instructions: 510000001 cycles: 452321567 heartbeat IPC: 0.7699 cumulative IPC: 1.046 (Simulation time: 01 hr 48 min 47 sec)
Heartbeat CPU 0 instructions: 520000004 cycles: 465347925 heartbeat IPC: 0.7677 cumulative IPC: 1.038 (Simulation time: 01 hr 51 min 39 sec)
Heartbeat CPU 0 instructions: 530000001 cycles: 478931115 heartbeat IPC: 0.7362 cumulative IPC: 1.029 (Simulation time: 01 hr 54 min 36 sec)
Heartbeat CPU 0 instructions: 540000003 cycles: 492210027 heartbeat IPC: 0.7531 cumulative IPC: 1.021 (Simulation time: 01 hr 57 min 42 sec)
Heartbeat CPU 0 instructions: 550000002 cycles: 503515323 heartbeat IPC: 0.8845 cumulative IPC: 1.018 (Simulation time: 02 hr 00 min 18 sec)
Heartbeat CPU 0 instructions: 560000001 cycles: 514477883 heartbeat IPC: 0.9122 cumulative IPC: 1.016 (Simulation time: 02 hr 02 min 49 sec)
Heartbeat CPU 0 instructions: 570000001 cycles: 525440742 heartbeat IPC: 0.9122 cumulative IPC: 1.014 (Simulation time: 02 hr 05 min 22 sec)
Heartbeat CPU 0 instructions: 580000001 cycles: 536396439 heartbeat IPC: 0.9128 cumulative IPC: 1.012 (Simulation time: 02 hr 07 min 56 sec)
Heartbeat CPU 0 instructions: 590000000 cycles: 547332228 heartbeat IPC: 0.9144 cumulative IPC: 1.01 (Simulation time: 02 hr 10 min 25 sec)
*** Reached end of trace: (0, "traces/lu.A.champsimtrace")
Heartbeat CPU 0 instructions: 600000001 cycles: 558339924 heartbeat IPC: 0.9085 cumulative IPC: 1.008 (Simulation time: 02 hr 12 min 54 sec)
Heartbeat CPU 0 instructions: 610000004 cycles: 566773104 heartbeat IPC: 1.186 cumulative IPC: 1.01 (Simulation time: 02 hr 14 min 47 sec)
Heartbeat CPU 0 instructions: 620000000 cycles: 569407739 heartbeat IPC: 3.796 cumulative IPC: 1.024 (Simulation time: 02 hr 15 min 42 sec)
Heartbeat CPU 0 instructions: 630000001 cycles: 572042374 heartbeat IPC: 3.796 cumulative IPC: 1.037 (Simulation time: 02 hr 16 min 36 sec)
Heartbeat CPU 0 instructions: 640000000 cycles: 574676991 heartbeat IPC: 3.796 cumulative IPC: 1.049 (Simulation time: 02 hr 17 min 31 sec)
Heartbeat CPU 0 instructions: 650000000 cycles: 577312043 heartbeat IPC: 3.795 cumulative IPC: 1.062 (Simulation time: 02 hr 18 min 23 sec)
Simulation finished CPU 0 instructions: 600000004 cycles: 564811842 cumulative IPC: 1.062 (Simulation time: 02 hr 18 min 23 sec)
Simulation complete CPU 0 instructions: 600000004 cycles: 564811842 cumulative IPC: 1.062 (Simulation time: 02 hr 18 min 23 sec)

ChampSim completed all CPUs

=== Simulation ===
CPU 0 runs traces/lu.A.champsimtrace
Region of Interest Statistics

CPU 0 cumulative IPC: 1.062 instructions: 600000004 cycles: 564811842
CPU 0 Branch Prediction Accuracy: 96.65% MPKI: 0.6426 Average ROB Occupancy at Mispredict: 327.9
Branch type MPKI
BRANCH_DIRECT_JUMP: 5e-06
BRANCH_INDIRECT: 8e-05
BRANCH_CONDITIONAL: 0.642
BRANCH_DIRECT_CALL: 6.67e-06
BRANCH_INDIRECT_CALL: 3.17e-05
BRANCH_RETURN: 1.67e-05

LLC TOTAL        ACCESS:    5109542 HIT:     814402 MISS:    4295140
LLC LOAD         ACCESS:    2482838 HIT:     273535 MISS:    2209303
LLC RFO          ACCESS:     831655 HIT:      25472 MISS:     806183
LLC PREFETCH     ACCESS:          0 HIT:          0 MISS:          0
LLC WRITE        ACCESS:    1783133 HIT:     506951 MISS:    1276182
LLC TRANSLATION  ACCESS:      11916 HIT:       8444 MISS:       3472
LLC PREFETCH REQUESTED:          0 ISSUED:          0 USEFUL:          0 USELESS:          0
LLC AVERAGE MISS LATENCY: 740.3 cycles
cpu0_DTLB TOTAL        ACCESS:  116347485 HIT:  109137997 MISS:    7209488
cpu0_DTLB LOAD         ACCESS:  116347485 HIT:  109137997 MISS:    7209488
cpu0_DTLB RFO          ACCESS:          0 HIT:          0 MISS:          0
cpu0_DTLB PREFETCH     ACCESS:          0 HIT:          0 MISS:          0
cpu0_DTLB WRITE        ACCESS:          0 HIT:          0 MISS:          0
cpu0_DTLB TRANSLATION  ACCESS:          0 HIT:          0 MISS:          0
cpu0_DTLB PREFETCH REQUESTED:          0 ISSUED:          0 USEFUL:          0 USELESS:          0
cpu0_DTLB AVERAGE MISS LATENCY: 5.528 cycles
cpu0_ITLB TOTAL        ACCESS:     720894 HIT:     720685 MISS:        209
cpu0_ITLB LOAD         ACCESS:     720894 HIT:     720685 MISS:        209
cpu0_ITLB RFO          ACCESS:          0 HIT:          0 MISS:          0
cpu0_ITLB PREFETCH     ACCESS:          0 HIT:          0 MISS:          0
cpu0_ITLB WRITE        ACCESS:          0 HIT:          0 MISS:          0
cpu0_ITLB TRANSLATION  ACCESS:          0 HIT:          0 MISS:          0
cpu0_ITLB PREFETCH REQUESTED:          0 ISSUED:          0 USEFUL:          0 USELESS:          0
cpu0_ITLB AVERAGE MISS LATENCY: 295.7 cycles
cpu0_L1D TOTAL        ACCESS:  168026206 HIT:  158346588 MISS:    9679618
cpu0_L1D LOAD         ACCESS:  130973491 HIT:  125135940 MISS:    5837551
cpu0_L1D RFO          ACCESS:          0 HIT:          0 MISS:          0
cpu0_L1D PREFETCH     ACCESS:          0 HIT:          0 MISS:          0
cpu0_L1D WRITE        ACCESS:   37000122 HIT:   33182904 MISS:    3817218
cpu0_L1D TRANSLATION  ACCESS:      52593 HIT:      27744 MISS:      24849
cpu0_L1D PREFETCH REQUESTED:          0 ISSUED:          0 USEFUL:          0 USELESS:          0
cpu0_L1D AVERAGE MISS LATENCY: 315.8 cycles
cpu0_L1I TOTAL        ACCESS:    1104783 HIT:    1102011 MISS:       2772
cpu0_L1I LOAD         ACCESS:    1104783 HIT:    1102011 MISS:       2772
cpu0_L1I RFO          ACCESS:          0 HIT:          0 MISS:          0
cpu0_L1I PREFETCH     ACCESS:          0 HIT:          0 MISS:          0
cpu0_L1I WRITE        ACCESS:          0 HIT:          0 MISS:          0
cpu0_L1I TRANSLATION  ACCESS:          0 HIT:          0 MISS:          0
cpu0_L1I PREFETCH REQUESTED:          0 ISSUED:          0 USEFUL:          0 USELESS:          0
cpu0_L1I AVERAGE MISS LATENCY: 513.9 cycles
cpu0_L2C TOTAL        ACCESS:    5961797 HIT:    2631115 MISS:    3330682
cpu0_L2C LOAD         ACCESS:    3060254 HIT:     577416 MISS:    2482838
cpu0_L2C RFO          ACCESS:     876560 HIT:      44905 MISS:     831655
cpu0_L2C PREFETCH     ACCESS:          0 HIT:          0 MISS:          0
cpu0_L2C WRITE        ACCESS:    2000177 HIT:    1995904 MISS:       4273
cpu0_L2C TRANSLATION  ACCESS:      24806 HIT:      12890 MISS:      11916
cpu0_L2C PREFETCH REQUESTED:          0 ISSUED:          0 USEFUL:          0 USELESS:          0
cpu0_L2C AVERAGE MISS LATENCY: 975.6 cycles
cpu0_STLB TOTAL        ACCESS:    3988134 HIT:    3935552 MISS:      52582
cpu0_STLB LOAD         ACCESS:    3988134 HIT:    3935552 MISS:      52582
cpu0_STLB RFO          ACCESS:          0 HIT:          0 MISS:          0
cpu0_STLB PREFETCH     ACCESS:          0 HIT:          0 MISS:          0
cpu0_STLB WRITE        ACCESS:          0 HIT:          0 MISS:          0
cpu0_STLB TRANSLATION  ACCESS:          0 HIT:          0 MISS:          0
cpu0_STLB PREFETCH REQUESTED:          0 ISSUED:          0 USEFUL:          0 USELESS:          0
cpu0_STLB AVERAGE MISS LATENCY: 514.7 cycles

DRAM Statistics

Channel 0 RQ ROW_BUFFER_HIT:     756230
  ROW_BUFFER_MISS:    2262674
 AVG DBUS CONGESTED CYCLE: 3.929
WQ ROW_BUFFER_HIT: Channel 0 
  ROW_BUFFER_MISS:     414091
  FULL:    1208654
