WARNING: physical memory size is smaller than virtual memory size.

*** ChampSim Multicore Out-of-Order Simulator ***
Warmup Instructions: 50000000
Simulation Instructions: 600000000
Number of CPUs: 1
Page size: 4096

CPU 0 Tage branch predictor
Off-chip DRAM Size: 4 GiB Channels: 1 Width: 64-bit Data Race: 3200 MT/s
Heartbeat CPU 0 instructions: 10000000 cycles: 2500202 heartbeat IPC: 4 cumulative IPC: 4 (Simulation time: 00 hr 00 min 38 sec)
Heartbeat CPU 0 instructions: 20000000 cycles: 5000202 heartbeat IPC: 4 cumulative IPC: 4 (Simulation time: 00 hr 01 min 16 sec)
Heartbeat CPU 0 instructions: 30000000 cycles: 7500202 heartbeat IPC: 4 cumulative IPC: 4 (Simulation time: 00 hr 01 min 54 sec)
Heartbeat CPU 0 instructions: 40000000 cycles: 10000202 heartbeat IPC: 4 cumulative IPC: 4 (Simulation time: 00 hr 02 min 31 sec)
Heartbeat CPU 0 instructions: 50000000 cycles: 12500202 heartbeat IPC: 4 cumulative IPC: 4 (Simulation time: 00 hr 03 min 09 sec)
Warmup finished CPU 0 instructions: 50000000 cycles: 12500203 cumulative IPC: 4 (Simulation time: 00 hr 03 min 09 sec)
Warmup complete CPU 0 instructions: 50000000 cycles: 12500203 cumulative IPC: 4 (Simulation time: 00 hr 03 min 09 sec)
Heartbeat CPU 0 instructions: 60000004 cycles: 15000241 heartbeat IPC: 4 cumulative IPC: 4 (Simulation time: 00 hr 03 min 54 sec)
Heartbeat CPU 0 instructions: 70000003 cycles: 17500265 heartbeat IPC: 4 cumulative IPC: 4 (Simulation time: 00 hr 04 min 40 sec)
Heartbeat CPU 0 instructions: 80000004 cycles: 20000763 heartbeat IPC: 3.999 cumulative IPC: 4 (Simulation time: 00 hr 05 min 25 sec)
Heartbeat CPU 0 instructions: 90000000 cycles: 22502541 heartbeat IPC: 3.997 cumulative IPC: 3.999 (Simulation time: 00 hr 06 min 11 sec)
Heartbeat CPU 0 instructions: 100000001 cycles: 25003085 heartbeat IPC: 3.999 cumulative IPC: 3.999 (Simulation time: 00 hr 06 min 57 sec)
Heartbeat CPU 0 instructions: 110000000 cycles: 27503119 heartbeat IPC: 4 cumulative IPC: 3.999 (Simulation time: 00 hr 07 min 42 sec)
Heartbeat CPU 0 instructions: 120000004 cycles: 30006504 heartbeat IPC: 3.995 cumulative IPC: 3.999 (Simulation time: 00 hr 08 min 28 sec)
Heartbeat CPU 0 instructions: 130000000 cycles: 32507674 heartbeat IPC: 3.998 cumulative IPC: 3.999 (Simulation time: 00 hr 09 min 15 sec)
Heartbeat CPU 0 instructions: 140000004 cycles: 35007927 heartbeat IPC: 4 cumulative IPC: 3.999 (Simulation time: 00 hr 10 min 01 sec)
Heartbeat CPU 0 instructions: 150000000 cycles: 37508833 heartbeat IPC: 3.999 cumulative IPC: 3.999 (Simulation time: 00 hr 10 min 46 sec)
Heartbeat CPU 0 instructions: 160000001 cycles: 40009228 heartbeat IPC: 3.999 cumulative IPC: 3.999 (Simulation time: 00 hr 11 min 30 sec)
Heartbeat CPU 0 instructions: 170000000 cycles: 42509518 heartbeat IPC: 4 cumulative IPC: 3.999 (Simulation time: 00 hr 12 min 13 sec)
Heartbeat CPU 0 instructions: 180000003 cycles: 45012463 heartbeat IPC: 3.995 cumulative IPC: 3.998 (Simulation time: 00 hr 12 min 57 sec)
Heartbeat CPU 0 instructions: 190000000 cycles: 47513061 heartbeat IPC: 3.999 cumulative IPC: 3.999 (Simulation time: 00 hr 13 min 40 sec)
Heartbeat CPU 0 instructions: 200000004 cycles: 50013637 heartbeat IPC: 3.999 cumulative IPC: 3.999 (Simulation time: 00 hr 14 min 24 sec)
Heartbeat CPU 0 instructions: 210000004 cycles: 52513896 heartbeat IPC: 4 cumulative IPC: 3.999 (Simulation time: 00 hr 15 min 07 sec)
Heartbeat CPU 0 instructions: 220000001 cycles: 55014945 heartbeat IPC: 3.998 cumulative IPC: 3.999 (Simulation time: 00 hr 15 min 50 sec)
Heartbeat CPU 0 instructions: 230000000 cycles: 57514947 heartbeat IPC: 4 cumulative IPC: 3.999 (Simulation time: 00 hr 16 min 34 sec)
Heartbeat CPU 0 instructions: 240000003 cycles: 89557414 heartbeat IPC: 0.3121 cumulative IPC: 2.466 (Simulation time: 00 hr 20 min 16 sec)
Heartbeat CPU 0 instructions: 250000001 cycles: 98265266 heartbeat IPC: 1.148 cumulative IPC: 2.332 (Simulation time: 00 hr 21 min 52 sec)
Heartbeat CPU 0 instructions: 260000001 cycles: 106942323 heartbeat IPC: 1.152 cumulative IPC: 2.224 (Simulation time: 00 hr 23 min 31 sec)
Heartbeat CPU 0 instructions: 270000003 cycles: 117316357 heartbeat IPC: 0.9639 cumulative IPC: 2.099 (Simulation time: 00 hr 25 min 19 sec)
Heartbeat CPU 0 instructions: 280000002 cycles: 126105232 heartbeat IPC: 1.138 cumulative IPC: 2.025 (Simulation time: 00 hr 26 min 56 sec)
Heartbeat CPU 0 instructions: 290000000 cycles: 134489792 heartbeat IPC: 1.193 cumulative IPC: 1.967 (Simulation time: 00 hr 28 min 29 sec)
Heartbeat CPU 0 instructions: 300000002 cycles: 142980288 heartbeat IPC: 1.178 cumulative IPC: 1.916 (Simulation time: 00 hr 30 min 03 sec)
Heartbeat CPU 0 instructions: 310000001 cycles: 151384554 heartbeat IPC: 1.19 cumulative IPC: 1.872 (Simulation time: 00 hr 31 min 35 sec)
Heartbeat CPU 0 instructions: 320000000 cycles: 159588926 heartbeat IPC: 1.219 cumulative IPC: 1.836 (Simulation time: 00 hr 33 min 09 sec)
Heartbeat CPU 0 instructions: 330000002 cycles: 167731867 heartbeat IPC: 1.228 cumulative IPC: 1.804 (Simulation time: 00 hr 34 min 46 sec)
Heartbeat CPU 0 instructions: 340000000 cycles: 175966546 heartbeat IPC: 1.214 cumulative IPC: 1.774 (Simulation time: 00 hr 36 min 22 sec)
Heartbeat CPU 0 instructions: 350000003 cycles: 184125758 heartbeat IPC: 1.226 cumulative IPC: 1.748 (Simulation time: 00 hr 37 min 53 sec)
Heartbeat CPU 0 instructions: 360000003 cycles: 192336350 heartbeat IPC: 1.218 cumulative IPC: 1.724 (Simulation time: 00 hr 39 min 28 sec)
Heartbeat CPU 0 instructions: 370000002 cycles: 200449718 heartbeat IPC: 1.233 cumulative IPC: 1.703 (Simulation time: 00 hr 41 min 01 sec)
Heartbeat CPU 0 instructions: 380000003 cycles: 208691157 heartbeat IPC: 1.213 cumulative IPC: 1.682 (Simulation time: 00 hr 42 min 34 sec)
Heartbeat CPU 0 instructions: 390000000 cycles: 217055208 heartbeat IPC: 1.196 cumulative IPC: 1.662 (Simulation time: 00 hr 44 min 10 sec)
Heartbeat CPU 0 instructions: 400000000 cycles: 225309387 heartbeat IPC: 1.212 cumulative IPC: 1.645 (Simulation time: 00 hr 45 min 45 sec)
Heartbeat CPU 0 instructions: 410000002 cycles: 233464027 heartbeat IPC: 1.226 cumulative IPC: 1.629 (Simulation time: 00 hr 47 min 23 sec)
Heartbeat CPU 0 instructions: 420000004 cycles: 241690016 heartbeat IPC: 1.216 cumulative IPC: 1.614 (Simulation time: 00 hr 49 min 00 sec)
Heartbeat CPU 0 instructions: 430000002 cycles: 249920494 heartbeat IPC: 1.215 cumulative IPC: 1.601 (Simulation time: 00 hr 50 min 36 sec)
Heartbeat CPU 0 instructions: 440000004 cycles: 361773929 heartbeat IPC: 0.0894 cumulative IPC: 1.117 (Simulation time: 01 hr 06 min 15 sec)
Heartbeat CPU 0 instructions: 450000003 cycles: 369719326 heartbeat IPC: 1.259 cumulative IPC: 1.12 (Simulation time: 01 hr 07 min 46 sec)
Heartbeat CPU 0 instructions: 460000004 cycles: 380136723 heartbeat IPC: 0.9599 cumulative IPC: 1.115 (Simulation time: 01 hr 09 min 39 sec)
Heartbeat CPU 0 instructions: 470000002 cycles: 390250912 heartbeat IPC: 0.9887 cumulative IPC: 1.112 (Simulation time: 01 hr 11 min 31 sec)
Heartbeat CPU 0 instructions: 480000004 cycles: 400593928 heartbeat IPC: 0.9668 cumulative IPC: 1.108 (Simulation time: 01 hr 13 min 21 sec)
Heartbeat CPU 0 instructions: 490000002 cycles: 410639637 heartbeat IPC: 0.9954 cumulative IPC: 1.105 (Simulation time: 01 hr 15 min 09 sec)
Heartbeat CPU 0 instructions: 500000002 cycles: 421674239 heartbeat IPC: 0.9062 cumulative IPC: 1.1 (Simulation time: 01 hr 17 min 04 sec)
Heartbeat CPU 0 instructions: 510000004 cycles: 435946438 heartbeat IPC: 0.7007 cumulative IPC: 1.086 (Simulation time: 01 hr 19 min 26 sec)
Heartbeat CPU 0 instructions: 520000000 cycles: 450978789 heartbeat IPC: 0.6652 cumulative IPC: 1.072 (Simulation time: 01 hr 21 min 57 sec)
Heartbeat CPU 0 instructions: 530000004 cycles: 466380269 heartbeat IPC: 0.6493 cumulative IPC: 1.058 (Simulation time: 01 hr 24 min 33 sec)
Heartbeat CPU 0 instructions: 540000000 cycles: 481319909 heartbeat IPC: 0.6694 cumulative IPC: 1.045 (Simulation time: 01 hr 27 min 04 sec)
Heartbeat CPU 0 instructions: 550000002 cycles: 492738316 heartbeat IPC: 0.8758 cumulative IPC: 1.041 (Simulation time: 01 hr 29 min 05 sec)
Heartbeat CPU 0 instructions: 560000000 cycles: 503104247 heartbeat IPC: 0.9647 cumulative IPC: 1.04 (Simulation time: 01 hr 30 min 57 sec)
Heartbeat CPU 0 instructions: 570000002 cycles: 513491324 heartbeat IPC: 0.9627 cumulative IPC: 1.038 (Simulation time: 01 hr 32 min 48 sec)
Heartbeat CPU 0 instructions: 580000000 cycles: 523770008 heartbeat IPC: 0.9729 cumulative IPC: 1.037 (Simulation time: 01 hr 34 min 37 sec)
Heartbeat CPU 0 instructions: 590000003 cycles: 533999700 heartbeat IPC: 0.9775 cumulative IPC: 1.035 (Simulation time: 01 hr 36 min 24 sec)
*** Reached end of trace: (0, "traces/lu.A.champsimtrace")
Heartbeat CPU 0 instructions: 600000001 cycles: 544289658 heartbeat IPC: 0.9718 cumulative IPC: 1.034 (Simulation time: 01 hr 38 min 11 sec)
Heartbeat CPU 0 instructions: 610000000 cycles: 551063932 heartbeat IPC: 1.476 cumulative IPC: 1.04 (Simulation time: 01 hr 39 min 28 sec)
Heartbeat CPU 0 instructions: 620000000 cycles: 553563933 heartbeat IPC: 4 cumulative IPC: 1.053 (Simulation time: 01 hr 40 min 13 sec)
Heartbeat CPU 0 instructions: 630000004 cycles: 556063934 heartbeat IPC: 4 cumulative IPC: 1.067 (Simulation time: 01 hr 40 min 58 sec)
Heartbeat CPU 0 instructions: 640000002 cycles: 558563934 heartbeat IPC: 4 cumulative IPC: 1.08 (Simulation time: 01 hr 41 min 42 sec)
Heartbeat CPU 0 instructions: 650000001 cycles: 561063933 heartbeat IPC: 4 cumulative IPC: 1.094 (Simulation time: 01 hr 42 min 28 sec)
Simulation finished CPU 0 instructions: 600000001 cycles: 548563731 cumulative IPC: 1.094 (Simulation time: 01 hr 42 min 28 sec)
Simulation complete CPU 0 instructions: 600000001 cycles: 548563731 cumulative IPC: 1.094 (Simulation time: 01 hr 42 min 28 sec)

ChampSim completed all CPUs

=== Simulation ===
CPU 0 runs traces/lu.A.champsimtrace
Region of Interest Statistics

CPU 0 cumulative IPC: 1.094 instructions: 600000001 cycles: 548563731
CPU 0 Branch Prediction Accuracy: 99.98% MPKI: 0.004037 Average ROB Occupancy at Mispredict: 117.6
Branch type MPKI
BRANCH_DIRECT_JUMP: 5e-06
BRANCH_INDIRECT: 7.33e-05
BRANCH_CONDITIONAL: 0.0039
BRANCH_DIRECT_CALL: 6.67e-06
BRANCH_INDIRECT_CALL: 3.17e-05
BRANCH_RETURN: 1.83e-05

LLC TOTAL        ACCESS:    6236148 HIT:    1798684 MISS:    4437464
LLC LOAD         ACCESS:    2481327 HIT:     660546 MISS:    1820781
LLC RFO          ACCESS:     831673 HIT:      47913 MISS:     783760
LLC PREFETCH     ACCESS:    1128986 HIT:     385357 MISS:     743629
LLC WRITE        ACCESS:    1782302 HIT:     701357 MISS:    1080945
LLC TRANSLATION  ACCESS:      11860 HIT:       3511 MISS:       8349
LLC PREFETCH REQUESTED:    1128986 ISSUED:    1128986 USEFUL:     491940 USELESS:      16539
LLC AVERAGE MISS LATENCY: 764.5 cycles
cpu0_DTLB TOTAL        ACCESS:  125813939 HIT:  118414825 MISS:    7399114
cpu0_DTLB LOAD         ACCESS:  125813939 HIT:  118414825 MISS:    7399114
cpu0_DTLB RFO          ACCESS:          0 HIT:          0 MISS:          0
cpu0_DTLB PREFETCH     ACCESS:          0 HIT:          0 MISS:          0
cpu0_DTLB WRITE        ACCESS:          0 HIT:          0 MISS:          0
cpu0_DTLB TRANSLATION  ACCESS:          0 HIT:          0 MISS:          0
cpu0_DTLB PREFETCH REQUESTED:          0 ISSUED:          0 USEFUL:          0 USELESS:          0
cpu0_DTLB AVERAGE MISS LATENCY: 6.215 cycles
cpu0_ITLB TOTAL        ACCESS:    1262038 HIT:    1261816 MISS:        222
cpu0_ITLB LOAD         ACCESS:    1262038 HIT:    1261816 MISS:        222
cpu0_ITLB RFO          ACCESS:          0 HIT:          0 MISS:          0
cpu0_ITLB PREFETCH     ACCESS:          0 HIT:          0 MISS:          0
cpu0_ITLB WRITE        ACCESS:          0 HIT:          0 MISS:          0
cpu0_ITLB TRANSLATION  ACCESS:          0 HIT:          0 MISS:          0
cpu0_ITLB PREFETCH REQUESTED:          0 ISSUED:          0 USEFUL:          0 USELESS:          0
cpu0_ITLB AVERAGE MISS LATENCY: 311.1 cycles
cpu0_L1D TOTAL        ACCESS:  180181252 HIT:  170342626 MISS:    9838626
cpu0_L1D LOAD         ACCESS:  143127021 HIT:  137073116 MISS:    6053905
cpu0_L1D RFO          ACCESS:          0 HIT:          0 MISS:          0
cpu0_L1D PREFETCH     ACCESS:          0 HIT:          0 MISS:          0
cpu0_L1D WRITE        ACCESS:   37001631 HIT:   33241801 MISS:    3759830
cpu0_L1D TRANSLATION  ACCESS:      52600 HIT:      27709 MISS:      24891
cpu0_L1D PREFETCH REQUESTED:          0 ISSUED:          0 USEFUL:          0 USELESS:          0
cpu0_L1D AVERAGE MISS LATENCY: 279.9 cycles
cpu0_L1I TOTAL        ACCESS:    1588776 HIT:    1585865 MISS:       2911
cpu0_L1I LOAD         ACCESS:    1588776 HIT:    1585865 MISS:       2911
cpu0_L1I RFO          ACCESS:          0 HIT:          0 MISS:          0
cpu0_L1I PREFETCH     ACCESS:          0 HIT:          0 MISS:          0
cpu0_L1I WRITE        ACCESS:          0 HIT:          0 MISS:          0
cpu0_L1I TRANSLATION  ACCESS:          0 HIT:          0 MISS:          0
cpu0_L1I PREFETCH REQUESTED:          0 ISSUED:          0 USEFUL:          0 USELESS:          0
cpu0_L1I AVERAGE MISS LATENCY: 534.9 cycles
cpu0_L2C TOTAL        ACCESS:    5979868 HIT:    2650695 MISS:    3329173
cpu0_L2C LOAD         ACCESS:    3058955 HIT:     577628 MISS:    2481327
cpu0_L2C RFO          ACCESS:     878262 HIT:      46589 MISS:     831673
cpu0_L2C PREFETCH     ACCESS:          0 HIT:          0 MISS:          0
cpu0_L2C WRITE        ACCESS:    2017806 HIT:    2013493 MISS:       4313
cpu0_L2C TRANSLATION  ACCESS:      24845 HIT:      12985 MISS:      11860
cpu0_L2C PREFETCH REQUESTED:          0 ISSUED:          0 USEFUL:          0 USELESS:          0
cpu0_L2C AVERAGE MISS LATENCY: 885.1 cycles
cpu0_STLB TOTAL        ACCESS:    3994103 HIT:    3941517 MISS:      52586
cpu0_STLB LOAD         ACCESS:    3994103 HIT:    3941517 MISS:      52586
cpu0_STLB RFO          ACCESS:          0 HIT:          0 MISS:          0
cpu0_STLB PREFETCH     ACCESS:          0 HIT:          0 MISS:          0
cpu0_STLB WRITE        ACCESS:          0 HIT:          0 MISS:          0
cpu0_STLB TRANSLATION  ACCESS:          0 HIT:          0 MISS:          0
cpu0_STLB PREFETCH REQUESTED:          0 ISSUED:          0 USEFUL:          0 USELESS:          0
cpu0_STLB AVERAGE MISS LATENCY: 690.2 cycles

DRAM Statistics

Channel 0 RQ ROW_BUFFER_HIT:     806647
  ROW_BUFFER_MISS:    2147468
 AVG DBUS CONGESTED CYCLE: 3.94
WQ ROW_BUFFER_HIT: Channel 0 
  ROW_BUFFER_MISS:     377291
  FULL:    1273795
