WARNING: physical memory size is smaller than virtual memory size.

*** ChampSim Multicore Out-of-Order Simulator ***
Warmup Instructions: 50000000
Simulation Instructions: 600000000
Number of CPUs: 1
Page size: 4096

Off-chip DRAM Size: 4 GiB Channels: 1 Width: 64-bit Data Race: 3200 MT/s
Heartbeat CPU 0 instructions: 10000000 cycles: 2500202 heartbeat IPC: 4 cumulative IPC: 4 (Simulation time: 00 hr 00 min 34 sec)
Heartbeat CPU 0 instructions: 20000000 cycles: 5000202 heartbeat IPC: 4 cumulative IPC: 4 (Simulation time: 00 hr 01 min 08 sec)
Heartbeat CPU 0 instructions: 30000000 cycles: 7500202 heartbeat IPC: 4 cumulative IPC: 4 (Simulation time: 00 hr 01 min 42 sec)
Heartbeat CPU 0 instructions: 40000000 cycles: 10000202 heartbeat IPC: 4 cumulative IPC: 4 (Simulation time: 00 hr 02 min 15 sec)
Heartbeat CPU 0 instructions: 50000000 cycles: 12500202 heartbeat IPC: 4 cumulative IPC: 4 (Simulation time: 00 hr 02 min 49 sec)
Warmup finished CPU 0 instructions: 50000000 cycles: 12500203 cumulative IPC: 4 (Simulation time: 00 hr 02 min 49 sec)
Warmup complete CPU 0 instructions: 50000000 cycles: 12500203 cumulative IPC: 4 (Simulation time: 00 hr 02 min 49 sec)
Heartbeat CPU 0 instructions: 60000004 cycles: 15134822 heartbeat IPC: 3.796 cumulative IPC: 3.796 (Simulation time: 00 hr 03 min 28 sec)
Heartbeat CPU 0 instructions: 70000003 cycles: 17769446 heartbeat IPC: 3.796 cumulative IPC: 3.796 (Simulation time: 00 hr 04 min 07 sec)
Heartbeat CPU 0 instructions: 80000003 cycles: 20404096 heartbeat IPC: 3.796 cumulative IPC: 3.796 (Simulation time: 00 hr 04 min 46 sec)
Heartbeat CPU 0 instructions: 90000004 cycles: 23039356 heartbeat IPC: 3.795 cumulative IPC: 3.795 (Simulation time: 00 hr 05 min 25 sec)
Heartbeat CPU 0 instructions: 100000002 cycles: 25675095 heartbeat IPC: 3.794 cumulative IPC: 3.795 (Simulation time: 00 hr 06 min 04 sec)
Heartbeat CPU 0 instructions: 110000003 cycles: 28310652 heartbeat IPC: 3.794 cumulative IPC: 3.795 (Simulation time: 00 hr 06 min 43 sec)
Heartbeat CPU 0 instructions: 120000004 cycles: 30945760 heartbeat IPC: 3.795 cumulative IPC: 3.795 (Simulation time: 00 hr 07 min 21 sec)
Heartbeat CPU 0 instructions: 130000000 cycles: 33580405 heartbeat IPC: 3.796 cumulative IPC: 3.795 (Simulation time: 00 hr 08 min 01 sec)
Heartbeat CPU 0 instructions: 140000004 cycles: 36215487 heartbeat IPC: 3.795 cumulative IPC: 3.795 (Simulation time: 00 hr 08 min 39 sec)
Heartbeat CPU 0 instructions: 150000000 cycles: 38850778 heartbeat IPC: 3.795 cumulative IPC: 3.795 (Simulation time: 00 hr 09 min 17 sec)
Heartbeat CPU 0 instructions: 160000001 cycles: 41486599 heartbeat IPC: 3.794 cumulative IPC: 3.795 (Simulation time: 00 hr 09 min 55 sec)
Heartbeat CPU 0 instructions: 170000000 cycles: 44121684 heartbeat IPC: 3.795 cumulative IPC: 3.795 (Simulation time: 00 hr 10 min 33 sec)
Heartbeat CPU 0 instructions: 180000003 cycles: 46756794 heartbeat IPC: 3.795 cumulative IPC: 3.795 (Simulation time: 00 hr 11 min 10 sec)
Heartbeat CPU 0 instructions: 190000000 cycles: 49391874 heartbeat IPC: 3.795 cumulative IPC: 3.795 (Simulation time: 00 hr 11 min 49 sec)
Heartbeat CPU 0 instructions: 200000004 cycles: 52026996 heartbeat IPC: 3.795 cumulative IPC: 3.795 (Simulation time: 00 hr 12 min 27 sec)
Heartbeat CPU 0 instructions: 210000004 cycles: 54662324 heartbeat IPC: 3.795 cumulative IPC: 3.795 (Simulation time: 00 hr 13 min 07 sec)
Heartbeat CPU 0 instructions: 220000001 cycles: 57297404 heartbeat IPC: 3.795 cumulative IPC: 3.795 (Simulation time: 00 hr 13 min 46 sec)
Heartbeat CPU 0 instructions: 230000002 cycles: 59932263 heartbeat IPC: 3.795 cumulative IPC: 3.795 (Simulation time: 00 hr 14 min 24 sec)
Heartbeat CPU 0 instructions: 240000000 cycles: 93928938 heartbeat IPC: 0.2941 cumulative IPC: 2.333 (Simulation time: 00 hr 18 min 10 sec)
Heartbeat CPU 0 instructions: 250000001 cycles: 103067796 heartbeat IPC: 1.094 cumulative IPC: 2.208 (Simulation time: 00 hr 19 min 44 sec)
Heartbeat CPU 0 instructions: 260000001 cycles: 112186300 heartbeat IPC: 1.097 cumulative IPC: 2.107 (Simulation time: 00 hr 21 min 18 sec)
Heartbeat CPU 0 instructions: 270000001 cycles: 122095497 heartbeat IPC: 1.009 cumulative IPC: 2.007 (Simulation time: 00 hr 22 min 56 sec)
Heartbeat CPU 0 instructions: 280000003 cycles: 130563354 heartbeat IPC: 1.181 cumulative IPC: 1.948 (Simulation time: 00 hr 24 min 23 sec)
Heartbeat CPU 0 instructions: 290000001 cycles: 136897748 heartbeat IPC: 1.579 cumulative IPC: 1.929 (Simulation time: 00 hr 25 min 32 sec)
Heartbeat CPU 0 instructions: 300000002 cycles: 143176541 heartbeat IPC: 1.593 cumulative IPC: 1.913 (Simulation time: 00 hr 26 min 41 sec)
Heartbeat CPU 0 instructions: 310000002 cycles: 149521256 heartbeat IPC: 1.576 cumulative IPC: 1.898 (Simulation time: 00 hr 27 min 52 sec)
Heartbeat CPU 0 instructions: 320000000 cycles: 156423511 heartbeat IPC: 1.449 cumulative IPC: 1.876 (Simulation time: 00 hr 29 min 07 sec)
Heartbeat CPU 0 instructions: 330000002 cycles: 165022136 heartbeat IPC: 1.163 cumulative IPC: 1.836 (Simulation time: 00 hr 30 min 38 sec)
Heartbeat CPU 0 instructions: 340000004 cycles: 173379646 heartbeat IPC: 1.197 cumulative IPC: 1.803 (Simulation time: 00 hr 32 min 07 sec)
Heartbeat CPU 0 instructions: 350000003 cycles: 181719319 heartbeat IPC: 1.199 cumulative IPC: 1.773 (Simulation time: 00 hr 33 min 36 sec)
Heartbeat CPU 0 instructions: 360000001 cycles: 190046913 heartbeat IPC: 1.201 cumulative IPC: 1.746 (Simulation time: 00 hr 35 min 06 sec)
Heartbeat CPU 0 instructions: 370000002 cycles: 198322653 heartbeat IPC: 1.208 cumulative IPC: 1.722 (Simulation time: 00 hr 36 min 37 sec)
Heartbeat CPU 0 instructions: 380000003 cycles: 205944903 heartbeat IPC: 1.312 cumulative IPC: 1.706 (Simulation time: 00 hr 38 min 04 sec)
Heartbeat CPU 0 instructions: 390000000 cycles: 213846966 heartbeat IPC: 1.265 cumulative IPC: 1.689 (Simulation time: 00 hr 39 min 30 sec)
Heartbeat CPU 0 instructions: 400000000 cycles: 222183181 heartbeat IPC: 1.2 cumulative IPC: 1.669 (Simulation time: 00 hr 41 min 00 sec)
Heartbeat CPU 0 instructions: 410000002 cycles: 230447807 heartbeat IPC: 1.21 cumulative IPC: 1.652 (Simulation time: 00 hr 42 min 30 sec)
Heartbeat CPU 0 instructions: 420000000 cycles: 238704234 heartbeat IPC: 1.211 cumulative IPC: 1.636 (Simulation time: 00 hr 44 min 01 sec)
Heartbeat CPU 0 instructions: 430000002 cycles: 247007897 heartbeat IPC: 1.204 cumulative IPC: 1.62 (Simulation time: 00 hr 45 min 33 sec)
Heartbeat CPU 0 instructions: 440000004 cycles: 402435208 heartbeat IPC: 0.06434 cumulative IPC: 1 (Simulation time: 01 hr 06 min 10 sec)
Heartbeat CPU 0 instructions: 450000003 cycles: 412213870 heartbeat IPC: 1.023 cumulative IPC: 1.001 (Simulation time: 01 hr 07 min 49 sec)
Heartbeat CPU 0 instructions: 460000004 cycles: 421507537 heartbeat IPC: 1.076 cumulative IPC: 1.002 (Simulation time: 01 hr 09 min 25 sec)
Heartbeat CPU 0 instructions: 470000002 cycles: 431215883 heartbeat IPC: 1.03 cumulative IPC: 1.003 (Simulation time: 01 hr 11 min 05 sec)
Heartbeat CPU 0 instructions: 480000004 cycles: 440418594 heartbeat IPC: 1.087 cumulative IPC: 1.005 (Simulation time: 01 hr 12 min 39 sec)
Heartbeat CPU 0 instructions: 490000002 cycles: 450529213 heartbeat IPC: 0.9891 cumulative IPC: 1.004 (Simulation time: 01 hr 14 min 21 sec)
Heartbeat CPU 0 instructions: 500000003 cycles: 463312813 heartbeat IPC: 0.7823 cumulative IPC: 0.9982 (Simulation time: 01 hr 16 min 27 sec)
Heartbeat CPU 0 instructions: 510000004 cycles: 476248151 heartbeat IPC: 0.7731 cumulative IPC: 0.9919 (Simulation time: 01 hr 18 min 33 sec)
Heartbeat CPU 0 instructions: 520000000 cycles: 489374415 heartbeat IPC: 0.7618 cumulative IPC: 0.9856 (Simulation time: 01 hr 20 min 40 sec)
Heartbeat CPU 0 instructions: 530000004 cycles: 502411858 heartbeat IPC: 0.767 cumulative IPC: 0.9798 (Simulation time: 01 hr 22 min 51 sec)
Heartbeat CPU 0 instructions: 540000002 cycles: 515419891 heartbeat IPC: 0.7688 cumulative IPC: 0.9743 (Simulation time: 01 hr 24 min 58 sec)
Heartbeat CPU 0 instructions: 550000002 cycles: 526308763 heartbeat IPC: 0.9184 cumulative IPC: 0.9731 (Simulation time: 01 hr 26 min 46 sec)
Heartbeat CPU 0 instructions: 560000000 cycles: 537321768 heartbeat IPC: 0.908 cumulative IPC: 0.9718 (Simulation time: 01 hr 28 min 34 sec)
Heartbeat CPU 0 instructions: 570000002 cycles: 548448518 heartbeat IPC: 0.8987 cumulative IPC: 0.9702 (Simulation time: 01 hr 30 min 24 sec)
Heartbeat CPU 0 instructions: 580000003 cycles: 559509174 heartbeat IPC: 0.9041 cumulative IPC: 0.9689 (Simulation time: 01 hr 32 min 12 sec)
Heartbeat CPU 0 instructions: 590000003 cycles: 570483687 heartbeat IPC: 0.9112 cumulative IPC: 0.9678 (Simulation time: 01 hr 34 min 00 sec)
*** Reached end of trace: (0, "traces/lu.A.champsimtrace")
Heartbeat CPU 0 instructions: 600000001 cycles: 581679765 heartbeat IPC: 0.8932 cumulative IPC: 0.9663 (Simulation time: 01 hr 35 min 55 sec)
Heartbeat CPU 0 instructions: 610000000 cycles: 588334438 heartbeat IPC: 1.503 cumulative IPC: 0.9725 (Simulation time: 01 hr 37 min 03 sec)
Heartbeat CPU 0 instructions: 620000000 cycles: 590969081 heartbeat IPC: 3.796 cumulative IPC: 0.9854 (Simulation time: 01 hr 37 min 41 sec)
Heartbeat CPU 0 instructions: 630000004 cycles: 593603720 heartbeat IPC: 3.796 cumulative IPC: 0.9981 (Simulation time: 01 hr 38 min 18 sec)
Heartbeat CPU 0 instructions: 640000002 cycles: 596238343 heartbeat IPC: 3.796 cumulative IPC: 1.011 (Simulation time: 01 hr 38 min 56 sec)
Heartbeat CPU 0 instructions: 650000001 cycles: 598872982 heartbeat IPC: 3.796 cumulative IPC: 1.023 (Simulation time: 01 hr 39 min 34 sec)
Simulation finished CPU 0 instructions: 600000001 cycles: 586372780 cumulative IPC: 1.023 (Simulation time: 01 hr 39 min 34 sec)
Simulation complete CPU 0 instructions: 600000001 cycles: 586372780 cumulative IPC: 1.023 (Simulation time: 01 hr 39 min 34 sec)

ChampSim completed all CPUs

=== Simulation ===
CPU 0 runs traces/lu.A.champsimtrace
Region of Interest Statistics

CPU 0 cumulative IPC: 1.023 instructions: 600000001 cycles: 586372780
CPU 0 Branch Prediction Accuracy: 96.65% MPKI: 0.6426 Average ROB Occupancy at Mispredict: 330.1
Branch type MPKI
BRANCH_DIRECT_JUMP: 5e-06
BRANCH_INDIRECT: 7.33e-05
BRANCH_CONDITIONAL: 0.642
BRANCH_DIRECT_CALL: 6.67e-06
BRANCH_INDIRECT_CALL: 3.17e-05
BRANCH_RETURN: 1.83e-05

LLC TOTAL        ACCESS:    5107193 HIT:    1999052 MISS:    3108141
LLC LOAD         ACCESS:    2481310 HIT:     199233 MISS:    2282077
LLC RFO          ACCESS:     831678 HIT:       8898 MISS:     822780
LLC PREFETCH     ACCESS:          0 HIT:          0 MISS:          0
LLC WRITE        ACCESS:    1782344 HIT:    1781567 MISS:        777
LLC TRANSLATION  ACCESS:      11861 HIT:       9354 MISS:       2507
LLC PREFETCH REQUESTED:          0 ISSUED:          0 USEFUL:          0 USELESS:          0
LLC AVERAGE MISS LATENCY: 1081 cycles
cpu0_DTLB TOTAL        ACCESS:  116030021 HIT:  108808400 MISS:    7221621
cpu0_DTLB LOAD         ACCESS:  116030021 HIT:  108808400 MISS:    7221621
cpu0_DTLB RFO          ACCESS:          0 HIT:          0 MISS:          0
cpu0_DTLB PREFETCH     ACCESS:          0 HIT:          0 MISS:          0
cpu0_DTLB WRITE        ACCESS:          0 HIT:          0 MISS:          0
cpu0_DTLB TRANSLATION  ACCESS:          0 HIT:          0 MISS:          0
cpu0_DTLB PREFETCH REQUESTED:          0 ISSUED:          0 USEFUL:          0 USELESS:          0
cpu0_DTLB AVERAGE MISS LATENCY: 5.318 cycles
cpu0_ITLB TOTAL        ACCESS:     711033 HIT:     710818 MISS:        215
cpu0_ITLB LOAD         ACCESS:     711033 HIT:     710818 MISS:        215
cpu0_ITLB RFO          ACCESS:          0 HIT:          0 MISS:          0
cpu0_ITLB PREFETCH     ACCESS:          0 HIT:          0 MISS:          0
cpu0_ITLB WRITE        ACCESS:          0 HIT:          0 MISS:          0
cpu0_ITLB TRANSLATION  ACCESS:          0 HIT:          0 MISS:          0
cpu0_ITLB PREFETCH REQUESTED:          0 ISSUED:          0 USEFUL:          0 USELESS:          0
cpu0_ITLB AVERAGE MISS LATENCY: 275.7 cycles
cpu0_L1D TOTAL        ACCESS:  167610414 HIT:  157925454 MISS:    9684960
cpu0_L1D LOAD         ACCESS:  130556737 HIT:  124704735 MISS:    5852002
cpu0_L1D RFO          ACCESS:          0 HIT:          0 MISS:          0
cpu0_L1D PREFETCH     ACCESS:          0 HIT:          0 MISS:          0
cpu0_L1D WRITE        ACCESS:   37001078 HIT:   33193025 MISS:    3808053
cpu0_L1D TRANSLATION  ACCESS:      52599 HIT:      27694 MISS:      24905
cpu0_L1D PREFETCH REQUESTED:          0 ISSUED:          0 USEFUL:          0 USELESS:          0
cpu0_L1D AVERAGE MISS LATENCY: 333 cycles
cpu0_L1I TOTAL        ACCESS:    1088327 HIT:    1085586 MISS:       2741
cpu0_L1I LOAD         ACCESS:    1088327 HIT:    1085586 MISS:       2741
cpu0_L1I RFO          ACCESS:          0 HIT:          0 MISS:          0
cpu0_L1I PREFETCH     ACCESS:          0 HIT:          0 MISS:          0
cpu0_L1I WRITE        ACCESS:          0 HIT:          0 MISS:          0
cpu0_L1I TRANSLATION  ACCESS:          0 HIT:          0 MISS:          0
cpu0_L1I PREFETCH REQUESTED:          0 ISSUED:          0 USEFUL:          0 USELESS:          0
cpu0_L1I AVERAGE MISS LATENCY: 477.5 cycles
cpu0_L2C TOTAL        ACCESS:    5977955 HIT:    2648754 MISS:    3329201
cpu0_L2C LOAD         ACCESS:    3057507 HIT:     576195 MISS:    2481312
cpu0_L2C RFO          ACCESS:     878203 HIT:      46525 MISS:     831678
cpu0_L2C PREFETCH     ACCESS:          0 HIT:          0 MISS:          0
cpu0_L2C WRITE        ACCESS:    2017387 HIT:    2013037 MISS:       4350
cpu0_L2C TRANSLATION  ACCESS:      24858 HIT:      12997 MISS:      11861
cpu0_L2C PREFETCH REQUESTED:          0 ISSUED:          0 USEFUL:          0 USELESS:          0
cpu0_L2C AVERAGE MISS LATENCY: 1030 cycles
cpu0_STLB TOTAL        ACCESS:    3988895 HIT:    3936309 MISS:      52586
cpu0_STLB LOAD         ACCESS:    3988895 HIT:    3936309 MISS:      52586
cpu0_STLB RFO          ACCESS:          0 HIT:          0 MISS:          0
cpu0_STLB PREFETCH     ACCESS:          0 HIT:          0 MISS:          0
cpu0_STLB WRITE        ACCESS:          0 HIT:          0 MISS:          0
cpu0_STLB TRANSLATION  ACCESS:          0 HIT:          0 MISS:          0
cpu0_STLB PREFETCH REQUESTED:          0 ISSUED:          0 USEFUL:          0 USELESS:          0
cpu0_STLB AVERAGE MISS LATENCY: 484.8 cycles

DRAM Statistics

Channel 0 RQ ROW_BUFFER_HIT:     757725
  ROW_BUFFER_MISS:    2349626
 AVG DBUS CONGESTED CYCLE: 3.932
WQ ROW_BUFFER_HIT: Channel 0 
  ROW_BUFFER_MISS:     278783
  FULL:    1390459
