WARNING: physical memory size is smaller than virtual memory size.

*** ChampSim Multicore Out-of-Order Simulator ***
Warmup Instructions: 50000000
Simulation Instructions: 600000000
Number of CPUs: 1
Page size: 4096

CPU 0 Tage branch predictor
Off-chip DRAM Size: 4 GiB Channels: 1 Width: 64-bit Data Race: 3200 MT/s
Heartbeat CPU 0 instructions: 10000003 cycles: 2881057 heartbeat IPC: 3.471 cumulative IPC: 3.471 (Simulation time: 00 hr 00 min 42 sec)
Heartbeat CPU 0 instructions: 20000003 cycles: 5381057 heartbeat IPC: 4 cumulative IPC: 3.717 (Simulation time: 00 hr 01 min 21 sec)
Heartbeat CPU 0 instructions: 30000003 cycles: 7881057 heartbeat IPC: 4 cumulative IPC: 3.807 (Simulation time: 00 hr 02 min 00 sec)
Heartbeat CPU 0 instructions: 40000003 cycles: 10381057 heartbeat IPC: 4 cumulative IPC: 3.853 (Simulation time: 00 hr 02 min 39 sec)
Heartbeat CPU 0 instructions: 50000003 cycles: 12881057 heartbeat IPC: 4 cumulative IPC: 3.882 (Simulation time: 00 hr 03 min 17 sec)
Warmup finished CPU 0 instructions: 50000003 cycles: 12881058 cumulative IPC: 3.882 (Simulation time: 00 hr 03 min 17 sec)
Warmup complete CPU 0 instructions: 50000003 cycles: 12881058 cumulative IPC: 3.882 (Simulation time: 00 hr 03 min 17 sec)
Heartbeat CPU 0 instructions: 60000000 cycles: 17334151 heartbeat IPC: 2.246 cumulative IPC: 2.246 (Simulation time: 00 hr 04 min 19 sec)
Heartbeat CPU 0 instructions: 70000002 cycles: 21713602 heartbeat IPC: 2.283 cumulative IPC: 2.264 (Simulation time: 00 hr 05 min 20 sec)
Heartbeat CPU 0 instructions: 80000000 cycles: 26151495 heartbeat IPC: 2.253 cumulative IPC: 2.261 (Simulation time: 00 hr 06 min 22 sec)
Heartbeat CPU 0 instructions: 90000003 cycles: 30604971 heartbeat IPC: 2.245 cumulative IPC: 2.257 (Simulation time: 00 hr 07 min 24 sec)
Heartbeat CPU 0 instructions: 100000000 cycles: 34055463 heartbeat IPC: 2.898 cumulative IPC: 2.361 (Simulation time: 00 hr 08 min 18 sec)
Heartbeat CPU 0 instructions: 110000001 cycles: 36558442 heartbeat IPC: 3.995 cumulative IPC: 2.534 (Simulation time: 00 hr 09 min 04 sec)
Heartbeat CPU 0 instructions: 120000001 cycles: 39072125 heartbeat IPC: 3.978 cumulative IPC: 2.673 (Simulation time: 00 hr 09 min 50 sec)
Heartbeat CPU 0 instructions: 130000000 cycles: 41613192 heartbeat IPC: 3.935 cumulative IPC: 2.784 (Simulation time: 00 hr 10 min 36 sec)
Heartbeat CPU 0 instructions: 140000004 cycles: 44667167 heartbeat IPC: 3.274 cumulative IPC: 2.831 (Simulation time: 00 hr 11 min 25 sec)
Heartbeat CPU 0 instructions: 150000000 cycles: 48317353 heartbeat IPC: 2.74 cumulative IPC: 2.822 (Simulation time: 00 hr 12 min 20 sec)
Heartbeat CPU 0 instructions: 160000000 cycles: 51912694 heartbeat IPC: 2.781 cumulative IPC: 2.818 (Simulation time: 00 hr 13 min 14 sec)
Heartbeat CPU 0 instructions: 170000003 cycles: 55588839 heartbeat IPC: 2.72 cumulative IPC: 2.81 (Simulation time: 00 hr 14 min 08 sec)
Heartbeat CPU 0 instructions: 180000002 cycles: 59244098 heartbeat IPC: 2.736 cumulative IPC: 2.804 (Simulation time: 00 hr 15 min 02 sec)
Heartbeat CPU 0 instructions: 190000002 cycles: 62604697 heartbeat IPC: 2.976 cumulative IPC: 2.816 (Simulation time: 00 hr 15 min 54 sec)
Heartbeat CPU 0 instructions: 200000000 cycles: 65317174 heartbeat IPC: 3.687 cumulative IPC: 2.861 (Simulation time: 00 hr 16 min 42 sec)
Heartbeat CPU 0 instructions: 210000000 cycles: 67990432 heartbeat IPC: 3.741 cumulative IPC: 2.903 (Simulation time: 00 hr 17 min 37 sec)
Heartbeat CPU 0 instructions: 220000001 cycles: 70699153 heartbeat IPC: 3.692 cumulative IPC: 2.94 (Simulation time: 00 hr 18 min 26 sec)
Heartbeat CPU 0 instructions: 230000004 cycles: 73406112 heartbeat IPC: 3.694 cumulative IPC: 2.974 (Simulation time: 00 hr 19 min 16 sec)
Heartbeat CPU 0 instructions: 240000002 cycles: 76088336 heartbeat IPC: 3.728 cumulative IPC: 3.006 (Simulation time: 00 hr 20 min 04 sec)
Heartbeat CPU 0 instructions: 250000001 cycles: 78786439 heartbeat IPC: 3.706 cumulative IPC: 3.035 (Simulation time: 00 hr 20 min 53 sec)
Heartbeat CPU 0 instructions: 260000002 cycles: 81487309 heartbeat IPC: 3.703 cumulative IPC: 3.061 (Simulation time: 00 hr 21 min 42 sec)
Heartbeat CPU 0 instructions: 270000002 cycles: 84165376 heartbeat IPC: 3.734 cumulative IPC: 3.086 (Simulation time: 00 hr 22 min 30 sec)
Heartbeat CPU 0 instructions: 280000003 cycles: 86875603 heartbeat IPC: 3.69 cumulative IPC: 3.108 (Simulation time: 00 hr 23 min 18 sec)
Heartbeat CPU 0 instructions: 290000001 cycles: 131414888 heartbeat IPC: 0.2245 cumulative IPC: 2.025 (Simulation time: 00 hr 28 min 35 sec)
Heartbeat CPU 0 instructions: 300000002 cycles: 133915016 heartbeat IPC: 4 cumulative IPC: 2.066 (Simulation time: 00 hr 29 min 20 sec)
Heartbeat CPU 0 instructions: 310000001 cycles: 136415880 heartbeat IPC: 3.999 cumulative IPC: 2.105 (Simulation time: 00 hr 30 min 05 sec)
Heartbeat CPU 0 instructions: 320000001 cycles: 138917514 heartbeat IPC: 3.997 cumulative IPC: 2.142 (Simulation time: 00 hr 30 min 50 sec)
Heartbeat CPU 0 instructions: 330000003 cycles: 141417678 heartbeat IPC: 4 cumulative IPC: 2.178 (Simulation time: 00 hr 31 min 34 sec)
Heartbeat CPU 0 instructions: 340000000 cycles: 143917827 heartbeat IPC: 4 cumulative IPC: 2.213 (Simulation time: 00 hr 32 min 19 sec)
Heartbeat CPU 0 instructions: 350000004 cycles: 146418969 heartbeat IPC: 3.998 cumulative IPC: 2.247 (Simulation time: 00 hr 33 min 03 sec)
Heartbeat CPU 0 instructions: 360000004 cycles: 148920536 heartbeat IPC: 3.997 cumulative IPC: 2.279 (Simulation time: 00 hr 33 min 47 sec)
Heartbeat CPU 0 instructions: 370000000 cycles: 151423460 heartbeat IPC: 3.995 cumulative IPC: 2.31 (Simulation time: 00 hr 34 min 31 sec)
Heartbeat CPU 0 instructions: 380000004 cycles: 153924658 heartbeat IPC: 3.998 cumulative IPC: 2.34 (Simulation time: 00 hr 35 min 16 sec)
Heartbeat CPU 0 instructions: 390000001 cycles: 156424743 heartbeat IPC: 4 cumulative IPC: 2.369 (Simulation time: 00 hr 36 min 01 sec)
Heartbeat CPU 0 instructions: 400000003 cycles: 158925566 heartbeat IPC: 3.999 cumulative IPC: 2.397 (Simulation time: 00 hr 36 min 45 sec)
Heartbeat CPU 0 instructions: 410000003 cycles: 161426793 heartbeat IPC: 3.998 cumulative IPC: 2.423 (Simulation time: 00 hr 37 min 30 sec)
Heartbeat CPU 0 instructions: 420000002 cycles: 163928108 heartbeat IPC: 3.998 cumulative IPC: 2.45 (Simulation time: 00 hr 38 min 16 sec)
Heartbeat CPU 0 instructions: 430000000 cycles: 166428192 heartbeat IPC: 4 cumulative IPC: 2.475 (Simulation time: 00 hr 39 min 01 sec)
Heartbeat CPU 0 instructions: 440000001 cycles: 168928788 heartbeat IPC: 3.999 cumulative IPC: 2.499 (Simulation time: 00 hr 39 min 46 sec)
Heartbeat CPU 0 instructions: 450000000 cycles: 171429681 heartbeat IPC: 3.999 cumulative IPC: 2.523 (Simulation time: 00 hr 40 min 31 sec)
Heartbeat CPU 0 instructions: 460000003 cycles: 173930260 heartbeat IPC: 3.999 cumulative IPC: 2.546 (Simulation time: 00 hr 41 min 15 sec)
Heartbeat CPU 0 instructions: 470000001 cycles: 176430800 heartbeat IPC: 3.999 cumulative IPC: 2.568 (Simulation time: 00 hr 42 min 02 sec)
Heartbeat CPU 0 instructions: 480000003 cycles: 178930883 heartbeat IPC: 4 cumulative IPC: 2.59 (Simulation time: 00 hr 42 min 46 sec)
Heartbeat CPU 0 instructions: 490000003 cycles: 181431337 heartbeat IPC: 3.999 cumulative IPC: 2.61 (Simulation time: 00 hr 43 min 30 sec)
Heartbeat CPU 0 instructions: 500000002 cycles: 183931422 heartbeat IPC: 4 cumulative IPC: 2.631 (Simulation time: 00 hr 44 min 13 sec)
Heartbeat CPU 0 instructions: 510000003 cycles: 191944247 heartbeat IPC: 1.248 cumulative IPC: 2.569 (Simulation time: 00 hr 45 min 40 sec)
Heartbeat CPU 0 instructions: 520000001 cycles: 289860889 heartbeat IPC: 0.1021 cumulative IPC: 1.697 (Simulation time: 00 hr 58 min 54 sec)
Heartbeat CPU 0 instructions: 530000004 cycles: 365658537 heartbeat IPC: 0.1319 cumulative IPC: 1.361 (Simulation time: 01 hr 09 min 07 sec)
Heartbeat CPU 0 instructions: 540000000 cycles: 402640510 heartbeat IPC: 0.2704 cumulative IPC: 1.257 (Simulation time: 01 hr 14 min 28 sec)
Heartbeat CPU 0 instructions: 550000002 cycles: 439023848 heartbeat IPC: 0.2749 cumulative IPC: 1.173 (Simulation time: 01 hr 19 min 46 sec)
Heartbeat CPU 0 instructions: 560000004 cycles: 475516518 heartbeat IPC: 0.274 cumulative IPC: 1.102 (Simulation time: 01 hr 25 min 03 sec)
Heartbeat CPU 0 instructions: 570000000 cycles: 512407548 heartbeat IPC: 0.2711 cumulative IPC: 1.041 (Simulation time: 01 hr 30 min 28 sec)
Heartbeat CPU 0 instructions: 580000001 cycles: 549757759 heartbeat IPC: 0.2677 cumulative IPC: 0.9872 (Simulation time: 01 hr 35 min 57 sec)
Heartbeat CPU 0 instructions: 590000004 cycles: 588035763 heartbeat IPC: 0.2612 cumulative IPC: 0.9389 (Simulation time: 01 hr 41 min 35 sec)
*** Reached end of trace: (0, "traces/sp.A.champsimtrace")
Heartbeat CPU 0 instructions: 600000001 cycles: 625759766 heartbeat IPC: 0.2651 cumulative IPC: 0.8974 (Simulation time: 01 hr 47 min 06 sec)
Heartbeat CPU 0 instructions: 610000000 cycles: 645471872 heartbeat IPC: 0.5073 cumulative IPC: 0.8852 (Simulation time: 01 hr 49 min 29 sec)
Heartbeat CPU 0 instructions: 620000004 cycles: 647977433 heartbeat IPC: 3.991 cumulative IPC: 0.8975 (Simulation time: 01 hr 50 min 14 sec)
Heartbeat CPU 0 instructions: 630000003 cycles: 650482126 heartbeat IPC: 3.993 cumulative IPC: 0.9097 (Simulation time: 01 hr 50 min 59 sec)
Heartbeat CPU 0 instructions: 640000004 cycles: 653721659 heartbeat IPC: 3.087 cumulative IPC: 0.9207 (Simulation time: 01 hr 51 min 51 sec)
Heartbeat CPU 0 instructions: 650000001 cycles: 657945475 heartbeat IPC: 2.368 cumulative IPC: 0.9301 (Simulation time: 01 hr 52 min 52 sec)
Simulation finished CPU 0 instructions: 600000003 cycles: 645064419 cumulative IPC: 0.9301 (Simulation time: 01 hr 52 min 52 sec)
Simulation complete CPU 0 instructions: 600000003 cycles: 645064419 cumulative IPC: 0.9301 (Simulation time: 01 hr 52 min 52 sec)

ChampSim completed all CPUs

=== Simulation ===
CPU 0 runs traces/sp.A.champsimtrace
Region of Interest Statistics

CPU 0 cumulative IPC: 0.9301 instructions: 600000003 cycles: 645064419
CPU 0 Branch Prediction Accuracy: 99.98% MPKI: 0.003913 Average ROB Occupancy at Mispredict: 106.8
Branch type MPKI
BRANCH_DIRECT_JUMP: 5e-06
BRANCH_INDIRECT: 7.5e-05
BRANCH_CONDITIONAL: 0.00374
BRANCH_DIRECT_CALL: 2e-05
BRANCH_INDIRECT_CALL: 3.17e-05
BRANCH_RETURN: 3.67e-05

LLC TOTAL        ACCESS:    7577770 HIT:    2295972 MISS:    5281798
LLC LOAD         ACCESS:    2303682 HIT:    1009703 MISS:    1293979
LLC RFO          ACCESS:     922634 HIT:      61129 MISS:     861505
LLC PREFETCH     ACCESS:    2303682 HIT:     484059 MISS:    1819623
LLC WRITE        ACCESS:    2044300 HIT:     740906 MISS:    1303394
LLC TRANSLATION  ACCESS:       3472 HIT:        175 MISS:       3297
LLC PREFETCH REQUESTED:    2303682 ISSUED:    2303682 USEFUL:    1441345 USELESS:      41746
LLC AVERAGE MISS LATENCY: 782.2 cycles
cpu0_DTLB TOTAL        ACCESS:  129580188 HIT:  128584975 MISS:     995213
cpu0_DTLB LOAD         ACCESS:  129580188 HIT:  128584975 MISS:     995213
cpu0_DTLB RFO          ACCESS:          0 HIT:          0 MISS:          0
cpu0_DTLB PREFETCH     ACCESS:          0 HIT:          0 MISS:          0
cpu0_DTLB WRITE        ACCESS:          0 HIT:          0 MISS:          0
cpu0_DTLB TRANSLATION  ACCESS:          0 HIT:          0 MISS:          0
cpu0_DTLB PREFETCH REQUESTED:          0 ISSUED:          0 USEFUL:          0 USELESS:          0
cpu0_DTLB AVERAGE MISS LATENCY: 17.55 cycles
cpu0_ITLB TOTAL        ACCESS:     240613 HIT:     240363 MISS:        250
cpu0_ITLB LOAD         ACCESS:     240613 HIT:     240363 MISS:        250
cpu0_ITLB RFO          ACCESS:          0 HIT:          0 MISS:          0
cpu0_ITLB PREFETCH     ACCESS:          0 HIT:          0 MISS:          0
cpu0_ITLB WRITE        ACCESS:          0 HIT:          0 MISS:          0
cpu0_ITLB TRANSLATION  ACCESS:          0 HIT:          0 MISS:          0
cpu0_ITLB PREFETCH REQUESTED:          0 ISSUED:          0 USEFUL:          0 USELESS:          0
cpu0_ITLB AVERAGE MISS LATENCY: 386.8 cycles
cpu0_L1D TOTAL        ACCESS:  196413931 HIT:  182285270 MISS:   14128661
cpu0_L1D LOAD         ACCESS:  161171873 HIT:  151276280 MISS:    9895593
cpu0_L1D RFO          ACCESS:          0 HIT:          0 MISS:          0
cpu0_L1D PREFETCH     ACCESS:          0 HIT:          0 MISS:          0
cpu0_L1D WRITE        ACCESS:   35194180 HIT:   30979382 MISS:    4214798
cpu0_L1D TRANSLATION  ACCESS:      47878 HIT:      29608 MISS:      18270
cpu0_L1D PREFETCH REQUESTED:          0 ISSUED:          0 USEFUL:          0 USELESS:          0
cpu0_L1D AVERAGE MISS LATENCY: 153.5 cycles
cpu0_L1I TOTAL        ACCESS:     249508 HIT:     246517 MISS:       2991
cpu0_L1I LOAD         ACCESS:     249508 HIT:     246517 MISS:       2991
cpu0_L1I RFO          ACCESS:          0 HIT:          0 MISS:          0
cpu0_L1I PREFETCH     ACCESS:          0 HIT:          0 MISS:          0
cpu0_L1I WRITE        ACCESS:          0 HIT:          0 MISS:          0
cpu0_L1I TRANSLATION  ACCESS:          0 HIT:          0 MISS:          0
cpu0_L1I PREFETCH REQUESTED:          0 ISSUED:          0 USEFUL:          0 USELESS:          0
cpu0_L1I AVERAGE MISS LATENCY: 494.7 cycles
cpu0_L2C TOTAL        ACCESS:    5429690 HIT:    2199500 MISS:    3230190
cpu0_L2C LOAD         ACCESS:    2431421 HIT:     127706 MISS:    2303715
cpu0_L2C RFO          ACCESS:     923515 HIT:        881 MISS:     922634
cpu0_L2C PREFETCH     ACCESS:          0 HIT:          0 MISS:          0
cpu0_L2C WRITE        ACCESS:    2056486 HIT:    2056117 MISS:        369
cpu0_L2C TRANSLATION  ACCESS:      18268 HIT:      14796 MISS:       3472
cpu0_L2C PREFETCH REQUESTED:          0 ISSUED:          0 USEFUL:          0 USELESS:          0
cpu0_L2C AVERAGE MISS LATENCY: 934.9 cycles
cpu0_STLB TOTAL        ACCESS:     752278 HIT:     704430 MISS:      47848
cpu0_STLB LOAD         ACCESS:     752278 HIT:     704430 MISS:      47848
cpu0_STLB RFO          ACCESS:          0 HIT:          0 MISS:          0
cpu0_STLB PREFETCH     ACCESS:          0 HIT:          0 MISS:          0
cpu0_STLB WRITE        ACCESS:          0 HIT:          0 MISS:          0
cpu0_STLB TRANSLATION  ACCESS:          0 HIT:          0 MISS:          0
cpu0_STLB PREFETCH REQUESTED:          0 ISSUED:          0 USEFUL:          0 USELESS:          0
cpu0_STLB AVERAGE MISS LATENCY: 385 cycles

DRAM Statistics

Channel 0 RQ ROW_BUFFER_HIT:     751523
  ROW_BUFFER_MISS:    1955279
 AVG DBUS CONGESTED CYCLE: 3.974
WQ ROW_BUFFER_HIT: Channel 0 
  ROW_BUFFER_MISS:     659973
  FULL:    1076447
