WARNING: physical memory size is smaller than virtual memory size.

*** ChampSim Multicore Out-of-Order Simulator ***
Warmup Instructions: 50000000
Simulation Instructions: 600000000
Number of CPUs: 1
Page size: 4096

CPU 0 Tage branch predictor
Off-chip DRAM Size: 4 GiB Channels: 1 Width: 64-bit Data Race: 3200 MT/s
Heartbeat CPU 0 instructions: 10000000 cycles: 2881055 heartbeat IPC: 3.471 cumulative IPC: 3.471 (Simulation time: 00 hr 00 min 42 sec)
Heartbeat CPU 0 instructions: 20000000 cycles: 5381055 heartbeat IPC: 4 cumulative IPC: 3.717 (Simulation time: 00 hr 01 min 22 sec)
Heartbeat CPU 0 instructions: 30000000 cycles: 7881055 heartbeat IPC: 4 cumulative IPC: 3.807 (Simulation time: 00 hr 02 min 05 sec)
Heartbeat CPU 0 instructions: 40000000 cycles: 10381055 heartbeat IPC: 4 cumulative IPC: 3.853 (Simulation time: 00 hr 02 min 45 sec)
Heartbeat CPU 0 instructions: 50000000 cycles: 12881055 heartbeat IPC: 4 cumulative IPC: 3.882 (Simulation time: 00 hr 03 min 24 sec)
Warmup finished CPU 0 instructions: 50000000 cycles: 12881056 cumulative IPC: 3.882 (Simulation time: 00 hr 03 min 24 sec)
Warmup complete CPU 0 instructions: 50000000 cycles: 12881056 cumulative IPC: 3.882 (Simulation time: 00 hr 03 min 24 sec)
Heartbeat CPU 0 instructions: 60000000 cycles: 18977820 heartbeat IPC: 1.64 cumulative IPC: 1.64 (Simulation time: 00 hr 04 min 42 sec)
Heartbeat CPU 0 instructions: 70000000 cycles: 25005613 heartbeat IPC: 1.659 cumulative IPC: 1.65 (Simulation time: 00 hr 05 min 58 sec)
Heartbeat CPU 0 instructions: 80000000 cycles: 31084323 heartbeat IPC: 1.645 cumulative IPC: 1.648 (Simulation time: 00 hr 07 min 14 sec)
Heartbeat CPU 0 instructions: 90000003 cycles: 37073790 heartbeat IPC: 1.67 cumulative IPC: 1.653 (Simulation time: 00 hr 08 min 30 sec)
Heartbeat CPU 0 instructions: 100000000 cycles: 43518937 heartbeat IPC: 1.552 cumulative IPC: 1.632 (Simulation time: 00 hr 09 min 48 sec)
Heartbeat CPU 0 instructions: 110000001 cycles: 50268538 heartbeat IPC: 1.482 cumulative IPC: 1.605 (Simulation time: 00 hr 11 min 08 sec)
Heartbeat CPU 0 instructions: 120000001 cycles: 57072927 heartbeat IPC: 1.47 cumulative IPC: 1.584 (Simulation time: 00 hr 12 min 29 sec)
Heartbeat CPU 0 instructions: 130000002 cycles: 63789641 heartbeat IPC: 1.489 cumulative IPC: 1.571 (Simulation time: 00 hr 13 min 49 sec)
Heartbeat CPU 0 instructions: 140000004 cycles: 70526083 heartbeat IPC: 1.484 cumulative IPC: 1.561 (Simulation time: 00 hr 15 min 09 sec)
Heartbeat CPU 0 instructions: 150000000 cycles: 77220725 heartbeat IPC: 1.494 cumulative IPC: 1.554 (Simulation time: 00 hr 16 min 28 sec)
Heartbeat CPU 0 instructions: 160000001 cycles: 83986055 heartbeat IPC: 1.478 cumulative IPC: 1.547 (Simulation time: 00 hr 17 min 51 sec)
Heartbeat CPU 0 instructions: 170000001 cycles: 90722401 heartbeat IPC: 1.484 cumulative IPC: 1.542 (Simulation time: 00 hr 19 min 14 sec)
Heartbeat CPU 0 instructions: 180000001 cycles: 97473673 heartbeat IPC: 1.481 cumulative IPC: 1.537 (Simulation time: 00 hr 20 min 35 sec)
Heartbeat CPU 0 instructions: 190000002 cycles: 103681789 heartbeat IPC: 1.611 cumulative IPC: 1.542 (Simulation time: 00 hr 21 min 52 sec)
Heartbeat CPU 0 instructions: 200000004 cycles: 108571390 heartbeat IPC: 2.045 cumulative IPC: 1.568 (Simulation time: 00 hr 23 min 00 sec)
Heartbeat CPU 0 instructions: 210000001 cycles: 113740119 heartbeat IPC: 1.935 cumulative IPC: 1.586 (Simulation time: 00 hr 24 min 10 sec)
Heartbeat CPU 0 instructions: 220000001 cycles: 119326465 heartbeat IPC: 1.79 cumulative IPC: 1.597 (Simulation time: 00 hr 25 min 23 sec)
Heartbeat CPU 0 instructions: 230000004 cycles: 125659921 heartbeat IPC: 1.579 cumulative IPC: 1.596 (Simulation time: 00 hr 26 min 42 sec)
Heartbeat CPU 0 instructions: 240000003 cycles: 132388667 heartbeat IPC: 1.486 cumulative IPC: 1.59 (Simulation time: 00 hr 28 min 04 sec)
Heartbeat CPU 0 instructions: 250000002 cycles: 139193602 heartbeat IPC: 1.47 cumulative IPC: 1.583 (Simulation time: 00 hr 29 min 25 sec)
Heartbeat CPU 0 instructions: 260000002 cycles: 145910491 heartbeat IPC: 1.489 cumulative IPC: 1.579 (Simulation time: 00 hr 30 min 45 sec)
Heartbeat CPU 0 instructions: 270000003 cycles: 152595289 heartbeat IPC: 1.496 cumulative IPC: 1.575 (Simulation time: 00 hr 32 min 06 sec)
Heartbeat CPU 0 instructions: 280000000 cycles: 159404724 heartbeat IPC: 1.469 cumulative IPC: 1.57 (Simulation time: 00 hr 33 min 27 sec)
Heartbeat CPU 0 instructions: 290000001 cycles: 213899405 heartbeat IPC: 0.1835 cumulative IPC: 1.194 (Simulation time: 00 hr 40 min 04 sec)
Heartbeat CPU 0 instructions: 300000002 cycles: 216399533 heartbeat IPC: 4 cumulative IPC: 1.228 (Simulation time: 00 hr 40 min 49 sec)
Heartbeat CPU 0 instructions: 310000001 cycles: 218899628 heartbeat IPC: 4 cumulative IPC: 1.262 (Simulation time: 00 hr 41 min 36 sec)
Heartbeat CPU 0 instructions: 320000001 cycles: 221399756 heartbeat IPC: 4 cumulative IPC: 1.295 (Simulation time: 00 hr 42 min 23 sec)
Heartbeat CPU 0 instructions: 330000003 cycles: 223899799 heartbeat IPC: 4 cumulative IPC: 1.327 (Simulation time: 00 hr 43 min 10 sec)
Heartbeat CPU 0 instructions: 340000000 cycles: 226399884 heartbeat IPC: 4 cumulative IPC: 1.358 (Simulation time: 00 hr 43 min 56 sec)
Heartbeat CPU 0 instructions: 350000004 cycles: 228899971 heartbeat IPC: 4 cumulative IPC: 1.389 (Simulation time: 00 hr 44 min 43 sec)
Heartbeat CPU 0 instructions: 360000004 cycles: 231400058 heartbeat IPC: 4 cumulative IPC: 1.419 (Simulation time: 00 hr 45 min 30 sec)
Heartbeat CPU 0 instructions: 370000000 cycles: 233900141 heartbeat IPC: 4 cumulative IPC: 1.448 (Simulation time: 00 hr 46 min 15 sec)
Heartbeat CPU 0 instructions: 380000004 cycles: 236400228 heartbeat IPC: 4 cumulative IPC: 1.476 (Simulation time: 00 hr 47 min 00 sec)
Heartbeat CPU 0 instructions: 390000001 cycles: 238900313 heartbeat IPC: 4 cumulative IPC: 1.504 (Simulation time: 00 hr 47 min 46 sec)
Heartbeat CPU 0 instructions: 400000003 cycles: 241400399 heartbeat IPC: 4 cumulative IPC: 1.532 (Simulation time: 00 hr 48 min 34 sec)
Heartbeat CPU 0 instructions: 410000003 cycles: 243900527 heartbeat IPC: 4 cumulative IPC: 1.558 (Simulation time: 00 hr 49 min 20 sec)
Heartbeat CPU 0 instructions: 420000002 cycles: 246400614 heartbeat IPC: 4 cumulative IPC: 1.584 (Simulation time: 00 hr 50 min 06 sec)
Heartbeat CPU 0 instructions: 430000000 cycles: 248900700 heartbeat IPC: 4 cumulative IPC: 1.61 (Simulation time: 00 hr 50 min 52 sec)
Heartbeat CPU 0 instructions: 440000001 cycles: 251400786 heartbeat IPC: 4 cumulative IPC: 1.635 (Simulation time: 00 hr 51 min 37 sec)
Heartbeat CPU 0 instructions: 450000000 cycles: 253900871 heartbeat IPC: 4 cumulative IPC: 1.66 (Simulation time: 00 hr 52 min 24 sec)
Heartbeat CPU 0 instructions: 460000003 cycles: 256400915 heartbeat IPC: 4 cumulative IPC: 1.684 (Simulation time: 00 hr 53 min 10 sec)
Heartbeat CPU 0 instructions: 470000001 cycles: 258901002 heartbeat IPC: 4 cumulative IPC: 1.707 (Simulation time: 00 hr 53 min 57 sec)
Heartbeat CPU 0 instructions: 480000003 cycles: 261401086 heartbeat IPC: 4 cumulative IPC: 1.73 (Simulation time: 00 hr 54 min 43 sec)
Heartbeat CPU 0 instructions: 490000003 cycles: 263901173 heartbeat IPC: 4 cumulative IPC: 1.753 (Simulation time: 00 hr 55 min 30 sec)
Heartbeat CPU 0 instructions: 500000002 cycles: 266401259 heartbeat IPC: 4 cumulative IPC: 1.775 (Simulation time: 00 hr 56 min 14 sec)
Heartbeat CPU 0 instructions: 510000003 cycles: 271673258 heartbeat IPC: 1.897 cumulative IPC: 1.777 (Simulation time: 00 hr 57 min 20 sec)
Heartbeat CPU 0 instructions: 520000004 cycles: 377570597 heartbeat IPC: 0.09443 cumulative IPC: 1.289 (Simulation time: 01 hr 11 min 36 sec)
Heartbeat CPU 0 instructions: 530000004 cycles: 456658892 heartbeat IPC: 0.1264 cumulative IPC: 1.082 (Simulation time: 01 hr 22 min 23 sec)
Heartbeat CPU 0 instructions: 540000000 cycles: 485641950 heartbeat IPC: 0.345 cumulative IPC: 1.036 (Simulation time: 01 hr 26 min 41 sec)
Heartbeat CPU 0 instructions: 550000002 cycles: 514600640 heartbeat IPC: 0.3453 cumulative IPC: 0.9966 (Simulation time: 01 hr 30 min 58 sec)
Heartbeat CPU 0 instructions: 560000004 cycles: 543631811 heartbeat IPC: 0.3445 cumulative IPC: 0.9609 (Simulation time: 01 hr 35 min 18 sec)
Heartbeat CPU 0 instructions: 570000000 cycles: 573053831 heartbeat IPC: 0.3399 cumulative IPC: 0.9283 (Simulation time: 01 hr 39 min 43 sec)
Heartbeat CPU 0 instructions: 580000003 cycles: 602884754 heartbeat IPC: 0.3352 cumulative IPC: 0.8983 (Simulation time: 01 hr 44 min 11 sec)
Heartbeat CPU 0 instructions: 590000004 cycles: 633571997 heartbeat IPC: 0.3259 cumulative IPC: 0.87 (Simulation time: 01 hr 48 min 52 sec)
*** Reached end of trace: (0, "traces/sp.A.champsimtrace")
Heartbeat CPU 0 instructions: 600000002 cycles: 664337720 heartbeat IPC: 0.325 cumulative IPC: 0.8443 (Simulation time: 01 hr 53 min 27 sec)
Heartbeat CPU 0 instructions: 610000000 cycles: 691954056 heartbeat IPC: 0.3621 cumulative IPC: 0.8247 (Simulation time: 01 hr 56 min 41 sec)
Heartbeat CPU 0 instructions: 620000001 cycles: 697806532 heartbeat IPC: 1.709 cumulative IPC: 0.8322 (Simulation time: 01 hr 57 min 55 sec)
Heartbeat CPU 0 instructions: 630000003 cycles: 703705916 heartbeat IPC: 1.695 cumulative IPC: 0.8396 (Simulation time: 01 hr 59 min 10 sec)
Heartbeat CPU 0 instructions: 640000004 cycles: 709699984 heartbeat IPC: 1.668 cumulative IPC: 0.8467 (Simulation time: 02 hr 00 min 26 sec)
Heartbeat CPU 0 instructions: 650000001 cycles: 715641481 heartbeat IPC: 1.683 cumulative IPC: 0.8538 (Simulation time: 02 hr 01 min 41 sec)
Simulation finished CPU 0 instructions: 600000001 cycles: 702760426 cumulative IPC: 0.8538 (Simulation time: 02 hr 01 min 41 sec)
Simulation complete CPU 0 instructions: 600000001 cycles: 702760426 cumulative IPC: 0.8538 (Simulation time: 02 hr 01 min 41 sec)

ChampSim completed all CPUs

=== Simulation ===
CPU 0 runs traces/sp.A.champsimtrace
Region of Interest Statistics

CPU 0 cumulative IPC: 0.8538 instructions: 600000001 cycles: 702760426
CPU 0 Branch Prediction Accuracy: 99.98% MPKI: 0.003913 Average ROB Occupancy at Mispredict: 106.2
Branch type MPKI
BRANCH_DIRECT_JUMP: 5e-06
BRANCH_INDIRECT: 7.5e-05
BRANCH_CONDITIONAL: 0.00374
BRANCH_DIRECT_CALL: 2e-05
BRANCH_INDIRECT_CALL: 3.17e-05
BRANCH_RETURN: 3.67e-05

LLC TOTAL        ACCESS:    5276805 HIT:    2600640 MISS:    2676165
LLC LOAD         ACCESS:    2304987 HIT:     542918 MISS:    1762069
LLC RFO          ACCESS:     922634 HIT:      10377 MISS:     912257
LLC PREFETCH     ACCESS:          0 HIT:          0 MISS:          0
LLC WRITE        ACCESS:    2045708 HIT:    2045578 MISS:        130
LLC TRANSLATION  ACCESS:       3476 HIT:       1767 MISS:       1709
LLC PREFETCH REQUESTED:          0 ISSUED:          0 USEFUL:          0 USELESS:          0
LLC AVERAGE MISS LATENCY: 1253 cycles
cpu0_DTLB TOTAL        ACCESS:  127503424 HIT:  126513784 MISS:     989640
cpu0_DTLB LOAD         ACCESS:  127503424 HIT:  126513784 MISS:     989640
cpu0_DTLB RFO          ACCESS:          0 HIT:          0 MISS:          0
cpu0_DTLB PREFETCH     ACCESS:          0 HIT:          0 MISS:          0
cpu0_DTLB WRITE        ACCESS:          0 HIT:          0 MISS:          0
cpu0_DTLB TRANSLATION  ACCESS:          0 HIT:          0 MISS:          0
cpu0_DTLB PREFETCH REQUESTED:          0 ISSUED:          0 USEFUL:          0 USELESS:          0
cpu0_DTLB AVERAGE MISS LATENCY: 16.01 cycles
cpu0_ITLB TOTAL        ACCESS:     233842 HIT:     233590 MISS:        252
cpu0_ITLB LOAD         ACCESS:     233842 HIT:     233590 MISS:        252
cpu0_ITLB RFO          ACCESS:          0 HIT:          0 MISS:          0
cpu0_ITLB PREFETCH     ACCESS:          0 HIT:          0 MISS:          0
cpu0_ITLB WRITE        ACCESS:          0 HIT:          0 MISS:          0
cpu0_ITLB TRANSLATION  ACCESS:          0 HIT:          0 MISS:          0
cpu0_ITLB PREFETCH REQUESTED:          0 ISSUED:          0 USEFUL:          0 USELESS:          0
cpu0_ITLB AVERAGE MISS LATENCY: 275.4 cycles
cpu0_L1D TOTAL        ACCESS:  193699796 HIT:  179237121 MISS:   14462675
cpu0_L1D LOAD         ACCESS:  158457587 HIT:  148128130 MISS:   10329457
cpu0_L1D RFO          ACCESS:          0 HIT:          0 MISS:          0
cpu0_L1D PREFETCH     ACCESS:          0 HIT:          0 MISS:          0
cpu0_L1D WRITE        ACCESS:   35194330 HIT:   31079432 MISS:    4114898
cpu0_L1D TRANSLATION  ACCESS:      47879 HIT:      29559 MISS:      18320
cpu0_L1D PREFETCH REQUESTED:          0 ISSUED:          0 USEFUL:          0 USELESS:          0
cpu0_L1D AVERAGE MISS LATENCY: 168.1 cycles
cpu0_L1I TOTAL        ACCESS:     244297 HIT:     241292 MISS:       3005
cpu0_L1I LOAD         ACCESS:     244297 HIT:     241292 MISS:       3005
cpu0_L1I RFO          ACCESS:          0 HIT:          0 MISS:          0
cpu0_L1I PREFETCH     ACCESS:          0 HIT:          0 MISS:          0
cpu0_L1I WRITE        ACCESS:          0 HIT:          0 MISS:          0
cpu0_L1I TRANSLATION  ACCESS:          0 HIT:          0 MISS:          0
cpu0_L1I PREFETCH REQUESTED:          0 ISSUED:          0 USEFUL:          0 USELESS:          0
cpu0_L1I AVERAGE MISS LATENCY: 467.8 cycles
cpu0_L2C TOTAL        ACCESS:    5443837 HIT:    2212179 MISS:    3231658
cpu0_L2C LOAD         ACCESS:    2445628 HIT:     140451 MISS:    2305177
cpu0_L2C RFO          ACCESS:     923511 HIT:        877 MISS:     922634
cpu0_L2C PREFETCH     ACCESS:          0 HIT:          0 MISS:          0
cpu0_L2C WRITE        ACCESS:    2056382 HIT:    2056011 MISS:        371
cpu0_L2C TRANSLATION  ACCESS:      18316 HIT:      14840 MISS:       3476
cpu0_L2C PREFETCH REQUESTED:          0 ISSUED:          0 USEFUL:          0 USELESS:          0
cpu0_L2C AVERAGE MISS LATENCY: 1058 cycles
cpu0_STLB TOTAL        ACCESS:     741385 HIT:     693538 MISS:      47847
cpu0_STLB LOAD         ACCESS:     741385 HIT:     693538 MISS:      47847
cpu0_STLB RFO          ACCESS:          0 HIT:          0 MISS:          0
cpu0_STLB PREFETCH     ACCESS:          0 HIT:          0 MISS:          0
cpu0_STLB WRITE        ACCESS:          0 HIT:          0 MISS:          0
cpu0_STLB TRANSLATION  ACCESS:          0 HIT:          0 MISS:          0
cpu0_STLB PREFETCH REQUESTED:          0 ISSUED:          0 USEFUL:          0 USELESS:          0
cpu0_STLB AVERAGE MISS LATENCY: 292.5 cycles

DRAM Statistics

Channel 0 RQ ROW_BUFFER_HIT:     724742
  ROW_BUFFER_MISS:    1951293
 AVG DBUS CONGESTED CYCLE: 3.974
WQ ROW_BUFFER_HIT: Channel 0 
  ROW_BUFFER_MISS:     395789
  FULL:    1353364
