WARNING: physical memory size is smaller than virtual memory size.

*** ChampSim Multicore Out-of-Order Simulator ***
Warmup Instructions: 50000000
Simulation Instructions: 600000000
Number of CPUs: 1
Page size: 4096

Off-chip DRAM Size: 4 GiB Channels: 1 Width: 64-bit Data Race: 3200 MT/s
Heartbeat CPU 0 instructions: 10000000 cycles: 2881055 heartbeat IPC: 3.471 cumulative IPC: 3.471 (Simulation time: 00 hr 00 min 37 sec)
Heartbeat CPU 0 instructions: 20000000 cycles: 5381055 heartbeat IPC: 4 cumulative IPC: 3.717 (Simulation time: 00 hr 01 min 12 sec)
Heartbeat CPU 0 instructions: 30000000 cycles: 7881055 heartbeat IPC: 4 cumulative IPC: 3.807 (Simulation time: 00 hr 01 min 47 sec)
Heartbeat CPU 0 instructions: 40000000 cycles: 10381055 heartbeat IPC: 4 cumulative IPC: 3.853 (Simulation time: 00 hr 02 min 21 sec)
Heartbeat CPU 0 instructions: 50000000 cycles: 12881055 heartbeat IPC: 4 cumulative IPC: 3.882 (Simulation time: 00 hr 02 min 55 sec)
Warmup finished CPU 0 instructions: 50000000 cycles: 12881056 cumulative IPC: 3.882 (Simulation time: 00 hr 02 min 55 sec)
Warmup complete CPU 0 instructions: 50000000 cycles: 12881056 cumulative IPC: 3.882 (Simulation time: 00 hr 02 min 55 sec)
Heartbeat CPU 0 instructions: 60000000 cycles: 19016426 heartbeat IPC: 1.63 cumulative IPC: 1.63 (Simulation time: 00 hr 04 min 08 sec)
Heartbeat CPU 0 instructions: 70000000 cycles: 25154723 heartbeat IPC: 1.629 cumulative IPC: 1.63 (Simulation time: 00 hr 05 min 18 sec)
Heartbeat CPU 0 instructions: 80000001 cycles: 31302540 heartbeat IPC: 1.627 cumulative IPC: 1.629 (Simulation time: 00 hr 06 min 29 sec)
Heartbeat CPU 0 instructions: 90000003 cycles: 37460252 heartbeat IPC: 1.624 cumulative IPC: 1.627 (Simulation time: 00 hr 07 min 39 sec)
Heartbeat CPU 0 instructions: 100000000 cycles: 44030718 heartbeat IPC: 1.522 cumulative IPC: 1.605 (Simulation time: 00 hr 08 min 54 sec)
Heartbeat CPU 0 instructions: 110000001 cycles: 50803994 heartbeat IPC: 1.476 cumulative IPC: 1.582 (Simulation time: 00 hr 10 min 09 sec)
Heartbeat CPU 0 instructions: 120000003 cycles: 57592784 heartbeat IPC: 1.473 cumulative IPC: 1.566 (Simulation time: 00 hr 11 min 24 sec)
Heartbeat CPU 0 instructions: 130000002 cycles: 64325922 heartbeat IPC: 1.485 cumulative IPC: 1.555 (Simulation time: 00 hr 12 min 39 sec)
Heartbeat CPU 0 instructions: 140000004 cycles: 71084976 heartbeat IPC: 1.479 cumulative IPC: 1.546 (Simulation time: 00 hr 13 min 55 sec)
Heartbeat CPU 0 instructions: 150000000 cycles: 77826729 heartbeat IPC: 1.483 cumulative IPC: 1.54 (Simulation time: 00 hr 15 min 09 sec)
Heartbeat CPU 0 instructions: 160000001 cycles: 84582140 heartbeat IPC: 1.48 cumulative IPC: 1.534 (Simulation time: 00 hr 16 min 23 sec)
Heartbeat CPU 0 instructions: 170000001 cycles: 91300492 heartbeat IPC: 1.488 cumulative IPC: 1.53 (Simulation time: 00 hr 17 min 36 sec)
Heartbeat CPU 0 instructions: 180000002 cycles: 98107677 heartbeat IPC: 1.469 cumulative IPC: 1.525 (Simulation time: 00 hr 18 min 50 sec)
Heartbeat CPU 0 instructions: 190000002 cycles: 104330261 heartbeat IPC: 1.607 cumulative IPC: 1.531 (Simulation time: 00 hr 20 min 00 sec)
Heartbeat CPU 0 instructions: 200000000 cycles: 109277280 heartbeat IPC: 2.021 cumulative IPC: 1.556 (Simulation time: 00 hr 21 min 00 sec)
Heartbeat CPU 0 instructions: 210000001 cycles: 114500109 heartbeat IPC: 1.915 cumulative IPC: 1.575 (Simulation time: 00 hr 22 min 03 sec)
Heartbeat CPU 0 instructions: 220000001 cycles: 120141249 heartbeat IPC: 1.773 cumulative IPC: 1.585 (Simulation time: 00 hr 23 min 09 sec)
Heartbeat CPU 0 instructions: 230000004 cycles: 126508914 heartbeat IPC: 1.57 cumulative IPC: 1.584 (Simulation time: 00 hr 24 min 23 sec)
Heartbeat CPU 0 instructions: 240000003 cycles: 133408315 heartbeat IPC: 1.449 cumulative IPC: 1.576 (Simulation time: 00 hr 25 min 39 sec)
Heartbeat CPU 0 instructions: 250000002 cycles: 140374044 heartbeat IPC: 1.436 cumulative IPC: 1.569 (Simulation time: 00 hr 26 min 58 sec)
Heartbeat CPU 0 instructions: 260000002 cycles: 147312909 heartbeat IPC: 1.441 cumulative IPC: 1.562 (Simulation time: 00 hr 28 min 17 sec)
Heartbeat CPU 0 instructions: 270000003 cycles: 154202347 heartbeat IPC: 1.451 cumulative IPC: 1.557 (Simulation time: 00 hr 29 min 33 sec)
Heartbeat CPU 0 instructions: 280000000 cycles: 161170154 heartbeat IPC: 1.435 cumulative IPC: 1.551 (Simulation time: 00 hr 30 min 49 sec)
Heartbeat CPU 0 instructions: 290000001 cycles: 217632357 heartbeat IPC: 0.1771 cumulative IPC: 1.172 (Simulation time: 00 hr 37 min 27 sec)
Heartbeat CPU 0 instructions: 300000002 cycles: 220137461 heartbeat IPC: 3.992 cumulative IPC: 1.206 (Simulation time: 00 hr 38 min 08 sec)
Heartbeat CPU 0 instructions: 310000001 cycles: 222642505 heartbeat IPC: 3.992 cumulative IPC: 1.24 (Simulation time: 00 hr 38 min 48 sec)
Heartbeat CPU 0 instructions: 320000000 cycles: 225148006 heartbeat IPC: 3.991 cumulative IPC: 1.272 (Simulation time: 00 hr 39 min 28 sec)
Heartbeat CPU 0 instructions: 330000003 cycles: 227653044 heartbeat IPC: 3.992 cumulative IPC: 1.304 (Simulation time: 00 hr 40 min 09 sec)
Heartbeat CPU 0 instructions: 340000000 cycles: 230158116 heartbeat IPC: 3.992 cumulative IPC: 1.335 (Simulation time: 00 hr 40 min 49 sec)
Heartbeat CPU 0 instructions: 350000004 cycles: 232663192 heartbeat IPC: 3.992 cumulative IPC: 1.365 (Simulation time: 00 hr 41 min 29 sec)
Heartbeat CPU 0 instructions: 360000004 cycles: 235169062 heartbeat IPC: 3.991 cumulative IPC: 1.395 (Simulation time: 00 hr 42 min 09 sec)
Heartbeat CPU 0 instructions: 370000000 cycles: 237674706 heartbeat IPC: 3.991 cumulative IPC: 1.424 (Simulation time: 00 hr 42 min 50 sec)
Heartbeat CPU 0 instructions: 380000004 cycles: 240179753 heartbeat IPC: 3.992 cumulative IPC: 1.452 (Simulation time: 00 hr 43 min 30 sec)
Heartbeat CPU 0 instructions: 390000001 cycles: 242684826 heartbeat IPC: 3.992 cumulative IPC: 1.48 (Simulation time: 00 hr 44 min 09 sec)
Heartbeat CPU 0 instructions: 400000003 cycles: 245189904 heartbeat IPC: 3.992 cumulative IPC: 1.507 (Simulation time: 00 hr 44 min 51 sec)
Heartbeat CPU 0 instructions: 410000003 cycles: 247696395 heartbeat IPC: 3.99 cumulative IPC: 1.533 (Simulation time: 00 hr 45 min 32 sec)
Heartbeat CPU 0 instructions: 420000002 cycles: 250201470 heartbeat IPC: 3.992 cumulative IPC: 1.559 (Simulation time: 00 hr 46 min 12 sec)
Heartbeat CPU 0 instructions: 430000000 cycles: 252706542 heartbeat IPC: 3.992 cumulative IPC: 1.584 (Simulation time: 00 hr 46 min 54 sec)
Heartbeat CPU 0 instructions: 440000001 cycles: 255211616 heartbeat IPC: 3.992 cumulative IPC: 1.609 (Simulation time: 00 hr 47 min 34 sec)
Heartbeat CPU 0 instructions: 450000000 cycles: 257716663 heartbeat IPC: 3.992 cumulative IPC: 1.634 (Simulation time: 00 hr 48 min 14 sec)
Heartbeat CPU 0 instructions: 460000003 cycles: 260221701 heartbeat IPC: 3.992 cumulative IPC: 1.658 (Simulation time: 00 hr 48 min 54 sec)
Heartbeat CPU 0 instructions: 470000001 cycles: 262726775 heartbeat IPC: 3.992 cumulative IPC: 1.681 (Simulation time: 00 hr 49 min 34 sec)
Heartbeat CPU 0 instructions: 480000003 cycles: 265231848 heartbeat IPC: 3.992 cumulative IPC: 1.704 (Simulation time: 00 hr 50 min 13 sec)
Heartbeat CPU 0 instructions: 490000003 cycles: 267736923 heartbeat IPC: 3.992 cumulative IPC: 1.726 (Simulation time: 00 hr 50 min 52 sec)
Heartbeat CPU 0 instructions: 500000002 cycles: 270242854 heartbeat IPC: 3.991 cumulative IPC: 1.749 (Simulation time: 00 hr 51 min 32 sec)
Heartbeat CPU 0 instructions: 510000003 cycles: 275516735 heartbeat IPC: 1.896 cumulative IPC: 1.751 (Simulation time: 00 hr 52 min 32 sec)
Heartbeat CPU 0 instructions: 520000001 cycles: 387189007 heartbeat IPC: 0.08955 cumulative IPC: 1.256 (Simulation time: 01 hr 06 min 47 sec)
Heartbeat CPU 0 instructions: 530000004 cycles: 466984666 heartbeat IPC: 0.1253 cumulative IPC: 1.057 (Simulation time: 01 hr 17 min 12 sec)
Heartbeat CPU 0 instructions: 540000000 cycles: 496202131 heartbeat IPC: 0.3423 cumulative IPC: 1.014 (Simulation time: 01 hr 21 min 26 sec)
Heartbeat CPU 0 instructions: 550000002 cycles: 526572625 heartbeat IPC: 0.3293 cumulative IPC: 0.9733 (Simulation time: 01 hr 25 min 47 sec)
Heartbeat CPU 0 instructions: 560000004 cycles: 556927105 heartbeat IPC: 0.3294 cumulative IPC: 0.9374 (Simulation time: 01 hr 30 min 09 sec)
Heartbeat CPU 0 instructions: 570000000 cycles: 587434091 heartbeat IPC: 0.3278 cumulative IPC: 0.9051 (Simulation time: 01 hr 34 min 32 sec)
Heartbeat CPU 0 instructions: 580000001 cycles: 618254251 heartbeat IPC: 0.3245 cumulative IPC: 0.8755 (Simulation time: 01 hr 38 min 58 sec)
Heartbeat CPU 0 instructions: 590000004 cycles: 649468659 heartbeat IPC: 0.3204 cumulative IPC: 0.8483 (Simulation time: 01 hr 43 min 30 sec)
*** Reached end of trace: (0, "traces/sp.A.champsimtrace")
Heartbeat CPU 0 instructions: 600000001 cycles: 680703058 heartbeat IPC: 0.3202 cumulative IPC: 0.8236 (Simulation time: 01 hr 48 min 00 sec)
Heartbeat CPU 0 instructions: 610000000 cycles: 711309809 heartbeat IPC: 0.3267 cumulative IPC: 0.8018 (Simulation time: 01 hr 51 min 28 sec)
Heartbeat CPU 0 instructions: 620000001 cycles: 717421642 heartbeat IPC: 1.636 cumulative IPC: 0.809 (Simulation time: 01 hr 52 min 40 sec)
Heartbeat CPU 0 instructions: 630000003 cycles: 723522479 heartbeat IPC: 1.639 cumulative IPC: 0.8162 (Simulation time: 01 hr 53 min 51 sec)
Heartbeat CPU 0 instructions: 640000004 cycles: 729682380 heartbeat IPC: 1.623 cumulative IPC: 0.8231 (Simulation time: 01 hr 55 min 03 sec)
Heartbeat CPU 0 instructions: 650000001 cycles: 735845961 heartbeat IPC: 1.622 cumulative IPC: 0.8299 (Simulation time: 01 hr 56 min 16 sec)
Simulation finished CPU 0 instructions: 600000001 cycles: 722964906 cumulative IPC: 0.8299 (Simulation time: 01 hr 56 min 16 sec)
Simulation complete CPU 0 instructions: 600000001 cycles: 722964906 cumulative IPC: 0.8299 (Simulation time: 01 hr 56 min 16 sec)

ChampSim completed all CPUs

=== Simulation ===
CPU 0 runs traces/sp.A.champsimtrace
Region of Interest Statistics

CPU 0 cumulative IPC: 0.8299 instructions: 600000001 cycles: 722964906
CPU 0 Branch Prediction Accuracy: 98.84% MPKI: 0.2406 Average ROB Occupancy at Mispredict: 224
Branch type MPKI
BRANCH_DIRECT_JUMP: 5e-06
BRANCH_INDIRECT: 7.5e-05
BRANCH_CONDITIONAL: 0.24
BRANCH_DIRECT_CALL: 2e-05
BRANCH_INDIRECT_CALL: 3.17e-05
BRANCH_RETURN: 3.67e-05

LLC TOTAL        ACCESS:    5276073 HIT:    2585213 MISS:    2690860
LLC LOAD         ACCESS:    2304660 HIT:     536806 MISS:    1767854
LLC RFO          ACCESS:     922635 HIT:      10373 MISS:     912262
LLC PREFETCH     ACCESS:          0 HIT:          0 MISS:          0
LLC WRITE        ACCESS:    2045299 HIT:    2036300 MISS:       8999
LLC TRANSLATION  ACCESS:       3479 HIT:       1734 MISS:       1745
LLC PREFETCH REQUESTED:          0 ISSUED:          0 USEFUL:          0 USELESS:          0
LLC AVERAGE MISS LATENCY: 1286 cycles
cpu0_DTLB TOTAL        ACCESS:  126057446 HIT:  125233372 MISS:     824074
cpu0_DTLB LOAD         ACCESS:  126057446 HIT:  125233372 MISS:     824074
cpu0_DTLB RFO          ACCESS:          0 HIT:          0 MISS:          0
cpu0_DTLB PREFETCH     ACCESS:          0 HIT:          0 MISS:          0
cpu0_DTLB WRITE        ACCESS:          0 HIT:          0 MISS:          0
cpu0_DTLB TRANSLATION  ACCESS:          0 HIT:          0 MISS:          0
cpu0_DTLB PREFETCH REQUESTED:          0 ISSUED:          0 USEFUL:          0 USELESS:          0
cpu0_DTLB AVERAGE MISS LATENCY: 18.06 cycles
cpu0_ITLB TOTAL        ACCESS:     218407 HIT:     218187 MISS:        220
cpu0_ITLB LOAD         ACCESS:     218407 HIT:     218187 MISS:        220
cpu0_ITLB RFO          ACCESS:          0 HIT:          0 MISS:          0
cpu0_ITLB PREFETCH     ACCESS:          0 HIT:          0 MISS:          0
cpu0_ITLB WRITE        ACCESS:          0 HIT:          0 MISS:          0
cpu0_ITLB TRANSLATION  ACCESS:          0 HIT:          0 MISS:          0
cpu0_ITLB PREFETCH REQUESTED:          0 ISSUED:          0 USEFUL:          0 USELESS:          0
cpu0_ITLB AVERAGE MISS LATENCY: 294.9 cycles
cpu0_L1D TOTAL        ACCESS:  191532215 HIT:  177020362 MISS:   14511853
cpu0_L1D LOAD         ACCESS:  156289990 HIT:  145908741 MISS:   10381249
cpu0_L1D RFO          ACCESS:          0 HIT:          0 MISS:          0
cpu0_L1D PREFETCH     ACCESS:          0 HIT:          0 MISS:          0
cpu0_L1D WRITE        ACCESS:   35194345 HIT:   31082058 MISS:    4112287
cpu0_L1D TRANSLATION  ACCESS:      47880 HIT:      29563 MISS:      18317
cpu0_L1D PREFETCH REQUESTED:          0 ISSUED:          0 USEFUL:          0 USELESS:          0
cpu0_L1D AVERAGE MISS LATENCY: 174.6 cycles
cpu0_L1I TOTAL        ACCESS:     225973 HIT:     223184 MISS:       2789
cpu0_L1I LOAD         ACCESS:     225973 HIT:     223184 MISS:       2789
cpu0_L1I RFO          ACCESS:          0 HIT:          0 MISS:          0
cpu0_L1I PREFETCH     ACCESS:          0 HIT:          0 MISS:          0
cpu0_L1I WRITE        ACCESS:          0 HIT:          0 MISS:          0
cpu0_L1I TRANSLATION  ACCESS:          0 HIT:          0 MISS:          0
cpu0_L1I PREFETCH REQUESTED:          0 ISSUED:          0 USEFUL:          0 USELESS:          0
cpu0_L1I AVERAGE MISS LATENCY: 515.4 cycles
cpu0_L2C TOTAL        ACCESS:    5442614 HIT:    2211370 MISS:    3231244
cpu0_L2C LOAD         ACCESS:    2445047 HIT:     140290 MISS:    2304757
cpu0_L2C RFO          ACCESS:     923196 HIT:        561 MISS:     922635
cpu0_L2C PREFETCH     ACCESS:          0 HIT:          0 MISS:          0
cpu0_L2C WRITE        ACCESS:    2056056 HIT:    2055683 MISS:        373
cpu0_L2C TRANSLATION  ACCESS:      18315 HIT:      14836 MISS:       3479
cpu0_L2C PREFETCH REQUESTED:          0 ISSUED:          0 USEFUL:          0 USELESS:          0
cpu0_L2C AVERAGE MISS LATENCY: 1092 cycles
cpu0_STLB TOTAL        ACCESS:     570932 HIT:     523082 MISS:      47850
cpu0_STLB LOAD         ACCESS:     570932 HIT:     523082 MISS:      47850
cpu0_STLB RFO          ACCESS:          0 HIT:          0 MISS:          0
cpu0_STLB PREFETCH     ACCESS:          0 HIT:          0 MISS:          0
cpu0_STLB WRITE        ACCESS:          0 HIT:          0 MISS:          0
cpu0_STLB TRANSLATION  ACCESS:          0 HIT:          0 MISS:          0
cpu0_STLB PREFETCH REQUESTED:          0 ISSUED:          0 USEFUL:          0 USELESS:          0
cpu0_STLB AVERAGE MISS LATENCY: 297.6 cycles

DRAM Statistics

Channel 0 RQ ROW_BUFFER_HIT:     708731
  ROW_BUFFER_MISS:    1973130
 AVG DBUS CONGESTED CYCLE: 3.976
WQ ROW_BUFFER_HIT: Channel 0 
  ROW_BUFFER_MISS:     311734
  FULL:    1441446
