WARNING: physical memory size is smaller than virtual memory size.

*** ChampSim Multicore Out-of-Order Simulator ***
Warmup Instructions: 50000000
Simulation Instructions: 600000000
Number of CPUs: 1
Page size: 4096

Off-chip DRAM Size: 4 GiB Channels: 1 Width: 64-bit Data Race: 3200 MT/s
Heartbeat CPU 0 instructions: 10000001 cycles: 2881056 heartbeat IPC: 3.471 cumulative IPC: 3.471 (Simulation time: 00 hr 00 min 48 sec)
Heartbeat CPU 0 instructions: 20000001 cycles: 5381056 heartbeat IPC: 4 cumulative IPC: 3.717 (Simulation time: 00 hr 01 min 35 sec)
Heartbeat CPU 0 instructions: 30000001 cycles: 7881056 heartbeat IPC: 4 cumulative IPC: 3.807 (Simulation time: 00 hr 02 min 20 sec)
Heartbeat CPU 0 instructions: 40000001 cycles: 10381056 heartbeat IPC: 4 cumulative IPC: 3.853 (Simulation time: 00 hr 03 min 04 sec)
Heartbeat CPU 0 instructions: 50000001 cycles: 12881056 heartbeat IPC: 4 cumulative IPC: 3.882 (Simulation time: 00 hr 03 min 52 sec)
Warmup finished CPU 0 instructions: 50000001 cycles: 12881057 cumulative IPC: 3.882 (Simulation time: 00 hr 03 min 52 sec)
Warmup complete CPU 0 instructions: 50000001 cycles: 12881057 cumulative IPC: 3.882 (Simulation time: 00 hr 03 min 52 sec)
Heartbeat CPU 0 instructions: 60000000 cycles: 18988094 heartbeat IPC: 1.637 cumulative IPC: 1.637 (Simulation time: 00 hr 05 min 24 sec)
Heartbeat CPU 0 instructions: 70000002 cycles: 25119049 heartbeat IPC: 1.631 cumulative IPC: 1.634 (Simulation time: 00 hr 06 min 57 sec)
Heartbeat CPU 0 instructions: 80000001 cycles: 31232227 heartbeat IPC: 1.636 cumulative IPC: 1.635 (Simulation time: 00 hr 08 min 31 sec)
Heartbeat CPU 0 instructions: 90000004 cycles: 37376985 heartbeat IPC: 1.627 cumulative IPC: 1.633 (Simulation time: 00 hr 10 min 02 sec)
Heartbeat CPU 0 instructions: 100000000 cycles: 41624647 heartbeat IPC: 2.354 cumulative IPC: 1.74 (Simulation time: 00 hr 11 min 11 sec)
Heartbeat CPU 0 instructions: 110000004 cycles: 44551313 heartbeat IPC: 3.417 cumulative IPC: 1.895 (Simulation time: 00 hr 12 min 08 sec)
Heartbeat CPU 0 instructions: 120000000 cycles: 49792424 heartbeat IPC: 1.908 cumulative IPC: 1.896 (Simulation time: 00 hr 13 min 28 sec)
Heartbeat CPU 0 instructions: 130000000 cycles: 56856685 heartbeat IPC: 1.416 cumulative IPC: 1.819 (Simulation time: 00 hr 15 min 10 sec)
Heartbeat CPU 0 instructions: 140000004 cycles: 63867927 heartbeat IPC: 1.426 cumulative IPC: 1.765 (Simulation time: 00 hr 16 min 51 sec)
Heartbeat CPU 0 instructions: 150000001 cycles: 70940682 heartbeat IPC: 1.414 cumulative IPC: 1.722 (Simulation time: 00 hr 18 min 33 sec)
Heartbeat CPU 0 instructions: 160000004 cycles: 77886258 heartbeat IPC: 1.44 cumulative IPC: 1.692 (Simulation time: 00 hr 20 min 16 sec)
Heartbeat CPU 0 instructions: 170000000 cycles: 84992379 heartbeat IPC: 1.407 cumulative IPC: 1.664 (Simulation time: 00 hr 21 min 59 sec)
Heartbeat CPU 0 instructions: 180000000 cycles: 91973901 heartbeat IPC: 1.432 cumulative IPC: 1.644 (Simulation time: 00 hr 23 min 40 sec)
Heartbeat CPU 0 instructions: 190000000 cycles: 99215662 heartbeat IPC: 1.381 cumulative IPC: 1.622 (Simulation time: 00 hr 25 min 24 sec)
Heartbeat CPU 0 instructions: 200000003 cycles: 105078693 heartbeat IPC: 1.706 cumulative IPC: 1.627 (Simulation time: 00 hr 26 min 54 sec)
Heartbeat CPU 0 instructions: 210000000 cycles: 111716032 heartbeat IPC: 1.507 cumulative IPC: 1.619 (Simulation time: 00 hr 28 min 34 sec)
Heartbeat CPU 0 instructions: 220000004 cycles: 118916897 heartbeat IPC: 1.389 cumulative IPC: 1.603 (Simulation time: 00 hr 30 min 19 sec)
Heartbeat CPU 0 instructions: 230000000 cycles: 126347202 heartbeat IPC: 1.346 cumulative IPC: 1.586 (Simulation time: 00 hr 32 min 05 sec)
Heartbeat CPU 0 instructions: 240000003 cycles: 133702368 heartbeat IPC: 1.36 cumulative IPC: 1.573 (Simulation time: 00 hr 33 min 54 sec)
Heartbeat CPU 0 instructions: 250000002 cycles: 141138891 heartbeat IPC: 1.345 cumulative IPC: 1.559 (Simulation time: 00 hr 35 min 44 sec)
Heartbeat CPU 0 instructions: 260000002 cycles: 148547340 heartbeat IPC: 1.35 cumulative IPC: 1.548 (Simulation time: 00 hr 37 min 33 sec)
Heartbeat CPU 0 instructions: 270000003 cycles: 155951409 heartbeat IPC: 1.351 cumulative IPC: 1.538 (Simulation time: 00 hr 39 min 23 sec)
Heartbeat CPU 0 instructions: 280000003 cycles: 163377886 heartbeat IPC: 1.347 cumulative IPC: 1.528 (Simulation time: 00 hr 41 min 12 sec)
Heartbeat CPU 0 instructions: 290000000 cycles: 218596968 heartbeat IPC: 0.1811 cumulative IPC: 1.167 (Simulation time: 00 hr 50 min 41 sec)
Heartbeat CPU 0 instructions: 300000001 cycles: 221099357 heartbeat IPC: 3.996 cumulative IPC: 1.201 (Simulation time: 00 hr 51 min 35 sec)
Heartbeat CPU 0 instructions: 310000000 cycles: 223601734 heartbeat IPC: 3.996 cumulative IPC: 1.234 (Simulation time: 00 hr 52 min 28 sec)
Heartbeat CPU 0 instructions: 320000002 cycles: 226104165 heartbeat IPC: 3.996 cumulative IPC: 1.266 (Simulation time: 00 hr 53 min 21 sec)
Heartbeat CPU 0 instructions: 330000004 cycles: 228606502 heartbeat IPC: 3.996 cumulative IPC: 1.298 (Simulation time: 00 hr 54 min 15 sec)
Heartbeat CPU 0 instructions: 340000004 cycles: 231109612 heartbeat IPC: 3.995 cumulative IPC: 1.329 (Simulation time: 00 hr 55 min 07 sec)
Heartbeat CPU 0 instructions: 350000003 cycles: 233612066 heartbeat IPC: 3.996 cumulative IPC: 1.359 (Simulation time: 00 hr 56 min 00 sec)
Heartbeat CPU 0 instructions: 360000002 cycles: 236114456 heartbeat IPC: 3.996 cumulative IPC: 1.389 (Simulation time: 00 hr 56 min 54 sec)
Heartbeat CPU 0 instructions: 370000004 cycles: 238618364 heartbeat IPC: 3.994 cumulative IPC: 1.418 (Simulation time: 00 hr 57 min 45 sec)
Heartbeat CPU 0 instructions: 380000003 cycles: 241122648 heartbeat IPC: 3.993 cumulative IPC: 1.446 (Simulation time: 00 hr 58 min 39 sec)
Heartbeat CPU 0 instructions: 390000000 cycles: 243625272 heartbeat IPC: 3.996 cumulative IPC: 1.473 (Simulation time: 00 hr 59 min 32 sec)
Heartbeat CPU 0 instructions: 400000002 cycles: 246128955 heartbeat IPC: 3.994 cumulative IPC: 1.501 (Simulation time: 01 hr 00 min 26 sec)
Heartbeat CPU 0 instructions: 410000002 cycles: 248632048 heartbeat IPC: 3.995 cumulative IPC: 1.527 (Simulation time: 01 hr 01 min 18 sec)
Heartbeat CPU 0 instructions: 420000000 cycles: 251134950 heartbeat IPC: 3.995 cumulative IPC: 1.553 (Simulation time: 01 hr 02 min 12 sec)
Heartbeat CPU 0 instructions: 430000001 cycles: 253637337 heartbeat IPC: 3.996 cumulative IPC: 1.578 (Simulation time: 01 hr 03 min 06 sec)
Heartbeat CPU 0 instructions: 440000000 cycles: 256140423 heartbeat IPC: 3.995 cumulative IPC: 1.603 (Simulation time: 01 hr 04 min 00 sec)
Heartbeat CPU 0 instructions: 450000001 cycles: 258642760 heartbeat IPC: 3.996 cumulative IPC: 1.628 (Simulation time: 01 hr 04 min 53 sec)
Heartbeat CPU 0 instructions: 460000002 cycles: 261146490 heartbeat IPC: 3.994 cumulative IPC: 1.651 (Simulation time: 01 hr 05 min 48 sec)
Heartbeat CPU 0 instructions: 470000001 cycles: 263649702 heartbeat IPC: 3.995 cumulative IPC: 1.675 (Simulation time: 01 hr 06 min 48 sec)
Heartbeat CPU 0 instructions: 480000000 cycles: 266152814 heartbeat IPC: 3.995 cumulative IPC: 1.698 (Simulation time: 01 hr 07 min 48 sec)
Heartbeat CPU 0 instructions: 490000001 cycles: 268655393 heartbeat IPC: 3.996 cumulative IPC: 1.72 (Simulation time: 01 hr 08 min 41 sec)
Heartbeat CPU 0 instructions: 500000004 cycles: 271158209 heartbeat IPC: 3.996 cumulative IPC: 1.742 (Simulation time: 01 hr 09 min 34 sec)
Heartbeat CPU 0 instructions: 510000000 cycles: 278451286 heartbeat IPC: 1.371 cumulative IPC: 1.732 (Simulation time: 01 hr 11 min 20 sec)
Heartbeat CPU 0 instructions: 520000002 cycles: 376148446 heartbeat IPC: 0.1024 cumulative IPC: 1.294 (Simulation time: 01 hr 29 min 26 sec)
Heartbeat CPU 0 instructions: 530000001 cycles: 452939204 heartbeat IPC: 0.1302 cumulative IPC: 1.091 (Simulation time: 01 hr 43 min 50 sec)
Heartbeat CPU 0 instructions: 540000000 cycles: 485895372 heartbeat IPC: 0.3034 cumulative IPC: 1.036 (Simulation time: 01 hr 50 min 27 sec)
Heartbeat CPU 0 instructions: 550000001 cycles: 518250770 heartbeat IPC: 0.3091 cumulative IPC: 0.9894 (Simulation time: 01 hr 57 min 00 sec)
Heartbeat CPU 0 instructions: 560000003 cycles: 550590297 heartbeat IPC: 0.3092 cumulative IPC: 0.9485 (Simulation time: 02 hr 03 min 30 sec)
Heartbeat CPU 0 instructions: 570000003 cycles: 582195676 heartbeat IPC: 0.3164 cumulative IPC: 0.9134 (Simulation time: 02 hr 09 min 52 sec)
Heartbeat CPU 0 instructions: 580000002 cycles: 614573979 heartbeat IPC: 0.3088 cumulative IPC: 0.8808 (Simulation time: 02 hr 16 min 24 sec)
Heartbeat CPU 0 instructions: 590000001 cycles: 648141962 heartbeat IPC: 0.2979 cumulative IPC: 0.85 (Simulation time: 02 hr 23 min 19 sec)
*** Reached end of trace: (0, "traces/sp.A.champsimtrace")
Heartbeat CPU 0 instructions: 600000002 cycles: 681464563 heartbeat IPC: 0.3001 cumulative IPC: 0.8226 (Simulation time: 02 hr 30 min 02 sec)
Heartbeat CPU 0 instructions: 610000004 cycles: 713945916 heartbeat IPC: 0.3079 cumulative IPC: 0.7988 (Simulation time: 02 hr 35 min 29 sec)
Heartbeat CPU 0 instructions: 620000003 cycles: 720081078 heartbeat IPC: 1.63 cumulative IPC: 0.806 (Simulation time: 02 hr 37 min 07 sec)
Heartbeat CPU 0 instructions: 630000001 cycles: 726191419 heartbeat IPC: 1.637 cumulative IPC: 0.8131 (Simulation time: 02 hr 38 min 45 sec)
Heartbeat CPU 0 instructions: 640000000 cycles: 732307648 heartbeat IPC: 1.635 cumulative IPC: 0.8201 (Simulation time: 02 hr 40 min 23 sec)
Heartbeat CPU 0 instructions: 650000003 cycles: 738425673 heartbeat IPC: 1.635 cumulative IPC: 0.827 (Simulation time: 02 hr 42 min 01 sec)
Simulation finished CPU 0 instructions: 600000002 cycles: 725544617 cumulative IPC: 0.827 (Simulation time: 02 hr 42 min 01 sec)
Simulation complete CPU 0 instructions: 600000002 cycles: 725544617 cumulative IPC: 0.827 (Simulation time: 02 hr 42 min 01 sec)

ChampSim completed all CPUs

=== Simulation ===
CPU 0 runs traces/sp.A.champsimtrace
Region of Interest Statistics

CPU 0 cumulative IPC: 0.827 instructions: 600000002 cycles: 725544617
CPU 0 Branch Prediction Accuracy: 98.91% MPKI: 0.226 Average ROB Occupancy at Mispredict: 235.5
Branch type MPKI
BRANCH_DIRECT_JUMP: 5e-06
BRANCH_INDIRECT: 7.67e-05
BRANCH_CONDITIONAL: 0.226
BRANCH_DIRECT_CALL: 2e-05
BRANCH_INDIRECT_CALL: 3.33e-05
BRANCH_RETURN: 3.67e-05

LLC TOTAL        ACCESS:    5279093 HIT:    1242966 MISS:    4036127
LLC LOAD         ACCESS:    2306639 HIT:     561219 MISS:    1745420
LLC RFO          ACCESS:     922693 HIT:      33928 MISS:     888765
LLC PREFETCH     ACCESS:          0 HIT:          0 MISS:          0
LLC WRITE        ACCESS:    2046246 HIT:     646799 MISS:    1399447
LLC TRANSLATION  ACCESS:       3515 HIT:       1020 MISS:       2495
LLC PREFETCH REQUESTED:          0 ISSUED:          0 USEFUL:          0 USELESS:          0
LLC AVERAGE MISS LATENCY: 840.1 cycles
cpu0_DTLB TOTAL        ACCESS:  126109581 HIT:  125254012 MISS:     855569
cpu0_DTLB LOAD         ACCESS:  126109581 HIT:  125254012 MISS:     855569
cpu0_DTLB RFO          ACCESS:          0 HIT:          0 MISS:          0
cpu0_DTLB PREFETCH     ACCESS:          0 HIT:          0 MISS:          0
cpu0_DTLB WRITE        ACCESS:          0 HIT:          0 MISS:          0
cpu0_DTLB TRANSLATION  ACCESS:          0 HIT:          0 MISS:          0
cpu0_DTLB PREFETCH REQUESTED:          0 ISSUED:          0 USEFUL:          0 USELESS:          0
cpu0_DTLB AVERAGE MISS LATENCY: 19.03 cycles
cpu0_ITLB TOTAL        ACCESS:     222592 HIT:     222351 MISS:        241
cpu0_ITLB LOAD         ACCESS:     222592 HIT:     222351 MISS:        241
cpu0_ITLB RFO          ACCESS:          0 HIT:          0 MISS:          0
cpu0_ITLB PREFETCH     ACCESS:          0 HIT:          0 MISS:          0
cpu0_ITLB WRITE        ACCESS:          0 HIT:          0 MISS:          0
cpu0_ITLB TRANSLATION  ACCESS:          0 HIT:          0 MISS:          0
cpu0_ITLB PREFETCH REQUESTED:          0 ISSUED:          0 USEFUL:          0 USELESS:          0
cpu0_ITLB AVERAGE MISS LATENCY: 261.7 cycles
cpu0_L1D TOTAL        ACCESS:  190869443 HIT:  176522780 MISS:   14346663
cpu0_L1D LOAD         ACCESS:  155627222 HIT:  145329516 MISS:   10297706
cpu0_L1D RFO          ACCESS:          0 HIT:          0 MISS:          0
cpu0_L1D PREFETCH     ACCESS:          0 HIT:          0 MISS:          0
cpu0_L1D WRITE        ACCESS:   35194345 HIT:   31163743 MISS:    4030602
cpu0_L1D TRANSLATION  ACCESS:      47876 HIT:      29521 MISS:      18355
cpu0_L1D PREFETCH REQUESTED:          0 ISSUED:          0 USEFUL:          0 USELESS:          0
cpu0_L1D AVERAGE MISS LATENCY: 174.9 cycles
cpu0_L1I TOTAL        ACCESS:     230705 HIT:     227844 MISS:       2861
cpu0_L1I LOAD         ACCESS:     230705 HIT:     227844 MISS:       2861
cpu0_L1I RFO          ACCESS:          0 HIT:          0 MISS:          0
cpu0_L1I PREFETCH     ACCESS:          0 HIT:          0 MISS:          0
cpu0_L1I WRITE        ACCESS:          0 HIT:          0 MISS:          0
cpu0_L1I TRANSLATION  ACCESS:          0 HIT:          0 MISS:          0
cpu0_L1I PREFETCH REQUESTED:          0 ISSUED:          0 USEFUL:          0 USELESS:          0
cpu0_L1I AVERAGE MISS LATENCY: 524.9 cycles
cpu0_L2C TOTAL        ACCESS:    5438469 HIT:    2205276 MISS:    3233193
cpu0_L2C LOAD         ACCESS:    2437410 HIT:     130768 MISS:    2306642
cpu0_L2C RFO          ACCESS:     924319 HIT:       1626 MISS:     922693
cpu0_L2C PREFETCH     ACCESS:          0 HIT:          0 MISS:          0
cpu0_L2C WRITE        ACCESS:    2058389 HIT:    2058046 MISS:        343
cpu0_L2C TRANSLATION  ACCESS:      18351 HIT:      14836 MISS:       3515
cpu0_L2C PREFETCH REQUESTED:          0 ISSUED:          0 USEFUL:          0 USELESS:          0
cpu0_L2C AVERAGE MISS LATENCY: 1070 cycles
cpu0_STLB TOTAL        ACCESS:     592332 HIT:     544485 MISS:      47847
cpu0_STLB LOAD         ACCESS:     592332 HIT:     544485 MISS:      47847
cpu0_STLB RFO          ACCESS:          0 HIT:          0 MISS:          0
cpu0_STLB PREFETCH     ACCESS:          0 HIT:          0 MISS:          0
cpu0_STLB WRITE        ACCESS:          0 HIT:          0 MISS:          0
cpu0_STLB TRANSLATION  ACCESS:          0 HIT:          0 MISS:          0
cpu0_STLB PREFETCH REQUESTED:          0 ISSUED:          0 USEFUL:          0 USELESS:          0
cpu0_STLB AVERAGE MISS LATENCY: 342.2 cycles

DRAM Statistics

Channel 0 RQ ROW_BUFFER_HIT:     700850
  ROW_BUFFER_MISS:    1935775
 AVG DBUS CONGESTED CYCLE: 3.971
WQ ROW_BUFFER_HIT: Channel 0 
  ROW_BUFFER_MISS:     589505
  FULL:    1228164
Final OPTGen Hits: 11377
Final OPTGen Access: 54472
Final OPTGEN Hit Rate: 20.886
