WARNING: physical memory size is smaller than virtual memory size.

*** ChampSim Multicore Out-of-Order Simulator ***
Warmup Instructions: 50000000
Simulation Instructions: 600000000
Number of CPUs: 1
Page size: 4096

Off-chip DRAM Size: 4 GiB Channels: 1 Width: 64-bit Data Race: 3200 MT/s
Heartbeat CPU 0 instructions: 10000001 cycles: 2881055 heartbeat IPC: 3.471 cumulative IPC: 3.471 (Simulation time: 00 hr 00 min 38 sec)
Heartbeat CPU 0 instructions: 20000001 cycles: 5381055 heartbeat IPC: 4 cumulative IPC: 3.717 (Simulation time: 00 hr 01 min 15 sec)
Heartbeat CPU 0 instructions: 30000001 cycles: 7881055 heartbeat IPC: 4 cumulative IPC: 3.807 (Simulation time: 00 hr 01 min 51 sec)
Heartbeat CPU 0 instructions: 40000001 cycles: 10381055 heartbeat IPC: 4 cumulative IPC: 3.853 (Simulation time: 00 hr 02 min 26 sec)
Heartbeat CPU 0 instructions: 50000001 cycles: 12881055 heartbeat IPC: 4 cumulative IPC: 3.882 (Simulation time: 00 hr 03 min 02 sec)
Warmup finished CPU 0 instructions: 50000001 cycles: 12881056 cumulative IPC: 3.882 (Simulation time: 00 hr 03 min 02 sec)
Warmup complete CPU 0 instructions: 50000001 cycles: 12881056 cumulative IPC: 3.882 (Simulation time: 00 hr 03 min 02 sec)
Heartbeat CPU 0 instructions: 60000000 cycles: 19354597 heartbeat IPC: 1.545 cumulative IPC: 1.545 (Simulation time: 00 hr 04 min 14 sec)
Heartbeat CPU 0 instructions: 70000000 cycles: 25842490 heartbeat IPC: 1.541 cumulative IPC: 1.543 (Simulation time: 00 hr 05 min 25 sec)
Heartbeat CPU 0 instructions: 80000001 cycles: 32251894 heartbeat IPC: 1.56 cumulative IPC: 1.549 (Simulation time: 00 hr 06 min 35 sec)
Heartbeat CPU 0 instructions: 90000003 cycles: 38731715 heartbeat IPC: 1.543 cumulative IPC: 1.547 (Simulation time: 00 hr 07 min 47 sec)
Heartbeat CPU 0 instructions: 100000000 cycles: 45246623 heartbeat IPC: 1.535 cumulative IPC: 1.545 (Simulation time: 00 hr 09 min 01 sec)
Heartbeat CPU 0 instructions: 110000001 cycles: 51875598 heartbeat IPC: 1.509 cumulative IPC: 1.539 (Simulation time: 00 hr 10 min 15 sec)
Heartbeat CPU 0 instructions: 120000003 cycles: 58493174 heartbeat IPC: 1.511 cumulative IPC: 1.535 (Simulation time: 00 hr 11 min 27 sec)
Heartbeat CPU 0 instructions: 130000002 cycles: 65024307 heartbeat IPC: 1.531 cumulative IPC: 1.534 (Simulation time: 00 hr 12 min 40 sec)
Heartbeat CPU 0 instructions: 140000004 cycles: 71617833 heartbeat IPC: 1.517 cumulative IPC: 1.532 (Simulation time: 00 hr 13 min 53 sec)
Heartbeat CPU 0 instructions: 150000000 cycles: 78169151 heartbeat IPC: 1.526 cumulative IPC: 1.532 (Simulation time: 00 hr 15 min 06 sec)
Heartbeat CPU 0 instructions: 160000001 cycles: 84725088 heartbeat IPC: 1.525 cumulative IPC: 1.531 (Simulation time: 00 hr 16 min 19 sec)
Heartbeat CPU 0 instructions: 170000001 cycles: 91241676 heartbeat IPC: 1.535 cumulative IPC: 1.531 (Simulation time: 00 hr 17 min 30 sec)
Heartbeat CPU 0 instructions: 180000002 cycles: 97783404 heartbeat IPC: 1.529 cumulative IPC: 1.531 (Simulation time: 00 hr 18 min 41 sec)
Heartbeat CPU 0 instructions: 190000002 cycles: 103927332 heartbeat IPC: 1.628 cumulative IPC: 1.538 (Simulation time: 00 hr 19 min 50 sec)
Heartbeat CPU 0 instructions: 200000000 cycles: 109235578 heartbeat IPC: 1.884 cumulative IPC: 1.557 (Simulation time: 00 hr 20 min 52 sec)
Heartbeat CPU 0 instructions: 210000003 cycles: 114734007 heartbeat IPC: 1.819 cumulative IPC: 1.571 (Simulation time: 00 hr 21 min 56 sec)
Heartbeat CPU 0 instructions: 220000001 cycles: 120439269 heartbeat IPC: 1.753 cumulative IPC: 1.581 (Simulation time: 00 hr 23 min 01 sec)
Heartbeat CPU 0 instructions: 230000004 cycles: 126435619 heartbeat IPC: 1.668 cumulative IPC: 1.585 (Simulation time: 00 hr 24 min 09 sec)
Heartbeat CPU 0 instructions: 240000003 cycles: 132638935 heartbeat IPC: 1.612 cumulative IPC: 1.587 (Simulation time: 00 hr 25 min 17 sec)
Heartbeat CPU 0 instructions: 250000002 cycles: 139077882 heartbeat IPC: 1.553 cumulative IPC: 1.585 (Simulation time: 00 hr 26 min 27 sec)
Heartbeat CPU 0 instructions: 260000002 cycles: 145644365 heartbeat IPC: 1.523 cumulative IPC: 1.582 (Simulation time: 00 hr 27 min 36 sec)
Heartbeat CPU 0 instructions: 270000003 cycles: 152339590 heartbeat IPC: 1.494 cumulative IPC: 1.578 (Simulation time: 00 hr 28 min 44 sec)
Heartbeat CPU 0 instructions: 280000000 cycles: 159181964 heartbeat IPC: 1.461 cumulative IPC: 1.572 (Simulation time: 00 hr 29 min 53 sec)
Heartbeat CPU 0 instructions: 290000001 cycles: 218110361 heartbeat IPC: 0.1697 cumulative IPC: 1.169 (Simulation time: 00 hr 36 min 06 sec)
Heartbeat CPU 0 instructions: 300000002 cycles: 220616061 heartbeat IPC: 3.991 cumulative IPC: 1.203 (Simulation time: 00 hr 36 min 40 sec)
Heartbeat CPU 0 instructions: 310000001 cycles: 223121105 heartbeat IPC: 3.992 cumulative IPC: 1.237 (Simulation time: 00 hr 37 min 14 sec)
Heartbeat CPU 0 instructions: 320000000 cycles: 225626371 heartbeat IPC: 3.992 cumulative IPC: 1.269 (Simulation time: 00 hr 37 min 49 sec)
Heartbeat CPU 0 instructions: 330000003 cycles: 228131409 heartbeat IPC: 3.992 cumulative IPC: 1.301 (Simulation time: 00 hr 38 min 23 sec)
Heartbeat CPU 0 instructions: 340000000 cycles: 230636481 heartbeat IPC: 3.992 cumulative IPC: 1.332 (Simulation time: 00 hr 38 min 56 sec)
Heartbeat CPU 0 instructions: 350000004 cycles: 233141557 heartbeat IPC: 3.992 cumulative IPC: 1.362 (Simulation time: 00 hr 39 min 29 sec)
Heartbeat CPU 0 instructions: 360000004 cycles: 235646632 heartbeat IPC: 3.992 cumulative IPC: 1.392 (Simulation time: 00 hr 40 min 01 sec)
Heartbeat CPU 0 instructions: 370000000 cycles: 238152136 heartbeat IPC: 3.991 cumulative IPC: 1.421 (Simulation time: 00 hr 40 min 33 sec)
Heartbeat CPU 0 instructions: 380000004 cycles: 240657183 heartbeat IPC: 3.992 cumulative IPC: 1.449 (Simulation time: 00 hr 41 min 05 sec)
Heartbeat CPU 0 instructions: 390000001 cycles: 243162554 heartbeat IPC: 3.991 cumulative IPC: 1.476 (Simulation time: 00 hr 41 min 37 sec)
Heartbeat CPU 0 instructions: 400000003 cycles: 245668361 heartbeat IPC: 3.991 cumulative IPC: 1.504 (Simulation time: 00 hr 42 min 09 sec)
Heartbeat CPU 0 instructions: 410000003 cycles: 248173477 heartbeat IPC: 3.992 cumulative IPC: 1.53 (Simulation time: 00 hr 42 min 41 sec)
Heartbeat CPU 0 instructions: 420000002 cycles: 250678550 heartbeat IPC: 3.992 cumulative IPC: 1.556 (Simulation time: 00 hr 43 min 13 sec)
Heartbeat CPU 0 instructions: 430000000 cycles: 253184755 heartbeat IPC: 3.99 cumulative IPC: 1.581 (Simulation time: 00 hr 43 min 45 sec)
Heartbeat CPU 0 instructions: 440000001 cycles: 255691258 heartbeat IPC: 3.99 cumulative IPC: 1.606 (Simulation time: 00 hr 44 min 17 sec)
Heartbeat CPU 0 instructions: 450000000 cycles: 258196304 heartbeat IPC: 3.992 cumulative IPC: 1.631 (Simulation time: 00 hr 44 min 49 sec)
Heartbeat CPU 0 instructions: 460000003 cycles: 260701342 heartbeat IPC: 3.992 cumulative IPC: 1.654 (Simulation time: 00 hr 45 min 21 sec)
Heartbeat CPU 0 instructions: 470000001 cycles: 263206374 heartbeat IPC: 3.992 cumulative IPC: 1.678 (Simulation time: 00 hr 45 min 53 sec)
Heartbeat CPU 0 instructions: 480000003 cycles: 265711447 heartbeat IPC: 3.992 cumulative IPC: 1.701 (Simulation time: 00 hr 46 min 23 sec)
Heartbeat CPU 0 instructions: 490000003 cycles: 268216480 heartbeat IPC: 3.992 cumulative IPC: 1.723 (Simulation time: 00 hr 46 min 54 sec)
Heartbeat CPU 0 instructions: 500000002 cycles: 270721993 heartbeat IPC: 3.991 cumulative IPC: 1.745 (Simulation time: 00 hr 47 min 24 sec)
Heartbeat CPU 0 instructions: 510000003 cycles: 276071604 heartbeat IPC: 1.869 cumulative IPC: 1.748 (Simulation time: 00 hr 48 min 11 sec)
Heartbeat CPU 0 instructions: 520000001 cycles: 397095771 heartbeat IPC: 0.08263 cumulative IPC: 1.223 (Simulation time: 00 hr 58 min 59 sec)
Heartbeat CPU 0 instructions: 530000004 cycles: 486228944 heartbeat IPC: 0.1122 cumulative IPC: 1.014 (Simulation time: 01 hr 06 min 51 sec)
Heartbeat CPU 0 instructions: 540000000 cycles: 518410531 heartbeat IPC: 0.3107 cumulative IPC: 0.9693 (Simulation time: 01 hr 09 min 29 sec)
Heartbeat CPU 0 instructions: 550000002 cycles: 550066241 heartbeat IPC: 0.3159 cumulative IPC: 0.9308 (Simulation time: 01 hr 11 min 54 sec)
Heartbeat CPU 0 instructions: 560000004 cycles: 581508350 heartbeat IPC: 0.318 cumulative IPC: 0.8969 (Simulation time: 01 hr 14 min 01 sec)
Heartbeat CPU 0 instructions: 570000000 cycles: 612952451 heartbeat IPC: 0.318 cumulative IPC: 0.8666 (Simulation time: 01 hr 15 min 58 sec)
Heartbeat CPU 0 instructions: 580000001 cycles: 644924110 heartbeat IPC: 0.3128 cumulative IPC: 0.8386 (Simulation time: 01 hr 17 min 55 sec)
Heartbeat CPU 0 instructions: 590000004 cycles: 677253816 heartbeat IPC: 0.3093 cumulative IPC: 0.8128 (Simulation time: 01 hr 19 min 48 sec)
*** Reached end of trace: (0, "traces/sp.A.champsimtrace")
Heartbeat CPU 0 instructions: 600000002 cycles: 709706148 heartbeat IPC: 0.3081 cumulative IPC: 0.7893 (Simulation time: 01 hr 21 min 39 sec)
Heartbeat CPU 0 instructions: 610000000 cycles: 739955899 heartbeat IPC: 0.3306 cumulative IPC: 0.7702 (Simulation time: 01 hr 22 min 55 sec)
Heartbeat CPU 0 instructions: 620000001 cycles: 746376461 heartbeat IPC: 1.557 cumulative IPC: 0.7771 (Simulation time: 01 hr 23 min 23 sec)
Heartbeat CPU 0 instructions: 630000003 cycles: 752863665 heartbeat IPC: 1.541 cumulative IPC: 0.7838 (Simulation time: 01 hr 23 min 52 sec)
Heartbeat CPU 0 instructions: 640000004 cycles: 759353404 heartbeat IPC: 1.541 cumulative IPC: 0.7904 (Simulation time: 01 hr 24 min 20 sec)
Heartbeat CPU 0 instructions: 650000001 cycles: 765811337 heartbeat IPC: 1.548 cumulative IPC: 0.7969 (Simulation time: 01 hr 24 min 48 sec)
Simulation finished CPU 0 instructions: 600000000 cycles: 752930282 cumulative IPC: 0.7969 (Simulation time: 01 hr 24 min 48 sec)
Simulation complete CPU 0 instructions: 600000000 cycles: 752930282 cumulative IPC: 0.7969 (Simulation time: 01 hr 24 min 48 sec)

ChampSim completed all CPUs

=== Simulation ===
CPU 0 runs traces/sp.A.champsimtrace
Region of Interest Statistics

CPU 0 cumulative IPC: 0.7969 instructions: 600000000 cycles: 752930282
CPU 0 Branch Prediction Accuracy: 98.84% MPKI: 0.2406 Average ROB Occupancy at Mispredict: 223.3
Branch type MPKI
BRANCH_DIRECT_JUMP: 5e-06
BRANCH_INDIRECT: 7.5e-05
BRANCH_CONDITIONAL: 0.24
BRANCH_DIRECT_CALL: 2e-05
BRANCH_INDIRECT_CALL: 3.17e-05
BRANCH_RETURN: 3.67e-05

LLC TOTAL        ACCESS:    5274869 HIT:    2549020 MISS:    2725849
LLC LOAD         ACCESS:    2304062 HIT:     581275 MISS:    1722787
LLC RFO          ACCESS:     922636 HIT:      21341 MISS:     901295
LLC PREFETCH     ACCESS:          0 HIT:          0 MISS:          0
LLC WRITE        ACCESS:    2044699 HIT:    1944808 MISS:      99891
LLC TRANSLATION  ACCESS:       3472 HIT:       1596 MISS:       1876
LLC PREFETCH REQUESTED:          0 ISSUED:          0 USEFUL:          0 USELESS:          0
LLC AVERAGE MISS LATENCY: 1335 cycles
cpu0_DTLB TOTAL        ACCESS:  125658900 HIT:  124830971 MISS:     827929
cpu0_DTLB LOAD         ACCESS:  125658900 HIT:  124830971 MISS:     827929
cpu0_DTLB RFO          ACCESS:          0 HIT:          0 MISS:          0
cpu0_DTLB PREFETCH     ACCESS:          0 HIT:          0 MISS:          0
cpu0_DTLB WRITE        ACCESS:          0 HIT:          0 MISS:          0
cpu0_DTLB TRANSLATION  ACCESS:          0 HIT:          0 MISS:          0
cpu0_DTLB PREFETCH REQUESTED:          0 ISSUED:          0 USEFUL:          0 USELESS:          0
cpu0_DTLB AVERAGE MISS LATENCY: 19.3 cycles
cpu0_ITLB TOTAL        ACCESS:     222773 HIT:     222553 MISS:        220
cpu0_ITLB LOAD         ACCESS:     222773 HIT:     222553 MISS:        220
cpu0_ITLB RFO          ACCESS:          0 HIT:          0 MISS:          0
cpu0_ITLB PREFETCH     ACCESS:          0 HIT:          0 MISS:          0
cpu0_ITLB WRITE        ACCESS:          0 HIT:          0 MISS:          0
cpu0_ITLB TRANSLATION  ACCESS:          0 HIT:          0 MISS:          0
cpu0_ITLB PREFETCH REQUESTED:          0 ISSUED:          0 USEFUL:          0 USELESS:          0
cpu0_ITLB AVERAGE MISS LATENCY: 172.4 cycles
cpu0_L1D TOTAL        ACCESS:  191038630 HIT:  176643067 MISS:   14395563
cpu0_L1D LOAD         ACCESS:  155796395 HIT:  145510601 MISS:   10285794
cpu0_L1D RFO          ACCESS:          0 HIT:          0 MISS:          0
cpu0_L1D PREFETCH     ACCESS:          0 HIT:          0 MISS:          0
cpu0_L1D WRITE        ACCESS:   35194356 HIT:   31102902 MISS:    4091454
cpu0_L1D TRANSLATION  ACCESS:      47879 HIT:      29564 MISS:      18315
cpu0_L1D PREFETCH REQUESTED:          0 ISSUED:          0 USEFUL:          0 USELESS:          0
cpu0_L1D AVERAGE MISS LATENCY: 186.5 cycles
cpu0_L1I TOTAL        ACCESS:     230631 HIT:     227864 MISS:       2767
cpu0_L1I LOAD         ACCESS:     230631 HIT:     227864 MISS:       2767
cpu0_L1I RFO          ACCESS:          0 HIT:          0 MISS:          0
cpu0_L1I PREFETCH     ACCESS:          0 HIT:          0 MISS:          0
cpu0_L1I WRITE        ACCESS:          0 HIT:          0 MISS:          0
cpu0_L1I TRANSLATION  ACCESS:          0 HIT:          0 MISS:          0
cpu0_L1I PREFETCH REQUESTED:          0 ISSUED:          0 USEFUL:          0 USELESS:          0
cpu0_L1I AVERAGE MISS LATENCY: 342.8 cycles
cpu0_L2C TOTAL        ACCESS:    5442758 HIT:    2212138 MISS:    3230620
cpu0_L2C LOAD         ACCESS:    2445185 HIT:     141046 MISS:    2304139
cpu0_L2C RFO          ACCESS:     923199 HIT:        563 MISS:     922636
cpu0_L2C PREFETCH     ACCESS:          0 HIT:          0 MISS:          0
cpu0_L2C WRITE        ACCESS:    2056061 HIT:    2055688 MISS:        373
cpu0_L2C TRANSLATION  ACCESS:      18313 HIT:      14841 MISS:       3472
cpu0_L2C PREFETCH REQUESTED:          0 ISSUED:          0 USEFUL:          0 USELESS:          0
cpu0_L2C AVERAGE MISS LATENCY: 1147 cycles
cpu0_STLB TOTAL        ACCESS:     571747 HIT:     523896 MISS:      47851
cpu0_STLB LOAD         ACCESS:     571747 HIT:     523896 MISS:      47851
cpu0_STLB RFO          ACCESS:          0 HIT:          0 MISS:          0
cpu0_STLB PREFETCH     ACCESS:          0 HIT:          0 MISS:          0
cpu0_STLB WRITE        ACCESS:          0 HIT:          0 MISS:          0
cpu0_STLB TRANSLATION  ACCESS:          0 HIT:          0 MISS:          0
cpu0_STLB PREFETCH REQUESTED:          0 ISSUED:          0 USEFUL:          0 USELESS:          0
cpu0_STLB AVERAGE MISS LATENCY: 326.7 cycles

DRAM Statistics

Channel 0 RQ ROW_BUFFER_HIT:     714445
  ROW_BUFFER_MISS:    1911112
 AVG DBUS CONGESTED CYCLE: 3.986
WQ ROW_BUFFER_HIT: Channel 0 
  ROW_BUFFER_MISS:      35665
  FULL:    1664979
