WARNING: physical memory size is smaller than virtual memory size.

*** ChampSim Multicore Out-of-Order Simulator ***
Warmup Instructions: 50000000
Simulation Instructions: 600000000
Number of CPUs: 1
Page size: 4096

Off-chip DRAM Size: 4 GiB Channels: 1 Width: 64-bit Data Race: 3200 MT/s
Heartbeat CPU 0 instructions: 10000003 cycles: 2881055 heartbeat IPC: 3.471 cumulative IPC: 3.471 (Simulation time: 00 hr 01 min 01 sec)
Heartbeat CPU 0 instructions: 20000003 cycles: 5381055 heartbeat IPC: 4 cumulative IPC: 3.717 (Simulation time: 00 hr 01 min 48 sec)
Heartbeat CPU 0 instructions: 30000003 cycles: 7881055 heartbeat IPC: 4 cumulative IPC: 3.807 (Simulation time: 00 hr 02 min 36 sec)
Heartbeat CPU 0 instructions: 40000003 cycles: 10381055 heartbeat IPC: 4 cumulative IPC: 3.853 (Simulation time: 00 hr 03 min 25 sec)
Heartbeat CPU 0 instructions: 50000003 cycles: 12881055 heartbeat IPC: 4 cumulative IPC: 3.882 (Simulation time: 00 hr 04 min 14 sec)
Warmup finished CPU 0 instructions: 50000003 cycles: 12881056 cumulative IPC: 3.882 (Simulation time: 00 hr 04 min 14 sec)
Warmup complete CPU 0 instructions: 50000003 cycles: 12881056 cumulative IPC: 3.882 (Simulation time: 00 hr 04 min 14 sec)
Heartbeat CPU 0 instructions: 60000000 cycles: 18887811 heartbeat IPC: 1.665 cumulative IPC: 1.665 (Simulation time: 00 hr 05 min 55 sec)
Heartbeat CPU 0 instructions: 70000000 cycles: 24989749 heartbeat IPC: 1.639 cumulative IPC: 1.652 (Simulation time: 00 hr 07 min 38 sec)
Heartbeat CPU 0 instructions: 80000000 cycles: 31117921 heartbeat IPC: 1.632 cumulative IPC: 1.645 (Simulation time: 00 hr 09 min 19 sec)
Heartbeat CPU 0 instructions: 90000003 cycles: 37257219 heartbeat IPC: 1.629 cumulative IPC: 1.641 (Simulation time: 00 hr 10 min 58 sec)
Heartbeat CPU 0 instructions: 100000002 cycles: 40755044 heartbeat IPC: 2.859 cumulative IPC: 1.794 (Simulation time: 00 hr 12 min 14 sec)
Heartbeat CPU 0 instructions: 110000000 cycles: 44930708 heartbeat IPC: 2.395 cumulative IPC: 1.872 (Simulation time: 00 hr 13 min 35 sec)
Heartbeat CPU 0 instructions: 120000000 cycles: 51863558 heartbeat IPC: 1.442 cumulative IPC: 1.796 (Simulation time: 00 hr 15 min 22 sec)
Heartbeat CPU 0 instructions: 130000003 cycles: 58932119 heartbeat IPC: 1.415 cumulative IPC: 1.737 (Simulation time: 00 hr 17 min 12 sec)
Heartbeat CPU 0 instructions: 140000001 cycles: 65860137 heartbeat IPC: 1.443 cumulative IPC: 1.699 (Simulation time: 00 hr 19 min 05 sec)
Heartbeat CPU 0 instructions: 150000001 cycles: 71110307 heartbeat IPC: 1.905 cumulative IPC: 1.717 (Simulation time: 00 hr 20 min 39 sec)
Heartbeat CPU 0 instructions: 160000004 cycles: 77692961 heartbeat IPC: 1.519 cumulative IPC: 1.697 (Simulation time: 00 hr 22 min 28 sec)
Heartbeat CPU 0 instructions: 170000000 cycles: 84699422 heartbeat IPC: 1.427 cumulative IPC: 1.671 (Simulation time: 00 hr 24 min 19 sec)
Heartbeat CPU 0 instructions: 180000003 cycles: 91793334 heartbeat IPC: 1.41 cumulative IPC: 1.647 (Simulation time: 00 hr 26 min 13 sec)
Heartbeat CPU 0 instructions: 190000001 cycles: 97584692 heartbeat IPC: 1.727 cumulative IPC: 1.653 (Simulation time: 00 hr 27 min 50 sec)
Heartbeat CPU 0 instructions: 200000003 cycles: 103514401 heartbeat IPC: 1.686 cumulative IPC: 1.655 (Simulation time: 00 hr 29 min 26 sec)
Heartbeat CPU 0 instructions: 210000003 cycles: 109513599 heartbeat IPC: 1.667 cumulative IPC: 1.656 (Simulation time: 00 hr 31 min 06 sec)
Heartbeat CPU 0 instructions: 220000004 cycles: 115431607 heartbeat IPC: 1.69 cumulative IPC: 1.658 (Simulation time: 00 hr 32 min 44 sec)
Heartbeat CPU 0 instructions: 230000002 cycles: 121420961 heartbeat IPC: 1.67 cumulative IPC: 1.658 (Simulation time: 00 hr 34 min 14 sec)
Heartbeat CPU 0 instructions: 240000004 cycles: 127314260 heartbeat IPC: 1.697 cumulative IPC: 1.66 (Simulation time: 00 hr 35 min 44 sec)
Heartbeat CPU 0 instructions: 250000000 cycles: 133257579 heartbeat IPC: 1.683 cumulative IPC: 1.661 (Simulation time: 00 hr 37 min 13 sec)
Heartbeat CPU 0 instructions: 260000001 cycles: 139104071 heartbeat IPC: 1.71 cumulative IPC: 1.664 (Simulation time: 00 hr 38 min 45 sec)
Heartbeat CPU 0 instructions: 270000002 cycles: 144968766 heartbeat IPC: 1.705 cumulative IPC: 1.666 (Simulation time: 00 hr 40 min 18 sec)
Heartbeat CPU 0 instructions: 280000003 cycles: 150883848 heartbeat IPC: 1.691 cumulative IPC: 1.667 (Simulation time: 00 hr 41 min 48 sec)
Heartbeat CPU 0 instructions: 290000002 cycles: 203270974 heartbeat IPC: 0.1909 cumulative IPC: 1.261 (Simulation time: 00 hr 49 min 51 sec)
Heartbeat CPU 0 instructions: 300000000 cycles: 205773776 heartbeat IPC: 3.996 cumulative IPC: 1.296 (Simulation time: 00 hr 50 min 51 sec)
Heartbeat CPU 0 instructions: 310000003 cycles: 208276658 heartbeat IPC: 3.995 cumulative IPC: 1.331 (Simulation time: 00 hr 51 min 51 sec)
Heartbeat CPU 0 instructions: 320000001 cycles: 210780397 heartbeat IPC: 3.994 cumulative IPC: 1.364 (Simulation time: 00 hr 52 min 51 sec)
Heartbeat CPU 0 instructions: 330000001 cycles: 213283182 heartbeat IPC: 3.996 cumulative IPC: 1.397 (Simulation time: 00 hr 54 min 02 sec)
Heartbeat CPU 0 instructions: 340000004 cycles: 215786697 heartbeat IPC: 3.994 cumulative IPC: 1.429 (Simulation time: 00 hr 55 min 46 sec)
Heartbeat CPU 0 instructions: 350000004 cycles: 218289767 heartbeat IPC: 3.995 cumulative IPC: 1.461 (Simulation time: 00 hr 57 min 42 sec)
Heartbeat CPU 0 instructions: 360000000 cycles: 220792245 heartbeat IPC: 3.996 cumulative IPC: 1.491 (Simulation time: 00 hr 59 min 28 sec)
Heartbeat CPU 0 instructions: 370000003 cycles: 223295440 heartbeat IPC: 3.995 cumulative IPC: 1.521 (Simulation time: 01 hr 00 min 49 sec)
Heartbeat CPU 0 instructions: 380000001 cycles: 225798737 heartbeat IPC: 3.995 cumulative IPC: 1.55 (Simulation time: 01 hr 01 min 50 sec)
Heartbeat CPU 0 instructions: 390000004 cycles: 228302280 heartbeat IPC: 3.994 cumulative IPC: 1.578 (Simulation time: 01 hr 02 min 50 sec)
Heartbeat CPU 0 instructions: 400000000 cycles: 230805315 heartbeat IPC: 3.995 cumulative IPC: 1.606 (Simulation time: 01 hr 03 min 50 sec)
Heartbeat CPU 0 instructions: 410000002 cycles: 233309685 heartbeat IPC: 3.993 cumulative IPC: 1.633 (Simulation time: 01 hr 04 min 50 sec)
Heartbeat CPU 0 instructions: 420000002 cycles: 235813765 heartbeat IPC: 3.993 cumulative IPC: 1.66 (Simulation time: 01 hr 05 min 49 sec)
Heartbeat CPU 0 instructions: 430000003 cycles: 238316300 heartbeat IPC: 3.996 cumulative IPC: 1.686 (Simulation time: 01 hr 06 min 47 sec)
Heartbeat CPU 0 instructions: 440000003 cycles: 240819126 heartbeat IPC: 3.995 cumulative IPC: 1.711 (Simulation time: 01 hr 07 min 44 sec)
Heartbeat CPU 0 instructions: 450000004 cycles: 243321480 heartbeat IPC: 3.996 cumulative IPC: 1.736 (Simulation time: 01 hr 08 min 41 sec)
Heartbeat CPU 0 instructions: 460000001 cycles: 245824347 heartbeat IPC: 3.995 cumulative IPC: 1.76 (Simulation time: 01 hr 09 min 39 sec)
Heartbeat CPU 0 instructions: 470000003 cycles: 248328147 heartbeat IPC: 3.994 cumulative IPC: 1.784 (Simulation time: 01 hr 10 min 37 sec)
Heartbeat CPU 0 instructions: 480000000 cycles: 250830859 heartbeat IPC: 3.996 cumulative IPC: 1.807 (Simulation time: 01 hr 11 min 36 sec)
Heartbeat CPU 0 instructions: 490000002 cycles: 253333163 heartbeat IPC: 3.996 cumulative IPC: 1.83 (Simulation time: 01 hr 12 min 31 sec)
Heartbeat CPU 0 instructions: 500000003 cycles: 255835552 heartbeat IPC: 3.996 cumulative IPC: 1.852 (Simulation time: 01 hr 13 min 25 sec)
Heartbeat CPU 0 instructions: 510000003 cycles: 262110594 heartbeat IPC: 1.594 cumulative IPC: 1.846 (Simulation time: 01 hr 14 min 57 sec)
Heartbeat CPU 0 instructions: 520000000 cycles: 356313425 heartbeat IPC: 0.1062 cumulative IPC: 1.369 (Simulation time: 01 hr 31 min 43 sec)
Heartbeat CPU 0 instructions: 530000001 cycles: 433200766 heartbeat IPC: 0.1301 cumulative IPC: 1.142 (Simulation time: 01 hr 45 min 18 sec)
Heartbeat CPU 0 instructions: 540000002 cycles: 463033797 heartbeat IPC: 0.3352 cumulative IPC: 1.089 (Simulation time: 01 hr 51 min 08 sec)
Heartbeat CPU 0 instructions: 550000004 cycles: 492754916 heartbeat IPC: 0.3365 cumulative IPC: 1.042 (Simulation time: 01 hr 57 min 01 sec)
Heartbeat CPU 0 instructions: 560000003 cycles: 525728024 heartbeat IPC: 0.3033 cumulative IPC: 0.9944 (Simulation time: 02 hr 03 min 30 sec)
Heartbeat CPU 0 instructions: 570000001 cycles: 557780639 heartbeat IPC: 0.312 cumulative IPC: 0.9543 (Simulation time: 02 hr 09 min 42 sec)
Heartbeat CPU 0 instructions: 580000004 cycles: 589629257 heartbeat IPC: 0.314 cumulative IPC: 0.9189 (Simulation time: 02 hr 16 min 11 sec)
Heartbeat CPU 0 instructions: 590000004 cycles: 622229602 heartbeat IPC: 0.3067 cumulative IPC: 0.8862 (Simulation time: 02 hr 22 min 44 sec)
*** Reached end of trace: (0, "traces/sp.A.champsimtrace")
Heartbeat CPU 0 instructions: 600000001 cycles: 654434159 heartbeat IPC: 0.3105 cumulative IPC: 0.8573 (Simulation time: 02 hr 29 min 08 sec)
Heartbeat CPU 0 instructions: 610000004 cycles: 686787387 heartbeat IPC: 0.3091 cumulative IPC: 0.831 (Simulation time: 02 hr 34 min 13 sec)
Heartbeat CPU 0 instructions: 620000001 cycles: 692869296 heartbeat IPC: 1.644 cumulative IPC: 0.8382 (Simulation time: 02 hr 35 min 51 sec)
Heartbeat CPU 0 instructions: 630000001 cycles: 698942333 heartbeat IPC: 1.647 cumulative IPC: 0.8454 (Simulation time: 02 hr 37 min 39 sec)
Heartbeat CPU 0 instructions: 640000000 cycles: 705042203 heartbeat IPC: 1.639 cumulative IPC: 0.8524 (Simulation time: 02 hr 39 min 30 sec)
Heartbeat CPU 0 instructions: 650000001 cycles: 711125500 heartbeat IPC: 1.644 cumulative IPC: 0.8593 (Simulation time: 02 hr 41 min 15 sec)
Simulation finished CPU 0 instructions: 600000003 cycles: 698244446 cumulative IPC: 0.8593 (Simulation time: 02 hr 41 min 15 sec)
Simulation complete CPU 0 instructions: 600000003 cycles: 698244446 cumulative IPC: 0.8593 (Simulation time: 02 hr 41 min 15 sec)

ChampSim completed all CPUs

=== Simulation ===
CPU 0 runs traces/sp.A.champsimtrace
Region of Interest Statistics

CPU 0 cumulative IPC: 0.8593 instructions: 600000003 cycles: 698244446
CPU 0 Branch Prediction Accuracy: 98.91% MPKI: 0.226 Average ROB Occupancy at Mispredict: 235.2
Branch type MPKI
BRANCH_DIRECT_JUMP: 5e-06
BRANCH_INDIRECT: 8.67e-05
BRANCH_CONDITIONAL: 0.226
BRANCH_DIRECT_CALL: 2e-05
BRANCH_INDIRECT_CALL: 3.83e-05
BRANCH_RETURN: 3.5e-05

LLC TOTAL        ACCESS:    5280331 HIT:    1544910 MISS:    3735421
LLC LOAD         ACCESS:    2308145 HIT:     542545 MISS:    1765600
LLC RFO          ACCESS:     922644 HIT:      29206 MISS:     893438
LLC PREFETCH     ACCESS:          0 HIT:          0 MISS:          0
LLC WRITE        ACCESS:    2046072 HIT:     972330 MISS:    1073742
LLC TRANSLATION  ACCESS:       3470 HIT:        829 MISS:       2641
LLC PREFETCH REQUESTED:          0 ISSUED:          0 USEFUL:          0 USELESS:          0
LLC AVERAGE MISS LATENCY: 879.4 cycles
cpu0_DTLB TOTAL        ACCESS:  126068880 HIT:  125210294 MISS:     858586
cpu0_DTLB LOAD         ACCESS:  126068880 HIT:  125210294 MISS:     858586
cpu0_DTLB RFO          ACCESS:          0 HIT:          0 MISS:          0
cpu0_DTLB PREFETCH     ACCESS:          0 HIT:          0 MISS:          0
cpu0_DTLB WRITE        ACCESS:          0 HIT:          0 MISS:          0
cpu0_DTLB TRANSLATION  ACCESS:          0 HIT:          0 MISS:          0
cpu0_DTLB PREFETCH REQUESTED:          0 ISSUED:          0 USEFUL:          0 USELESS:          0
cpu0_DTLB AVERAGE MISS LATENCY: 18.26 cycles
cpu0_ITLB TOTAL        ACCESS:     222375 HIT:     222131 MISS:        244
cpu0_ITLB LOAD         ACCESS:     222375 HIT:     222131 MISS:        244
cpu0_ITLB RFO          ACCESS:          0 HIT:          0 MISS:          0
cpu0_ITLB PREFETCH     ACCESS:          0 HIT:          0 MISS:          0
cpu0_ITLB WRITE        ACCESS:          0 HIT:          0 MISS:          0
cpu0_ITLB TRANSLATION  ACCESS:          0 HIT:          0 MISS:          0
cpu0_ITLB PREFETCH REQUESTED:          0 ISSUED:          0 USEFUL:          0 USELESS:          0
cpu0_ITLB AVERAGE MISS LATENCY: 278.3 cycles
cpu0_L1D TOTAL        ACCESS:  191369815 HIT:  176829221 MISS:   14540594
cpu0_L1D LOAD         ACCESS:  156127732 HIT:  145682747 MISS:   10444985
cpu0_L1D RFO          ACCESS:          0 HIT:          0 MISS:          0
cpu0_L1D PREFETCH     ACCESS:          0 HIT:          0 MISS:          0
cpu0_L1D WRITE        ACCESS:   35194206 HIT:   31116880 MISS:    4077326
cpu0_L1D TRANSLATION  ACCESS:      47877 HIT:      29594 MISS:      18283
cpu0_L1D PREFETCH REQUESTED:          0 ISSUED:          0 USEFUL:          0 USELESS:          0
cpu0_L1D AVERAGE MISS LATENCY: 165.4 cycles
cpu0_L1I TOTAL        ACCESS:     230411 HIT:     227581 MISS:       2830
cpu0_L1I LOAD         ACCESS:     230411 HIT:     227581 MISS:       2830
cpu0_L1I RFO          ACCESS:          0 HIT:          0 MISS:          0
cpu0_L1I PREFETCH     ACCESS:          0 HIT:          0 MISS:          0
cpu0_L1I WRITE        ACCESS:          0 HIT:          0 MISS:          0
cpu0_L1I TRANSLATION  ACCESS:          0 HIT:          0 MISS:          0
cpu0_L1I PREFETCH REQUESTED:          0 ISSUED:          0 USEFUL:          0 USELESS:          0
cpu0_L1I AVERAGE MISS LATENCY: 573.6 cycles
cpu0_L2C TOTAL        ACCESS:    5441801 HIT:    2207158 MISS:    3234643
cpu0_L2C LOAD         ACCESS:    2443778 HIT:     135632 MISS:    2308146
cpu0_L2C RFO          ACCESS:     923235 HIT:        591 MISS:     922644
cpu0_L2C PREFETCH     ACCESS:          0 HIT:          0 MISS:          0
cpu0_L2C WRITE        ACCESS:    2056507 HIT:    2056124 MISS:        383
cpu0_L2C TRANSLATION  ACCESS:      18281 HIT:      14811 MISS:       3470
cpu0_L2C PREFETCH REQUESTED:          0 ISSUED:          0 USEFUL:          0 USELESS:          0
cpu0_L2C AVERAGE MISS LATENCY: 1036 cycles
cpu0_STLB TOTAL        ACCESS:     591981 HIT:     544127 MISS:      47854
cpu0_STLB LOAD         ACCESS:     591981 HIT:     544127 MISS:      47854
cpu0_STLB RFO          ACCESS:          0 HIT:          0 MISS:          0
cpu0_STLB PREFETCH     ACCESS:          0 HIT:          0 MISS:          0
cpu0_STLB WRITE        ACCESS:          0 HIT:          0 MISS:          0
cpu0_STLB TRANSLATION  ACCESS:          0 HIT:          0 MISS:          0
cpu0_STLB PREFETCH REQUESTED:          0 ISSUED:          0 USEFUL:          0 USELESS:          0
cpu0_STLB AVERAGE MISS LATENCY: 326.2 cycles

DRAM Statistics

Channel 0 RQ ROW_BUFFER_HIT:     729771
  ROW_BUFFER_MISS:    1931680
 AVG DBUS CONGESTED CYCLE: 3.97
WQ ROW_BUFFER_HIT: Channel 0 
  ROW_BUFFER_MISS:     519402
  FULL:    1184035
