WARNING: physical memory size is smaller than virtual memory size.

*** ChampSim Multicore Out-of-Order Simulator ***
Warmup Instructions: 50000000
Simulation Instructions: 600000000
Number of CPUs: 1
Page size: 4096

CPU 0 Tage branch predictor
Off-chip DRAM Size: 4 GiB Channels: 1 Width: 64-bit Data Race: 3200 MT/s
Heartbeat CPU 0 instructions: 10000000 cycles: 2881055 heartbeat IPC: 3.471 cumulative IPC: 3.471 (Simulation time: 00 hr 00 min 40 sec)
Heartbeat CPU 0 instructions: 20000000 cycles: 5381055 heartbeat IPC: 4 cumulative IPC: 3.717 (Simulation time: 00 hr 01 min 17 sec)
Heartbeat CPU 0 instructions: 30000000 cycles: 7881055 heartbeat IPC: 4 cumulative IPC: 3.807 (Simulation time: 00 hr 01 min 55 sec)
Heartbeat CPU 0 instructions: 40000000 cycles: 10381055 heartbeat IPC: 4 cumulative IPC: 3.853 (Simulation time: 00 hr 02 min 31 sec)
Heartbeat CPU 0 instructions: 50000000 cycles: 12881055 heartbeat IPC: 4 cumulative IPC: 3.882 (Simulation time: 00 hr 03 min 08 sec)
Warmup finished CPU 0 instructions: 50000000 cycles: 12881056 cumulative IPC: 3.882 (Simulation time: 00 hr 03 min 08 sec)
Warmup complete CPU 0 instructions: 50000000 cycles: 12881056 cumulative IPC: 3.882 (Simulation time: 00 hr 03 min 08 sec)
Heartbeat CPU 0 instructions: 60000000 cycles: 16219378 heartbeat IPC: 2.996 cumulative IPC: 2.996 (Simulation time: 00 hr 03 min 57 sec)
Heartbeat CPU 0 instructions: 70000004 cycles: 19575582 heartbeat IPC: 2.98 cumulative IPC: 2.988 (Simulation time: 00 hr 04 min 49 sec)
Heartbeat CPU 0 instructions: 80000000 cycles: 22919559 heartbeat IPC: 2.99 cumulative IPC: 2.988 (Simulation time: 00 hr 05 min 37 sec)
Heartbeat CPU 0 instructions: 90000003 cycles: 26246536 heartbeat IPC: 3.006 cumulative IPC: 2.993 (Simulation time: 00 hr 06 min 28 sec)
Heartbeat CPU 0 instructions: 100000000 cycles: 31448048 heartbeat IPC: 1.923 cumulative IPC: 2.693 (Simulation time: 00 hr 07 min 33 sec)
Heartbeat CPU 0 instructions: 110000001 cycles: 38090329 heartbeat IPC: 1.506 cumulative IPC: 2.38 (Simulation time: 00 hr 08 min 48 sec)
Heartbeat CPU 0 instructions: 120000001 cycles: 44731652 heartbeat IPC: 1.506 cumulative IPC: 2.198 (Simulation time: 00 hr 10 min 01 sec)
Heartbeat CPU 0 instructions: 130000002 cycles: 51323460 heartbeat IPC: 1.517 cumulative IPC: 2.081 (Simulation time: 00 hr 11 min 15 sec)
Heartbeat CPU 0 instructions: 140000004 cycles: 57996809 heartbeat IPC: 1.498 cumulative IPC: 1.995 (Simulation time: 00 hr 12 min 29 sec)
Heartbeat CPU 0 instructions: 150000000 cycles: 64734556 heartbeat IPC: 1.484 cumulative IPC: 1.929 (Simulation time: 00 hr 13 min 46 sec)
Heartbeat CPU 0 instructions: 160000001 cycles: 71486140 heartbeat IPC: 1.481 cumulative IPC: 1.877 (Simulation time: 00 hr 15 min 01 sec)
Heartbeat CPU 0 instructions: 170000001 cycles: 78185106 heartbeat IPC: 1.493 cumulative IPC: 1.838 (Simulation time: 00 hr 16 min 15 sec)
Heartbeat CPU 0 instructions: 180000002 cycles: 84914559 heartbeat IPC: 1.486 cumulative IPC: 1.805 (Simulation time: 00 hr 17 min 28 sec)
Heartbeat CPU 0 instructions: 190000002 cycles: 91097329 heartbeat IPC: 1.617 cumulative IPC: 1.79 (Simulation time: 00 hr 18 min 38 sec)
Heartbeat CPU 0 instructions: 200000004 cycles: 95986930 heartbeat IPC: 2.045 cumulative IPC: 1.805 (Simulation time: 00 hr 19 min 39 sec)
Heartbeat CPU 0 instructions: 210000001 cycles: 101155659 heartbeat IPC: 1.935 cumulative IPC: 1.813 (Simulation time: 00 hr 20 min 42 sec)
Heartbeat CPU 0 instructions: 220000001 cycles: 106742005 heartbeat IPC: 1.79 cumulative IPC: 1.811 (Simulation time: 00 hr 21 min 48 sec)
Heartbeat CPU 0 instructions: 230000004 cycles: 113075461 heartbeat IPC: 1.579 cumulative IPC: 1.797 (Simulation time: 00 hr 23 min 00 sec)
Heartbeat CPU 0 instructions: 240000003 cycles: 119804207 heartbeat IPC: 1.486 cumulative IPC: 1.777 (Simulation time: 00 hr 24 min 15 sec)
Heartbeat CPU 0 instructions: 250000002 cycles: 126609142 heartbeat IPC: 1.47 cumulative IPC: 1.759 (Simulation time: 00 hr 25 min 30 sec)
Heartbeat CPU 0 instructions: 260000002 cycles: 133326031 heartbeat IPC: 1.489 cumulative IPC: 1.744 (Simulation time: 00 hr 26 min 45 sec)
Heartbeat CPU 0 instructions: 270000003 cycles: 140010829 heartbeat IPC: 1.496 cumulative IPC: 1.731 (Simulation time: 00 hr 28 min 00 sec)
Heartbeat CPU 0 instructions: 280000000 cycles: 146820264 heartbeat IPC: 1.469 cumulative IPC: 1.717 (Simulation time: 00 hr 29 min 16 sec)
Heartbeat CPU 0 instructions: 290000001 cycles: 209351773 heartbeat IPC: 0.1599 cumulative IPC: 1.222 (Simulation time: 00 hr 36 min 14 sec)
Heartbeat CPU 0 instructions: 300000002 cycles: 211851901 heartbeat IPC: 4 cumulative IPC: 1.256 (Simulation time: 00 hr 36 min 58 sec)
Heartbeat CPU 0 instructions: 310000001 cycles: 214351997 heartbeat IPC: 4 cumulative IPC: 1.291 (Simulation time: 00 hr 37 min 42 sec)
Heartbeat CPU 0 instructions: 320000001 cycles: 216852126 heartbeat IPC: 4 cumulative IPC: 1.324 (Simulation time: 00 hr 38 min 26 sec)
Heartbeat CPU 0 instructions: 330000003 cycles: 219352187 heartbeat IPC: 4 cumulative IPC: 1.356 (Simulation time: 00 hr 39 min 12 sec)
Heartbeat CPU 0 instructions: 340000000 cycles: 221852272 heartbeat IPC: 4 cumulative IPC: 1.388 (Simulation time: 00 hr 39 min 58 sec)
Heartbeat CPU 0 instructions: 350000004 cycles: 224352359 heartbeat IPC: 4 cumulative IPC: 1.419 (Simulation time: 00 hr 40 min 44 sec)
Heartbeat CPU 0 instructions: 360000004 cycles: 226852446 heartbeat IPC: 4 cumulative IPC: 1.449 (Simulation time: 00 hr 41 min 30 sec)
Heartbeat CPU 0 instructions: 370000000 cycles: 229353256 heartbeat IPC: 3.999 cumulative IPC: 1.478 (Simulation time: 00 hr 42 min 15 sec)
Heartbeat CPU 0 instructions: 380000004 cycles: 231853729 heartbeat IPC: 3.999 cumulative IPC: 1.507 (Simulation time: 00 hr 43 min 03 sec)
Heartbeat CPU 0 instructions: 390000001 cycles: 234353813 heartbeat IPC: 4 cumulative IPC: 1.535 (Simulation time: 00 hr 43 min 49 sec)
Heartbeat CPU 0 instructions: 400000003 cycles: 236853899 heartbeat IPC: 4 cumulative IPC: 1.563 (Simulation time: 00 hr 44 min 34 sec)
Heartbeat CPU 0 instructions: 410000003 cycles: 239354027 heartbeat IPC: 4 cumulative IPC: 1.59 (Simulation time: 00 hr 45 min 18 sec)
Heartbeat CPU 0 instructions: 420000002 cycles: 241854122 heartbeat IPC: 4 cumulative IPC: 1.616 (Simulation time: 00 hr 46 min 03 sec)
Heartbeat CPU 0 instructions: 430000000 cycles: 244354316 heartbeat IPC: 4 cumulative IPC: 1.642 (Simulation time: 00 hr 46 min 48 sec)
Heartbeat CPU 0 instructions: 440000001 cycles: 246854401 heartbeat IPC: 4 cumulative IPC: 1.667 (Simulation time: 00 hr 47 min 32 sec)
Heartbeat CPU 0 instructions: 450000000 cycles: 249354486 heartbeat IPC: 4 cumulative IPC: 1.692 (Simulation time: 00 hr 48 min 17 sec)
Heartbeat CPU 0 instructions: 460000003 cycles: 251854530 heartbeat IPC: 4 cumulative IPC: 1.716 (Simulation time: 00 hr 49 min 02 sec)
Heartbeat CPU 0 instructions: 470000001 cycles: 254354617 heartbeat IPC: 4 cumulative IPC: 1.739 (Simulation time: 00 hr 49 min 51 sec)
Heartbeat CPU 0 instructions: 480000003 cycles: 256854701 heartbeat IPC: 4 cumulative IPC: 1.762 (Simulation time: 00 hr 50 min 36 sec)
Heartbeat CPU 0 instructions: 490000003 cycles: 259354788 heartbeat IPC: 4 cumulative IPC: 1.785 (Simulation time: 00 hr 51 min 21 sec)
Heartbeat CPU 0 instructions: 500000002 cycles: 261854874 heartbeat IPC: 4 cumulative IPC: 1.807 (Simulation time: 00 hr 52 min 06 sec)
Heartbeat CPU 0 instructions: 510000003 cycles: 267140303 heartbeat IPC: 1.892 cumulative IPC: 1.809 (Simulation time: 00 hr 53 min 13 sec)
Heartbeat CPU 0 instructions: 520000001 cycles: 374391529 heartbeat IPC: 0.09324 cumulative IPC: 1.3 (Simulation time: 01 hr 07 min 45 sec)
Heartbeat CPU 0 instructions: 530000000 cycles: 456208934 heartbeat IPC: 0.1222 cumulative IPC: 1.083 (Simulation time: 01 hr 18 min 44 sec)
Heartbeat CPU 0 instructions: 540000000 cycles: 478718896 heartbeat IPC: 0.4442 cumulative IPC: 1.052 (Simulation time: 01 hr 22 min 09 sec)
Heartbeat CPU 0 instructions: 550000002 cycles: 501205970 heartbeat IPC: 0.4447 cumulative IPC: 1.024 (Simulation time: 01 hr 25 min 38 sec)
Heartbeat CPU 0 instructions: 560000002 cycles: 523766050 heartbeat IPC: 0.4433 cumulative IPC: 0.9983 (Simulation time: 01 hr 29 min 02 sec)
Heartbeat CPU 0 instructions: 570000002 cycles: 546236040 heartbeat IPC: 0.445 cumulative IPC: 0.975 (Simulation time: 01 hr 32 min 29 sec)
Heartbeat CPU 0 instructions: 580000003 cycles: 568183120 heartbeat IPC: 0.4556 cumulative IPC: 0.9544 (Simulation time: 01 hr 35 min 50 sec)
Heartbeat CPU 0 instructions: 590000004 cycles: 590723901 heartbeat IPC: 0.4436 cumulative IPC: 0.9345 (Simulation time: 01 hr 39 min 20 sec)
*** Reached end of trace: (0, "traces/sp.A.champsimtrace")
Heartbeat CPU 0 instructions: 600000002 cycles: 613206643 heartbeat IPC: 0.4448 cumulative IPC: 0.9162 (Simulation time: 01 hr 42 min 48 sec)
Heartbeat CPU 0 instructions: 610000000 cycles: 638486724 heartbeat IPC: 0.3956 cumulative IPC: 0.8951 (Simulation time: 01 hr 45 min 45 sec)
Heartbeat CPU 0 instructions: 620000003 cycles: 641821797 heartbeat IPC: 2.998 cumulative IPC: 0.9063 (Simulation time: 01 hr 46 min 38 sec)
Heartbeat CPU 0 instructions: 630000003 cycles: 645171089 heartbeat IPC: 2.986 cumulative IPC: 0.9173 (Simulation time: 01 hr 47 min 32 sec)
Heartbeat CPU 0 instructions: 640000004 cycles: 648536704 heartbeat IPC: 2.971 cumulative IPC: 0.9282 (Simulation time: 01 hr 48 min 26 sec)
Heartbeat CPU 0 instructions: 650000000 cycles: 651869466 heartbeat IPC: 3.001 cumulative IPC: 0.939 (Simulation time: 01 hr 49 min 21 sec)
Simulation finished CPU 0 instructions: 600000000 cycles: 638988411 cumulative IPC: 0.939 (Simulation time: 01 hr 49 min 21 sec)
Simulation complete CPU 0 instructions: 600000000 cycles: 638988411 cumulative IPC: 0.939 (Simulation time: 01 hr 49 min 21 sec)

ChampSim completed all CPUs

=== Simulation ===
CPU 0 runs traces/sp.A.champsimtrace
Region of Interest Statistics

CPU 0 cumulative IPC: 0.939 instructions: 600000000 cycles: 638988411
CPU 0 Branch Prediction Accuracy: 99.98% MPKI: 0.003913 Average ROB Occupancy at Mispredict: 105.9
Branch type MPKI
BRANCH_DIRECT_JUMP: 5e-06
BRANCH_INDIRECT: 7.5e-05
BRANCH_CONDITIONAL: 0.00375
BRANCH_DIRECT_CALL: 2e-05
BRANCH_INDIRECT_CALL: 3.17e-05
BRANCH_RETURN: 3.67e-05

LLC TOTAL        ACCESS:    8163747 HIT:    5154738 MISS:    3009009
LLC LOAD         ACCESS:    2304431 HIT:    1496797 MISS:     807634
LLC RFO          ACCESS:     922634 HIT:      10384 MISS:     912250
LLC PREFETCH     ACCESS:    2887418 HIT:    1600132 MISS:    1287286
LLC WRITE        ACCESS:    2045791 HIT:    2045661 MISS:        130
LLC TRANSLATION  ACCESS:       3473 HIT:       1764 MISS:       1709
LLC PREFETCH REQUESTED:    2887418 ISSUED:    2887418 USEFUL:    1028292 USELESS:      18444
LLC AVERAGE MISS LATENCY: 1414 cycles
cpu0_DTLB TOTAL        ACCESS:  127361283 HIT:  126373619 MISS:     987664
cpu0_DTLB LOAD         ACCESS:  127361283 HIT:  126373619 MISS:     987664
cpu0_DTLB RFO          ACCESS:          0 HIT:          0 MISS:          0
cpu0_DTLB PREFETCH     ACCESS:          0 HIT:          0 MISS:          0
cpu0_DTLB WRITE        ACCESS:          0 HIT:          0 MISS:          0
cpu0_DTLB TRANSLATION  ACCESS:          0 HIT:          0 MISS:          0
cpu0_DTLB PREFETCH REQUESTED:          0 ISSUED:          0 USEFUL:          0 USELESS:          0
cpu0_DTLB AVERAGE MISS LATENCY: 15.85 cycles
cpu0_ITLB TOTAL        ACCESS:     240386 HIT:     240134 MISS:        252
cpu0_ITLB LOAD         ACCESS:     240386 HIT:     240134 MISS:        252
cpu0_ITLB RFO          ACCESS:          0 HIT:          0 MISS:          0
cpu0_ITLB PREFETCH     ACCESS:          0 HIT:          0 MISS:          0
cpu0_ITLB WRITE        ACCESS:          0 HIT:          0 MISS:          0
cpu0_ITLB TRANSLATION  ACCESS:          0 HIT:          0 MISS:          0
cpu0_ITLB PREFETCH REQUESTED:          0 ISSUED:          0 USEFUL:          0 USELESS:          0
cpu0_ITLB AVERAGE MISS LATENCY: 322.1 cycles
cpu0_L1D TOTAL        ACCESS:  194334502 HIT:  181076155 MISS:   13258347
cpu0_L1D LOAD         ACCESS:  159092290 HIT:  150289393 MISS:    8802897
cpu0_L1D RFO          ACCESS:          0 HIT:          0 MISS:          0
cpu0_L1D PREFETCH     ACCESS:          0 HIT:          0 MISS:          0
cpu0_L1D WRITE        ACCESS:   35194333 HIT:   30757196 MISS:    4437137
cpu0_L1D TRANSLATION  ACCESS:      47879 HIT:      29566 MISS:      18313
cpu0_L1D PREFETCH REQUESTED:          0 ISSUED:          0 USEFUL:          0 USELESS:          0
cpu0_L1D AVERAGE MISS LATENCY: 152 cycles
cpu0_L1I TOTAL        ACCESS:     250073 HIT:     247054 MISS:       3019
cpu0_L1I LOAD         ACCESS:     250073 HIT:     247054 MISS:       3019
cpu0_L1I RFO          ACCESS:          0 HIT:          0 MISS:          0
cpu0_L1I PREFETCH     ACCESS:          0 HIT:          0 MISS:          0
cpu0_L1I WRITE        ACCESS:          0 HIT:          0 MISS:          0
cpu0_L1I TRANSLATION  ACCESS:          0 HIT:          0 MISS:          0
cpu0_L1I PREFETCH REQUESTED:          0 ISSUED:          0 USEFUL:          0 USELESS:          0
cpu0_L1I AVERAGE MISS LATENCY: 466.8 cycles
cpu0_L2C TOTAL        ACCESS:    5424792 HIT:    2193774 MISS:    3231018
cpu0_L2C LOAD         ACCESS:    2426555 HIT:     122015 MISS:    2304540
cpu0_L2C RFO          ACCESS:     923513 HIT:        879 MISS:     922634
cpu0_L2C PREFETCH     ACCESS:          0 HIT:          0 MISS:          0
cpu0_L2C WRITE        ACCESS:    2056415 HIT:    2056044 MISS:        371
cpu0_L2C TRANSLATION  ACCESS:      18309 HIT:      14836 MISS:       3473
cpu0_L2C PREFETCH REQUESTED:          0 ISSUED:          0 USEFUL:          0 USELESS:          0
cpu0_L2C AVERAGE MISS LATENCY: 809.4 cycles
cpu0_STLB TOTAL        ACCESS:     741351 HIT:     693503 MISS:      47848
cpu0_STLB LOAD         ACCESS:     741351 HIT:     693503 MISS:      47848
cpu0_STLB RFO          ACCESS:          0 HIT:          0 MISS:          0
cpu0_STLB PREFETCH     ACCESS:          0 HIT:          0 MISS:          0
cpu0_STLB WRITE        ACCESS:          0 HIT:          0 MISS:          0
cpu0_STLB TRANSLATION  ACCESS:          0 HIT:          0 MISS:          0
cpu0_STLB PREFETCH REQUESTED:          0 ISSUED:          0 USEFUL:          0 USELESS:          0
cpu0_STLB AVERAGE MISS LATENCY: 292.1 cycles

DRAM Statistics

Channel 0 RQ ROW_BUFFER_HIT:     903644
  ROW_BUFFER_MISS:    1819535
 AVG DBUS CONGESTED CYCLE: 3.967
WQ ROW_BUFFER_HIT: Channel 0 
  ROW_BUFFER_MISS:     442950
  FULL:    1306259
