WARNING: physical memory size is smaller than virtual memory size.

*** ChampSim Multicore Out-of-Order Simulator ***
Warmup Instructions: 50000000
Simulation Instructions: 600000000
Number of CPUs: 1
Page size: 4096

Off-chip DRAM Size: 4 GiB Channels: 1 Width: 64-bit Data Race: 3200 MT/s
Heartbeat CPU 0 instructions: 10000003 cycles: 2881057 heartbeat IPC: 3.471 cumulative IPC: 3.471 (Simulation time: 00 hr 00 min 36 sec)
Heartbeat CPU 0 instructions: 20000003 cycles: 5381057 heartbeat IPC: 4 cumulative IPC: 3.717 (Simulation time: 00 hr 01 min 11 sec)
Heartbeat CPU 0 instructions: 30000003 cycles: 7881057 heartbeat IPC: 4 cumulative IPC: 3.807 (Simulation time: 00 hr 01 min 45 sec)
Heartbeat CPU 0 instructions: 40000003 cycles: 10381057 heartbeat IPC: 4 cumulative IPC: 3.853 (Simulation time: 00 hr 02 min 22 sec)
Heartbeat CPU 0 instructions: 50000003 cycles: 12881057 heartbeat IPC: 4 cumulative IPC: 3.882 (Simulation time: 00 hr 02 min 56 sec)
Warmup finished CPU 0 instructions: 50000003 cycles: 12881058 cumulative IPC: 3.882 (Simulation time: 00 hr 02 min 56 sec)
Warmup complete CPU 0 instructions: 50000003 cycles: 12881058 cumulative IPC: 3.882 (Simulation time: 00 hr 02 min 56 sec)
Heartbeat CPU 0 instructions: 60000000 cycles: 17128348 heartbeat IPC: 2.354 cumulative IPC: 2.354 (Simulation time: 00 hr 03 min 52 sec)
Heartbeat CPU 0 instructions: 70000000 cycles: 21494993 heartbeat IPC: 2.29 cumulative IPC: 2.322 (Simulation time: 00 hr 04 min 50 sec)
Heartbeat CPU 0 instructions: 80000001 cycles: 25730214 heartbeat IPC: 2.361 cumulative IPC: 2.335 (Simulation time: 00 hr 05 min 48 sec)
Heartbeat CPU 0 instructions: 90000003 cycles: 30041812 heartbeat IPC: 2.319 cumulative IPC: 2.331 (Simulation time: 00 hr 06 min 46 sec)
Heartbeat CPU 0 instructions: 100000000 cycles: 33580959 heartbeat IPC: 2.826 cumulative IPC: 2.415 (Simulation time: 00 hr 07 min 36 sec)
Heartbeat CPU 0 instructions: 110000001 cycles: 36125994 heartbeat IPC: 3.929 cumulative IPC: 2.581 (Simulation time: 00 hr 08 min 16 sec)
Heartbeat CPU 0 instructions: 120000001 cycles: 38681395 heartbeat IPC: 3.913 cumulative IPC: 2.713 (Simulation time: 00 hr 08 min 58 sec)
Heartbeat CPU 0 instructions: 130000000 cycles: 41291896 heartbeat IPC: 3.831 cumulative IPC: 2.816 (Simulation time: 00 hr 09 min 38 sec)
Heartbeat CPU 0 instructions: 140000004 cycles: 44565044 heartbeat IPC: 3.055 cumulative IPC: 2.841 (Simulation time: 00 hr 10 min 26 sec)
Heartbeat CPU 0 instructions: 150000000 cycles: 47808666 heartbeat IPC: 3.083 cumulative IPC: 2.863 (Simulation time: 00 hr 11 min 12 sec)
Heartbeat CPU 0 instructions: 160000000 cycles: 51333650 heartbeat IPC: 2.837 cumulative IPC: 2.861 (Simulation time: 00 hr 12 min 00 sec)
Heartbeat CPU 0 instructions: 170000000 cycles: 54671379 heartbeat IPC: 2.996 cumulative IPC: 2.871 (Simulation time: 00 hr 12 min 46 sec)
Heartbeat CPU 0 instructions: 180000002 cycles: 58248548 heartbeat IPC: 2.796 cumulative IPC: 2.865 (Simulation time: 00 hr 13 min 33 sec)
Heartbeat CPU 0 instructions: 190000002 cycles: 61537765 heartbeat IPC: 3.04 cumulative IPC: 2.877 (Simulation time: 00 hr 14 min 19 sec)
Heartbeat CPU 0 instructions: 200000000 cycles: 64307897 heartbeat IPC: 3.61 cumulative IPC: 2.917 (Simulation time: 00 hr 15 min 02 sec)
Heartbeat CPU 0 instructions: 210000000 cycles: 67045048 heartbeat IPC: 3.653 cumulative IPC: 2.954 (Simulation time: 00 hr 15 min 45 sec)
Heartbeat CPU 0 instructions: 220000001 cycles: 69821090 heartbeat IPC: 3.602 cumulative IPC: 2.986 (Simulation time: 00 hr 16 min 28 sec)
Heartbeat CPU 0 instructions: 230000004 cycles: 72596026 heartbeat IPC: 3.604 cumulative IPC: 3.014 (Simulation time: 00 hr 17 min 11 sec)
Heartbeat CPU 0 instructions: 240000002 cycles: 75342594 heartbeat IPC: 3.641 cumulative IPC: 3.042 (Simulation time: 00 hr 17 min 53 sec)
Heartbeat CPU 0 instructions: 250000002 cycles: 78116065 heartbeat IPC: 3.606 cumulative IPC: 3.066 (Simulation time: 00 hr 18 min 37 sec)
Heartbeat CPU 0 instructions: 260000002 cycles: 80887620 heartbeat IPC: 3.608 cumulative IPC: 3.088 (Simulation time: 00 hr 19 min 22 sec)
Heartbeat CPU 0 instructions: 270000003 cycles: 83631084 heartbeat IPC: 3.645 cumulative IPC: 3.11 (Simulation time: 00 hr 20 min 06 sec)
Heartbeat CPU 0 instructions: 280000003 cycles: 86410365 heartbeat IPC: 3.598 cumulative IPC: 3.128 (Simulation time: 00 hr 20 min 50 sec)
Heartbeat CPU 0 instructions: 290000001 cycles: 131223555 heartbeat IPC: 0.2231 cumulative IPC: 2.028 (Simulation time: 00 hr 26 min 05 sec)
Heartbeat CPU 0 instructions: 300000002 cycles: 133726138 heartbeat IPC: 3.996 cumulative IPC: 2.069 (Simulation time: 00 hr 26 min 45 sec)
Heartbeat CPU 0 instructions: 310000001 cycles: 136230335 heartbeat IPC: 3.993 cumulative IPC: 2.108 (Simulation time: 00 hr 27 min 26 sec)
Heartbeat CPU 0 instructions: 320000001 cycles: 138733209 heartbeat IPC: 3.995 cumulative IPC: 2.145 (Simulation time: 00 hr 28 min 05 sec)
Heartbeat CPU 0 instructions: 330000003 cycles: 141235546 heartbeat IPC: 3.996 cumulative IPC: 2.181 (Simulation time: 00 hr 28 min 45 sec)
Heartbeat CPU 0 instructions: 340000000 cycles: 143738787 heartbeat IPC: 3.995 cumulative IPC: 2.216 (Simulation time: 00 hr 29 min 24 sec)
Heartbeat CPU 0 instructions: 350000004 cycles: 146241575 heartbeat IPC: 3.996 cumulative IPC: 2.25 (Simulation time: 00 hr 30 min 03 sec)
Heartbeat CPU 0 instructions: 360000004 cycles: 148744089 heartbeat IPC: 3.996 cumulative IPC: 2.282 (Simulation time: 00 hr 30 min 43 sec)
Heartbeat CPU 0 instructions: 370000000 cycles: 151247118 heartbeat IPC: 3.995 cumulative IPC: 2.313 (Simulation time: 00 hr 31 min 23 sec)
Heartbeat CPU 0 instructions: 380000004 cycles: 153750324 heartbeat IPC: 3.995 cumulative IPC: 2.343 (Simulation time: 00 hr 32 min 03 sec)
Heartbeat CPU 0 instructions: 390000001 cycles: 156253419 heartbeat IPC: 3.995 cumulative IPC: 2.371 (Simulation time: 00 hr 32 min 43 sec)
Heartbeat CPU 0 instructions: 400000003 cycles: 158757193 heartbeat IPC: 3.994 cumulative IPC: 2.399 (Simulation time: 00 hr 33 min 24 sec)
Heartbeat CPU 0 instructions: 410000003 cycles: 161260364 heartbeat IPC: 3.995 cumulative IPC: 2.426 (Simulation time: 00 hr 34 min 04 sec)
Heartbeat CPU 0 instructions: 420000002 cycles: 163763638 heartbeat IPC: 3.995 cumulative IPC: 2.452 (Simulation time: 00 hr 34 min 43 sec)
Heartbeat CPU 0 instructions: 430000000 cycles: 166266356 heartbeat IPC: 3.996 cumulative IPC: 2.477 (Simulation time: 00 hr 35 min 22 sec)
Heartbeat CPU 0 instructions: 440000001 cycles: 168768745 heartbeat IPC: 3.996 cumulative IPC: 2.502 (Simulation time: 00 hr 36 min 01 sec)
Heartbeat CPU 0 instructions: 450000000 cycles: 171272458 heartbeat IPC: 3.994 cumulative IPC: 2.525 (Simulation time: 00 hr 36 min 39 sec)
Heartbeat CPU 0 instructions: 460000003 cycles: 173776781 heartbeat IPC: 3.993 cumulative IPC: 2.548 (Simulation time: 00 hr 37 min 18 sec)
Heartbeat CPU 0 instructions: 470000001 cycles: 176279407 heartbeat IPC: 3.996 cumulative IPC: 2.57 (Simulation time: 00 hr 37 min 57 sec)
Heartbeat CPU 0 instructions: 480000003 cycles: 178782585 heartbeat IPC: 3.995 cumulative IPC: 2.592 (Simulation time: 00 hr 38 min 37 sec)
Heartbeat CPU 0 instructions: 490000003 cycles: 181284974 heartbeat IPC: 3.996 cumulative IPC: 2.613 (Simulation time: 00 hr 39 min 16 sec)
Heartbeat CPU 0 instructions: 500000002 cycles: 183788222 heartbeat IPC: 3.995 cumulative IPC: 2.633 (Simulation time: 00 hr 39 min 56 sec)
Heartbeat CPU 0 instructions: 510000003 cycles: 191827202 heartbeat IPC: 1.244 cumulative IPC: 2.571 (Simulation time: 00 hr 41 min 17 sec)
Heartbeat CPU 0 instructions: 520000001 cycles: 293482711 heartbeat IPC: 0.09837 cumulative IPC: 1.675 (Simulation time: 00 hr 54 min 38 sec)
Heartbeat CPU 0 instructions: 530000004 cycles: 371287661 heartbeat IPC: 0.1285 cumulative IPC: 1.339 (Simulation time: 01 hr 05 min 09 sec)
Heartbeat CPU 0 instructions: 540000000 cycles: 408287659 heartbeat IPC: 0.2703 cumulative IPC: 1.239 (Simulation time: 01 hr 10 min 31 sec)
Heartbeat CPU 0 instructions: 550000002 cycles: 444783740 heartbeat IPC: 0.274 cumulative IPC: 1.158 (Simulation time: 01 hr 15 min 50 sec)
Heartbeat CPU 0 instructions: 560000004 cycles: 481352161 heartbeat IPC: 0.2735 cumulative IPC: 1.089 (Simulation time: 01 hr 21 min 11 sec)
Heartbeat CPU 0 instructions: 570000000 cycles: 517723247 heartbeat IPC: 0.2749 cumulative IPC: 1.03 (Simulation time: 01 hr 26 min 30 sec)
Heartbeat CPU 0 instructions: 580000001 cycles: 554866620 heartbeat IPC: 0.2692 cumulative IPC: 0.9779 (Simulation time: 01 hr 31 min 49 sec)
Heartbeat CPU 0 instructions: 590000004 cycles: 593285057 heartbeat IPC: 0.2603 cumulative IPC: 0.9304 (Simulation time: 01 hr 37 min 19 sec)
*** Reached end of trace: (0, "traces/sp.A.champsimtrace")
Heartbeat CPU 0 instructions: 600000001 cycles: 631111933 heartbeat IPC: 0.2644 cumulative IPC: 0.8896 (Simulation time: 01 hr 42 min 48 sec)
Heartbeat CPU 0 instructions: 610000000 cycles: 652437178 heartbeat IPC: 0.4689 cumulative IPC: 0.8756 (Simulation time: 01 hr 45 min 13 sec)
Heartbeat CPU 0 instructions: 620000004 cycles: 654984228 heartbeat IPC: 3.926 cumulative IPC: 0.8877 (Simulation time: 01 hr 45 min 55 sec)
Heartbeat CPU 0 instructions: 630000003 cycles: 657535665 heartbeat IPC: 3.919 cumulative IPC: 0.8997 (Simulation time: 01 hr 46 min 37 sec)
Heartbeat CPU 0 instructions: 640000004 cycles: 661046450 heartbeat IPC: 2.848 cumulative IPC: 0.9103 (Simulation time: 01 hr 47 min 27 sec)
Heartbeat CPU 0 instructions: 650000001 cycles: 665416724 heartbeat IPC: 2.288 cumulative IPC: 0.9195 (Simulation time: 01 hr 48 min 23 sec)
Simulation finished CPU 0 instructions: 600000003 cycles: 652535668 cumulative IPC: 0.9195 (Simulation time: 01 hr 48 min 23 sec)
Simulation complete CPU 0 instructions: 600000003 cycles: 652535668 cumulative IPC: 0.9195 (Simulation time: 01 hr 48 min 23 sec)

ChampSim completed all CPUs

=== Simulation ===
CPU 0 runs traces/sp.A.champsimtrace
Region of Interest Statistics

CPU 0 cumulative IPC: 0.9195 instructions: 600000003 cycles: 652535668
CPU 0 Branch Prediction Accuracy: 98.91% MPKI: 0.226 Average ROB Occupancy at Mispredict: 231.5
Branch type MPKI
BRANCH_DIRECT_JUMP: 5e-06
BRANCH_INDIRECT: 7.5e-05
BRANCH_CONDITIONAL: 0.226
BRANCH_DIRECT_CALL: 2e-05
BRANCH_INDIRECT_CALL: 3.17e-05
BRANCH_RETURN: 3.67e-05

LLC TOTAL        ACCESS:    7577719 HIT:    2385710 MISS:    5192009
LLC LOAD         ACCESS:    2303660 HIT:    1001369 MISS:    1302291
LLC RFO          ACCESS:     922633 HIT:      57089 MISS:     865544
LLC PREFETCH     ACCESS:    2303660 HIT:     465890 MISS:    1837770
LLC WRITE        ACCESS:    2044295 HIT:     860992 MISS:    1183303
LLC TRANSLATION  ACCESS:       3471 HIT:        370 MISS:       3101
LLC PREFETCH REQUESTED:    2303660 ISSUED:    2303660 USEFUL:    1449500 USELESS:      41136
LLC AVERAGE MISS LATENCY: 789.2 cycles
cpu0_DTLB TOTAL        ACCESS:  127714699 HIT:  126902636 MISS:     812063
cpu0_DTLB LOAD         ACCESS:  127714699 HIT:  126902636 MISS:     812063
cpu0_DTLB RFO          ACCESS:          0 HIT:          0 MISS:          0
cpu0_DTLB PREFETCH     ACCESS:          0 HIT:          0 MISS:          0
cpu0_DTLB WRITE        ACCESS:          0 HIT:          0 MISS:          0
cpu0_DTLB TRANSLATION  ACCESS:          0 HIT:          0 MISS:          0
cpu0_DTLB PREFETCH REQUESTED:          0 ISSUED:          0 USEFUL:          0 USELESS:          0
cpu0_DTLB AVERAGE MISS LATENCY: 19.41 cycles
cpu0_ITLB TOTAL        ACCESS:     216385 HIT:     216150 MISS:        235
cpu0_ITLB LOAD         ACCESS:     216385 HIT:     216150 MISS:        235
cpu0_ITLB RFO          ACCESS:          0 HIT:          0 MISS:          0
cpu0_ITLB PREFETCH     ACCESS:          0 HIT:          0 MISS:          0
cpu0_ITLB WRITE        ACCESS:          0 HIT:          0 MISS:          0
cpu0_ITLB TRANSLATION  ACCESS:          0 HIT:          0 MISS:          0
cpu0_ITLB PREFETCH REQUESTED:          0 ISSUED:          0 USEFUL:          0 USELESS:          0
cpu0_ITLB AVERAGE MISS LATENCY: 418.1 cycles
cpu0_L1D TOTAL        ACCESS:  193676276 HIT:  179476202 MISS:   14200074
cpu0_L1D LOAD         ACCESS:  158434199 HIT:  148459856 MISS:    9974343
cpu0_L1D RFO          ACCESS:          0 HIT:          0 MISS:          0
cpu0_L1D PREFETCH     ACCESS:          0 HIT:          0 MISS:          0
cpu0_L1D WRITE        ACCESS:   35194199 HIT:   30986739 MISS:    4207460
cpu0_L1D TRANSLATION  ACCESS:      47878 HIT:      29607 MISS:      18271
cpu0_L1D PREFETCH REQUESTED:          0 ISSUED:          0 USEFUL:          0 USELESS:          0
cpu0_L1D AVERAGE MISS LATENCY: 154.9 cycles
cpu0_L1I TOTAL        ACCESS:     223751 HIT:     220972 MISS:       2779
cpu0_L1I LOAD         ACCESS:     223751 HIT:     220972 MISS:       2779
cpu0_L1I RFO          ACCESS:          0 HIT:          0 MISS:          0
cpu0_L1I PREFETCH     ACCESS:          0 HIT:          0 MISS:          0
cpu0_L1I WRITE        ACCESS:          0 HIT:          0 MISS:          0
cpu0_L1I TRANSLATION  ACCESS:          0 HIT:          0 MISS:          0
cpu0_L1I PREFETCH REQUESTED:          0 ISSUED:          0 USEFUL:          0 USELESS:          0
cpu0_L1I AVERAGE MISS LATENCY: 546.8 cycles
cpu0_L2C TOTAL        ACCESS:    5428743 HIT:    2198572 MISS:    3230171
cpu0_L2C LOAD         ACCESS:    2431129 HIT:     127433 MISS:    2303696
cpu0_L2C RFO          ACCESS:     923192 HIT:        559 MISS:     922633
cpu0_L2C PREFETCH     ACCESS:          0 HIT:          0 MISS:          0
cpu0_L2C WRITE        ACCESS:    2056152 HIT:    2055781 MISS:        371
cpu0_L2C TRANSLATION  ACCESS:      18270 HIT:      14799 MISS:       3471
cpu0_L2C PREFETCH REQUESTED:          0 ISSUED:          0 USEFUL:          0 USELESS:          0
cpu0_L2C AVERAGE MISS LATENCY: 944.2 cycles
cpu0_STLB TOTAL        ACCESS:     563439 HIT:     515591 MISS:      47848
cpu0_STLB LOAD         ACCESS:     563439 HIT:     515591 MISS:      47848
cpu0_STLB RFO          ACCESS:          0 HIT:          0 MISS:          0
cpu0_STLB PREFETCH     ACCESS:          0 HIT:          0 MISS:          0
cpu0_STLB WRITE        ACCESS:          0 HIT:          0 MISS:          0
cpu0_STLB TRANSLATION  ACCESS:          0 HIT:          0 MISS:          0
cpu0_STLB PREFETCH REQUESTED:          0 ISSUED:          0 USEFUL:          0 USELESS:          0
cpu0_STLB AVERAGE MISS LATENCY: 380.1 cycles

DRAM Statistics

Channel 0 RQ ROW_BUFFER_HIT:     764385
  ROW_BUFFER_MISS:    1962933
 AVG DBUS CONGESTED CYCLE: 3.973
WQ ROW_BUFFER_HIT: Channel 0 
  ROW_BUFFER_MISS:     623803
  FULL:    1134457
