WARNING: physical memory size is smaller than virtual memory size.

*** ChampSim Multicore Out-of-Order Simulator ***
Warmup Instructions: 50000000
Simulation Instructions: 600000000
Number of CPUs: 1
Page size: 4096

Off-chip DRAM Size: 4 GiB Channels: 1 Width: 64-bit Data Race: 3200 MT/s
Heartbeat CPU 0 instructions: 10000000 cycles: 2881055 heartbeat IPC: 3.471 cumulative IPC: 3.471 (Simulation time: 00 hr 00 min 40 sec)
Heartbeat CPU 0 instructions: 20000000 cycles: 5381055 heartbeat IPC: 4 cumulative IPC: 3.717 (Simulation time: 00 hr 01 min 16 sec)
Heartbeat CPU 0 instructions: 30000000 cycles: 7881055 heartbeat IPC: 4 cumulative IPC: 3.807 (Simulation time: 00 hr 01 min 51 sec)
Heartbeat CPU 0 instructions: 40000000 cycles: 10381055 heartbeat IPC: 4 cumulative IPC: 3.853 (Simulation time: 00 hr 02 min 26 sec)
Heartbeat CPU 0 instructions: 50000000 cycles: 12881055 heartbeat IPC: 4 cumulative IPC: 3.882 (Simulation time: 00 hr 03 min 02 sec)
Warmup finished CPU 0 instructions: 50000000 cycles: 12881056 cumulative IPC: 3.882 (Simulation time: 00 hr 03 min 02 sec)
Warmup complete CPU 0 instructions: 50000000 cycles: 12881056 cumulative IPC: 3.882 (Simulation time: 00 hr 03 min 02 sec)
Heartbeat CPU 0 instructions: 60000000 cycles: 16362636 heartbeat IPC: 2.872 cumulative IPC: 2.872 (Simulation time: 00 hr 03 min 50 sec)
Heartbeat CPU 0 instructions: 70000004 cycles: 19858379 heartbeat IPC: 2.861 cumulative IPC: 2.866 (Simulation time: 00 hr 04 min 40 sec)
Heartbeat CPU 0 instructions: 80000001 cycles: 23335358 heartbeat IPC: 2.876 cumulative IPC: 2.87 (Simulation time: 00 hr 05 min 28 sec)
Heartbeat CPU 0 instructions: 90000003 cycles: 26859645 heartbeat IPC: 2.837 cumulative IPC: 2.862 (Simulation time: 00 hr 06 min 17 sec)
Heartbeat CPU 0 instructions: 100000000 cycles: 32227113 heartbeat IPC: 1.863 cumulative IPC: 2.585 (Simulation time: 00 hr 07 min 21 sec)
Heartbeat CPU 0 instructions: 110000001 cycles: 38892174 heartbeat IPC: 1.5 cumulative IPC: 2.307 (Simulation time: 00 hr 08 min 34 sec)
Heartbeat CPU 0 instructions: 120000003 cycles: 45557284 heartbeat IPC: 1.5 cumulative IPC: 2.142 (Simulation time: 00 hr 09 min 48 sec)
Heartbeat CPU 0 instructions: 130000002 cycles: 52249457 heartbeat IPC: 1.494 cumulative IPC: 2.032 (Simulation time: 00 hr 11 min 03 sec)
Heartbeat CPU 0 instructions: 140000004 cycles: 59001161 heartbeat IPC: 1.481 cumulative IPC: 1.951 (Simulation time: 00 hr 12 min 19 sec)
Heartbeat CPU 0 instructions: 150000000 cycles: 65813479 heartbeat IPC: 1.468 cumulative IPC: 1.889 (Simulation time: 00 hr 13 min 35 sec)
Heartbeat CPU 0 instructions: 160000001 cycles: 72540500 heartbeat IPC: 1.487 cumulative IPC: 1.844 (Simulation time: 00 hr 14 min 51 sec)
Heartbeat CPU 0 instructions: 170000001 cycles: 79273061 heartbeat IPC: 1.485 cumulative IPC: 1.807 (Simulation time: 00 hr 16 min 05 sec)
Heartbeat CPU 0 instructions: 180000002 cycles: 86013707 heartbeat IPC: 1.484 cumulative IPC: 1.778 (Simulation time: 00 hr 17 min 19 sec)
Heartbeat CPU 0 instructions: 190000002 cycles: 92166601 heartbeat IPC: 1.625 cumulative IPC: 1.766 (Simulation time: 00 hr 18 min 29 sec)
Heartbeat CPU 0 instructions: 200000000 cycles: 97120029 heartbeat IPC: 2.019 cumulative IPC: 1.781 (Simulation time: 00 hr 19 min 31 sec)
Heartbeat CPU 0 instructions: 210000001 cycles: 102353729 heartbeat IPC: 1.911 cumulative IPC: 1.788 (Simulation time: 00 hr 20 min 34 sec)
Heartbeat CPU 0 instructions: 220000001 cycles: 107961564 heartbeat IPC: 1.783 cumulative IPC: 1.788 (Simulation time: 00 hr 21 min 40 sec)
Heartbeat CPU 0 instructions: 230000004 cycles: 114104803 heartbeat IPC: 1.628 cumulative IPC: 1.778 (Simulation time: 00 hr 22 min 50 sec)
Heartbeat CPU 0 instructions: 240000003 cycles: 120896787 heartbeat IPC: 1.472 cumulative IPC: 1.759 (Simulation time: 00 hr 24 min 08 sec)
Heartbeat CPU 0 instructions: 250000002 cycles: 127833200 heartbeat IPC: 1.442 cumulative IPC: 1.74 (Simulation time: 00 hr 25 min 26 sec)
Heartbeat CPU 0 instructions: 260000002 cycles: 134744098 heartbeat IPC: 1.447 cumulative IPC: 1.723 (Simulation time: 00 hr 26 min 43 sec)
Heartbeat CPU 0 instructions: 270000003 cycles: 141591654 heartbeat IPC: 1.46 cumulative IPC: 1.709 (Simulation time: 00 hr 28 min 00 sec)
Heartbeat CPU 0 instructions: 280000000 cycles: 148524574 heartbeat IPC: 1.442 cumulative IPC: 1.696 (Simulation time: 00 hr 29 min 18 sec)
Heartbeat CPU 0 instructions: 290000001 cycles: 212200826 heartbeat IPC: 0.157 cumulative IPC: 1.204 (Simulation time: 00 hr 36 min 57 sec)
Heartbeat CPU 0 instructions: 300000002 cycles: 214703215 heartbeat IPC: 3.996 cumulative IPC: 1.239 (Simulation time: 00 hr 37 min 37 sec)
Heartbeat CPU 0 instructions: 310000001 cycles: 217205590 heartbeat IPC: 3.996 cumulative IPC: 1.272 (Simulation time: 00 hr 38 min 16 sec)
Heartbeat CPU 0 instructions: 320000001 cycles: 219708019 heartbeat IPC: 3.996 cumulative IPC: 1.305 (Simulation time: 00 hr 38 min 56 sec)
Heartbeat CPU 0 instructions: 330000003 cycles: 222210356 heartbeat IPC: 3.996 cumulative IPC: 1.338 (Simulation time: 00 hr 39 min 36 sec)
Heartbeat CPU 0 instructions: 340000000 cycles: 224712742 heartbeat IPC: 3.996 cumulative IPC: 1.369 (Simulation time: 00 hr 40 min 17 sec)
Heartbeat CPU 0 instructions: 350000004 cycles: 227215130 heartbeat IPC: 3.996 cumulative IPC: 1.4 (Simulation time: 00 hr 40 min 57 sec)
Heartbeat CPU 0 instructions: 360000004 cycles: 229717820 heartbeat IPC: 3.996 cumulative IPC: 1.43 (Simulation time: 00 hr 41 min 38 sec)
Heartbeat CPU 0 instructions: 370000000 cycles: 232220208 heartbeat IPC: 3.996 cumulative IPC: 1.459 (Simulation time: 00 hr 42 min 18 sec)
Heartbeat CPU 0 instructions: 380000004 cycles: 234722583 heartbeat IPC: 3.996 cumulative IPC: 1.488 (Simulation time: 00 hr 42 min 59 sec)
Heartbeat CPU 0 instructions: 390000001 cycles: 237224971 heartbeat IPC: 3.996 cumulative IPC: 1.516 (Simulation time: 00 hr 43 min 39 sec)
Heartbeat CPU 0 instructions: 400000003 cycles: 239727349 heartbeat IPC: 3.996 cumulative IPC: 1.543 (Simulation time: 00 hr 44 min 21 sec)
Heartbeat CPU 0 instructions: 410000003 cycles: 242229778 heartbeat IPC: 3.996 cumulative IPC: 1.57 (Simulation time: 00 hr 45 min 02 sec)
Heartbeat CPU 0 instructions: 420000002 cycles: 244732168 heartbeat IPC: 3.996 cumulative IPC: 1.596 (Simulation time: 00 hr 45 min 44 sec)
Heartbeat CPU 0 instructions: 430000000 cycles: 247234556 heartbeat IPC: 3.996 cumulative IPC: 1.621 (Simulation time: 00 hr 46 min 25 sec)
Heartbeat CPU 0 instructions: 440000001 cycles: 249736945 heartbeat IPC: 3.996 cumulative IPC: 1.647 (Simulation time: 00 hr 47 min 06 sec)
Heartbeat CPU 0 instructions: 450000000 cycles: 252239320 heartbeat IPC: 3.996 cumulative IPC: 1.671 (Simulation time: 00 hr 47 min 47 sec)
Heartbeat CPU 0 instructions: 460000003 cycles: 254741656 heartbeat IPC: 3.996 cumulative IPC: 1.695 (Simulation time: 00 hr 48 min 29 sec)
Heartbeat CPU 0 instructions: 470000001 cycles: 257244046 heartbeat IPC: 3.996 cumulative IPC: 1.719 (Simulation time: 00 hr 49 min 10 sec)
Heartbeat CPU 0 instructions: 480000003 cycles: 259746433 heartbeat IPC: 3.996 cumulative IPC: 1.742 (Simulation time: 00 hr 49 min 52 sec)
Heartbeat CPU 0 instructions: 490000003 cycles: 262248821 heartbeat IPC: 3.996 cumulative IPC: 1.764 (Simulation time: 00 hr 50 min 31 sec)
Heartbeat CPU 0 instructions: 500000002 cycles: 264751209 heartbeat IPC: 3.996 cumulative IPC: 1.787 (Simulation time: 00 hr 51 min 10 sec)
Heartbeat CPU 0 instructions: 510000003 cycles: 270047715 heartbeat IPC: 1.888 cumulative IPC: 1.789 (Simulation time: 00 hr 52 min 11 sec)
Heartbeat CPU 0 instructions: 520000001 cycles: 380472125 heartbeat IPC: 0.09056 cumulative IPC: 1.279 (Simulation time: 01 hr 06 min 50 sec)
Heartbeat CPU 0 instructions: 530000000 cycles: 465019508 heartbeat IPC: 0.1183 cumulative IPC: 1.062 (Simulation time: 01 hr 18 min 00 sec)
Heartbeat CPU 0 instructions: 540000000 cycles: 488546855 heartbeat IPC: 0.425 cumulative IPC: 1.03 (Simulation time: 01 hr 21 min 27 sec)
Heartbeat CPU 0 instructions: 550000002 cycles: 512020256 heartbeat IPC: 0.426 cumulative IPC: 1.002 (Simulation time: 01 hr 24 min 56 sec)
Heartbeat CPU 0 instructions: 560000002 cycles: 535678888 heartbeat IPC: 0.4227 cumulative IPC: 0.9755 (Simulation time: 01 hr 28 min 24 sec)
Heartbeat CPU 0 instructions: 570000002 cycles: 559103750 heartbeat IPC: 0.4269 cumulative IPC: 0.952 (Simulation time: 01 hr 31 min 54 sec)
Heartbeat CPU 0 instructions: 580000001 cycles: 581620068 heartbeat IPC: 0.4441 cumulative IPC: 0.9319 (Simulation time: 01 hr 35 min 15 sec)
Heartbeat CPU 0 instructions: 590000004 cycles: 604629372 heartbeat IPC: 0.4346 cumulative IPC: 0.9126 (Simulation time: 01 hr 38 min 44 sec)
*** Reached end of trace: (0, "traces/sp.A.champsimtrace")
Heartbeat CPU 0 instructions: 600000002 cycles: 627540555 heartbeat IPC: 0.4365 cumulative IPC: 0.8948 (Simulation time: 01 hr 42 min 07 sec)
Heartbeat CPU 0 instructions: 610000000 cycles: 653773192 heartbeat IPC: 0.3812 cumulative IPC: 0.8738 (Simulation time: 01 hr 45 min 06 sec)
Heartbeat CPU 0 instructions: 620000000 cycles: 657255497 heartbeat IPC: 2.872 cumulative IPC: 0.8846 (Simulation time: 01 hr 45 min 55 sec)
Heartbeat CPU 0 instructions: 630000003 cycles: 660745009 heartbeat IPC: 2.866 cumulative IPC: 0.8952 (Simulation time: 01 hr 46 min 50 sec)
Heartbeat CPU 0 instructions: 640000004 cycles: 664224107 heartbeat IPC: 2.874 cumulative IPC: 0.9058 (Simulation time: 01 hr 47 min 41 sec)
Heartbeat CPU 0 instructions: 650000000 cycles: 667723694 heartbeat IPC: 2.857 cumulative IPC: 0.9163 (Simulation time: 01 hr 48 min 32 sec)
Simulation finished CPU 0 instructions: 600000000 cycles: 654842639 cumulative IPC: 0.9163 (Simulation time: 01 hr 48 min 32 sec)
Simulation complete CPU 0 instructions: 600000000 cycles: 654842639 cumulative IPC: 0.9163 (Simulation time: 01 hr 48 min 32 sec)

ChampSim completed all CPUs

=== Simulation ===
CPU 0 runs traces/sp.A.champsimtrace
Region of Interest Statistics

CPU 0 cumulative IPC: 0.9163 instructions: 600000000 cycles: 654842639
CPU 0 Branch Prediction Accuracy: 98.91% MPKI: 0.226 Average ROB Occupancy at Mispredict: 232.8
Branch type MPKI
BRANCH_DIRECT_JUMP: 5e-06
BRANCH_INDIRECT: 7.5e-05
BRANCH_CONDITIONAL: 0.226
BRANCH_DIRECT_CALL: 2e-05
BRANCH_INDIRECT_CALL: 3.17e-05
BRANCH_RETURN: 3.67e-05

LLC TOTAL        ACCESS:    8123519 HIT:    5126068 MISS:    2997451
LLC LOAD         ACCESS:    2304277 HIT:    1490598 MISS:     813679
LLC RFO          ACCESS:     922633 HIT:      10383 MISS:     912250
LLC PREFETCH     ACCESS:    2847550 HIT:    1577871 MISS:    1269679
LLC WRITE        ACCESS:    2045584 HIT:    2045446 MISS:        138
LLC TRANSLATION  ACCESS:       3475 HIT:       1770 MISS:       1705
LLC PREFETCH REQUESTED:    2847550 ISSUED:    2847550 USEFUL:    1018967 USELESS:      18370
LLC AVERAGE MISS LATENCY: 1460 cycles
cpu0_DTLB TOTAL        ACCESS:  125748424 HIT:  124925891 MISS:     822533
cpu0_DTLB LOAD         ACCESS:  125748424 HIT:  124925891 MISS:     822533
cpu0_DTLB RFO          ACCESS:          0 HIT:          0 MISS:          0
cpu0_DTLB PREFETCH     ACCESS:          0 HIT:          0 MISS:          0
cpu0_DTLB WRITE        ACCESS:          0 HIT:          0 MISS:          0
cpu0_DTLB TRANSLATION  ACCESS:          0 HIT:          0 MISS:          0
cpu0_DTLB PREFETCH REQUESTED:          0 ISSUED:          0 USEFUL:          0 USELESS:          0
cpu0_DTLB AVERAGE MISS LATENCY: 17.29 cycles
cpu0_ITLB TOTAL        ACCESS:     217789 HIT:     217554 MISS:        235
cpu0_ITLB LOAD         ACCESS:     217789 HIT:     217554 MISS:        235
cpu0_ITLB RFO          ACCESS:          0 HIT:          0 MISS:          0
cpu0_ITLB PREFETCH     ACCESS:          0 HIT:          0 MISS:          0
cpu0_ITLB WRITE        ACCESS:          0 HIT:          0 MISS:          0
cpu0_ITLB TRANSLATION  ACCESS:          0 HIT:          0 MISS:          0
cpu0_ITLB PREFETCH REQUESTED:          0 ISSUED:          0 USEFUL:          0 USELESS:          0
cpu0_ITLB AVERAGE MISS LATENCY: 361.1 cycles
cpu0_L1D TOTAL        ACCESS:  191956407 HIT:  178651993 MISS:   13304414
cpu0_L1D LOAD         ACCESS:  156714189 HIT:  147869261 MISS:    8844928
cpu0_L1D RFO          ACCESS:          0 HIT:          0 MISS:          0
cpu0_L1D PREFETCH     ACCESS:          0 HIT:          0 MISS:          0
cpu0_L1D WRITE        ACCESS:   35194338 HIT:   30753154 MISS:    4441184
cpu0_L1D TRANSLATION  ACCESS:      47880 HIT:      29578 MISS:      18302
cpu0_L1D PREFETCH REQUESTED:          0 ISSUED:          0 USEFUL:          0 USELESS:          0
cpu0_L1D AVERAGE MISS LATENCY: 156 cycles
cpu0_L1I TOTAL        ACCESS:     225309 HIT:     222509 MISS:       2800
cpu0_L1I LOAD         ACCESS:     225309 HIT:     222509 MISS:       2800
cpu0_L1I RFO          ACCESS:          0 HIT:          0 MISS:          0
cpu0_L1I PREFETCH     ACCESS:          0 HIT:          0 MISS:          0
cpu0_L1I WRITE        ACCESS:          0 HIT:          0 MISS:          0
cpu0_L1I TRANSLATION  ACCESS:          0 HIT:          0 MISS:          0
cpu0_L1I PREFETCH REQUESTED:          0 ISSUED:          0 USEFUL:          0 USELESS:          0
cpu0_L1I AVERAGE MISS LATENCY: 510.9 cycles
cpu0_L2C TOTAL        ACCESS:    5423904 HIT:    2193064 MISS:    3230840
cpu0_L2C LOAD         ACCESS:    2426329 HIT:     121970 MISS:    2304359
cpu0_L2C RFO          ACCESS:     923191 HIT:        558 MISS:     922633
cpu0_L2C PREFETCH     ACCESS:          0 HIT:          0 MISS:          0
cpu0_L2C WRITE        ACCESS:    2056084 HIT:    2055711 MISS:        373
cpu0_L2C TRANSLATION  ACCESS:      18300 HIT:      14825 MISS:       3475
cpu0_L2C PREFETCH REQUESTED:          0 ISSUED:          0 USEFUL:          0 USELESS:          0
cpu0_L2C AVERAGE MISS LATENCY: 833.5 cycles
cpu0_STLB TOTAL        ACCESS:     570307 HIT:     522457 MISS:      47850
cpu0_STLB LOAD         ACCESS:     570307 HIT:     522457 MISS:      47850
cpu0_STLB RFO          ACCESS:          0 HIT:          0 MISS:          0
cpu0_STLB PREFETCH     ACCESS:          0 HIT:          0 MISS:          0
cpu0_STLB WRITE        ACCESS:          0 HIT:          0 MISS:          0
cpu0_STLB TRANSLATION  ACCESS:          0 HIT:          0 MISS:          0
cpu0_STLB PREFETCH REQUESTED:          0 ISSUED:          0 USEFUL:          0 USELESS:          0
cpu0_STLB AVERAGE MISS LATENCY: 288.1 cycles

DRAM Statistics

Channel 0 RQ ROW_BUFFER_HIT:     899342
  ROW_BUFFER_MISS:    1821655
 AVG DBUS CONGESTED CYCLE: 3.968
WQ ROW_BUFFER_HIT: Channel 0 
  ROW_BUFFER_MISS:     361292
  FULL:    1386282
