WARNING: physical memory size is smaller than virtual memory size.

*** ChampSim Multicore Out-of-Order Simulator ***
Warmup Instructions: 50000000
Simulation Instructions: 600000000
Number of CPUs: 1
Page size: 4096

Off-chip DRAM Size: 4 GiB Channels: 1 Width: 64-bit Data Race: 3200 MT/s
Heartbeat CPU 0 instructions: 10000003 cycles: 2881056 heartbeat IPC: 3.471 cumulative IPC: 3.471 (Simulation time: 00 hr 00 min 48 sec)
Heartbeat CPU 0 instructions: 20000003 cycles: 5381056 heartbeat IPC: 4 cumulative IPC: 3.717 (Simulation time: 00 hr 01 min 34 sec)
Heartbeat CPU 0 instructions: 30000003 cycles: 7881056 heartbeat IPC: 4 cumulative IPC: 3.807 (Simulation time: 00 hr 02 min 19 sec)
Heartbeat CPU 0 instructions: 40000003 cycles: 10381056 heartbeat IPC: 4 cumulative IPC: 3.853 (Simulation time: 00 hr 03 min 03 sec)
Heartbeat CPU 0 instructions: 50000003 cycles: 12881056 heartbeat IPC: 4 cumulative IPC: 3.882 (Simulation time: 00 hr 03 min 49 sec)
Warmup finished CPU 0 instructions: 50000003 cycles: 12881057 cumulative IPC: 3.882 (Simulation time: 00 hr 03 min 49 sec)
Warmup complete CPU 0 instructions: 50000003 cycles: 12881057 cumulative IPC: 3.882 (Simulation time: 00 hr 03 min 49 sec)
Heartbeat CPU 0 instructions: 60000000 cycles: 18988094 heartbeat IPC: 1.637 cumulative IPC: 1.637 (Simulation time: 00 hr 05 min 24 sec)
Heartbeat CPU 0 instructions: 70000002 cycles: 25119049 heartbeat IPC: 1.631 cumulative IPC: 1.634 (Simulation time: 00 hr 06 min 55 sec)
Heartbeat CPU 0 instructions: 80000001 cycles: 31232227 heartbeat IPC: 1.636 cumulative IPC: 1.635 (Simulation time: 00 hr 08 min 29 sec)
Heartbeat CPU 0 instructions: 90000004 cycles: 37376985 heartbeat IPC: 1.627 cumulative IPC: 1.633 (Simulation time: 00 hr 10 min 02 sec)
Heartbeat CPU 0 instructions: 100000000 cycles: 41572208 heartbeat IPC: 2.384 cumulative IPC: 1.743 (Simulation time: 00 hr 11 min 12 sec)
Heartbeat CPU 0 instructions: 110000004 cycles: 44566458 heartbeat IPC: 3.34 cumulative IPC: 1.894 (Simulation time: 00 hr 12 min 10 sec)
Heartbeat CPU 0 instructions: 120000000 cycles: 51087684 heartbeat IPC: 1.533 cumulative IPC: 1.832 (Simulation time: 00 hr 13 min 47 sec)
Heartbeat CPU 0 instructions: 130000000 cycles: 58127183 heartbeat IPC: 1.421 cumulative IPC: 1.768 (Simulation time: 00 hr 15 min 30 sec)
Heartbeat CPU 0 instructions: 140000004 cycles: 65134128 heartbeat IPC: 1.427 cumulative IPC: 1.722 (Simulation time: 00 hr 17 min 11 sec)
Heartbeat CPU 0 instructions: 150000001 cycles: 72202517 heartbeat IPC: 1.415 cumulative IPC: 1.686 (Simulation time: 00 hr 18 min 54 sec)
Heartbeat CPU 0 instructions: 160000004 cycles: 79126283 heartbeat IPC: 1.444 cumulative IPC: 1.66 (Simulation time: 00 hr 20 min 36 sec)
Heartbeat CPU 0 instructions: 170000000 cycles: 86202209 heartbeat IPC: 1.413 cumulative IPC: 1.637 (Simulation time: 00 hr 22 min 21 sec)
Heartbeat CPU 0 instructions: 180000000 cycles: 93208697 heartbeat IPC: 1.427 cumulative IPC: 1.618 (Simulation time: 00 hr 24 min 04 sec)
Heartbeat CPU 0 instructions: 190000000 cycles: 99853746 heartbeat IPC: 1.505 cumulative IPC: 1.61 (Simulation time: 00 hr 25 min 40 sec)
Heartbeat CPU 0 instructions: 200000004 cycles: 106070912 heartbeat IPC: 1.608 cumulative IPC: 1.61 (Simulation time: 00 hr 27 min 14 sec)
Heartbeat CPU 0 instructions: 210000000 cycles: 112357447 heartbeat IPC: 1.591 cumulative IPC: 1.608 (Simulation time: 00 hr 28 min 48 sec)
Heartbeat CPU 0 instructions: 220000004 cycles: 118520978 heartbeat IPC: 1.622 cumulative IPC: 1.609 (Simulation time: 00 hr 30 min 22 sec)
Heartbeat CPU 0 instructions: 230000000 cycles: 124737203 heartbeat IPC: 1.609 cumulative IPC: 1.609 (Simulation time: 00 hr 31 min 57 sec)
Heartbeat CPU 0 instructions: 240000003 cycles: 130960075 heartbeat IPC: 1.607 cumulative IPC: 1.609 (Simulation time: 00 hr 33 min 29 sec)
Heartbeat CPU 0 instructions: 250000002 cycles: 137244428 heartbeat IPC: 1.591 cumulative IPC: 1.608 (Simulation time: 00 hr 35 min 03 sec)
Heartbeat CPU 0 instructions: 260000002 cycles: 143582360 heartbeat IPC: 1.578 cumulative IPC: 1.607 (Simulation time: 00 hr 36 min 49 sec)
Heartbeat CPU 0 instructions: 270000003 cycles: 149861245 heartbeat IPC: 1.593 cumulative IPC: 1.606 (Simulation time: 00 hr 38 min 24 sec)
Heartbeat CPU 0 instructions: 280000003 cycles: 156190868 heartbeat IPC: 1.58 cumulative IPC: 1.605 (Simulation time: 00 hr 40 min 00 sec)
Heartbeat CPU 0 instructions: 290000000 cycles: 206329252 heartbeat IPC: 0.1994 cumulative IPC: 1.241 (Simulation time: 00 hr 48 min 20 sec)
Heartbeat CPU 0 instructions: 300000001 cycles: 208832362 heartbeat IPC: 3.995 cumulative IPC: 1.276 (Simulation time: 00 hr 49 min 13 sec)
Heartbeat CPU 0 instructions: 310000000 cycles: 211335215 heartbeat IPC: 3.995 cumulative IPC: 1.31 (Simulation time: 00 hr 50 min 03 sec)
Heartbeat CPU 0 instructions: 320000002 cycles: 213838062 heartbeat IPC: 3.995 cumulative IPC: 1.344 (Simulation time: 00 hr 50 min 54 sec)
Heartbeat CPU 0 instructions: 330000004 cycles: 216341613 heartbeat IPC: 3.994 cumulative IPC: 1.376 (Simulation time: 00 hr 51 min 44 sec)
Heartbeat CPU 0 instructions: 340000004 cycles: 218845551 heartbeat IPC: 3.994 cumulative IPC: 1.408 (Simulation time: 00 hr 52 min 36 sec)
Heartbeat CPU 0 instructions: 350000003 cycles: 221348816 heartbeat IPC: 3.995 cumulative IPC: 1.439 (Simulation time: 00 hr 53 min 26 sec)
Heartbeat CPU 0 instructions: 360000002 cycles: 223851903 heartbeat IPC: 3.995 cumulative IPC: 1.469 (Simulation time: 00 hr 54 min 16 sec)
Heartbeat CPU 0 instructions: 370000004 cycles: 226355755 heartbeat IPC: 3.994 cumulative IPC: 1.499 (Simulation time: 00 hr 55 min 08 sec)
Heartbeat CPU 0 instructions: 380000003 cycles: 228859435 heartbeat IPC: 3.994 cumulative IPC: 1.528 (Simulation time: 00 hr 55 min 58 sec)
Heartbeat CPU 0 instructions: 390000000 cycles: 231361841 heartbeat IPC: 3.996 cumulative IPC: 1.556 (Simulation time: 00 hr 56 min 49 sec)
Heartbeat CPU 0 instructions: 400000002 cycles: 233864490 heartbeat IPC: 3.996 cumulative IPC: 1.584 (Simulation time: 00 hr 57 min 39 sec)
Heartbeat CPU 0 instructions: 410000002 cycles: 236367888 heartbeat IPC: 3.995 cumulative IPC: 1.611 (Simulation time: 00 hr 58 min 30 sec)
Heartbeat CPU 0 instructions: 420000000 cycles: 238872749 heartbeat IPC: 3.992 cumulative IPC: 1.637 (Simulation time: 00 hr 59 min 21 sec)
Heartbeat CPU 0 instructions: 430000001 cycles: 241375440 heartbeat IPC: 3.996 cumulative IPC: 1.663 (Simulation time: 01 hr 00 min 10 sec)
Heartbeat CPU 0 instructions: 440000000 cycles: 243877830 heartbeat IPC: 3.996 cumulative IPC: 1.688 (Simulation time: 01 hr 01 min 03 sec)
Heartbeat CPU 0 instructions: 450000001 cycles: 246380166 heartbeat IPC: 3.996 cumulative IPC: 1.713 (Simulation time: 01 hr 01 min 53 sec)
Heartbeat CPU 0 instructions: 460000002 cycles: 248883085 heartbeat IPC: 3.995 cumulative IPC: 1.737 (Simulation time: 01 hr 02 min 42 sec)
Heartbeat CPU 0 instructions: 470000001 cycles: 251386297 heartbeat IPC: 3.995 cumulative IPC: 1.761 (Simulation time: 01 hr 03 min 34 sec)
Heartbeat CPU 0 instructions: 480000000 cycles: 253888685 heartbeat IPC: 3.996 cumulative IPC: 1.784 (Simulation time: 01 hr 04 min 25 sec)
Heartbeat CPU 0 instructions: 490000001 cycles: 256391075 heartbeat IPC: 3.996 cumulative IPC: 1.807 (Simulation time: 01 hr 05 min 15 sec)
Heartbeat CPU 0 instructions: 500000004 cycles: 258893889 heartbeat IPC: 3.996 cumulative IPC: 1.829 (Simulation time: 01 hr 06 min 07 sec)
Heartbeat CPU 0 instructions: 510000000 cycles: 266644649 heartbeat IPC: 1.29 cumulative IPC: 1.813 (Simulation time: 01 hr 07 min 53 sec)
Heartbeat CPU 0 instructions: 520000002 cycles: 360064299 heartbeat IPC: 0.107 cumulative IPC: 1.354 (Simulation time: 01 hr 24 min 48 sec)
Heartbeat CPU 0 instructions: 530000001 cycles: 438254651 heartbeat IPC: 0.1279 cumulative IPC: 1.128 (Simulation time: 01 hr 39 min 20 sec)
Heartbeat CPU 0 instructions: 540000000 cycles: 477434462 heartbeat IPC: 0.2552 cumulative IPC: 1.055 (Simulation time: 01 hr 47 min 05 sec)
Heartbeat CPU 0 instructions: 550000001 cycles: 516475914 heartbeat IPC: 0.2561 cumulative IPC: 0.9929 (Simulation time: 01 hr 54 min 44 sec)
Heartbeat CPU 0 instructions: 560000003 cycles: 555019377 heartbeat IPC: 0.2594 cumulative IPC: 0.9407 (Simulation time: 02 hr 02 min 16 sec)
Heartbeat CPU 0 instructions: 570000003 cycles: 594120512 heartbeat IPC: 0.2557 cumulative IPC: 0.8946 (Simulation time: 02 hr 09 min 54 sec)
Heartbeat CPU 0 instructions: 580000000 cycles: 632856419 heartbeat IPC: 0.2582 cumulative IPC: 0.8549 (Simulation time: 02 hr 17 min 33 sec)
Heartbeat CPU 0 instructions: 590000000 cycles: 672153045 heartbeat IPC: 0.2545 cumulative IPC: 0.8191 (Simulation time: 02 hr 25 min 17 sec)
*** Reached end of trace: (0, "traces/sp.A.champsimtrace")
Heartbeat CPU 0 instructions: 600000002 cycles: 710579183 heartbeat IPC: 0.2602 cumulative IPC: 0.7883 (Simulation time: 02 hr 32 min 50 sec)
Heartbeat CPU 0 instructions: 610000004 cycles: 734893986 heartbeat IPC: 0.4113 cumulative IPC: 0.7756 (Simulation time: 02 hr 36 min 40 sec)
Heartbeat CPU 0 instructions: 620000002 cycles: 738621747 heartbeat IPC: 2.683 cumulative IPC: 0.7854 (Simulation time: 02 hr 37 min 46 sec)
Heartbeat CPU 0 instructions: 630000001 cycles: 744698734 heartbeat IPC: 1.646 cumulative IPC: 0.7925 (Simulation time: 02 hr 39 min 20 sec)
Heartbeat CPU 0 instructions: 640000000 cycles: 750815953 heartbeat IPC: 1.635 cumulative IPC: 0.7995 (Simulation time: 02 hr 40 min 52 sec)
Heartbeat CPU 0 instructions: 650000003 cycles: 756938828 heartbeat IPC: 1.633 cumulative IPC: 0.8064 (Simulation time: 02 hr 42 min 25 sec)
Simulation finished CPU 0 instructions: 600000000 cycles: 744057772 cumulative IPC: 0.8064 (Simulation time: 02 hr 42 min 25 sec)
Simulation complete CPU 0 instructions: 600000000 cycles: 744057772 cumulative IPC: 0.8064 (Simulation time: 02 hr 42 min 25 sec)

ChampSim completed all CPUs

=== Simulation ===
CPU 0 runs traces/sp.A.champsimtrace
Region of Interest Statistics

CPU 0 cumulative IPC: 0.8064 instructions: 600000000 cycles: 744057772
CPU 0 Branch Prediction Accuracy: 98.83% MPKI: 0.2409 Average ROB Occupancy at Mispredict: 221.8
Branch type MPKI
BRANCH_DIRECT_JUMP: 5e-06
BRANCH_INDIRECT: 7.67e-05
BRANCH_CONDITIONAL: 0.241
BRANCH_DIRECT_CALL: 2e-05
BRANCH_INDIRECT_CALL: 3.33e-05
BRANCH_RETURN: 3.67e-05

LLC TOTAL        ACCESS:    5279000 HIT:     448336 MISS:    4830664
LLC LOAD         ACCESS:    2306571 HIT:     282559 MISS:    2024012
LLC RFO          ACCESS:     922694 HIT:      28984 MISS:     893710
LLC PREFETCH     ACCESS:          0 HIT:          0 MISS:          0
LLC WRITE        ACCESS:    2046184 HIT:     136644 MISS:    1909540
LLC TRANSLATION  ACCESS:       3551 HIT:        149 MISS:       3402
LLC PREFETCH REQUESTED:          0 ISSUED:          0 USEFUL:          0 USELESS:          0
LLC AVERAGE MISS LATENCY: 736.1 cycles
cpu0_DTLB TOTAL        ACCESS:  125986520 HIT:  125135632 MISS:     850888
cpu0_DTLB LOAD         ACCESS:  125986520 HIT:  125135632 MISS:     850888
cpu0_DTLB RFO          ACCESS:          0 HIT:          0 MISS:          0
cpu0_DTLB PREFETCH     ACCESS:          0 HIT:          0 MISS:          0
cpu0_DTLB WRITE        ACCESS:          0 HIT:          0 MISS:          0
cpu0_DTLB TRANSLATION  ACCESS:          0 HIT:          0 MISS:          0
cpu0_DTLB PREFETCH REQUESTED:          0 ISSUED:          0 USEFUL:          0 USELESS:          0
cpu0_DTLB AVERAGE MISS LATENCY: 20.86 cycles
cpu0_ITLB TOTAL        ACCESS:     224268 HIT:     224057 MISS:        211
cpu0_ITLB LOAD         ACCESS:     224268 HIT:     224057 MISS:        211
cpu0_ITLB RFO          ACCESS:          0 HIT:          0 MISS:          0
cpu0_ITLB PREFETCH     ACCESS:          0 HIT:          0 MISS:          0
cpu0_ITLB WRITE        ACCESS:          0 HIT:          0 MISS:          0
cpu0_ITLB TRANSLATION  ACCESS:          0 HIT:          0 MISS:          0
cpu0_ITLB PREFETCH REQUESTED:          0 ISSUED:          0 USEFUL:          0 USELESS:          0
cpu0_ITLB AVERAGE MISS LATENCY: 151.5 cycles
cpu0_L1D TOTAL        ACCESS:  190545169 HIT:  175891293 MISS:   14653876
cpu0_L1D LOAD         ACCESS:  155302982 HIT:  144766149 MISS:   10536833
cpu0_L1D RFO          ACCESS:          0 HIT:          0 MISS:          0
cpu0_L1D PREFETCH     ACCESS:          0 HIT:          0 MISS:          0
cpu0_L1D WRITE        ACCESS:   35194313 HIT:   31092446 MISS:    4101867
cpu0_L1D TRANSLATION  ACCESS:      47874 HIT:      32698 MISS:      15176
cpu0_L1D PREFETCH REQUESTED:          0 ISSUED:          0 USEFUL:          0 USELESS:          0
cpu0_L1D AVERAGE MISS LATENCY: 176.8 cycles
cpu0_L1I TOTAL        ACCESS:     232535 HIT:     229798 MISS:       2737
cpu0_L1I LOAD         ACCESS:     232535 HIT:     229798 MISS:       2737
cpu0_L1I RFO          ACCESS:          0 HIT:          0 MISS:          0
cpu0_L1I PREFETCH     ACCESS:          0 HIT:          0 MISS:          0
cpu0_L1I WRITE        ACCESS:          0 HIT:          0 MISS:          0
cpu0_L1I TRANSLATION  ACCESS:          0 HIT:          0 MISS:          0
cpu0_L1I PREFETCH REQUESTED:          0 ISSUED:          0 USEFUL:          0 USELESS:          0
cpu0_L1I AVERAGE MISS LATENCY: 439.3 cycles
cpu0_L2C TOTAL        ACCESS:    5340719 HIT:    2107564 MISS:    3233155
cpu0_L2C LOAD         ACCESS:    2345188 HIT:      38615 MISS:    2306573
cpu0_L2C RFO          ACCESS:     923699 HIT:       1005 MISS:     922694
cpu0_L2C PREFETCH     ACCESS:          0 HIT:          0 MISS:          0
cpu0_L2C WRITE        ACCESS:    2056660 HIT:    2056323 MISS:        337
cpu0_L2C TRANSLATION  ACCESS:      15172 HIT:      11621 MISS:       3551
cpu0_L2C PREFETCH REQUESTED:          0 ISSUED:          0 USEFUL:          0 USELESS:          0
cpu0_L2C AVERAGE MISS LATENCY: 1121 cycles
cpu0_STLB TOTAL        ACCESS:     592881 HIT:     545034 MISS:      47847
cpu0_STLB LOAD         ACCESS:     592881 HIT:     545034 MISS:      47847
cpu0_STLB RFO          ACCESS:          0 HIT:          0 MISS:          0
cpu0_STLB PREFETCH     ACCESS:          0 HIT:          0 MISS:          0
cpu0_STLB WRITE        ACCESS:          0 HIT:          0 MISS:          0
cpu0_STLB TRANSLATION  ACCESS:          0 HIT:          0 MISS:          0
cpu0_STLB PREFETCH REQUESTED:          0 ISSUED:          0 USEFUL:          0 USELESS:          0
cpu0_STLB AVERAGE MISS LATENCY: 382.6 cycles

DRAM Statistics

Channel 0 RQ ROW_BUFFER_HIT:     725658
  ROW_BUFFER_MISS:    2161902
 AVG DBUS CONGESTED CYCLE: 3.97
WQ ROW_BUFFER_HIT: Channel 0 
  ROW_BUFFER_MISS:     664246
  FULL:    1252543
