WARNING: physical memory size is smaller than virtual memory size.

*** ChampSim Multicore Out-of-Order Simulator ***
Warmup Instructions: 50000000
Simulation Instructions: 600000000
Number of CPUs: 1
Page size: 4096

Off-chip DRAM Size: 4 GiB Channels: 1 Width: 64-bit Data Race: 3200 MT/s
Heartbeat CPU 0 instructions: 10000003 cycles: 2881057 heartbeat IPC: 3.471 cumulative IPC: 3.471 (Simulation time: 00 hr 00 min 47 sec)
Heartbeat CPU 0 instructions: 20000003 cycles: 5381057 heartbeat IPC: 4 cumulative IPC: 3.717 (Simulation time: 00 hr 01 min 29 sec)
Heartbeat CPU 0 instructions: 30000003 cycles: 7881057 heartbeat IPC: 4 cumulative IPC: 3.807 (Simulation time: 00 hr 02 min 13 sec)
Heartbeat CPU 0 instructions: 40000003 cycles: 10381057 heartbeat IPC: 4 cumulative IPC: 3.853 (Simulation time: 00 hr 02 min 57 sec)
Heartbeat CPU 0 instructions: 50000003 cycles: 12881057 heartbeat IPC: 4 cumulative IPC: 3.882 (Simulation time: 00 hr 03 min 40 sec)
Warmup finished CPU 0 instructions: 50000003 cycles: 12881058 cumulative IPC: 3.882 (Simulation time: 00 hr 03 min 40 sec)
Warmup complete CPU 0 instructions: 50000003 cycles: 12881058 cumulative IPC: 3.882 (Simulation time: 00 hr 03 min 40 sec)
Heartbeat CPU 0 instructions: 60000000 cycles: 16471227 heartbeat IPC: 2.785 cumulative IPC: 2.785 (Simulation time: 00 hr 04 min 42 sec)
Heartbeat CPU 0 instructions: 70000003 cycles: 20128147 heartbeat IPC: 2.735 cumulative IPC: 2.76 (Simulation time: 00 hr 05 min 44 sec)
Heartbeat CPU 0 instructions: 80000001 cycles: 23784450 heartbeat IPC: 2.735 cumulative IPC: 2.751 (Simulation time: 00 hr 06 min 45 sec)
Heartbeat CPU 0 instructions: 90000004 cycles: 27371812 heartbeat IPC: 2.788 cumulative IPC: 2.76 (Simulation time: 00 hr 07 min 48 sec)
Heartbeat CPU 0 instructions: 100000000 cycles: 30441961 heartbeat IPC: 3.257 cumulative IPC: 2.847 (Simulation time: 00 hr 08 min 42 sec)
Heartbeat CPU 0 instructions: 110000004 cycles: 33893037 heartbeat IPC: 2.898 cumulative IPC: 2.856 (Simulation time: 00 hr 09 min 41 sec)
Heartbeat CPU 0 instructions: 120000000 cycles: 40314732 heartbeat IPC: 1.557 cumulative IPC: 2.552 (Simulation time: 00 hr 11 min 12 sec)
Heartbeat CPU 0 instructions: 130000000 cycles: 47171986 heartbeat IPC: 1.458 cumulative IPC: 2.333 (Simulation time: 00 hr 12 min 48 sec)
Heartbeat CPU 0 instructions: 140000004 cycles: 54067743 heartbeat IPC: 1.45 cumulative IPC: 2.185 (Simulation time: 00 hr 14 min 25 sec)
Heartbeat CPU 0 instructions: 150000001 cycles: 61109622 heartbeat IPC: 1.42 cumulative IPC: 2.073 (Simulation time: 00 hr 16 min 03 sec)
Heartbeat CPU 0 instructions: 160000004 cycles: 68065248 heartbeat IPC: 1.438 cumulative IPC: 1.993 (Simulation time: 00 hr 17 min 41 sec)
Heartbeat CPU 0 instructions: 170000000 cycles: 75136244 heartbeat IPC: 1.414 cumulative IPC: 1.928 (Simulation time: 00 hr 19 min 19 sec)
Heartbeat CPU 0 instructions: 180000000 cycles: 82095288 heartbeat IPC: 1.437 cumulative IPC: 1.878 (Simulation time: 00 hr 20 min 57 sec)
Heartbeat CPU 0 instructions: 190000000 cycles: 88777408 heartbeat IPC: 1.497 cumulative IPC: 1.845 (Simulation time: 00 hr 22 min 32 sec)
Heartbeat CPU 0 instructions: 200000003 cycles: 95084824 heartbeat IPC: 1.585 cumulative IPC: 1.825 (Simulation time: 00 hr 24 min 04 sec)
Heartbeat CPU 0 instructions: 210000000 cycles: 101360509 heartbeat IPC: 1.593 cumulative IPC: 1.808 (Simulation time: 00 hr 25 min 36 sec)
Heartbeat CPU 0 instructions: 220000004 cycles: 107630335 heartbeat IPC: 1.595 cumulative IPC: 1.794 (Simulation time: 00 hr 27 min 08 sec)
Heartbeat CPU 0 instructions: 230000000 cycles: 113900171 heartbeat IPC: 1.595 cumulative IPC: 1.782 (Simulation time: 00 hr 28 min 39 sec)
Heartbeat CPU 0 instructions: 240000003 cycles: 120073365 heartbeat IPC: 1.62 cumulative IPC: 1.773 (Simulation time: 00 hr 30 min 10 sec)
Heartbeat CPU 0 instructions: 250000002 cycles: 126447096 heartbeat IPC: 1.569 cumulative IPC: 1.761 (Simulation time: 00 hr 31 min 44 sec)
Heartbeat CPU 0 instructions: 260000002 cycles: 132455985 heartbeat IPC: 1.664 cumulative IPC: 1.756 (Simulation time: 00 hr 33 min 15 sec)
Heartbeat CPU 0 instructions: 270000003 cycles: 138772929 heartbeat IPC: 1.583 cumulative IPC: 1.748 (Simulation time: 00 hr 34 min 50 sec)
Heartbeat CPU 0 instructions: 280000003 cycles: 145106142 heartbeat IPC: 1.579 cumulative IPC: 1.739 (Simulation time: 00 hr 36 min 24 sec)
Heartbeat CPU 0 instructions: 290000000 cycles: 202087470 heartbeat IPC: 0.1755 cumulative IPC: 1.268 (Simulation time: 00 hr 45 min 56 sec)
Heartbeat CPU 0 instructions: 300000001 cycles: 204590072 heartbeat IPC: 3.996 cumulative IPC: 1.304 (Simulation time: 00 hr 46 min 48 sec)
Heartbeat CPU 0 instructions: 310000000 cycles: 207092495 heartbeat IPC: 3.996 cumulative IPC: 1.339 (Simulation time: 00 hr 47 min 40 sec)
Heartbeat CPU 0 instructions: 320000002 cycles: 209594925 heartbeat IPC: 3.996 cumulative IPC: 1.373 (Simulation time: 00 hr 48 min 33 sec)
Heartbeat CPU 0 instructions: 330000004 cycles: 212097765 heartbeat IPC: 3.995 cumulative IPC: 1.406 (Simulation time: 00 hr 49 min 27 sec)
Heartbeat CPU 0 instructions: 340000004 cycles: 214602624 heartbeat IPC: 3.992 cumulative IPC: 1.438 (Simulation time: 00 hr 50 min 18 sec)
Heartbeat CPU 0 instructions: 350000003 cycles: 217115713 heartbeat IPC: 3.979 cumulative IPC: 1.469 (Simulation time: 00 hr 51 min 11 sec)
Heartbeat CPU 0 instructions: 360000002 cycles: 219618460 heartbeat IPC: 3.996 cumulative IPC: 1.499 (Simulation time: 00 hr 52 min 03 sec)
Heartbeat CPU 0 instructions: 370000004 cycles: 222121852 heartbeat IPC: 3.995 cumulative IPC: 1.529 (Simulation time: 00 hr 52 min 56 sec)
Heartbeat CPU 0 instructions: 380000003 cycles: 224624806 heartbeat IPC: 3.995 cumulative IPC: 1.558 (Simulation time: 00 hr 53 min 48 sec)
Heartbeat CPU 0 instructions: 390000000 cycles: 227127732 heartbeat IPC: 3.995 cumulative IPC: 1.587 (Simulation time: 00 hr 54 min 39 sec)
Heartbeat CPU 0 instructions: 400000002 cycles: 229630855 heartbeat IPC: 3.995 cumulative IPC: 1.615 (Simulation time: 00 hr 55 min 32 sec)
Heartbeat CPU 0 instructions: 410000002 cycles: 232134345 heartbeat IPC: 3.994 cumulative IPC: 1.642 (Simulation time: 00 hr 56 min 23 sec)
Heartbeat CPU 0 instructions: 420000000 cycles: 234636865 heartbeat IPC: 3.996 cumulative IPC: 1.669 (Simulation time: 00 hr 57 min 17 sec)
Heartbeat CPU 0 instructions: 430000001 cycles: 237139421 heartbeat IPC: 3.996 cumulative IPC: 1.694 (Simulation time: 00 hr 58 min 07 sec)
Heartbeat CPU 0 instructions: 440000000 cycles: 239642303 heartbeat IPC: 3.995 cumulative IPC: 1.72 (Simulation time: 00 hr 59 min 00 sec)
Heartbeat CPU 0 instructions: 450000001 cycles: 242145308 heartbeat IPC: 3.995 cumulative IPC: 1.745 (Simulation time: 00 hr 59 min 51 sec)
Heartbeat CPU 0 instructions: 460000002 cycles: 244647852 heartbeat IPC: 3.996 cumulative IPC: 1.769 (Simulation time: 01 hr 00 min 45 sec)
Heartbeat CPU 0 instructions: 470000001 cycles: 247150513 heartbeat IPC: 3.996 cumulative IPC: 1.793 (Simulation time: 01 hr 01 min 38 sec)
Heartbeat CPU 0 instructions: 480000000 cycles: 249653213 heartbeat IPC: 3.996 cumulative IPC: 1.816 (Simulation time: 01 hr 02 min 29 sec)
Heartbeat CPU 0 instructions: 490000001 cycles: 252156073 heartbeat IPC: 3.995 cumulative IPC: 1.839 (Simulation time: 01 hr 03 min 36 sec)
Heartbeat CPU 0 instructions: 500000004 cycles: 254659450 heartbeat IPC: 3.995 cumulative IPC: 1.861 (Simulation time: 01 hr 04 min 27 sec)
Heartbeat CPU 0 instructions: 510000000 cycles: 261914134 heartbeat IPC: 1.378 cumulative IPC: 1.847 (Simulation time: 01 hr 06 min 12 sec)
Heartbeat CPU 0 instructions: 520000002 cycles: 355922648 heartbeat IPC: 0.1064 cumulative IPC: 1.37 (Simulation time: 01 hr 23 min 39 sec)
Heartbeat CPU 0 instructions: 530000001 cycles: 447666469 heartbeat IPC: 0.109 cumulative IPC: 1.104 (Simulation time: 01 hr 40 min 40 sec)
Heartbeat CPU 0 instructions: 540000001 cycles: 480667976 heartbeat IPC: 0.303 cumulative IPC: 1.047 (Simulation time: 01 hr 47 min 16 sec)
Heartbeat CPU 0 instructions: 550000001 cycles: 513455381 heartbeat IPC: 0.305 cumulative IPC: 0.9989 (Simulation time: 01 hr 54 min 14 sec)
Heartbeat CPU 0 instructions: 560000003 cycles: 546034682 heartbeat IPC: 0.3069 cumulative IPC: 0.9566 (Simulation time: 02 hr 01 min 05 sec)
Heartbeat CPU 0 instructions: 570000003 cycles: 573011587 heartbeat IPC: 0.3707 cumulative IPC: 0.9284 (Simulation time: 02 hr 06 min 47 sec)
Heartbeat CPU 0 instructions: 580000002 cycles: 604231712 heartbeat IPC: 0.3203 cumulative IPC: 0.8963 (Simulation time: 02 hr 13 min 25 sec)
Heartbeat CPU 0 instructions: 590000000 cycles: 635206328 heartbeat IPC: 0.3228 cumulative IPC: 0.8677 (Simulation time: 02 hr 20 min 04 sec)
*** Reached end of trace: (0, "traces/sp.A.champsimtrace")
Heartbeat CPU 0 instructions: 600000001 cycles: 666067876 heartbeat IPC: 0.324 cumulative IPC: 0.842 (Simulation time: 02 hr 26 min 37 sec)
Heartbeat CPU 0 instructions: 610000004 cycles: 696381928 heartbeat IPC: 0.3299 cumulative IPC: 0.8193 (Simulation time: 02 hr 31 min 43 sec)
Heartbeat CPU 0 instructions: 620000001 cycles: 700030099 heartbeat IPC: 2.741 cumulative IPC: 0.8295 (Simulation time: 02 hr 32 min 54 sec)
Heartbeat CPU 0 instructions: 630000001 cycles: 703649951 heartbeat IPC: 2.763 cumulative IPC: 0.8396 (Simulation time: 02 hr 34 min 04 sec)
Heartbeat CPU 0 instructions: 640000000 cycles: 707251085 heartbeat IPC: 2.777 cumulative IPC: 0.8497 (Simulation time: 02 hr 35 min 14 sec)
Heartbeat CPU 0 instructions: 650000001 cycles: 710834774 heartbeat IPC: 2.79 cumulative IPC: 0.8597 (Simulation time: 02 hr 36 min 24 sec)
Simulation finished CPU 0 instructions: 600000003 cycles: 697953718 cumulative IPC: 0.8597 (Simulation time: 02 hr 36 min 24 sec)
Simulation complete CPU 0 instructions: 600000003 cycles: 697953718 cumulative IPC: 0.8597 (Simulation time: 02 hr 36 min 24 sec)

ChampSim completed all CPUs

=== Simulation ===
CPU 0 runs traces/sp.A.champsimtrace
Region of Interest Statistics

CPU 0 cumulative IPC: 0.8597 instructions: 600000003 cycles: 697953718
CPU 0 Branch Prediction Accuracy: 98.91% MPKI: 0.226 Average ROB Occupancy at Mispredict: 233.5
Branch type MPKI
BRANCH_DIRECT_JUMP: 5e-06
BRANCH_INDIRECT: 7.67e-05
BRANCH_CONDITIONAL: 0.226
BRANCH_DIRECT_CALL: 2e-05
BRANCH_INDIRECT_CALL: 3.33e-05
BRANCH_RETURN: 3.67e-05

LLC TOTAL        ACCESS:    8122506 HIT:    2821785 MISS:    5300721
LLC LOAD         ACCESS:    2306639 HIT:    1285104 MISS:    1021535
LLC RFO          ACCESS:     922692 HIT:       1262 MISS:     921430
LLC PREFETCH     ACCESS:    2843418 HIT:    1405845 MISS:    1437573
LLC WRITE        ACCESS:    2046241 HIT:     129456 MISS:    1916785
LLC TRANSLATION  ACCESS:       3516 HIT:        118 MISS:       3398
LLC PREFETCH REQUESTED:    2843418 ISSUED:    2843418 USEFUL:    1108397 USELESS:      40970
LLC AVERAGE MISS LATENCY: 877.1 cycles
cpu0_DTLB TOTAL        ACCESS:  125632820 HIT:  124778825 MISS:     853995
cpu0_DTLB LOAD         ACCESS:  125632820 HIT:  124778825 MISS:     853995
cpu0_DTLB RFO          ACCESS:          0 HIT:          0 MISS:          0
cpu0_DTLB PREFETCH     ACCESS:          0 HIT:          0 MISS:          0
cpu0_DTLB WRITE        ACCESS:          0 HIT:          0 MISS:          0
cpu0_DTLB TRANSLATION  ACCESS:          0 HIT:          0 MISS:          0
cpu0_DTLB PREFETCH REQUESTED:          0 ISSUED:          0 USEFUL:          0 USELESS:          0
cpu0_DTLB AVERAGE MISS LATENCY: 18.59 cycles
cpu0_ITLB TOTAL        ACCESS:     225670 HIT:     225431 MISS:        239
cpu0_ITLB LOAD         ACCESS:     225670 HIT:     225431 MISS:        239
cpu0_ITLB RFO          ACCESS:          0 HIT:          0 MISS:          0
cpu0_ITLB PREFETCH     ACCESS:          0 HIT:          0 MISS:          0
cpu0_ITLB WRITE        ACCESS:          0 HIT:          0 MISS:          0
cpu0_ITLB TRANSLATION  ACCESS:          0 HIT:          0 MISS:          0
cpu0_ITLB PREFETCH REQUESTED:          0 ISSUED:          0 USEFUL:          0 USELESS:          0
cpu0_ITLB AVERAGE MISS LATENCY: 342.6 cycles
cpu0_L1D TOTAL        ACCESS:  190999135 HIT:  177704456 MISS:   13294679
cpu0_L1D LOAD         ACCESS:  155756999 HIT:  146924245 MISS:    8832754
cpu0_L1D RFO          ACCESS:          0 HIT:          0 MISS:          0
cpu0_L1D PREFETCH     ACCESS:          0 HIT:          0 MISS:          0
cpu0_L1D WRITE        ACCESS:   35194260 HIT:   30750637 MISS:    4443623
cpu0_L1D TRANSLATION  ACCESS:      47876 HIT:      29574 MISS:      18302
cpu0_L1D PREFETCH REQUESTED:          0 ISSUED:          0 USEFUL:          0 USELESS:          0
cpu0_L1D AVERAGE MISS LATENCY: 166.7 cycles
cpu0_L1I TOTAL        ACCESS:     234089 HIT:     231234 MISS:       2855
cpu0_L1I LOAD         ACCESS:     234089 HIT:     231234 MISS:       2855
cpu0_L1I RFO          ACCESS:          0 HIT:          0 MISS:          0
cpu0_L1I PREFETCH     ACCESS:          0 HIT:          0 MISS:          0
cpu0_L1I WRITE        ACCESS:          0 HIT:          0 MISS:          0
cpu0_L1I TRANSLATION  ACCESS:          0 HIT:          0 MISS:          0
cpu0_L1I PREFETCH REQUESTED:          0 ISSUED:          0 USEFUL:          0 USELESS:          0
cpu0_L1I AVERAGE MISS LATENCY: 562.5 cycles
cpu0_L2C TOTAL        ACCESS:    5427270 HIT:    2194075 MISS:    3233195
cpu0_L2C LOAD         ACCESS:    2426215 HIT:     119571 MISS:    2306644
cpu0_L2C RFO          ACCESS:     924312 HIT:       1620 MISS:     922692
cpu0_L2C PREFETCH     ACCESS:          0 HIT:          0 MISS:          0
cpu0_L2C WRITE        ACCESS:    2058445 HIT:    2058102 MISS:        343
cpu0_L2C TRANSLATION  ACCESS:      18298 HIT:      14782 MISS:       3516
cpu0_L2C PREFETCH REQUESTED:          0 ISSUED:          0 USEFUL:          0 USELESS:          0
cpu0_L2C AVERAGE MISS LATENCY: 880.2 cycles
cpu0_STLB TOTAL        ACCESS:     593026 HIT:     545179 MISS:      47847
cpu0_STLB LOAD         ACCESS:     593026 HIT:     545179 MISS:      47847
cpu0_STLB RFO          ACCESS:          0 HIT:          0 MISS:          0
cpu0_STLB PREFETCH     ACCESS:          0 HIT:          0 MISS:          0
cpu0_STLB WRITE        ACCESS:          0 HIT:          0 MISS:          0
cpu0_STLB TRANSLATION  ACCESS:          0 HIT:          0 MISS:          0
cpu0_STLB PREFETCH REQUESTED:          0 ISSUED:          0 USEFUL:          0 USELESS:          0
cpu0_STLB AVERAGE MISS LATENCY: 345 cycles

DRAM Statistics

Channel 0 RQ ROW_BUFFER_HIT:     996409
  ROW_BUFFER_MISS:    1999392
 AVG DBUS CONGESTED CYCLE: 3.958
WQ ROW_BUFFER_HIT: Channel 0 
  ROW_BUFFER_MISS:     680761
  FULL:    1291383
