WARNING: physical memory size is smaller than virtual memory size.

*** ChampSim Multicore Out-of-Order Simulator ***
Warmup Instructions: 50000000
Simulation Instructions: 600000000
Number of CPUs: 1
Page size: 4096

Off-chip DRAM Size: 4 GiB Channels: 1 Width: 64-bit Data Race: 3200 MT/s
Heartbeat CPU 0 instructions: 10000003 cycles: 2881057 heartbeat IPC: 3.471 cumulative IPC: 3.471 (Simulation time: 00 hr 00 min 36 sec)
Heartbeat CPU 0 instructions: 20000003 cycles: 5381057 heartbeat IPC: 4 cumulative IPC: 3.717 (Simulation time: 00 hr 01 min 10 sec)
Heartbeat CPU 0 instructions: 30000003 cycles: 7881057 heartbeat IPC: 4 cumulative IPC: 3.807 (Simulation time: 00 hr 01 min 44 sec)
Heartbeat CPU 0 instructions: 40000003 cycles: 10381057 heartbeat IPC: 4 cumulative IPC: 3.853 (Simulation time: 00 hr 02 min 19 sec)
Heartbeat CPU 0 instructions: 50000003 cycles: 12881057 heartbeat IPC: 4 cumulative IPC: 3.882 (Simulation time: 00 hr 02 min 54 sec)
Warmup finished CPU 0 instructions: 50000003 cycles: 12881058 cumulative IPC: 3.882 (Simulation time: 00 hr 02 min 54 sec)
Warmup complete CPU 0 instructions: 50000003 cycles: 12881058 cumulative IPC: 3.882 (Simulation time: 00 hr 02 min 54 sec)
Heartbeat CPU 0 instructions: 60000000 cycles: 17359077 heartbeat IPC: 2.233 cumulative IPC: 2.233 (Simulation time: 00 hr 03 min 52 sec)
Heartbeat CPU 0 instructions: 70000002 cycles: 21829846 heartbeat IPC: 2.237 cumulative IPC: 2.235 (Simulation time: 00 hr 04 min 49 sec)
Heartbeat CPU 0 instructions: 80000001 cycles: 26317639 heartbeat IPC: 2.228 cumulative IPC: 2.233 (Simulation time: 00 hr 05 min 47 sec)
Heartbeat CPU 0 instructions: 90000003 cycles: 30808717 heartbeat IPC: 2.227 cumulative IPC: 2.231 (Simulation time: 00 hr 06 min 45 sec)
Heartbeat CPU 0 instructions: 100000000 cycles: 34316983 heartbeat IPC: 2.85 cumulative IPC: 2.333 (Simulation time: 00 hr 07 min 34 sec)
Heartbeat CPU 0 instructions: 110000001 cycles: 36862718 heartbeat IPC: 3.928 cumulative IPC: 2.502 (Simulation time: 00 hr 08 min 16 sec)
Heartbeat CPU 0 instructions: 120000001 cycles: 39418714 heartbeat IPC: 3.912 cumulative IPC: 2.638 (Simulation time: 00 hr 08 min 58 sec)
Heartbeat CPU 0 instructions: 130000000 cycles: 41999496 heartbeat IPC: 3.875 cumulative IPC: 2.747 (Simulation time: 00 hr 09 min 38 sec)
Heartbeat CPU 0 instructions: 140000004 cycles: 45058785 heartbeat IPC: 3.269 cumulative IPC: 2.797 (Simulation time: 00 hr 10 min 25 sec)
Heartbeat CPU 0 instructions: 150000000 cycles: 48699484 heartbeat IPC: 2.747 cumulative IPC: 2.792 (Simulation time: 00 hr 11 min 14 sec)
Heartbeat CPU 0 instructions: 160000000 cycles: 52298387 heartbeat IPC: 2.779 cumulative IPC: 2.791 (Simulation time: 00 hr 12 min 03 sec)
Heartbeat CPU 0 instructions: 170000000 cycles: 55963827 heartbeat IPC: 2.728 cumulative IPC: 2.785 (Simulation time: 00 hr 12 min 52 sec)
Heartbeat CPU 0 instructions: 180000002 cycles: 59645048 heartbeat IPC: 2.716 cumulative IPC: 2.78 (Simulation time: 00 hr 13 min 41 sec)
Heartbeat CPU 0 instructions: 190000002 cycles: 62993811 heartbeat IPC: 2.986 cumulative IPC: 2.794 (Simulation time: 00 hr 14 min 29 sec)
Heartbeat CPU 0 instructions: 200000000 cycles: 65746492 heartbeat IPC: 3.633 cumulative IPC: 2.837 (Simulation time: 00 hr 15 min 11 sec)
Heartbeat CPU 0 instructions: 210000000 cycles: 68463685 heartbeat IPC: 3.68 cumulative IPC: 2.879 (Simulation time: 00 hr 15 min 52 sec)
Heartbeat CPU 0 instructions: 220000001 cycles: 71216668 heartbeat IPC: 3.632 cumulative IPC: 2.914 (Simulation time: 00 hr 16 min 35 sec)
Heartbeat CPU 0 instructions: 230000004 cycles: 73969263 heartbeat IPC: 3.633 cumulative IPC: 2.947 (Simulation time: 00 hr 17 min 19 sec)
Heartbeat CPU 0 instructions: 240000002 cycles: 76695030 heartbeat IPC: 3.669 cumulative IPC: 2.977 (Simulation time: 00 hr 18 min 03 sec)
Heartbeat CPU 0 instructions: 250000002 cycles: 79437835 heartbeat IPC: 3.646 cumulative IPC: 3.005 (Simulation time: 00 hr 18 min 47 sec)
Heartbeat CPU 0 instructions: 260000002 cycles: 82185139 heartbeat IPC: 3.64 cumulative IPC: 3.03 (Simulation time: 00 hr 19 min 31 sec)
Heartbeat CPU 0 instructions: 270000003 cycles: 84908840 heartbeat IPC: 3.671 cumulative IPC: 3.054 (Simulation time: 00 hr 20 min 14 sec)
Heartbeat CPU 0 instructions: 280000003 cycles: 87661203 heartbeat IPC: 3.633 cumulative IPC: 3.076 (Simulation time: 00 hr 20 min 58 sec)
Heartbeat CPU 0 instructions: 290000001 cycles: 132123294 heartbeat IPC: 0.2249 cumulative IPC: 2.013 (Simulation time: 00 hr 26 min 03 sec)
Heartbeat CPU 0 instructions: 300000002 cycles: 134628398 heartbeat IPC: 3.992 cumulative IPC: 2.053 (Simulation time: 00 hr 26 min 44 sec)
Heartbeat CPU 0 instructions: 310000001 cycles: 137134044 heartbeat IPC: 3.991 cumulative IPC: 2.093 (Simulation time: 00 hr 27 min 23 sec)
Heartbeat CPU 0 instructions: 320000000 cycles: 139641979 heartbeat IPC: 3.987 cumulative IPC: 2.13 (Simulation time: 00 hr 28 min 04 sec)
Heartbeat CPU 0 instructions: 330000003 cycles: 142147017 heartbeat IPC: 3.992 cumulative IPC: 2.166 (Simulation time: 00 hr 28 min 44 sec)
Heartbeat CPU 0 instructions: 340000000 cycles: 144652845 heartbeat IPC: 3.991 cumulative IPC: 2.201 (Simulation time: 00 hr 29 min 23 sec)
Heartbeat CPU 0 instructions: 350000004 cycles: 147158175 heartbeat IPC: 3.991 cumulative IPC: 2.234 (Simulation time: 00 hr 30 min 02 sec)
Heartbeat CPU 0 instructions: 360000004 cycles: 149663695 heartbeat IPC: 3.991 cumulative IPC: 2.266 (Simulation time: 00 hr 30 min 41 sec)
Heartbeat CPU 0 instructions: 370000000 cycles: 152170359 heartbeat IPC: 3.989 cumulative IPC: 2.297 (Simulation time: 00 hr 31 min 22 sec)
Heartbeat CPU 0 instructions: 380000004 cycles: 154676032 heartbeat IPC: 3.991 cumulative IPC: 2.327 (Simulation time: 00 hr 32 min 01 sec)
Heartbeat CPU 0 instructions: 390000001 cycles: 157181105 heartbeat IPC: 3.992 cumulative IPC: 2.356 (Simulation time: 00 hr 32 min 40 sec)
Heartbeat CPU 0 instructions: 400000003 cycles: 159686197 heartbeat IPC: 3.992 cumulative IPC: 2.384 (Simulation time: 00 hr 33 min 20 sec)
Heartbeat CPU 0 instructions: 410000003 cycles: 162192606 heartbeat IPC: 3.99 cumulative IPC: 2.411 (Simulation time: 00 hr 34 min 01 sec)
Heartbeat CPU 0 instructions: 420000002 cycles: 164698597 heartbeat IPC: 3.99 cumulative IPC: 2.437 (Simulation time: 00 hr 34 min 40 sec)
Heartbeat CPU 0 instructions: 430000000 cycles: 167204111 heartbeat IPC: 3.991 cumulative IPC: 2.462 (Simulation time: 00 hr 35 min 20 sec)
Heartbeat CPU 0 instructions: 440000001 cycles: 169711984 heartbeat IPC: 3.987 cumulative IPC: 2.487 (Simulation time: 00 hr 36 min 00 sec)
Heartbeat CPU 0 instructions: 450000000 cycles: 172217541 heartbeat IPC: 3.991 cumulative IPC: 2.51 (Simulation time: 00 hr 36 min 40 sec)
Heartbeat CPU 0 instructions: 460000003 cycles: 174723443 heartbeat IPC: 3.991 cumulative IPC: 2.533 (Simulation time: 00 hr 37 min 20 sec)
Heartbeat CPU 0 instructions: 470000001 cycles: 177229858 heartbeat IPC: 3.99 cumulative IPC: 2.556 (Simulation time: 00 hr 37 min 59 sec)
Heartbeat CPU 0 instructions: 480000003 cycles: 179735412 heartbeat IPC: 3.991 cumulative IPC: 2.577 (Simulation time: 00 hr 38 min 39 sec)
Heartbeat CPU 0 instructions: 490000003 cycles: 182240868 heartbeat IPC: 3.991 cumulative IPC: 2.598 (Simulation time: 00 hr 39 min 18 sec)
Heartbeat CPU 0 instructions: 500000002 cycles: 184746954 heartbeat IPC: 3.99 cumulative IPC: 2.618 (Simulation time: 00 hr 39 min 59 sec)
Heartbeat CPU 0 instructions: 510000003 cycles: 192767558 heartbeat IPC: 1.247 cumulative IPC: 2.557 (Simulation time: 00 hr 41 min 20 sec)
Heartbeat CPU 0 instructions: 520000001 cycles: 291538673 heartbeat IPC: 0.1012 cumulative IPC: 1.687 (Simulation time: 00 hr 54 min 08 sec)
Heartbeat CPU 0 instructions: 530000004 cycles: 367535004 heartbeat IPC: 0.1316 cumulative IPC: 1.353 (Simulation time: 01 hr 04 min 14 sec)
Heartbeat CPU 0 instructions: 540000000 cycles: 404590009 heartbeat IPC: 0.2699 cumulative IPC: 1.251 (Simulation time: 01 hr 09 min 26 sec)
Heartbeat CPU 0 instructions: 550000002 cycles: 441044838 heartbeat IPC: 0.2743 cumulative IPC: 1.168 (Simulation time: 01 hr 14 min 39 sec)
Heartbeat CPU 0 instructions: 560000004 cycles: 477637956 heartbeat IPC: 0.2733 cumulative IPC: 1.097 (Simulation time: 01 hr 19 min 50 sec)
Heartbeat CPU 0 instructions: 570000000 cycles: 514603299 heartbeat IPC: 0.2705 cumulative IPC: 1.036 (Simulation time: 01 hr 25 min 04 sec)
Heartbeat CPU 0 instructions: 580000001 cycles: 552104748 heartbeat IPC: 0.2667 cumulative IPC: 0.9829 (Simulation time: 01 hr 30 min 32 sec)
Heartbeat CPU 0 instructions: 590000004 cycles: 590506519 heartbeat IPC: 0.2604 cumulative IPC: 0.9349 (Simulation time: 01 hr 36 min 02 sec)
*** Reached end of trace: (0, "traces/sp.A.champsimtrace")
Heartbeat CPU 0 instructions: 600000001 cycles: 628301695 heartbeat IPC: 0.2646 cumulative IPC: 0.8937 (Simulation time: 01 hr 41 min 30 sec)
Heartbeat CPU 0 instructions: 610000000 cycles: 648077965 heartbeat IPC: 0.5057 cumulative IPC: 0.8816 (Simulation time: 01 hr 43 min 47 sec)
Heartbeat CPU 0 instructions: 620000004 cycles: 650629054 heartbeat IPC: 3.92 cumulative IPC: 0.8938 (Simulation time: 01 hr 44 min 29 sec)
Heartbeat CPU 0 instructions: 630000003 cycles: 653178323 heartbeat IPC: 3.923 cumulative IPC: 0.9058 (Simulation time: 01 hr 45 min 09 sec)
Heartbeat CPU 0 instructions: 640000004 cycles: 656477885 heartbeat IPC: 3.031 cumulative IPC: 0.9167 (Simulation time: 01 hr 45 min 56 sec)
Heartbeat CPU 0 instructions: 650000001 cycles: 660782805 heartbeat IPC: 2.323 cumulative IPC: 0.9261 (Simulation time: 01 hr 46 min 52 sec)
Simulation finished CPU 0 instructions: 600000003 cycles: 647901749 cumulative IPC: 0.9261 (Simulation time: 01 hr 46 min 52 sec)
Simulation complete CPU 0 instructions: 600000003 cycles: 647901749 cumulative IPC: 0.9261 (Simulation time: 01 hr 46 min 52 sec)

ChampSim completed all CPUs

=== Simulation ===
CPU 0 runs traces/sp.A.champsimtrace
Region of Interest Statistics

CPU 0 cumulative IPC: 0.9261 instructions: 600000003 cycles: 647901749
CPU 0 Branch Prediction Accuracy: 98.84% MPKI: 0.2406 Average ROB Occupancy at Mispredict: 220.2
Branch type MPKI
BRANCH_DIRECT_JUMP: 5e-06
BRANCH_INDIRECT: 7.5e-05
BRANCH_CONDITIONAL: 0.24
BRANCH_DIRECT_CALL: 2e-05
BRANCH_INDIRECT_CALL: 3.17e-05
BRANCH_RETURN: 3.67e-05

LLC TOTAL        ACCESS:    7577678 HIT:    2297471 MISS:    5280207
LLC LOAD         ACCESS:    2303648 HIT:    1011922 MISS:    1291726
LLC RFO          ACCESS:     922635 HIT:      61134 MISS:     861501
LLC PREFETCH     ACCESS:    2303648 HIT:     483485 MISS:    1820163
LLC WRITE        ACCESS:    2044275 HIT:     740753 MISS:    1303522
LLC TRANSLATION  ACCESS:       3472 HIT:        177 MISS:       3295
LLC PREFETCH REQUESTED:    2303648 ISSUED:    2303648 USEFUL:    1434848 USELESS:      41766
LLC AVERAGE MISS LATENCY: 780 cycles
cpu0_DTLB TOTAL        ACCESS:  127666472 HIT:  126854121 MISS:     812351
cpu0_DTLB LOAD         ACCESS:  127666472 HIT:  126854121 MISS:     812351
cpu0_DTLB RFO          ACCESS:          0 HIT:          0 MISS:          0
cpu0_DTLB PREFETCH     ACCESS:          0 HIT:          0 MISS:          0
cpu0_DTLB WRITE        ACCESS:          0 HIT:          0 MISS:          0
cpu0_DTLB TRANSLATION  ACCESS:          0 HIT:          0 MISS:          0
cpu0_DTLB PREFETCH REQUESTED:          0 ISSUED:          0 USEFUL:          0 USELESS:          0
cpu0_DTLB AVERAGE MISS LATENCY: 19.66 cycles
cpu0_ITLB TOTAL        ACCESS:     216646 HIT:     216427 MISS:        219
cpu0_ITLB LOAD         ACCESS:     216646 HIT:     216427 MISS:        219
cpu0_ITLB RFO          ACCESS:          0 HIT:          0 MISS:          0
cpu0_ITLB PREFETCH     ACCESS:          0 HIT:          0 MISS:          0
cpu0_ITLB WRITE        ACCESS:          0 HIT:          0 MISS:          0
cpu0_ITLB TRANSLATION  ACCESS:          0 HIT:          0 MISS:          0
cpu0_ITLB PREFETCH REQUESTED:          0 ISSUED:          0 USEFUL:          0 USELESS:          0
cpu0_ITLB AVERAGE MISS LATENCY: 401.3 cycles
cpu0_L1D TOTAL        ACCESS:  193690022 HIT:  179505359 MISS:   14184663
cpu0_L1D LOAD         ACCESS:  158447988 HIT:  148485089 MISS:    9962899
cpu0_L1D RFO          ACCESS:          0 HIT:          0 MISS:          0
cpu0_L1D PREFETCH     ACCESS:          0 HIT:          0 MISS:          0
cpu0_L1D WRITE        ACCESS:   35194156 HIT:   30990675 MISS:    4203481
cpu0_L1D TRANSLATION  ACCESS:      47878 HIT:      29595 MISS:      18283
cpu0_L1D PREFETCH REQUESTED:          0 ISSUED:          0 USEFUL:          0 USELESS:          0
cpu0_L1D AVERAGE MISS LATENCY: 152.8 cycles
cpu0_L1I TOTAL        ACCESS:     224047 HIT:     221267 MISS:       2780
cpu0_L1I LOAD         ACCESS:     224047 HIT:     221267 MISS:       2780
cpu0_L1I RFO          ACCESS:          0 HIT:          0 MISS:          0
cpu0_L1I PREFETCH     ACCESS:          0 HIT:          0 MISS:          0
cpu0_L1I WRITE        ACCESS:          0 HIT:          0 MISS:          0
cpu0_L1I TRANSLATION  ACCESS:          0 HIT:          0 MISS:          0
cpu0_L1I PREFETCH REQUESTED:          0 ISSUED:          0 USEFUL:          0 USELESS:          0
cpu0_L1I AVERAGE MISS LATENCY: 525.4 cycles
cpu0_L2C TOTAL        ACCESS:    5428842 HIT:    2198686 MISS:    3230156
cpu0_L2C LOAD         ACCESS:    2431205 HIT:     127527 MISS:    2303678
cpu0_L2C RFO          ACCESS:     923196 HIT:        561 MISS:     922635
cpu0_L2C PREFETCH     ACCESS:          0 HIT:          0 MISS:          0
cpu0_L2C WRITE        ACCESS:    2056160 HIT:    2055789 MISS:        371
cpu0_L2C TRANSLATION  ACCESS:      18281 HIT:      14809 MISS:       3472
cpu0_L2C PREFETCH REQUESTED:          0 ISSUED:          0 USEFUL:          0 USELESS:          0
cpu0_L2C AVERAGE MISS LATENCY: 932.6 cycles
cpu0_STLB TOTAL        ACCESS:     563468 HIT:     515620 MISS:      47848
cpu0_STLB LOAD         ACCESS:     563468 HIT:     515620 MISS:      47848
cpu0_STLB RFO          ACCESS:          0 HIT:          0 MISS:          0
cpu0_STLB PREFETCH     ACCESS:          0 HIT:          0 MISS:          0
cpu0_STLB WRITE        ACCESS:          0 HIT:          0 MISS:          0
cpu0_STLB TRANSLATION  ACCESS:          0 HIT:          0 MISS:          0
cpu0_STLB PREFETCH REQUESTED:          0 ISSUED:          0 USEFUL:          0 USELESS:          0
cpu0_STLB AVERAGE MISS LATENCY: 380.5 cycles

DRAM Statistics

Channel 0 RQ ROW_BUFFER_HIT:     748457
  ROW_BUFFER_MISS:    1957992
 AVG DBUS CONGESTED CYCLE: 3.974
WQ ROW_BUFFER_HIT: Channel 0 
  ROW_BUFFER_MISS:     658783
  FULL:    1077625
