WARNING: physical memory size is smaller than virtual memory size.

*** ChampSim Multicore Out-of-Order Simulator ***
Warmup Instructions: 50000000
Simulation Instructions: 600000000
Number of CPUs: 1
Page size: 4096

CPU 0 Tage branch predictor
Off-chip DRAM Size: 4 GiB Channels: 1 Width: 64-bit Data Race: 3200 MT/s
Heartbeat CPU 0 instructions: 10000000 cycles: 2881055 heartbeat IPC: 3.471 cumulative IPC: 3.471 (Simulation time: 00 hr 00 min 39 sec)
Heartbeat CPU 0 instructions: 20000000 cycles: 5381055 heartbeat IPC: 4 cumulative IPC: 3.717 (Simulation time: 00 hr 01 min 16 sec)
Heartbeat CPU 0 instructions: 30000000 cycles: 7881055 heartbeat IPC: 4 cumulative IPC: 3.807 (Simulation time: 00 hr 01 min 54 sec)
Heartbeat CPU 0 instructions: 40000000 cycles: 10381055 heartbeat IPC: 4 cumulative IPC: 3.853 (Simulation time: 00 hr 02 min 30 sec)
Heartbeat CPU 0 instructions: 50000000 cycles: 12881055 heartbeat IPC: 4 cumulative IPC: 3.882 (Simulation time: 00 hr 03 min 08 sec)
Warmup finished CPU 0 instructions: 50000000 cycles: 12881056 cumulative IPC: 3.882 (Simulation time: 00 hr 03 min 08 sec)
Warmup complete CPU 0 instructions: 50000000 cycles: 12881056 cumulative IPC: 3.882 (Simulation time: 00 hr 03 min 08 sec)
Heartbeat CPU 0 instructions: 60000000 cycles: 17286686 heartbeat IPC: 2.27 cumulative IPC: 2.27 (Simulation time: 00 hr 04 min 05 sec)
Heartbeat CPU 0 instructions: 70000000 cycles: 21696923 heartbeat IPC: 2.267 cumulative IPC: 2.269 (Simulation time: 00 hr 05 min 06 sec)
Heartbeat CPU 0 instructions: 80000000 cycles: 26097250 heartbeat IPC: 2.273 cumulative IPC: 2.27 (Simulation time: 00 hr 06 min 03 sec)
Heartbeat CPU 0 instructions: 90000003 cycles: 30486069 heartbeat IPC: 2.279 cumulative IPC: 2.272 (Simulation time: 00 hr 07 min 03 sec)
Heartbeat CPU 0 instructions: 100000000 cycles: 34539540 heartbeat IPC: 2.467 cumulative IPC: 2.309 (Simulation time: 00 hr 07 min 57 sec)
Heartbeat CPU 0 instructions: 110000001 cycles: 38113528 heartbeat IPC: 2.798 cumulative IPC: 2.378 (Simulation time: 00 hr 08 min 48 sec)
Heartbeat CPU 0 instructions: 120000001 cycles: 41781335 heartbeat IPC: 2.726 cumulative IPC: 2.422 (Simulation time: 00 hr 09 min 41 sec)
Heartbeat CPU 0 instructions: 130000000 cycles: 45396341 heartbeat IPC: 2.766 cumulative IPC: 2.46 (Simulation time: 00 hr 10 min 34 sec)
Heartbeat CPU 0 instructions: 140000004 cycles: 48964797 heartbeat IPC: 2.802 cumulative IPC: 2.494 (Simulation time: 00 hr 11 min 25 sec)
Heartbeat CPU 0 instructions: 150000000 cycles: 52598495 heartbeat IPC: 2.752 cumulative IPC: 2.518 (Simulation time: 00 hr 12 min 15 sec)
Heartbeat CPU 0 instructions: 160000001 cycles: 56136131 heartbeat IPC: 2.827 cumulative IPC: 2.543 (Simulation time: 00 hr 13 min 06 sec)
Heartbeat CPU 0 instructions: 170000003 cycles: 59688423 heartbeat IPC: 2.815 cumulative IPC: 2.564 (Simulation time: 00 hr 13 min 56 sec)
Heartbeat CPU 0 instructions: 180000002 cycles: 63314424 heartbeat IPC: 2.758 cumulative IPC: 2.578 (Simulation time: 00 hr 14 min 47 sec)
Heartbeat CPU 0 instructions: 190000002 cycles: 66660231 heartbeat IPC: 2.989 cumulative IPC: 2.603 (Simulation time: 00 hr 15 min 36 sec)
Heartbeat CPU 0 instructions: 200000000 cycles: 69393912 heartbeat IPC: 3.658 cumulative IPC: 2.654 (Simulation time: 00 hr 16 min 28 sec)
Heartbeat CPU 0 instructions: 210000000 cycles: 72151068 heartbeat IPC: 3.627 cumulative IPC: 2.7 (Simulation time: 00 hr 17 min 16 sec)
Heartbeat CPU 0 instructions: 220000001 cycles: 75195123 heartbeat IPC: 3.285 cumulative IPC: 2.728 (Simulation time: 00 hr 18 min 04 sec)
Heartbeat CPU 0 instructions: 230000004 cycles: 78529925 heartbeat IPC: 2.999 cumulative IPC: 2.742 (Simulation time: 00 hr 18 min 58 sec)
Heartbeat CPU 0 instructions: 240000002 cycles: 82377174 heartbeat IPC: 2.599 cumulative IPC: 2.734 (Simulation time: 00 hr 19 min 55 sec)
Heartbeat CPU 0 instructions: 250000001 cycles: 86117744 heartbeat IPC: 2.673 cumulative IPC: 2.731 (Simulation time: 00 hr 20 min 49 sec)
Heartbeat CPU 0 instructions: 260000002 cycles: 89852490 heartbeat IPC: 2.678 cumulative IPC: 2.728 (Simulation time: 00 hr 21 min 42 sec)
Heartbeat CPU 0 instructions: 270000003 cycles: 93596206 heartbeat IPC: 2.671 cumulative IPC: 2.726 (Simulation time: 00 hr 22 min 35 sec)
Heartbeat CPU 0 instructions: 280000003 cycles: 97341522 heartbeat IPC: 2.67 cumulative IPC: 2.723 (Simulation time: 00 hr 23 min 30 sec)
Heartbeat CPU 0 instructions: 290000001 cycles: 152093995 heartbeat IPC: 0.1826 cumulative IPC: 1.724 (Simulation time: 00 hr 30 min 46 sec)
Heartbeat CPU 0 instructions: 300000002 cycles: 154594123 heartbeat IPC: 4 cumulative IPC: 1.764 (Simulation time: 00 hr 31 min 31 sec)
Heartbeat CPU 0 instructions: 310000001 cycles: 157094218 heartbeat IPC: 4 cumulative IPC: 1.803 (Simulation time: 00 hr 32 min 15 sec)
Heartbeat CPU 0 instructions: 320000001 cycles: 159594346 heartbeat IPC: 4 cumulative IPC: 1.84 (Simulation time: 00 hr 32 min 58 sec)
Heartbeat CPU 0 instructions: 330000003 cycles: 162094389 heartbeat IPC: 4 cumulative IPC: 1.877 (Simulation time: 00 hr 33 min 41 sec)
Heartbeat CPU 0 instructions: 340000000 cycles: 164594474 heartbeat IPC: 4 cumulative IPC: 1.911 (Simulation time: 00 hr 34 min 24 sec)
Heartbeat CPU 0 instructions: 350000004 cycles: 167094561 heartbeat IPC: 4 cumulative IPC: 1.945 (Simulation time: 00 hr 35 min 07 sec)
Heartbeat CPU 0 instructions: 360000004 cycles: 169594648 heartbeat IPC: 4 cumulative IPC: 1.978 (Simulation time: 00 hr 35 min 49 sec)
Heartbeat CPU 0 instructions: 370000000 cycles: 172095466 heartbeat IPC: 3.999 cumulative IPC: 2.01 (Simulation time: 00 hr 36 min 31 sec)
Heartbeat CPU 0 instructions: 380000004 cycles: 174595553 heartbeat IPC: 4 cumulative IPC: 2.041 (Simulation time: 00 hr 37 min 12 sec)
Heartbeat CPU 0 instructions: 390000001 cycles: 177095638 heartbeat IPC: 4 cumulative IPC: 2.07 (Simulation time: 00 hr 37 min 55 sec)
Heartbeat CPU 0 instructions: 400000003 cycles: 179595724 heartbeat IPC: 4 cumulative IPC: 2.099 (Simulation time: 00 hr 38 min 37 sec)
Heartbeat CPU 0 instructions: 410000003 cycles: 182095852 heartbeat IPC: 4 cumulative IPC: 2.127 (Simulation time: 00 hr 39 min 19 sec)
Heartbeat CPU 0 instructions: 420000002 cycles: 184595939 heartbeat IPC: 4 cumulative IPC: 2.155 (Simulation time: 00 hr 40 min 02 sec)
Heartbeat CPU 0 instructions: 430000000 cycles: 187096025 heartbeat IPC: 4 cumulative IPC: 2.181 (Simulation time: 00 hr 40 min 44 sec)
Heartbeat CPU 0 instructions: 440000001 cycles: 189596111 heartbeat IPC: 4 cumulative IPC: 2.207 (Simulation time: 00 hr 41 min 25 sec)
Heartbeat CPU 0 instructions: 450000000 cycles: 192096196 heartbeat IPC: 4 cumulative IPC: 2.232 (Simulation time: 00 hr 42 min 07 sec)
Heartbeat CPU 0 instructions: 460000003 cycles: 194596240 heartbeat IPC: 4 cumulative IPC: 2.256 (Simulation time: 00 hr 42 min 48 sec)
Heartbeat CPU 0 instructions: 470000001 cycles: 197096327 heartbeat IPC: 4 cumulative IPC: 2.28 (Simulation time: 00 hr 43 min 29 sec)
Heartbeat CPU 0 instructions: 480000003 cycles: 199596411 heartbeat IPC: 4 cumulative IPC: 2.303 (Simulation time: 00 hr 44 min 10 sec)
Heartbeat CPU 0 instructions: 490000003 cycles: 202096498 heartbeat IPC: 4 cumulative IPC: 2.325 (Simulation time: 00 hr 44 min 51 sec)
Heartbeat CPU 0 instructions: 500000002 cycles: 204596584 heartbeat IPC: 4 cumulative IPC: 2.347 (Simulation time: 00 hr 45 min 32 sec)
Heartbeat CPU 0 instructions: 510000003 cycles: 209847175 heartbeat IPC: 1.905 cumulative IPC: 2.335 (Simulation time: 00 hr 46 min 35 sec)
Heartbeat CPU 0 instructions: 520000002 cycles: 314797114 heartbeat IPC: 0.09528 cumulative IPC: 1.557 (Simulation time: 00 hr 59 min 30 sec)
Heartbeat CPU 0 instructions: 530000004 cycles: 395298365 heartbeat IPC: 0.1242 cumulative IPC: 1.255 (Simulation time: 01 hr 09 min 31 sec)
Heartbeat CPU 0 instructions: 540000000 cycles: 422906715 heartbeat IPC: 0.3622 cumulative IPC: 1.195 (Simulation time: 01 hr 13 min 20 sec)
Heartbeat CPU 0 instructions: 550000002 cycles: 450514223 heartbeat IPC: 0.3622 cumulative IPC: 1.143 (Simulation time: 01 hr 17 min 10 sec)
Heartbeat CPU 0 instructions: 560000004 cycles: 478197615 heartbeat IPC: 0.3612 cumulative IPC: 1.096 (Simulation time: 01 hr 20 min 58 sec)
Heartbeat CPU 0 instructions: 570000000 cycles: 506473312 heartbeat IPC: 0.3537 cumulative IPC: 1.054 (Simulation time: 01 hr 24 min 59 sec)
Heartbeat CPU 0 instructions: 580000003 cycles: 535465428 heartbeat IPC: 0.3449 cumulative IPC: 1.014 (Simulation time: 01 hr 29 min 21 sec)
Heartbeat CPU 0 instructions: 590000000 cycles: 565113291 heartbeat IPC: 0.3373 cumulative IPC: 0.9778 (Simulation time: 01 hr 33 min 48 sec)
*** Reached end of trace: (0, "traces/sp.A.champsimtrace")
Heartbeat CPU 0 instructions: 600000001 cycles: 594804825 heartbeat IPC: 0.3368 cumulative IPC: 0.9451 (Simulation time: 01 hr 38 min 12 sec)
Heartbeat CPU 0 instructions: 610000000 cycles: 620758459 heartbeat IPC: 0.3853 cumulative IPC: 0.9212 (Simulation time: 01 hr 41 min 21 sec)
Heartbeat CPU 0 instructions: 620000003 cycles: 625119544 heartbeat IPC: 2.293 cumulative IPC: 0.931 (Simulation time: 01 hr 42 min 24 sec)
Heartbeat CPU 0 instructions: 630000002 cycles: 629505966 heartbeat IPC: 2.28 cumulative IPC: 0.9406 (Simulation time: 01 hr 43 min 26 sec)
Heartbeat CPU 0 instructions: 640000004 cycles: 633880906 heartbeat IPC: 2.286 cumulative IPC: 0.9501 (Simulation time: 01 hr 44 min 29 sec)
Heartbeat CPU 0 instructions: 650000001 cycles: 638280817 heartbeat IPC: 2.273 cumulative IPC: 0.9594 (Simulation time: 01 hr 45 min 36 sec)
Simulation finished CPU 0 instructions: 600000001 cycles: 625399762 cumulative IPC: 0.9594 (Simulation time: 01 hr 45 min 36 sec)
Simulation complete CPU 0 instructions: 600000001 cycles: 625399762 cumulative IPC: 0.9594 (Simulation time: 01 hr 45 min 36 sec)

ChampSim completed all CPUs

=== Simulation ===
CPU 0 runs traces/sp.A.champsimtrace
Region of Interest Statistics

CPU 0 cumulative IPC: 0.9594 instructions: 600000001 cycles: 625399762
CPU 0 Branch Prediction Accuracy: 99.98% MPKI: 0.003913 Average ROB Occupancy at Mispredict: 105.9
Branch type MPKI
BRANCH_DIRECT_JUMP: 5e-06
BRANCH_INDIRECT: 7.5e-05
BRANCH_CONDITIONAL: 0.00374
BRANCH_DIRECT_CALL: 2e-05
BRANCH_INDIRECT_CALL: 3.17e-05
BRANCH_RETURN: 3.67e-05

LLC TOTAL        ACCESS:    7581659 HIT:    3800611 MISS:    3781048
LLC LOAD         ACCESS:    2304929 HIT:    1195782 MISS:    1109147
LLC RFO          ACCESS:     922633 HIT:      10394 MISS:     912239
LLC PREFETCH     ACCESS:    2304929 HIT:     547086 MISS:    1757843
LLC WRITE        ACCESS:    2045701 HIT:    2045579 MISS:        122
LLC TRANSLATION  ACCESS:       3467 HIT:       1770 MISS:       1697
LLC PREFETCH REQUESTED:    2304929 ISSUED:    2304929 USEFUL:    1491137 USELESS:      25936
LLC AVERAGE MISS LATENCY: 1185 cycles
cpu0_DTLB TOTAL        ACCESS:  129531173 HIT:  128535284 MISS:     995889
cpu0_DTLB LOAD         ACCESS:  129531173 HIT:  128535284 MISS:     995889
cpu0_DTLB RFO          ACCESS:          0 HIT:          0 MISS:          0
cpu0_DTLB PREFETCH     ACCESS:          0 HIT:          0 MISS:          0
cpu0_DTLB WRITE        ACCESS:          0 HIT:          0 MISS:          0
cpu0_DTLB TRANSLATION  ACCESS:          0 HIT:          0 MISS:          0
cpu0_DTLB PREFETCH REQUESTED:          0 ISSUED:          0 USEFUL:          0 USELESS:          0
cpu0_DTLB AVERAGE MISS LATENCY: 14.67 cycles
cpu0_ITLB TOTAL        ACCESS:     237185 HIT:     236932 MISS:        253
cpu0_ITLB LOAD         ACCESS:     237185 HIT:     236932 MISS:        253
cpu0_ITLB RFO          ACCESS:          0 HIT:          0 MISS:          0
cpu0_ITLB PREFETCH     ACCESS:          0 HIT:          0 MISS:          0
cpu0_ITLB WRITE        ACCESS:          0 HIT:          0 MISS:          0
cpu0_ITLB TRANSLATION  ACCESS:          0 HIT:          0 MISS:          0
cpu0_ITLB PREFETCH REQUESTED:          0 ISSUED:          0 USEFUL:          0 USELESS:          0
cpu0_ITLB AVERAGE MISS LATENCY: 298 cycles
cpu0_L1D TOTAL        ACCESS:  196618838 HIT:  182673119 MISS:   13945719
cpu0_L1D LOAD         ACCESS:  161376636 HIT:  151647259 MISS:    9729377
cpu0_L1D RFO          ACCESS:          0 HIT:          0 MISS:          0
cpu0_L1D PREFETCH     ACCESS:          0 HIT:          0 MISS:          0
cpu0_L1D WRITE        ACCESS:   35194324 HIT:   30996294 MISS:    4198030
cpu0_L1D TRANSLATION  ACCESS:      47878 HIT:      29566 MISS:      18312
cpu0_L1D PREFETCH REQUESTED:          0 ISSUED:          0 USEFUL:          0 USELESS:          0
cpu0_L1D AVERAGE MISS LATENCY: 153.7 cycles
cpu0_L1I TOTAL        ACCESS:     246444 HIT:     243464 MISS:       2980
cpu0_L1I LOAD         ACCESS:     246444 HIT:     243464 MISS:       2980
cpu0_L1I RFO          ACCESS:          0 HIT:          0 MISS:          0
cpu0_L1I PREFETCH     ACCESS:          0 HIT:          0 MISS:          0
cpu0_L1I WRITE        ACCESS:          0 HIT:          0 MISS:          0
cpu0_L1I TRANSLATION  ACCESS:          0 HIT:          0 MISS:          0
cpu0_L1I PREFETCH REQUESTED:          0 ISSUED:          0 USEFUL:          0 USELESS:          0
cpu0_L1I AVERAGE MISS LATENCY: 412.5 cycles
cpu0_L2C TOTAL        ACCESS:    5429694 HIT:    2198121 MISS:    3231573
cpu0_L2C LOAD         ACCESS:    2431505 HIT:     126402 MISS:    2305103
cpu0_L2C RFO          ACCESS:     923511 HIT:        878 MISS:     922633
cpu0_L2C PREFETCH     ACCESS:          0 HIT:          0 MISS:          0
cpu0_L2C WRITE        ACCESS:    2056369 HIT:    2055999 MISS:        370
cpu0_L2C TRANSLATION  ACCESS:      18309 HIT:      14842 MISS:       3467
cpu0_L2C PREFETCH REQUESTED:          0 ISSUED:          0 USEFUL:          0 USELESS:          0
cpu0_L2C AVERAGE MISS LATENCY: 902.4 cycles
cpu0_STLB TOTAL        ACCESS:     750293 HIT:     702445 MISS:      47848
cpu0_STLB LOAD         ACCESS:     750293 HIT:     702445 MISS:      47848
cpu0_STLB RFO          ACCESS:          0 HIT:          0 MISS:          0
cpu0_STLB PREFETCH     ACCESS:          0 HIT:          0 MISS:          0
cpu0_STLB WRITE        ACCESS:          0 HIT:          0 MISS:          0
cpu0_STLB TRANSLATION  ACCESS:          0 HIT:          0 MISS:          0
cpu0_STLB PREFETCH REQUESTED:          0 ISSUED:          0 USEFUL:          0 USELESS:          0
cpu0_STLB AVERAGE MISS LATENCY: 285.9 cycles

DRAM Statistics

Channel 0 RQ ROW_BUFFER_HIT:     758047
  ROW_BUFFER_MISS:    1945697
 AVG DBUS CONGESTED CYCLE: 3.979
WQ ROW_BUFFER_HIT: Channel 0 
  ROW_BUFFER_MISS:     451113
  FULL:    1299807
