WARNING: physical memory size is smaller than virtual memory size.

*** ChampSim Multicore Out-of-Order Simulator ***
Warmup Instructions: 50000000
Simulation Instructions: 600000000
Number of CPUs: 1
Page size: 4096

Off-chip DRAM Size: 4 GiB Channels: 1 Width: 64-bit Data Race: 3200 MT/s
Heartbeat CPU 0 instructions: 10000000 cycles: 2881055 heartbeat IPC: 3.471 cumulative IPC: 3.471 (Simulation time: 00 hr 00 min 33 sec)
Heartbeat CPU 0 instructions: 20000000 cycles: 5381055 heartbeat IPC: 4 cumulative IPC: 3.717 (Simulation time: 00 hr 01 min 05 sec)
Heartbeat CPU 0 instructions: 30000000 cycles: 7881055 heartbeat IPC: 4 cumulative IPC: 3.807 (Simulation time: 00 hr 01 min 38 sec)
Heartbeat CPU 0 instructions: 40000000 cycles: 10381055 heartbeat IPC: 4 cumulative IPC: 3.853 (Simulation time: 00 hr 02 min 11 sec)
Heartbeat CPU 0 instructions: 50000000 cycles: 12881055 heartbeat IPC: 4 cumulative IPC: 3.882 (Simulation time: 00 hr 02 min 44 sec)
Warmup finished CPU 0 instructions: 50000000 cycles: 12881056 cumulative IPC: 3.882 (Simulation time: 00 hr 02 min 44 sec)
Warmup complete CPU 0 instructions: 50000000 cycles: 12881056 cumulative IPC: 3.882 (Simulation time: 00 hr 02 min 44 sec)
Heartbeat CPU 0 instructions: 60000000 cycles: 19012721 heartbeat IPC: 1.631 cumulative IPC: 1.631 (Simulation time: 00 hr 03 min 50 sec)
Heartbeat CPU 0 instructions: 70000000 cycles: 25149113 heartbeat IPC: 1.63 cumulative IPC: 1.63 (Simulation time: 00 hr 05 min 00 sec)
Heartbeat CPU 0 instructions: 80000001 cycles: 31315295 heartbeat IPC: 1.622 cumulative IPC: 1.627 (Simulation time: 00 hr 06 min 06 sec)
Heartbeat CPU 0 instructions: 90000003 cycles: 37453492 heartbeat IPC: 1.629 cumulative IPC: 1.628 (Simulation time: 00 hr 07 min 09 sec)
Heartbeat CPU 0 instructions: 100000000 cycles: 43970510 heartbeat IPC: 1.534 cumulative IPC: 1.608 (Simulation time: 00 hr 08 min 15 sec)
Heartbeat CPU 0 instructions: 110000001 cycles: 50707089 heartbeat IPC: 1.484 cumulative IPC: 1.586 (Simulation time: 00 hr 09 min 22 sec)
Heartbeat CPU 0 instructions: 120000001 cycles: 57504604 heartbeat IPC: 1.471 cumulative IPC: 1.569 (Simulation time: 00 hr 10 min 29 sec)
Heartbeat CPU 0 instructions: 130000002 cycles: 64237902 heartbeat IPC: 1.485 cumulative IPC: 1.558 (Simulation time: 00 hr 11 min 37 sec)
Heartbeat CPU 0 instructions: 140000004 cycles: 70979605 heartbeat IPC: 1.483 cumulative IPC: 1.549 (Simulation time: 00 hr 12 min 47 sec)
Heartbeat CPU 0 instructions: 150000000 cycles: 77686939 heartbeat IPC: 1.491 cumulative IPC: 1.543 (Simulation time: 00 hr 13 min 56 sec)
Heartbeat CPU 0 instructions: 160000001 cycles: 84362385 heartbeat IPC: 1.498 cumulative IPC: 1.539 (Simulation time: 00 hr 15 min 06 sec)
Heartbeat CPU 0 instructions: 170000001 cycles: 91091455 heartbeat IPC: 1.486 cumulative IPC: 1.534 (Simulation time: 00 hr 16 min 17 sec)
Heartbeat CPU 0 instructions: 180000002 cycles: 97794797 heartbeat IPC: 1.492 cumulative IPC: 1.531 (Simulation time: 00 hr 17 min 26 sec)
Heartbeat CPU 0 instructions: 190000002 cycles: 103929021 heartbeat IPC: 1.63 cumulative IPC: 1.538 (Simulation time: 00 hr 18 min 34 sec)
Heartbeat CPU 0 instructions: 200000000 cycles: 108885254 heartbeat IPC: 2.018 cumulative IPC: 1.562 (Simulation time: 00 hr 19 min 31 sec)
Heartbeat CPU 0 instructions: 210000001 cycles: 114118934 heartbeat IPC: 1.911 cumulative IPC: 1.58 (Simulation time: 00 hr 20 min 30 sec)
Heartbeat CPU 0 instructions: 220000001 cycles: 119762194 heartbeat IPC: 1.772 cumulative IPC: 1.591 (Simulation time: 00 hr 21 min 33 sec)
Heartbeat CPU 0 instructions: 230000004 cycles: 126146768 heartbeat IPC: 1.566 cumulative IPC: 1.589 (Simulation time: 00 hr 22 min 41 sec)
Heartbeat CPU 0 instructions: 240000003 cycles: 133065922 heartbeat IPC: 1.445 cumulative IPC: 1.581 (Simulation time: 00 hr 23 min 54 sec)
Heartbeat CPU 0 instructions: 250000002 cycles: 139987705 heartbeat IPC: 1.445 cumulative IPC: 1.573 (Simulation time: 00 hr 25 min 08 sec)
Heartbeat CPU 0 instructions: 260000002 cycles: 146955974 heartbeat IPC: 1.435 cumulative IPC: 1.566 (Simulation time: 00 hr 26 min 20 sec)
Heartbeat CPU 0 instructions: 270000003 cycles: 153835294 heartbeat IPC: 1.454 cumulative IPC: 1.561 (Simulation time: 00 hr 27 min 34 sec)
Heartbeat CPU 0 instructions: 280000000 cycles: 160779984 heartbeat IPC: 1.44 cumulative IPC: 1.555 (Simulation time: 00 hr 28 min 48 sec)
Heartbeat CPU 0 instructions: 290000001 cycles: 215393231 heartbeat IPC: 0.1831 cumulative IPC: 1.185 (Simulation time: 00 hr 35 min 19 sec)
Heartbeat CPU 0 instructions: 300000002 cycles: 217895620 heartbeat IPC: 3.996 cumulative IPC: 1.219 (Simulation time: 00 hr 36 min 00 sec)
Heartbeat CPU 0 instructions: 310000001 cycles: 220397995 heartbeat IPC: 3.996 cumulative IPC: 1.253 (Simulation time: 00 hr 36 min 39 sec)
Heartbeat CPU 0 instructions: 320000001 cycles: 222900424 heartbeat IPC: 3.996 cumulative IPC: 1.286 (Simulation time: 00 hr 37 min 19 sec)
Heartbeat CPU 0 instructions: 330000003 cycles: 225402761 heartbeat IPC: 3.996 cumulative IPC: 1.318 (Simulation time: 00 hr 38 min 00 sec)
Heartbeat CPU 0 instructions: 340000000 cycles: 227905147 heartbeat IPC: 3.996 cumulative IPC: 1.349 (Simulation time: 00 hr 38 min 40 sec)
Heartbeat CPU 0 instructions: 350000004 cycles: 230407535 heartbeat IPC: 3.996 cumulative IPC: 1.379 (Simulation time: 00 hr 39 min 21 sec)
Heartbeat CPU 0 instructions: 360000004 cycles: 232909925 heartbeat IPC: 3.996 cumulative IPC: 1.409 (Simulation time: 00 hr 40 min 01 sec)
Heartbeat CPU 0 instructions: 370000000 cycles: 235413016 heartbeat IPC: 3.995 cumulative IPC: 1.438 (Simulation time: 00 hr 40 min 42 sec)
Heartbeat CPU 0 instructions: 380000004 cycles: 237915756 heartbeat IPC: 3.996 cumulative IPC: 1.466 (Simulation time: 00 hr 41 min 21 sec)
Heartbeat CPU 0 instructions: 390000001 cycles: 240418145 heartbeat IPC: 3.996 cumulative IPC: 1.494 (Simulation time: 00 hr 42 min 00 sec)
Heartbeat CPU 0 instructions: 400000003 cycles: 242920524 heartbeat IPC: 3.996 cumulative IPC: 1.521 (Simulation time: 00 hr 42 min 40 sec)
Heartbeat CPU 0 instructions: 410000003 cycles: 245422953 heartbeat IPC: 3.996 cumulative IPC: 1.548 (Simulation time: 00 hr 43 min 19 sec)
Heartbeat CPU 0 instructions: 420000002 cycles: 247925343 heartbeat IPC: 3.996 cumulative IPC: 1.574 (Simulation time: 00 hr 43 min 58 sec)
Heartbeat CPU 0 instructions: 430000000 cycles: 250427818 heartbeat IPC: 3.996 cumulative IPC: 1.6 (Simulation time: 00 hr 44 min 37 sec)
Heartbeat CPU 0 instructions: 440000001 cycles: 252930205 heartbeat IPC: 3.996 cumulative IPC: 1.625 (Simulation time: 00 hr 45 min 17 sec)
Heartbeat CPU 0 instructions: 450000000 cycles: 255432580 heartbeat IPC: 3.996 cumulative IPC: 1.649 (Simulation time: 00 hr 45 min 57 sec)
Heartbeat CPU 0 instructions: 460000003 cycles: 257934916 heartbeat IPC: 3.996 cumulative IPC: 1.673 (Simulation time: 00 hr 46 min 37 sec)
Heartbeat CPU 0 instructions: 470000001 cycles: 260437306 heartbeat IPC: 3.996 cumulative IPC: 1.697 (Simulation time: 00 hr 47 min 17 sec)
Heartbeat CPU 0 instructions: 480000003 cycles: 262939693 heartbeat IPC: 3.996 cumulative IPC: 1.72 (Simulation time: 00 hr 47 min 58 sec)
Heartbeat CPU 0 instructions: 490000003 cycles: 265442081 heartbeat IPC: 3.996 cumulative IPC: 1.742 (Simulation time: 00 hr 48 min 38 sec)
Heartbeat CPU 0 instructions: 500000002 cycles: 267944469 heartbeat IPC: 3.996 cumulative IPC: 1.764 (Simulation time: 00 hr 49 min 19 sec)
Heartbeat CPU 0 instructions: 510000003 cycles: 273223950 heartbeat IPC: 1.894 cumulative IPC: 1.767 (Simulation time: 00 hr 50 min 21 sec)
Heartbeat CPU 0 instructions: 520000001 cycles: 379793927 heartbeat IPC: 0.09384 cumulative IPC: 1.281 (Simulation time: 01 hr 04 min 20 sec)
Heartbeat CPU 0 instructions: 530000004 cycles: 459135937 heartbeat IPC: 0.126 cumulative IPC: 1.076 (Simulation time: 01 hr 14 min 54 sec)
Heartbeat CPU 0 instructions: 540000000 cycles: 488134942 heartbeat IPC: 0.3448 cumulative IPC: 1.031 (Simulation time: 01 hr 19 min 07 sec)
Heartbeat CPU 0 instructions: 550000002 cycles: 517137080 heartbeat IPC: 0.3448 cumulative IPC: 0.9916 (Simulation time: 01 hr 23 min 23 sec)
Heartbeat CPU 0 instructions: 560000004 cycles: 546223526 heartbeat IPC: 0.3438 cumulative IPC: 0.9562 (Simulation time: 01 hr 27 min 37 sec)
Heartbeat CPU 0 instructions: 570000000 cycles: 575729673 heartbeat IPC: 0.3389 cumulative IPC: 0.9239 (Simulation time: 01 hr 31 min 56 sec)
Heartbeat CPU 0 instructions: 580000001 cycles: 605607697 heartbeat IPC: 0.3347 cumulative IPC: 0.8942 (Simulation time: 01 hr 36 min 18 sec)
Heartbeat CPU 0 instructions: 590000004 cycles: 636328835 heartbeat IPC: 0.3255 cumulative IPC: 0.8662 (Simulation time: 01 hr 40 min 54 sec)
*** Reached end of trace: (0, "traces/sp.A.champsimtrace")
Heartbeat CPU 0 instructions: 600000002 cycles: 667150250 heartbeat IPC: 0.3244 cumulative IPC: 0.8406 (Simulation time: 01 hr 45 min 31 sec)
Heartbeat CPU 0 instructions: 610000000 cycles: 695256109 heartbeat IPC: 0.3558 cumulative IPC: 0.8207 (Simulation time: 01 hr 48 min 42 sec)
Heartbeat CPU 0 instructions: 620000001 cycles: 701363083 heartbeat IPC: 1.637 cumulative IPC: 0.8279 (Simulation time: 01 hr 49 min 51 sec)
Heartbeat CPU 0 instructions: 630000003 cycles: 707464289 heartbeat IPC: 1.639 cumulative IPC: 0.835 (Simulation time: 01 hr 51 min 01 sec)
Heartbeat CPU 0 instructions: 640000004 cycles: 713617400 heartbeat IPC: 1.625 cumulative IPC: 0.842 (Simulation time: 01 hr 52 min 13 sec)
Heartbeat CPU 0 instructions: 650000001 cycles: 719738711 heartbeat IPC: 1.634 cumulative IPC: 0.8488 (Simulation time: 01 hr 53 min 27 sec)
Simulation finished CPU 0 instructions: 600000001 cycles: 706857656 cumulative IPC: 0.8488 (Simulation time: 01 hr 53 min 27 sec)
Simulation complete CPU 0 instructions: 600000001 cycles: 706857656 cumulative IPC: 0.8488 (Simulation time: 01 hr 53 min 27 sec)

ChampSim completed all CPUs

=== Simulation ===
CPU 0 runs traces/sp.A.champsimtrace
Region of Interest Statistics

CPU 0 cumulative IPC: 0.8488 instructions: 600000001 cycles: 706857656
CPU 0 Branch Prediction Accuracy: 98.91% MPKI: 0.226 Average ROB Occupancy at Mispredict: 235.3
Branch type MPKI
BRANCH_DIRECT_JUMP: 5e-06
BRANCH_INDIRECT: 7.5e-05
BRANCH_CONDITIONAL: 0.226
BRANCH_DIRECT_CALL: 2e-05
BRANCH_INDIRECT_CALL: 3.17e-05
BRANCH_RETURN: 3.67e-05

LLC TOTAL        ACCESS:    5276122 HIT:    2599956 MISS:    2676166
LLC LOAD         ACCESS:    2304672 HIT:     542607 MISS:    1762065
LLC RFO          ACCESS:     922634 HIT:      10376 MISS:     912258
LLC PREFETCH     ACCESS:          0 HIT:          0 MISS:          0
LLC WRITE        ACCESS:    2045326 HIT:    2045196 MISS:        130
LLC TRANSLATION  ACCESS:       3490 HIT:       1777 MISS:       1713
LLC PREFETCH REQUESTED:          0 ISSUED:          0 USEFUL:          0 USELESS:          0
LLC AVERAGE MISS LATENCY: 1251 cycles
cpu0_DTLB TOTAL        ACCESS:  126129511 HIT:  125305752 MISS:     823759
cpu0_DTLB LOAD         ACCESS:  126129511 HIT:  125305752 MISS:     823759
cpu0_DTLB RFO          ACCESS:          0 HIT:          0 MISS:          0
cpu0_DTLB PREFETCH     ACCESS:          0 HIT:          0 MISS:          0
cpu0_DTLB WRITE        ACCESS:          0 HIT:          0 MISS:          0
cpu0_DTLB TRANSLATION  ACCESS:          0 HIT:          0 MISS:          0
cpu0_DTLB PREFETCH REQUESTED:          0 ISSUED:          0 USEFUL:          0 USELESS:          0
cpu0_DTLB AVERAGE MISS LATENCY: 17.45 cycles
cpu0_ITLB TOTAL        ACCESS:     218130 HIT:     217894 MISS:        236
cpu0_ITLB LOAD         ACCESS:     218130 HIT:     217894 MISS:        236
cpu0_ITLB RFO          ACCESS:          0 HIT:          0 MISS:          0
cpu0_ITLB PREFETCH     ACCESS:          0 HIT:          0 MISS:          0
cpu0_ITLB WRITE        ACCESS:          0 HIT:          0 MISS:          0
cpu0_ITLB TRANSLATION  ACCESS:          0 HIT:          0 MISS:          0
cpu0_ITLB PREFETCH REQUESTED:          0 ISSUED:          0 USEFUL:          0 USELESS:          0
cpu0_ITLB AVERAGE MISS LATENCY: 305.7 cycles
cpu0_L1D TOTAL        ACCESS:  191550850 HIT:  177038746 MISS:   14512104
cpu0_L1D LOAD         ACCESS:  156308629 HIT:  145924379 MISS:   10384250
cpu0_L1D RFO          ACCESS:          0 HIT:          0 MISS:          0
cpu0_L1D PREFETCH     ACCESS:          0 HIT:          0 MISS:          0
cpu0_L1D WRITE        ACCESS:   35194340 HIT:   31084805 MISS:    4109535
cpu0_L1D TRANSLATION  ACCESS:      47881 HIT:      29562 MISS:      18319
cpu0_L1D PREFETCH REQUESTED:          0 ISSUED:          0 USEFUL:          0 USELESS:          0
cpu0_L1D AVERAGE MISS LATENCY: 168.2 cycles
cpu0_L1I TOTAL        ACCESS:     225635 HIT:     222836 MISS:       2799
cpu0_L1I LOAD         ACCESS:     225635 HIT:     222836 MISS:       2799
cpu0_L1I RFO          ACCESS:          0 HIT:          0 MISS:          0
cpu0_L1I PREFETCH     ACCESS:          0 HIT:          0 MISS:          0
cpu0_L1I WRITE        ACCESS:          0 HIT:          0 MISS:          0
cpu0_L1I TRANSLATION  ACCESS:          0 HIT:          0 MISS:          0
cpu0_L1I PREFETCH REQUESTED:          0 ISSUED:          0 USEFUL:          0 USELESS:          0
cpu0_L1I AVERAGE MISS LATENCY: 493.4 cycles
cpu0_L2C TOTAL        ACCESS:    5442792 HIT:    2211520 MISS:    3231272
cpu0_L2C LOAD         ACCESS:    2445224 HIT:     140449 MISS:    2304775
cpu0_L2C RFO          ACCESS:     923194 HIT:        560 MISS:     922634
cpu0_L2C PREFETCH     ACCESS:          0 HIT:          0 MISS:          0
cpu0_L2C WRITE        ACCESS:    2056057 HIT:    2055684 MISS:        373
cpu0_L2C TRANSLATION  ACCESS:      18317 HIT:      14827 MISS:       3490
cpu0_L2C PREFETCH REQUESTED:          0 ISSUED:          0 USEFUL:          0 USELESS:          0
cpu0_L2C AVERAGE MISS LATENCY: 1057 cycles
cpu0_STLB TOTAL        ACCESS:     570814 HIT:     522963 MISS:      47851
cpu0_STLB LOAD         ACCESS:     570814 HIT:     522963 MISS:      47851
cpu0_STLB RFO          ACCESS:          0 HIT:          0 MISS:          0
cpu0_STLB PREFETCH     ACCESS:          0 HIT:          0 MISS:          0
cpu0_STLB WRITE        ACCESS:          0 HIT:          0 MISS:          0
cpu0_STLB TRANSLATION  ACCESS:          0 HIT:          0 MISS:          0
cpu0_STLB PREFETCH REQUESTED:          0 ISSUED:          0 USEFUL:          0 USELESS:          0
cpu0_STLB AVERAGE MISS LATENCY: 287 cycles

DRAM Statistics

Channel 0 RQ ROW_BUFFER_HIT:     712604
  ROW_BUFFER_MISS:    1963432
 AVG DBUS CONGESTED CYCLE: 3.974
WQ ROW_BUFFER_HIT: Channel 0 
  ROW_BUFFER_MISS:     396684
  FULL:    1352468
