WARNING: physical memory size is smaller than virtual memory size.

*** ChampSim Multicore Out-of-Order Simulator ***
Warmup Instructions: 50000000
Simulation Instructions: 600000000
Number of CPUs: 1
Page size: 4096

Off-chip DRAM Size: 4 GiB Channels: 1 Width: 64-bit Data Race: 3200 MT/s
Heartbeat CPU 0 instructions: 10000000 cycles: 2881055 heartbeat IPC: 3.471 cumulative IPC: 3.471 (Simulation time: 00 hr 00 min 34 sec)
Heartbeat CPU 0 instructions: 20000000 cycles: 5381055 heartbeat IPC: 4 cumulative IPC: 3.717 (Simulation time: 00 hr 01 min 07 sec)
Heartbeat CPU 0 instructions: 30000000 cycles: 7881055 heartbeat IPC: 4 cumulative IPC: 3.807 (Simulation time: 00 hr 01 min 40 sec)
Heartbeat CPU 0 instructions: 40000000 cycles: 10381055 heartbeat IPC: 4 cumulative IPC: 3.853 (Simulation time: 00 hr 02 min 13 sec)
Heartbeat CPU 0 instructions: 50000000 cycles: 12881055 heartbeat IPC: 4 cumulative IPC: 3.882 (Simulation time: 00 hr 02 min 46 sec)
Warmup finished CPU 0 instructions: 50000000 cycles: 12881056 cumulative IPC: 3.882 (Simulation time: 00 hr 02 min 46 sec)
Warmup complete CPU 0 instructions: 50000000 cycles: 12881056 cumulative IPC: 3.882 (Simulation time: 00 hr 02 min 46 sec)
Heartbeat CPU 0 instructions: 60000000 cycles: 19012721 heartbeat IPC: 1.631 cumulative IPC: 1.631 (Simulation time: 00 hr 03 min 51 sec)
Heartbeat CPU 0 instructions: 70000000 cycles: 25149113 heartbeat IPC: 1.63 cumulative IPC: 1.63 (Simulation time: 00 hr 04 min 56 sec)
Heartbeat CPU 0 instructions: 80000001 cycles: 31315295 heartbeat IPC: 1.622 cumulative IPC: 1.627 (Simulation time: 00 hr 06 min 03 sec)
Heartbeat CPU 0 instructions: 90000003 cycles: 37453492 heartbeat IPC: 1.629 cumulative IPC: 1.628 (Simulation time: 00 hr 07 min 08 sec)
Heartbeat CPU 0 instructions: 100000000 cycles: 44003760 heartbeat IPC: 1.527 cumulative IPC: 1.607 (Simulation time: 00 hr 08 min 16 sec)
Heartbeat CPU 0 instructions: 110000001 cycles: 50740339 heartbeat IPC: 1.484 cumulative IPC: 1.585 (Simulation time: 00 hr 09 min 25 sec)
Heartbeat CPU 0 instructions: 120000001 cycles: 57537854 heartbeat IPC: 1.471 cumulative IPC: 1.568 (Simulation time: 00 hr 10 min 34 sec)
Heartbeat CPU 0 instructions: 130000002 cycles: 64271152 heartbeat IPC: 1.485 cumulative IPC: 1.557 (Simulation time: 00 hr 11 min 43 sec)
Heartbeat CPU 0 instructions: 140000004 cycles: 71012855 heartbeat IPC: 1.483 cumulative IPC: 1.548 (Simulation time: 00 hr 12 min 53 sec)
Heartbeat CPU 0 instructions: 150000000 cycles: 77720189 heartbeat IPC: 1.491 cumulative IPC: 1.542 (Simulation time: 00 hr 14 min 02 sec)
Heartbeat CPU 0 instructions: 160000001 cycles: 84395635 heartbeat IPC: 1.498 cumulative IPC: 1.538 (Simulation time: 00 hr 15 min 12 sec)
Heartbeat CPU 0 instructions: 170000001 cycles: 91124705 heartbeat IPC: 1.486 cumulative IPC: 1.534 (Simulation time: 00 hr 16 min 23 sec)
Heartbeat CPU 0 instructions: 180000002 cycles: 97828047 heartbeat IPC: 1.492 cumulative IPC: 1.53 (Simulation time: 00 hr 17 min 36 sec)
Heartbeat CPU 0 instructions: 190000002 cycles: 103962266 heartbeat IPC: 1.63 cumulative IPC: 1.537 (Simulation time: 00 hr 18 min 47 sec)
Heartbeat CPU 0 instructions: 200000000 cycles: 108918499 heartbeat IPC: 2.018 cumulative IPC: 1.562 (Simulation time: 00 hr 19 min 49 sec)
Heartbeat CPU 0 instructions: 210000001 cycles: 114152179 heartbeat IPC: 1.911 cumulative IPC: 1.58 (Simulation time: 00 hr 20 min 53 sec)
Heartbeat CPU 0 instructions: 220000001 cycles: 119795439 heartbeat IPC: 1.772 cumulative IPC: 1.59 (Simulation time: 00 hr 22 min 05 sec)
Heartbeat CPU 0 instructions: 230000004 cycles: 126180013 heartbeat IPC: 1.566 cumulative IPC: 1.589 (Simulation time: 00 hr 23 min 17 sec)
Heartbeat CPU 0 instructions: 240000003 cycles: 133099167 heartbeat IPC: 1.445 cumulative IPC: 1.58 (Simulation time: 00 hr 24 min 33 sec)
Heartbeat CPU 0 instructions: 250000002 cycles: 140020950 heartbeat IPC: 1.445 cumulative IPC: 1.573 (Simulation time: 00 hr 25 min 48 sec)
Heartbeat CPU 0 instructions: 260000002 cycles: 146989219 heartbeat IPC: 1.435 cumulative IPC: 1.566 (Simulation time: 00 hr 27 min 05 sec)
Heartbeat CPU 0 instructions: 270000003 cycles: 153868539 heartbeat IPC: 1.454 cumulative IPC: 1.56 (Simulation time: 00 hr 28 min 24 sec)
Heartbeat CPU 0 instructions: 280000000 cycles: 160813229 heartbeat IPC: 1.44 cumulative IPC: 1.555 (Simulation time: 00 hr 29 min 40 sec)
Heartbeat CPU 0 instructions: 290000001 cycles: 215432283 heartbeat IPC: 0.1831 cumulative IPC: 1.185 (Simulation time: 00 hr 36 min 02 sec)
Heartbeat CPU 0 instructions: 300000002 cycles: 217937386 heartbeat IPC: 3.992 cumulative IPC: 1.219 (Simulation time: 00 hr 36 min 42 sec)
Heartbeat CPU 0 instructions: 310000001 cycles: 220442430 heartbeat IPC: 3.992 cumulative IPC: 1.253 (Simulation time: 00 hr 37 min 23 sec)
Heartbeat CPU 0 instructions: 320000000 cycles: 222947544 heartbeat IPC: 3.992 cumulative IPC: 1.285 (Simulation time: 00 hr 38 min 02 sec)
Heartbeat CPU 0 instructions: 330000003 cycles: 225452582 heartbeat IPC: 3.992 cumulative IPC: 1.317 (Simulation time: 00 hr 38 min 43 sec)
Heartbeat CPU 0 instructions: 340000000 cycles: 227957652 heartbeat IPC: 3.992 cumulative IPC: 1.348 (Simulation time: 00 hr 39 min 22 sec)
Heartbeat CPU 0 instructions: 350000004 cycles: 230462727 heartbeat IPC: 3.992 cumulative IPC: 1.379 (Simulation time: 00 hr 40 min 01 sec)
Heartbeat CPU 0 instructions: 360000004 cycles: 232967802 heartbeat IPC: 3.992 cumulative IPC: 1.409 (Simulation time: 00 hr 40 min 40 sec)
Heartbeat CPU 0 instructions: 370000000 cycles: 235473579 heartbeat IPC: 3.991 cumulative IPC: 1.438 (Simulation time: 00 hr 41 min 20 sec)
Heartbeat CPU 0 instructions: 380000004 cycles: 237978990 heartbeat IPC: 3.991 cumulative IPC: 1.466 (Simulation time: 00 hr 41 min 59 sec)
Heartbeat CPU 0 instructions: 390000001 cycles: 240484061 heartbeat IPC: 3.992 cumulative IPC: 1.494 (Simulation time: 00 hr 42 min 38 sec)
Heartbeat CPU 0 instructions: 400000003 cycles: 242989139 heartbeat IPC: 3.992 cumulative IPC: 1.521 (Simulation time: 00 hr 43 min 17 sec)
Heartbeat CPU 0 instructions: 410000003 cycles: 245494254 heartbeat IPC: 3.992 cumulative IPC: 1.548 (Simulation time: 00 hr 43 min 57 sec)
Heartbeat CPU 0 instructions: 420000002 cycles: 247999329 heartbeat IPC: 3.992 cumulative IPC: 1.574 (Simulation time: 00 hr 44 min 36 sec)
Heartbeat CPU 0 instructions: 430000000 cycles: 250504490 heartbeat IPC: 3.992 cumulative IPC: 1.599 (Simulation time: 00 hr 45 min 16 sec)
Heartbeat CPU 0 instructions: 440000001 cycles: 253009564 heartbeat IPC: 3.992 cumulative IPC: 1.624 (Simulation time: 00 hr 45 min 55 sec)
Heartbeat CPU 0 instructions: 450000000 cycles: 255514611 heartbeat IPC: 3.992 cumulative IPC: 1.649 (Simulation time: 00 hr 46 min 34 sec)
Heartbeat CPU 0 instructions: 460000003 cycles: 258019648 heartbeat IPC: 3.992 cumulative IPC: 1.673 (Simulation time: 00 hr 47 min 12 sec)
Heartbeat CPU 0 instructions: 470000001 cycles: 260524722 heartbeat IPC: 3.992 cumulative IPC: 1.696 (Simulation time: 00 hr 47 min 51 sec)
Heartbeat CPU 0 instructions: 480000003 cycles: 263029794 heartbeat IPC: 3.992 cumulative IPC: 1.719 (Simulation time: 00 hr 48 min 30 sec)
Heartbeat CPU 0 instructions: 490000003 cycles: 265534868 heartbeat IPC: 3.992 cumulative IPC: 1.742 (Simulation time: 00 hr 49 min 09 sec)
Heartbeat CPU 0 instructions: 500000002 cycles: 268039993 heartbeat IPC: 3.992 cumulative IPC: 1.764 (Simulation time: 00 hr 49 min 49 sec)
Heartbeat CPU 0 instructions: 510000003 cycles: 273339425 heartbeat IPC: 1.887 cumulative IPC: 1.766 (Simulation time: 00 hr 50 min 50 sec)
Heartbeat CPU 0 instructions: 520000001 cycles: 379870368 heartbeat IPC: 0.09387 cumulative IPC: 1.281 (Simulation time: 01 hr 04 min 39 sec)
Heartbeat CPU 0 instructions: 530000004 cycles: 459193361 heartbeat IPC: 0.1261 cumulative IPC: 1.075 (Simulation time: 01 hr 15 min 06 sec)
Heartbeat CPU 0 instructions: 540000000 cycles: 488197602 heartbeat IPC: 0.3448 cumulative IPC: 1.031 (Simulation time: 01 hr 19 min 19 sec)
Heartbeat CPU 0 instructions: 550000002 cycles: 517193795 heartbeat IPC: 0.3449 cumulative IPC: 0.9914 (Simulation time: 01 hr 23 min 32 sec)
Heartbeat CPU 0 instructions: 560000004 cycles: 546278006 heartbeat IPC: 0.3438 cumulative IPC: 0.9561 (Simulation time: 01 hr 27 min 45 sec)
Heartbeat CPU 0 instructions: 570000000 cycles: 575786748 heartbeat IPC: 0.3389 cumulative IPC: 0.9238 (Simulation time: 01 hr 32 min 05 sec)
Heartbeat CPU 0 instructions: 580000001 cycles: 605645842 heartbeat IPC: 0.3349 cumulative IPC: 0.8941 (Simulation time: 01 hr 36 min 24 sec)
Heartbeat CPU 0 instructions: 590000004 cycles: 636378714 heartbeat IPC: 0.3254 cumulative IPC: 0.8661 (Simulation time: 01 hr 40 min 57 sec)
*** Reached end of trace: (0, "traces/sp.A.champsimtrace")
Heartbeat CPU 0 instructions: 600000002 cycles: 667200120 heartbeat IPC: 0.3244 cumulative IPC: 0.8406 (Simulation time: 01 hr 45 min 25 sec)
Heartbeat CPU 0 instructions: 610000000 cycles: 695296244 heartbeat IPC: 0.3559 cumulative IPC: 0.8206 (Simulation time: 01 hr 48 min 35 sec)
Heartbeat CPU 0 instructions: 620000001 cycles: 701403018 heartbeat IPC: 1.638 cumulative IPC: 0.8279 (Simulation time: 01 hr 49 min 48 sec)
Heartbeat CPU 0 instructions: 630000003 cycles: 707505434 heartbeat IPC: 1.639 cumulative IPC: 0.835 (Simulation time: 01 hr 50 min 59 sec)
Heartbeat CPU 0 instructions: 640000004 cycles: 713659190 heartbeat IPC: 1.625 cumulative IPC: 0.8419 (Simulation time: 01 hr 52 min 11 sec)
Heartbeat CPU 0 instructions: 650000001 cycles: 719777316 heartbeat IPC: 1.634 cumulative IPC: 0.8488 (Simulation time: 01 hr 53 min 24 sec)
Simulation finished CPU 0 instructions: 600000001 cycles: 706896261 cumulative IPC: 0.8488 (Simulation time: 01 hr 53 min 24 sec)
Simulation complete CPU 0 instructions: 600000001 cycles: 706896261 cumulative IPC: 0.8488 (Simulation time: 01 hr 53 min 24 sec)

ChampSim completed all CPUs

=== Simulation ===
CPU 0 runs traces/sp.A.champsimtrace
Region of Interest Statistics

CPU 0 cumulative IPC: 0.8488 instructions: 600000001 cycles: 706896261
CPU 0 Branch Prediction Accuracy: 98.84% MPKI: 0.2406 Average ROB Occupancy at Mispredict: 223.9
Branch type MPKI
BRANCH_DIRECT_JUMP: 5e-06
BRANCH_INDIRECT: 7.5e-05
BRANCH_CONDITIONAL: 0.24
BRANCH_DIRECT_CALL: 2e-05
BRANCH_INDIRECT_CALL: 3.17e-05
BRANCH_RETURN: 3.67e-05

LLC TOTAL        ACCESS:    5276125 HIT:    2599961 MISS:    2676164
LLC LOAD         ACCESS:    2304676 HIT:     542609 MISS:    1762067
LLC RFO          ACCESS:     922635 HIT:      10377 MISS:     912258
LLC PREFETCH     ACCESS:          0 HIT:          0 MISS:          0
LLC WRITE        ACCESS:    2045328 HIT:    2045198 MISS:        130
LLC TRANSLATION  ACCESS:       3486 HIT:       1777 MISS:       1709
LLC PREFETCH REQUESTED:          0 ISSUED:          0 USEFUL:          0 USELESS:          0
LLC AVERAGE MISS LATENCY: 1250 cycles
cpu0_DTLB TOTAL        ACCESS:  126066497 HIT:  125242467 MISS:     824030
cpu0_DTLB LOAD         ACCESS:  126066497 HIT:  125242467 MISS:     824030
cpu0_DTLB RFO          ACCESS:          0 HIT:          0 MISS:          0
cpu0_DTLB PREFETCH     ACCESS:          0 HIT:          0 MISS:          0
cpu0_DTLB WRITE        ACCESS:          0 HIT:          0 MISS:          0
cpu0_DTLB TRANSLATION  ACCESS:          0 HIT:          0 MISS:          0
cpu0_DTLB PREFETCH REQUESTED:          0 ISSUED:          0 USEFUL:          0 USELESS:          0
cpu0_DTLB AVERAGE MISS LATENCY: 17.59 cycles
cpu0_ITLB TOTAL        ACCESS:     218166 HIT:     217944 MISS:        222
cpu0_ITLB LOAD         ACCESS:     218166 HIT:     217944 MISS:        222
cpu0_ITLB RFO          ACCESS:          0 HIT:          0 MISS:          0
cpu0_ITLB PREFETCH     ACCESS:          0 HIT:          0 MISS:          0
cpu0_ITLB WRITE        ACCESS:          0 HIT:          0 MISS:          0
cpu0_ITLB TRANSLATION  ACCESS:          0 HIT:          0 MISS:          0
cpu0_ITLB PREFETCH REQUESTED:          0 ISSUED:          0 USEFUL:          0 USELESS:          0
cpu0_ITLB AVERAGE MISS LATENCY: 297.5 cycles
cpu0_L1D TOTAL        ACCESS:  191541530 HIT:  177028303 MISS:   14513227
cpu0_L1D LOAD         ACCESS:  156299303 HIT:  145912673 MISS:   10386630
cpu0_L1D RFO          ACCESS:          0 HIT:          0 MISS:          0
cpu0_L1D PREFETCH     ACCESS:          0 HIT:          0 MISS:          0
cpu0_L1D WRITE        ACCESS:   35194347 HIT:   31086068 MISS:    4108279
cpu0_L1D TRANSLATION  ACCESS:      47880 HIT:      29562 MISS:      18318
cpu0_L1D PREFETCH REQUESTED:          0 ISSUED:          0 USEFUL:          0 USELESS:          0
cpu0_L1D AVERAGE MISS LATENCY: 168.2 cycles
cpu0_L1I TOTAL        ACCESS:     225714 HIT:     222918 MISS:       2796
cpu0_L1I LOAD         ACCESS:     225714 HIT:     222918 MISS:       2796
cpu0_L1I RFO          ACCESS:          0 HIT:          0 MISS:          0
cpu0_L1I PREFETCH     ACCESS:          0 HIT:          0 MISS:          0
cpu0_L1I WRITE        ACCESS:          0 HIT:          0 MISS:          0
cpu0_L1I TRANSLATION  ACCESS:          0 HIT:          0 MISS:          0
cpu0_L1I PREFETCH REQUESTED:          0 ISSUED:          0 USEFUL:          0 USELESS:          0
cpu0_L1I AVERAGE MISS LATENCY: 488.6 cycles
cpu0_L2C TOTAL        ACCESS:    5442792 HIT:    2211518 MISS:    3231274
cpu0_L2C LOAD         ACCESS:    2445219 HIT:     140439 MISS:    2304780
cpu0_L2C RFO          ACCESS:     923200 HIT:        565 MISS:     922635
cpu0_L2C PREFETCH     ACCESS:          0 HIT:          0 MISS:          0
cpu0_L2C WRITE        ACCESS:    2056057 HIT:    2055684 MISS:        373
cpu0_L2C TRANSLATION  ACCESS:      18316 HIT:      14830 MISS:       3486
cpu0_L2C PREFETCH REQUESTED:          0 ISSUED:          0 USEFUL:          0 USELESS:          0
cpu0_L2C AVERAGE MISS LATENCY: 1057 cycles
cpu0_STLB TOTAL        ACCESS:     570809 HIT:     522958 MISS:      47851
cpu0_STLB LOAD         ACCESS:     570809 HIT:     522958 MISS:      47851
cpu0_STLB RFO          ACCESS:          0 HIT:          0 MISS:          0
cpu0_STLB PREFETCH     ACCESS:          0 HIT:          0 MISS:          0
cpu0_STLB WRITE        ACCESS:          0 HIT:          0 MISS:          0
cpu0_STLB TRANSLATION  ACCESS:          0 HIT:          0 MISS:          0
cpu0_STLB PREFETCH REQUESTED:          0 ISSUED:          0 USEFUL:          0 USELESS:          0
cpu0_STLB AVERAGE MISS LATENCY: 288.7 cycles

DRAM Statistics

Channel 0 RQ ROW_BUFFER_HIT:     712495
  ROW_BUFFER_MISS:    1963539
 AVG DBUS CONGESTED CYCLE: 3.974
WQ ROW_BUFFER_HIT: Channel 0 
  ROW_BUFFER_MISS:     397348
  FULL:    1351800
