WARNING: physical memory size is smaller than virtual memory size.

*** ChampSim Multicore Out-of-Order Simulator ***
Warmup Instructions: 50000000
Simulation Instructions: 600000000
Number of CPUs: 1
Page size: 4096

Off-chip DRAM Size: 4 GiB Channels: 1 Width: 64-bit Data Race: 3200 MT/s
Heartbeat CPU 0 instructions: 10000000 cycles: 2881055 heartbeat IPC: 3.471 cumulative IPC: 3.471 (Simulation time: 00 hr 00 min 33 sec)
Heartbeat CPU 0 instructions: 20000000 cycles: 5381055 heartbeat IPC: 4 cumulative IPC: 3.717 (Simulation time: 00 hr 01 min 04 sec)
Heartbeat CPU 0 instructions: 30000000 cycles: 7881055 heartbeat IPC: 4 cumulative IPC: 3.807 (Simulation time: 00 hr 01 min 36 sec)
Heartbeat CPU 0 instructions: 40000000 cycles: 10381055 heartbeat IPC: 4 cumulative IPC: 3.853 (Simulation time: 00 hr 02 min 07 sec)
Heartbeat CPU 0 instructions: 50000000 cycles: 12881055 heartbeat IPC: 4 cumulative IPC: 3.882 (Simulation time: 00 hr 02 min 38 sec)
Warmup finished CPU 0 instructions: 50000000 cycles: 12881056 cumulative IPC: 3.882 (Simulation time: 00 hr 02 min 38 sec)
Warmup complete CPU 0 instructions: 50000000 cycles: 12881056 cumulative IPC: 3.882 (Simulation time: 00 hr 02 min 38 sec)
Heartbeat CPU 0 instructions: 60000000 cycles: 16366298 heartbeat IPC: 2.869 cumulative IPC: 2.869 (Simulation time: 00 hr 03 min 24 sec)
Heartbeat CPU 0 instructions: 70000002 cycles: 19857276 heartbeat IPC: 2.865 cumulative IPC: 2.867 (Simulation time: 00 hr 04 min 09 sec)
Heartbeat CPU 0 instructions: 80000001 cycles: 23343368 heartbeat IPC: 2.869 cumulative IPC: 2.867 (Simulation time: 00 hr 04 min 53 sec)
Heartbeat CPU 0 instructions: 90000003 cycles: 26816769 heartbeat IPC: 2.879 cumulative IPC: 2.87 (Simulation time: 00 hr 05 min 39 sec)
Heartbeat CPU 0 instructions: 100000000 cycles: 32089303 heartbeat IPC: 1.897 cumulative IPC: 2.603 (Simulation time: 00 hr 06 min 37 sec)
Heartbeat CPU 0 instructions: 110000001 cycles: 38717704 heartbeat IPC: 1.509 cumulative IPC: 2.322 (Simulation time: 00 hr 07 min 45 sec)
Heartbeat CPU 0 instructions: 120000001 cycles: 45368122 heartbeat IPC: 1.504 cumulative IPC: 2.155 (Simulation time: 00 hr 08 min 53 sec)
Heartbeat CPU 0 instructions: 130000002 cycles: 52015342 heartbeat IPC: 1.504 cumulative IPC: 2.044 (Simulation time: 00 hr 10 min 02 sec)
Heartbeat CPU 0 instructions: 140000004 cycles: 58711173 heartbeat IPC: 1.493 cumulative IPC: 1.964 (Simulation time: 00 hr 11 min 12 sec)
Heartbeat CPU 0 instructions: 150000000 cycles: 65414347 heartbeat IPC: 1.492 cumulative IPC: 1.904 (Simulation time: 00 hr 12 min 21 sec)
Heartbeat CPU 0 instructions: 160000001 cycles: 72111188 heartbeat IPC: 1.493 cumulative IPC: 1.857 (Simulation time: 00 hr 13 min 30 sec)
Heartbeat CPU 0 instructions: 170000001 cycles: 78786841 heartbeat IPC: 1.498 cumulative IPC: 1.821 (Simulation time: 00 hr 14 min 41 sec)
Heartbeat CPU 0 instructions: 180000002 cycles: 85560582 heartbeat IPC: 1.476 cumulative IPC: 1.789 (Simulation time: 00 hr 15 min 51 sec)
Heartbeat CPU 0 instructions: 190000002 cycles: 91739431 heartbeat IPC: 1.618 cumulative IPC: 1.775 (Simulation time: 00 hr 16 min 56 sec)
Heartbeat CPU 0 instructions: 200000000 cycles: 96695664 heartbeat IPC: 2.018 cumulative IPC: 1.79 (Simulation time: 00 hr 17 min 54 sec)
Heartbeat CPU 0 instructions: 210000001 cycles: 101929344 heartbeat IPC: 1.911 cumulative IPC: 1.797 (Simulation time: 00 hr 18 min 54 sec)
Heartbeat CPU 0 instructions: 220000001 cycles: 107572604 heartbeat IPC: 1.772 cumulative IPC: 1.795 (Simulation time: 00 hr 19 min 58 sec)
Heartbeat CPU 0 instructions: 230000004 cycles: 113956713 heartbeat IPC: 1.566 cumulative IPC: 1.781 (Simulation time: 00 hr 21 min 05 sec)
Heartbeat CPU 0 instructions: 240000003 cycles: 120875867 heartbeat IPC: 1.445 cumulative IPC: 1.759 (Simulation time: 00 hr 22 min 16 sec)
Heartbeat CPU 0 instructions: 250000002 cycles: 127797650 heartbeat IPC: 1.445 cumulative IPC: 1.74 (Simulation time: 00 hr 23 min 26 sec)
Heartbeat CPU 0 instructions: 260000002 cycles: 134765919 heartbeat IPC: 1.435 cumulative IPC: 1.723 (Simulation time: 00 hr 24 min 36 sec)
Heartbeat CPU 0 instructions: 270000003 cycles: 141645239 heartbeat IPC: 1.454 cumulative IPC: 1.709 (Simulation time: 00 hr 25 min 46 sec)
Heartbeat CPU 0 instructions: 280000000 cycles: 148589929 heartbeat IPC: 1.44 cumulative IPC: 1.695 (Simulation time: 00 hr 26 min 56 sec)
Heartbeat CPU 0 instructions: 290000001 cycles: 211045068 heartbeat IPC: 0.1601 cumulative IPC: 1.211 (Simulation time: 00 hr 33 min 46 sec)
Heartbeat CPU 0 instructions: 300000002 cycles: 213550171 heartbeat IPC: 3.992 cumulative IPC: 1.246 (Simulation time: 00 hr 34 min 22 sec)
Heartbeat CPU 0 instructions: 310000001 cycles: 216055215 heartbeat IPC: 3.992 cumulative IPC: 1.28 (Simulation time: 00 hr 34 min 59 sec)
Heartbeat CPU 0 instructions: 320000000 cycles: 218560329 heartbeat IPC: 3.992 cumulative IPC: 1.313 (Simulation time: 00 hr 35 min 35 sec)
Heartbeat CPU 0 instructions: 330000003 cycles: 221065367 heartbeat IPC: 3.992 cumulative IPC: 1.345 (Simulation time: 00 hr 36 min 10 sec)
Heartbeat CPU 0 instructions: 340000000 cycles: 223570437 heartbeat IPC: 3.992 cumulative IPC: 1.376 (Simulation time: 00 hr 36 min 46 sec)
Heartbeat CPU 0 instructions: 350000004 cycles: 226075512 heartbeat IPC: 3.992 cumulative IPC: 1.407 (Simulation time: 00 hr 37 min 21 sec)
Heartbeat CPU 0 instructions: 360000004 cycles: 228580587 heartbeat IPC: 3.992 cumulative IPC: 1.437 (Simulation time: 00 hr 37 min 57 sec)
Heartbeat CPU 0 instructions: 370000000 cycles: 231086364 heartbeat IPC: 3.991 cumulative IPC: 1.467 (Simulation time: 00 hr 38 min 33 sec)
Heartbeat CPU 0 instructions: 380000004 cycles: 233591775 heartbeat IPC: 3.991 cumulative IPC: 1.495 (Simulation time: 00 hr 39 min 08 sec)
Heartbeat CPU 0 instructions: 390000001 cycles: 236096846 heartbeat IPC: 3.992 cumulative IPC: 1.523 (Simulation time: 00 hr 39 min 43 sec)
Heartbeat CPU 0 instructions: 400000003 cycles: 238601924 heartbeat IPC: 3.992 cumulative IPC: 1.551 (Simulation time: 00 hr 40 min 24 sec)
Heartbeat CPU 0 instructions: 410000003 cycles: 241107039 heartbeat IPC: 3.992 cumulative IPC: 1.577 (Simulation time: 00 hr 41 min 01 sec)
Heartbeat CPU 0 instructions: 420000002 cycles: 243612114 heartbeat IPC: 3.992 cumulative IPC: 1.604 (Simulation time: 00 hr 41 min 39 sec)
Heartbeat CPU 0 instructions: 430000000 cycles: 246117275 heartbeat IPC: 3.992 cumulative IPC: 1.629 (Simulation time: 00 hr 42 min 18 sec)
Heartbeat CPU 0 instructions: 440000001 cycles: 248622349 heartbeat IPC: 3.992 cumulative IPC: 1.654 (Simulation time: 00 hr 42 min 56 sec)
Heartbeat CPU 0 instructions: 450000000 cycles: 251127396 heartbeat IPC: 3.992 cumulative IPC: 1.679 (Simulation time: 00 hr 43 min 35 sec)
Heartbeat CPU 0 instructions: 460000003 cycles: 253632433 heartbeat IPC: 3.992 cumulative IPC: 1.703 (Simulation time: 00 hr 44 min 15 sec)
Heartbeat CPU 0 instructions: 470000001 cycles: 256137507 heartbeat IPC: 3.992 cumulative IPC: 1.727 (Simulation time: 00 hr 44 min 55 sec)
Heartbeat CPU 0 instructions: 480000003 cycles: 258642579 heartbeat IPC: 3.992 cumulative IPC: 1.75 (Simulation time: 00 hr 45 min 35 sec)
Heartbeat CPU 0 instructions: 490000003 cycles: 261147653 heartbeat IPC: 3.992 cumulative IPC: 1.772 (Simulation time: 00 hr 46 min 15 sec)
Heartbeat CPU 0 instructions: 500000002 cycles: 263652778 heartbeat IPC: 3.992 cumulative IPC: 1.794 (Simulation time: 00 hr 46 min 55 sec)
Heartbeat CPU 0 instructions: 510000003 cycles: 268952210 heartbeat IPC: 1.887 cumulative IPC: 1.796 (Simulation time: 00 hr 47 min 55 sec)
Heartbeat CPU 0 instructions: 520000001 cycles: 376010545 heartbeat IPC: 0.09341 cumulative IPC: 1.294 (Simulation time: 01 hr 02 min 04 sec)
Heartbeat CPU 0 instructions: 530000002 cycles: 457736452 heartbeat IPC: 0.1224 cumulative IPC: 1.079 (Simulation time: 01 hr 12 min 51 sec)
Heartbeat CPU 0 instructions: 540000000 cycles: 480287649 heartbeat IPC: 0.4434 cumulative IPC: 1.048 (Simulation time: 01 hr 16 min 14 sec)
Heartbeat CPU 0 instructions: 550000002 cycles: 502889383 heartbeat IPC: 0.4424 cumulative IPC: 1.02 (Simulation time: 01 hr 19 min 33 sec)
Heartbeat CPU 0 instructions: 560000002 cycles: 525489640 heartbeat IPC: 0.4425 cumulative IPC: 0.9949 (Simulation time: 01 hr 22 min 58 sec)
Heartbeat CPU 0 instructions: 570000002 cycles: 548014014 heartbeat IPC: 0.444 cumulative IPC: 0.9717 (Simulation time: 01 hr 26 min 18 sec)
Heartbeat CPU 0 instructions: 580000001 cycles: 570027372 heartbeat IPC: 0.4543 cumulative IPC: 0.9513 (Simulation time: 01 hr 29 min 34 sec)
Heartbeat CPU 0 instructions: 590000004 cycles: 592668584 heartbeat IPC: 0.4417 cumulative IPC: 0.9314 (Simulation time: 01 hr 32 min 57 sec)
*** Reached end of trace: (0, "traces/sp.A.champsimtrace")
Heartbeat CPU 0 instructions: 600000002 cycles: 615313896 heartbeat IPC: 0.4416 cumulative IPC: 0.913 (Simulation time: 01 hr 36 min 20 sec)
Heartbeat CPU 0 instructions: 610000000 cycles: 640860902 heartbeat IPC: 0.3914 cumulative IPC: 0.8917 (Simulation time: 01 hr 39 min 15 sec)
Heartbeat CPU 0 instructions: 620000000 cycles: 644343207 heartbeat IPC: 2.872 cumulative IPC: 0.9027 (Simulation time: 01 hr 40 min 04 sec)
Heartbeat CPU 0 instructions: 630000003 cycles: 647832719 heartbeat IPC: 2.866 cumulative IPC: 0.9135 (Simulation time: 01 hr 40 min 55 sec)
Heartbeat CPU 0 instructions: 640000004 cycles: 651311852 heartbeat IPC: 2.874 cumulative IPC: 0.9241 (Simulation time: 01 hr 41 min 47 sec)
Heartbeat CPU 0 instructions: 650000000 cycles: 654789189 heartbeat IPC: 2.876 cumulative IPC: 0.9347 (Simulation time: 01 hr 42 min 37 sec)
Simulation finished CPU 0 instructions: 600000000 cycles: 641908134 cumulative IPC: 0.9347 (Simulation time: 01 hr 42 min 37 sec)
Simulation complete CPU 0 instructions: 600000000 cycles: 641908134 cumulative IPC: 0.9347 (Simulation time: 01 hr 42 min 37 sec)

ChampSim completed all CPUs

=== Simulation ===
CPU 0 runs traces/sp.A.champsimtrace
Region of Interest Statistics

CPU 0 cumulative IPC: 0.9347 instructions: 600000000 cycles: 641908134
CPU 0 Branch Prediction Accuracy: 98.84% MPKI: 0.2406 Average ROB Occupancy at Mispredict: 221.6
Branch type MPKI
BRANCH_DIRECT_JUMP: 5e-06
BRANCH_INDIRECT: 7.5e-05
BRANCH_CONDITIONAL: 0.24
BRANCH_DIRECT_CALL: 2e-05
BRANCH_INDIRECT_CALL: 3.17e-05
BRANCH_RETURN: 3.67e-05

LLC TOTAL        ACCESS:    8122719 HIT:    5123784 MISS:    2998935
LLC LOAD         ACCESS:    2304248 HIT:    1489545 MISS:     814703
LLC RFO          ACCESS:     922636 HIT:      10384 MISS:     912252
LLC PREFETCH     ACCESS:    2846781 HIT:    1576636 MISS:    1270145
LLC WRITE        ACCESS:    2045580 HIT:    2045450 MISS:        130
LLC TRANSLATION  ACCESS:       3474 HIT:       1769 MISS:       1705
LLC PREFETCH REQUESTED:    2846781 ISSUED:    2846781 USEFUL:    1018829 USELESS:      18398
LLC AVERAGE MISS LATENCY: 1415 cycles
cpu0_DTLB TOTAL        ACCESS:  125688261 HIT:  124865612 MISS:     822649
cpu0_DTLB LOAD         ACCESS:  125688261 HIT:  124865612 MISS:     822649
cpu0_DTLB RFO          ACCESS:          0 HIT:          0 MISS:          0
cpu0_DTLB PREFETCH     ACCESS:          0 HIT:          0 MISS:          0
cpu0_DTLB WRITE        ACCESS:          0 HIT:          0 MISS:          0
cpu0_DTLB TRANSLATION  ACCESS:          0 HIT:          0 MISS:          0
cpu0_DTLB PREFETCH REQUESTED:          0 ISSUED:          0 USEFUL:          0 USELESS:          0
cpu0_DTLB AVERAGE MISS LATENCY: 17.43 cycles
cpu0_ITLB TOTAL        ACCESS:     217904 HIT:     217683 MISS:        221
cpu0_ITLB LOAD         ACCESS:     217904 HIT:     217683 MISS:        221
cpu0_ITLB RFO          ACCESS:          0 HIT:          0 MISS:          0
cpu0_ITLB PREFETCH     ACCESS:          0 HIT:          0 MISS:          0
cpu0_ITLB WRITE        ACCESS:          0 HIT:          0 MISS:          0
cpu0_ITLB TRANSLATION  ACCESS:          0 HIT:          0 MISS:          0
cpu0_ITLB PREFETCH REQUESTED:          0 ISSUED:          0 USEFUL:          0 USELESS:          0
cpu0_ITLB AVERAGE MISS LATENCY: 326.8 cycles
cpu0_L1D TOTAL        ACCESS:  191950861 HIT:  178641125 MISS:   13309736
cpu0_L1D LOAD         ACCESS:  156708628 HIT:  147859318 MISS:    8849310
cpu0_L1D RFO          ACCESS:          0 HIT:          0 MISS:          0
cpu0_L1D PREFETCH     ACCESS:          0 HIT:          0 MISS:          0
cpu0_L1D WRITE        ACCESS:   35194353 HIT:   30752235 MISS:    4442118
cpu0_L1D TRANSLATION  ACCESS:      47880 HIT:      29572 MISS:      18308
cpu0_L1D PREFETCH REQUESTED:          0 ISSUED:          0 USEFUL:          0 USELESS:          0
cpu0_L1D AVERAGE MISS LATENCY: 151.6 cycles
cpu0_L1I TOTAL        ACCESS:     225490 HIT:     222690 MISS:       2800
cpu0_L1I LOAD         ACCESS:     225490 HIT:     222690 MISS:       2800
cpu0_L1I RFO          ACCESS:          0 HIT:          0 MISS:          0
cpu0_L1I PREFETCH     ACCESS:          0 HIT:          0 MISS:          0
cpu0_L1I WRITE        ACCESS:          0 HIT:          0 MISS:          0
cpu0_L1I TRANSLATION  ACCESS:          0 HIT:          0 MISS:          0
cpu0_L1I PREFETCH REQUESTED:          0 ISSUED:          0 USEFUL:          0 USELESS:          0
cpu0_L1I AVERAGE MISS LATENCY: 488.7 cycles
cpu0_L2C TOTAL        ACCESS:    5423890 HIT:    2193074 MISS:    3230816
cpu0_L2C LOAD         ACCESS:    2426304 HIT:     121971 MISS:    2304333
cpu0_L2C RFO          ACCESS:     923197 HIT:        561 MISS:     922636
cpu0_L2C PREFETCH     ACCESS:          0 HIT:          0 MISS:          0
cpu0_L2C WRITE        ACCESS:    2056083 HIT:    2055710 MISS:        373
cpu0_L2C TRANSLATION  ACCESS:      18306 HIT:      14832 MISS:       3474
cpu0_L2C PREFETCH REQUESTED:          0 ISSUED:          0 USEFUL:          0 USELESS:          0
cpu0_L2C AVERAGE MISS LATENCY: 810.9 cycles
cpu0_STLB TOTAL        ACCESS:     570778 HIT:     522928 MISS:      47850
cpu0_STLB LOAD         ACCESS:     570778 HIT:     522928 MISS:      47850
cpu0_STLB RFO          ACCESS:          0 HIT:          0 MISS:          0
cpu0_STLB PREFETCH     ACCESS:          0 HIT:          0 MISS:          0
cpu0_STLB WRITE        ACCESS:          0 HIT:          0 MISS:          0
cpu0_STLB TRANSLATION  ACCESS:          0 HIT:          0 MISS:          0
cpu0_STLB PREFETCH REQUESTED:          0 ISSUED:          0 USEFUL:          0 USELESS:          0
cpu0_STLB AVERAGE MISS LATENCY: 289.7 cycles

DRAM Statistics

Channel 0 RQ ROW_BUFFER_HIT:     900196
  ROW_BUFFER_MISS:    1822596
 AVG DBUS CONGESTED CYCLE: 3.967
WQ ROW_BUFFER_HIT: Channel 0 
  ROW_BUFFER_MISS:     443692
  FULL:    1305486
