WARNING: physical memory size is smaller than virtual memory size.

*** ChampSim Multicore Out-of-Order Simulator ***
Warmup Instructions: 50000000
Simulation Instructions: 600000000
Number of CPUs: 1
Page size: 4096

Off-chip DRAM Size: 4 GiB Channels: 1 Width: 64-bit Data Race: 3200 MT/s
Heartbeat CPU 0 instructions: 10000003 cycles: 2881057 heartbeat IPC: 3.471 cumulative IPC: 3.471 (Simulation time: 00 hr 00 min 53 sec)
Heartbeat CPU 0 instructions: 20000003 cycles: 5381057 heartbeat IPC: 4 cumulative IPC: 3.717 (Simulation time: 00 hr 01 min 42 sec)
Heartbeat CPU 0 instructions: 30000003 cycles: 7881057 heartbeat IPC: 4 cumulative IPC: 3.807 (Simulation time: 00 hr 02 min 30 sec)
Heartbeat CPU 0 instructions: 40000003 cycles: 10381057 heartbeat IPC: 4 cumulative IPC: 3.853 (Simulation time: 00 hr 03 min 19 sec)
Heartbeat CPU 0 instructions: 50000003 cycles: 12881057 heartbeat IPC: 4 cumulative IPC: 3.882 (Simulation time: 00 hr 04 min 08 sec)
Warmup finished CPU 0 instructions: 50000003 cycles: 12881058 cumulative IPC: 3.882 (Simulation time: 00 hr 04 min 08 sec)
Warmup complete CPU 0 instructions: 50000003 cycles: 12881058 cumulative IPC: 3.882 (Simulation time: 00 hr 04 min 08 sec)
Heartbeat CPU 0 instructions: 60000000 cycles: 19160350 heartbeat IPC: 1.593 cumulative IPC: 1.593 (Simulation time: 00 hr 05 min 49 sec)
Heartbeat CPU 0 instructions: 70000002 cycles: 25501129 heartbeat IPC: 1.577 cumulative IPC: 1.585 (Simulation time: 00 hr 07 min 31 sec)
Heartbeat CPU 0 instructions: 80000001 cycles: 31764365 heartbeat IPC: 1.597 cumulative IPC: 1.589 (Simulation time: 00 hr 09 min 12 sec)
Heartbeat CPU 0 instructions: 90000004 cycles: 38042320 heartbeat IPC: 1.593 cumulative IPC: 1.59 (Simulation time: 00 hr 10 min 53 sec)
Heartbeat CPU 0 instructions: 100000000 cycles: 42288082 heartbeat IPC: 2.355 cumulative IPC: 1.7 (Simulation time: 00 hr 12 min 10 sec)
Heartbeat CPU 0 instructions: 110000004 cycles: 45246167 heartbeat IPC: 3.381 cumulative IPC: 1.854 (Simulation time: 00 hr 13 min 13 sec)
Heartbeat CPU 0 instructions: 120000002 cycles: 51873173 heartbeat IPC: 1.509 cumulative IPC: 1.795 (Simulation time: 00 hr 14 min 59 sec)
Heartbeat CPU 0 instructions: 130000000 cycles: 58969725 heartbeat IPC: 1.409 cumulative IPC: 1.736 (Simulation time: 00 hr 16 min 49 sec)
Heartbeat CPU 0 instructions: 140000004 cycles: 65994416 heartbeat IPC: 1.424 cumulative IPC: 1.694 (Simulation time: 00 hr 18 min 37 sec)
Heartbeat CPU 0 instructions: 150000001 cycles: 73183001 heartbeat IPC: 1.391 cumulative IPC: 1.658 (Simulation time: 00 hr 20 min 29 sec)
Heartbeat CPU 0 instructions: 160000004 cycles: 80190458 heartbeat IPC: 1.427 cumulative IPC: 1.634 (Simulation time: 00 hr 22 min 19 sec)
Heartbeat CPU 0 instructions: 170000000 cycles: 87330149 heartbeat IPC: 1.401 cumulative IPC: 1.612 (Simulation time: 00 hr 24 min 11 sec)
Heartbeat CPU 0 instructions: 180000000 cycles: 94470262 heartbeat IPC: 1.401 cumulative IPC: 1.593 (Simulation time: 00 hr 26 min 02 sec)
Heartbeat CPU 0 instructions: 190000000 cycles: 101157110 heartbeat IPC: 1.495 cumulative IPC: 1.586 (Simulation time: 00 hr 27 min 48 sec)
Heartbeat CPU 0 instructions: 200000003 cycles: 107224099 heartbeat IPC: 1.648 cumulative IPC: 1.59 (Simulation time: 00 hr 29 min 26 sec)
Heartbeat CPU 0 instructions: 210000000 cycles: 113307683 heartbeat IPC: 1.644 cumulative IPC: 1.593 (Simulation time: 00 hr 31 min 05 sec)
Heartbeat CPU 0 instructions: 220000004 cycles: 119434735 heartbeat IPC: 1.632 cumulative IPC: 1.595 (Simulation time: 00 hr 32 min 44 sec)
Heartbeat CPU 0 instructions: 230000000 cycles: 125507543 heartbeat IPC: 1.647 cumulative IPC: 1.598 (Simulation time: 00 hr 34 min 22 sec)
Heartbeat CPU 0 instructions: 240000003 cycles: 131543784 heartbeat IPC: 1.657 cumulative IPC: 1.601 (Simulation time: 00 hr 36 min 01 sec)
Heartbeat CPU 0 instructions: 250000002 cycles: 137711468 heartbeat IPC: 1.621 cumulative IPC: 1.602 (Simulation time: 00 hr 37 min 41 sec)
Heartbeat CPU 0 instructions: 260000002 cycles: 143960764 heartbeat IPC: 1.6 cumulative IPC: 1.602 (Simulation time: 00 hr 39 min 24 sec)
Heartbeat CPU 0 instructions: 270000003 cycles: 150050449 heartbeat IPC: 1.642 cumulative IPC: 1.604 (Simulation time: 00 hr 41 min 03 sec)
Heartbeat CPU 0 instructions: 280000003 cycles: 156309503 heartbeat IPC: 1.598 cumulative IPC: 1.604 (Simulation time: 00 hr 42 min 44 sec)
Heartbeat CPU 0 instructions: 290000000 cycles: 206823409 heartbeat IPC: 0.198 cumulative IPC: 1.237 (Simulation time: 00 hr 51 min 43 sec)
Heartbeat CPU 0 instructions: 300000001 cycles: 209325797 heartbeat IPC: 3.996 cumulative IPC: 1.273 (Simulation time: 00 hr 52 min 38 sec)
Heartbeat CPU 0 instructions: 310000000 cycles: 211828174 heartbeat IPC: 3.996 cumulative IPC: 1.307 (Simulation time: 00 hr 53 min 33 sec)
Heartbeat CPU 0 instructions: 320000002 cycles: 214330644 heartbeat IPC: 3.996 cumulative IPC: 1.34 (Simulation time: 00 hr 54 min 27 sec)
Heartbeat CPU 0 instructions: 330000004 cycles: 216839946 heartbeat IPC: 3.985 cumulative IPC: 1.373 (Simulation time: 00 hr 55 min 21 sec)
Heartbeat CPU 0 instructions: 340000004 cycles: 219342335 heartbeat IPC: 3.996 cumulative IPC: 1.405 (Simulation time: 00 hr 56 min 16 sec)
Heartbeat CPU 0 instructions: 350000003 cycles: 221845133 heartbeat IPC: 3.996 cumulative IPC: 1.436 (Simulation time: 00 hr 57 min 10 sec)
Heartbeat CPU 0 instructions: 360000002 cycles: 224348704 heartbeat IPC: 3.994 cumulative IPC: 1.466 (Simulation time: 00 hr 58 min 04 sec)
Heartbeat CPU 0 instructions: 370000004 cycles: 226851945 heartbeat IPC: 3.995 cumulative IPC: 1.496 (Simulation time: 00 hr 58 min 59 sec)
Heartbeat CPU 0 instructions: 380000003 cycles: 229355006 heartbeat IPC: 3.995 cumulative IPC: 1.524 (Simulation time: 00 hr 59 min 53 sec)
Heartbeat CPU 0 instructions: 390000000 cycles: 231857394 heartbeat IPC: 3.996 cumulative IPC: 1.553 (Simulation time: 01 hr 00 min 48 sec)
Heartbeat CPU 0 instructions: 400000002 cycles: 234360890 heartbeat IPC: 3.994 cumulative IPC: 1.58 (Simulation time: 01 hr 01 min 42 sec)
Heartbeat CPU 0 instructions: 410000002 cycles: 236863805 heartbeat IPC: 3.995 cumulative IPC: 1.607 (Simulation time: 01 hr 02 min 37 sec)
Heartbeat CPU 0 instructions: 420000000 cycles: 239367124 heartbeat IPC: 3.995 cumulative IPC: 1.634 (Simulation time: 01 hr 03 min 31 sec)
Heartbeat CPU 0 instructions: 430000001 cycles: 241869986 heartbeat IPC: 3.995 cumulative IPC: 1.659 (Simulation time: 01 hr 04 min 25 sec)
Heartbeat CPU 0 instructions: 440000000 cycles: 244372375 heartbeat IPC: 3.996 cumulative IPC: 1.685 (Simulation time: 01 hr 05 min 19 sec)
Heartbeat CPU 0 instructions: 450000001 cycles: 246874711 heartbeat IPC: 3.996 cumulative IPC: 1.709 (Simulation time: 01 hr 06 min 22 sec)
Heartbeat CPU 0 instructions: 460000002 cycles: 249377050 heartbeat IPC: 3.996 cumulative IPC: 1.734 (Simulation time: 01 hr 07 min 21 sec)
Heartbeat CPU 0 instructions: 470000001 cycles: 251879482 heartbeat IPC: 3.996 cumulative IPC: 1.757 (Simulation time: 01 hr 08 min 14 sec)
Heartbeat CPU 0 instructions: 480000000 cycles: 254381870 heartbeat IPC: 3.996 cumulative IPC: 1.781 (Simulation time: 01 hr 09 min 09 sec)
Heartbeat CPU 0 instructions: 490000001 cycles: 256884260 heartbeat IPC: 3.996 cumulative IPC: 1.803 (Simulation time: 01 hr 10 min 03 sec)
Heartbeat CPU 0 instructions: 500000004 cycles: 259386658 heartbeat IPC: 3.996 cumulative IPC: 1.826 (Simulation time: 01 hr 10 min 58 sec)
Heartbeat CPU 0 instructions: 510000001 cycles: 266668669 heartbeat IPC: 1.373 cumulative IPC: 1.813 (Simulation time: 01 hr 12 min 46 sec)
Heartbeat CPU 0 instructions: 520000002 cycles: 361864394 heartbeat IPC: 0.105 cumulative IPC: 1.347 (Simulation time: 01 hr 31 min 06 sec)
Heartbeat CPU 0 instructions: 530000001 cycles: 439995035 heartbeat IPC: 0.128 cumulative IPC: 1.124 (Simulation time: 01 hr 46 min 25 sec)
Heartbeat CPU 0 instructions: 540000000 cycles: 478652328 heartbeat IPC: 0.2587 cumulative IPC: 1.052 (Simulation time: 01 hr 54 min 24 sec)
Heartbeat CPU 0 instructions: 550000001 cycles: 517332129 heartbeat IPC: 0.2585 cumulative IPC: 0.9912 (Simulation time: 02 hr 02 min 25 sec)
Heartbeat CPU 0 instructions: 560000003 cycles: 555697864 heartbeat IPC: 0.2606 cumulative IPC: 0.9395 (Simulation time: 02 hr 10 min 29 sec)
Heartbeat CPU 0 instructions: 570000004 cycles: 588836685 heartbeat IPC: 0.3018 cumulative IPC: 0.9028 (Simulation time: 02 hr 17 min 27 sec)
Heartbeat CPU 0 instructions: 580000000 cycles: 626409438 heartbeat IPC: 0.2662 cumulative IPC: 0.8639 (Simulation time: 02 hr 24 min 53 sec)
Heartbeat CPU 0 instructions: 590000001 cycles: 664911537 heartbeat IPC: 0.2597 cumulative IPC: 0.8282 (Simulation time: 02 hr 32 min 02 sec)
*** Reached end of trace: (0, "traces/sp.A.champsimtrace")
Heartbeat CPU 0 instructions: 600000002 cycles: 703189501 heartbeat IPC: 0.2612 cumulative IPC: 0.7967 (Simulation time: 02 hr 39 min 01 sec)
Heartbeat CPU 0 instructions: 610000004 cycles: 736019128 heartbeat IPC: 0.3046 cumulative IPC: 0.7744 (Simulation time: 02 hr 43 min 48 sec)
Heartbeat CPU 0 instructions: 620000003 cycles: 742179597 heartbeat IPC: 1.623 cumulative IPC: 0.7816 (Simulation time: 02 hr 45 min 17 sec)
Heartbeat CPU 0 instructions: 630000001 cycles: 748312030 heartbeat IPC: 1.631 cumulative IPC: 0.7887 (Simulation time: 02 hr 46 min 45 sec)
Heartbeat CPU 0 instructions: 640000000 cycles: 754437033 heartbeat IPC: 1.633 cumulative IPC: 0.7956 (Simulation time: 02 hr 48 min 12 sec)
Heartbeat CPU 0 instructions: 650000003 cycles: 760573551 heartbeat IPC: 1.63 cumulative IPC: 0.8025 (Simulation time: 02 hr 49 min 41 sec)
Simulation finished CPU 0 instructions: 600000000 cycles: 747692494 cumulative IPC: 0.8025 (Simulation time: 02 hr 49 min 41 sec)
Simulation complete CPU 0 instructions: 600000000 cycles: 747692494 cumulative IPC: 0.8025 (Simulation time: 02 hr 49 min 41 sec)

ChampSim completed all CPUs

=== Simulation ===
CPU 0 runs traces/sp.A.champsimtrace
Region of Interest Statistics

CPU 0 cumulative IPC: 0.8025 instructions: 600000000 cycles: 747692494
CPU 0 Branch Prediction Accuracy: 98.83% MPKI: 0.2409 Average ROB Occupancy at Mispredict: 222.1
Branch type MPKI
BRANCH_DIRECT_JUMP: 5e-06
BRANCH_INDIRECT: 7.67e-05
BRANCH_CONDITIONAL: 0.241
BRANCH_DIRECT_CALL: 2e-05
BRANCH_INDIRECT_CALL: 3.33e-05
BRANCH_RETURN: 3.67e-05

LLC TOTAL        ACCESS:    5279013 HIT:     458802 MISS:    4820211
LLC LOAD         ACCESS:    2306601 HIT:     292260 MISS:    2014341
LLC RFO          ACCESS:     922693 HIT:       1253 MISS:     921440
LLC PREFETCH     ACCESS:          0 HIT:          0 MISS:          0
LLC WRITE        ACCESS:    2046200 HIT:     165239 MISS:    1880961
LLC TRANSLATION  ACCESS:       3519 HIT:         50 MISS:       3469
LLC PREFETCH REQUESTED:          0 ISSUED:          0 USEFUL:          0 USELESS:          0
LLC AVERAGE MISS LATENCY: 739 cycles
cpu0_DTLB TOTAL        ACCESS:  125836848 HIT:  124985781 MISS:     851067
cpu0_DTLB LOAD         ACCESS:  125836848 HIT:  124985781 MISS:     851067
cpu0_DTLB RFO          ACCESS:          0 HIT:          0 MISS:          0
cpu0_DTLB PREFETCH     ACCESS:          0 HIT:          0 MISS:          0
cpu0_DTLB WRITE        ACCESS:          0 HIT:          0 MISS:          0
cpu0_DTLB TRANSLATION  ACCESS:          0 HIT:          0 MISS:          0
cpu0_DTLB PREFETCH REQUESTED:          0 ISSUED:          0 USEFUL:          0 USELESS:          0
cpu0_DTLB AVERAGE MISS LATENCY: 20.4 cycles
cpu0_ITLB TOTAL        ACCESS:     223987 HIT:     223771 MISS:        216
cpu0_ITLB LOAD         ACCESS:     223987 HIT:     223771 MISS:        216
cpu0_ITLB RFO          ACCESS:          0 HIT:          0 MISS:          0
cpu0_ITLB PREFETCH     ACCESS:          0 HIT:          0 MISS:          0
cpu0_ITLB WRITE        ACCESS:          0 HIT:          0 MISS:          0
cpu0_ITLB TRANSLATION  ACCESS:          0 HIT:          0 MISS:          0
cpu0_ITLB PREFETCH REQUESTED:          0 ISSUED:          0 USEFUL:          0 USELESS:          0
cpu0_ITLB AVERAGE MISS LATENCY: 335 cycles
cpu0_L1D TOTAL        ACCESS:  190399391 HIT:  175710127 MISS:   14689264
cpu0_L1D LOAD         ACCESS:  155157196 HIT:  144597383 MISS:   10559813
cpu0_L1D RFO          ACCESS:          0 HIT:          0 MISS:          0
cpu0_L1D PREFETCH     ACCESS:          0 HIT:          0 MISS:          0
cpu0_L1D WRITE        ACCESS:   35194319 HIT:   31083179 MISS:    4111140
cpu0_L1D TRANSLATION  ACCESS:      47876 HIT:      29565 MISS:      18311
cpu0_L1D PREFETCH REQUESTED:          0 ISSUED:          0 USEFUL:          0 USELESS:          0
cpu0_L1D AVERAGE MISS LATENCY: 177.8 cycles
cpu0_L1I TOTAL        ACCESS:     232224 HIT:     229469 MISS:       2755
cpu0_L1I LOAD         ACCESS:     232224 HIT:     229469 MISS:       2755
cpu0_L1I RFO          ACCESS:          0 HIT:          0 MISS:          0
cpu0_L1I PREFETCH     ACCESS:          0 HIT:          0 MISS:          0
cpu0_L1I WRITE        ACCESS:          0 HIT:          0 MISS:          0
cpu0_L1I TRANSLATION  ACCESS:          0 HIT:          0 MISS:          0
cpu0_L1I PREFETCH REQUESTED:          0 ISSUED:          0 USEFUL:          0 USELESS:          0
cpu0_L1I AVERAGE MISS LATENCY: 551.8 cycles
cpu0_L2C TOTAL        ACCESS:    5438320 HIT:    2205162 MISS:    3233158
cpu0_L2C LOAD         ACCESS:    2437252 HIT:     130649 MISS:    2306603
cpu0_L2C RFO          ACCESS:     924303 HIT:       1610 MISS:     922693
cpu0_L2C PREFETCH     ACCESS:          0 HIT:          0 MISS:          0
cpu0_L2C WRITE        ACCESS:    2058458 HIT:    2058115 MISS:        343
cpu0_L2C TRANSLATION  ACCESS:      18307 HIT:      14788 MISS:       3519
cpu0_L2C PREFETCH REQUESTED:          0 ISSUED:          0 USEFUL:          0 USELESS:          0
cpu0_L2C AVERAGE MISS LATENCY: 1123 cycles
cpu0_STLB TOTAL        ACCESS:     592558 HIT:     544711 MISS:      47847
cpu0_STLB LOAD         ACCESS:     592558 HIT:     544711 MISS:      47847
cpu0_STLB RFO          ACCESS:          0 HIT:          0 MISS:          0
cpu0_STLB PREFETCH     ACCESS:          0 HIT:          0 MISS:          0
cpu0_STLB WRITE        ACCESS:          0 HIT:          0 MISS:          0
cpu0_STLB TRANSLATION  ACCESS:          0 HIT:          0 MISS:          0
cpu0_STLB PREFETCH REQUESTED:          0 ISSUED:          0 USEFUL:          0 USELESS:          0
cpu0_STLB AVERAGE MISS LATENCY: 383 cycles

DRAM Statistics

Channel 0 RQ ROW_BUFFER_HIT:     763694
  ROW_BUFFER_MISS:    2148752
 AVG DBUS CONGESTED CYCLE: 3.97
WQ ROW_BUFFER_HIT: Channel 0 
  ROW_BUFFER_MISS:     620803
  FULL:    1305580
