WARNING: physical memory size is smaller than virtual memory size.

*** ChampSim Multicore Out-of-Order Simulator ***
Warmup Instructions: 50000000
Simulation Instructions: 600000000
Number of CPUs: 1
Page size: 4096

CPU 0 Tage branch predictor
Off-chip DRAM Size: 4 GiB Channels: 1 Width: 64-bit Data Race: 3200 MT/s
Heartbeat CPU 0 instructions: 10000003 cycles: 2881056 heartbeat IPC: 3.471 cumulative IPC: 3.471 (Simulation time: 00 hr 00 min 55 sec)
Heartbeat CPU 0 instructions: 20000003 cycles: 5381056 heartbeat IPC: 4 cumulative IPC: 3.717 (Simulation time: 00 hr 01 min 48 sec)
Heartbeat CPU 0 instructions: 30000003 cycles: 7881056 heartbeat IPC: 4 cumulative IPC: 3.807 (Simulation time: 00 hr 02 min 38 sec)
Heartbeat CPU 0 instructions: 40000003 cycles: 10381056 heartbeat IPC: 4 cumulative IPC: 3.853 (Simulation time: 00 hr 03 min 29 sec)
Heartbeat CPU 0 instructions: 50000003 cycles: 12881056 heartbeat IPC: 4 cumulative IPC: 3.882 (Simulation time: 00 hr 04 min 20 sec)
Warmup finished CPU 0 instructions: 50000003 cycles: 12881057 cumulative IPC: 3.882 (Simulation time: 00 hr 04 min 20 sec)
Warmup complete CPU 0 instructions: 50000003 cycles: 12881057 cumulative IPC: 3.882 (Simulation time: 00 hr 04 min 20 sec)
Heartbeat CPU 0 instructions: 60000000 cycles: 17412572 heartbeat IPC: 2.207 cumulative IPC: 2.207 (Simulation time: 00 hr 05 min 42 sec)
Heartbeat CPU 0 instructions: 70000002 cycles: 21954061 heartbeat IPC: 2.202 cumulative IPC: 2.204 (Simulation time: 00 hr 07 min 03 sec)
Heartbeat CPU 0 instructions: 80000001 cycles: 26520842 heartbeat IPC: 2.19 cumulative IPC: 2.199 (Simulation time: 00 hr 08 min 25 sec)
Heartbeat CPU 0 instructions: 90000003 cycles: 31099866 heartbeat IPC: 2.184 cumulative IPC: 2.196 (Simulation time: 00 hr 09 min 47 sec)
Heartbeat CPU 0 instructions: 100000000 cycles: 34574458 heartbeat IPC: 2.878 cumulative IPC: 2.305 (Simulation time: 00 hr 10 min 56 sec)
Heartbeat CPU 0 instructions: 110000004 cycles: 37123861 heartbeat IPC: 3.922 cumulative IPC: 2.475 (Simulation time: 00 hr 11 min 54 sec)
Heartbeat CPU 0 instructions: 120000000 cycles: 40327331 heartbeat IPC: 3.122 cumulative IPC: 2.55 (Simulation time: 00 hr 12 min 59 sec)
Heartbeat CPU 0 instructions: 130000000 cycles: 43865979 heartbeat IPC: 2.826 cumulative IPC: 2.582 (Simulation time: 00 hr 14 min 07 sec)
Heartbeat CPU 0 instructions: 140000004 cycles: 47416394 heartbeat IPC: 2.817 cumulative IPC: 2.606 (Simulation time: 00 hr 15 min 17 sec)
Heartbeat CPU 0 instructions: 150000001 cycles: 50984827 heartbeat IPC: 2.802 cumulative IPC: 2.624 (Simulation time: 00 hr 16 min 27 sec)
Heartbeat CPU 0 instructions: 160000003 cycles: 54449806 heartbeat IPC: 2.886 cumulative IPC: 2.646 (Simulation time: 00 hr 17 min 35 sec)
Heartbeat CPU 0 instructions: 170000000 cycles: 58100227 heartbeat IPC: 2.739 cumulative IPC: 2.654 (Simulation time: 00 hr 18 min 46 sec)
Heartbeat CPU 0 instructions: 180000000 cycles: 61670607 heartbeat IPC: 2.801 cumulative IPC: 2.665 (Simulation time: 00 hr 19 min 55 sec)
Heartbeat CPU 0 instructions: 190000000 cycles: 65111889 heartbeat IPC: 2.906 cumulative IPC: 2.68 (Simulation time: 00 hr 21 min 05 sec)
Heartbeat CPU 0 instructions: 200000004 cycles: 68250410 heartbeat IPC: 3.186 cumulative IPC: 2.709 (Simulation time: 00 hr 22 min 09 sec)
Heartbeat CPU 0 instructions: 210000001 cycles: 71379080 heartbeat IPC: 3.196 cumulative IPC: 2.735 (Simulation time: 00 hr 23 min 15 sec)
Heartbeat CPU 0 instructions: 220000004 cycles: 74482311 heartbeat IPC: 3.222 cumulative IPC: 2.76 (Simulation time: 00 hr 24 min 20 sec)
Heartbeat CPU 0 instructions: 230000000 cycles: 77596993 heartbeat IPC: 3.211 cumulative IPC: 2.781 (Simulation time: 00 hr 25 min 25 sec)
Heartbeat CPU 0 instructions: 240000001 cycles: 80584669 heartbeat IPC: 3.347 cumulative IPC: 2.806 (Simulation time: 00 hr 26 min 30 sec)
Heartbeat CPU 0 instructions: 250000002 cycles: 83637582 heartbeat IPC: 3.276 cumulative IPC: 2.827 (Simulation time: 00 hr 27 min 37 sec)
Heartbeat CPU 0 instructions: 260000002 cycles: 86795476 heartbeat IPC: 3.167 cumulative IPC: 2.841 (Simulation time: 00 hr 28 min 46 sec)
Heartbeat CPU 0 instructions: 270000002 cycles: 89904265 heartbeat IPC: 3.217 cumulative IPC: 2.856 (Simulation time: 00 hr 29 min 53 sec)
Heartbeat CPU 0 instructions: 280000003 cycles: 93075781 heartbeat IPC: 3.153 cumulative IPC: 2.868 (Simulation time: 00 hr 31 min 00 sec)
Heartbeat CPU 0 instructions: 290000000 cycles: 143825521 heartbeat IPC: 0.197 cumulative IPC: 1.833 (Simulation time: 00 hr 39 min 42 sec)
Heartbeat CPU 0 instructions: 300000001 cycles: 146325922 heartbeat IPC: 3.999 cumulative IPC: 1.873 (Simulation time: 00 hr 40 min 40 sec)
Heartbeat CPU 0 instructions: 310000000 cycles: 148826314 heartbeat IPC: 3.999 cumulative IPC: 1.913 (Simulation time: 00 hr 41 min 37 sec)
Heartbeat CPU 0 instructions: 320000002 cycles: 151326472 heartbeat IPC: 4 cumulative IPC: 1.95 (Simulation time: 00 hr 42 min 34 sec)
Heartbeat CPU 0 instructions: 330000004 cycles: 153827523 heartbeat IPC: 3.998 cumulative IPC: 1.987 (Simulation time: 00 hr 43 min 32 sec)
Heartbeat CPU 0 instructions: 340000004 cycles: 156329109 heartbeat IPC: 3.997 cumulative IPC: 2.022 (Simulation time: 00 hr 44 min 28 sec)
Heartbeat CPU 0 instructions: 350000003 cycles: 158829306 heartbeat IPC: 4 cumulative IPC: 2.056 (Simulation time: 00 hr 45 min 24 sec)
Heartbeat CPU 0 instructions: 360000001 cycles: 161331397 heartbeat IPC: 3.997 cumulative IPC: 2.088 (Simulation time: 00 hr 46 min 21 sec)
Heartbeat CPU 0 instructions: 370000004 cycles: 163832946 heartbeat IPC: 3.998 cumulative IPC: 2.12 (Simulation time: 00 hr 47 min 19 sec)
Heartbeat CPU 0 instructions: 380000003 cycles: 166333683 heartbeat IPC: 3.999 cumulative IPC: 2.151 (Simulation time: 00 hr 48 min 16 sec)
Heartbeat CPU 0 instructions: 390000000 cycles: 168833785 heartbeat IPC: 4 cumulative IPC: 2.18 (Simulation time: 00 hr 49 min 13 sec)
Heartbeat CPU 0 instructions: 400000002 cycles: 171334284 heartbeat IPC: 3.999 cumulative IPC: 2.209 (Simulation time: 00 hr 50 min 12 sec)
Heartbeat CPU 0 instructions: 410000002 cycles: 173834366 heartbeat IPC: 4 cumulative IPC: 2.237 (Simulation time: 00 hr 51 min 08 sec)
Heartbeat CPU 0 instructions: 420000000 cycles: 176335696 heartbeat IPC: 3.998 cumulative IPC: 2.264 (Simulation time: 00 hr 52 min 06 sec)
Heartbeat CPU 0 instructions: 430000001 cycles: 178835925 heartbeat IPC: 4 cumulative IPC: 2.29 (Simulation time: 00 hr 53 min 02 sec)
Heartbeat CPU 0 instructions: 440000002 cycles: 181336564 heartbeat IPC: 3.999 cumulative IPC: 2.315 (Simulation time: 00 hr 54 min 03 sec)
Heartbeat CPU 0 instructions: 450000001 cycles: 183836607 heartbeat IPC: 4 cumulative IPC: 2.34 (Simulation time: 00 hr 55 min 01 sec)
Heartbeat CPU 0 instructions: 460000002 cycles: 186336652 heartbeat IPC: 4 cumulative IPC: 2.364 (Simulation time: 00 hr 55 min 58 sec)
Heartbeat CPU 0 instructions: 470000001 cycles: 188839741 heartbeat IPC: 3.995 cumulative IPC: 2.387 (Simulation time: 00 hr 56 min 56 sec)
Heartbeat CPU 0 instructions: 480000000 cycles: 191339825 heartbeat IPC: 4 cumulative IPC: 2.41 (Simulation time: 00 hr 57 min 54 sec)
Heartbeat CPU 0 instructions: 490000001 cycles: 193840294 heartbeat IPC: 3.999 cumulative IPC: 2.431 (Simulation time: 00 hr 58 min 52 sec)
Heartbeat CPU 0 instructions: 500000004 cycles: 196340666 heartbeat IPC: 3.999 cumulative IPC: 2.453 (Simulation time: 00 hr 59 min 49 sec)
Heartbeat CPU 0 instructions: 510000000 cycles: 204073533 heartbeat IPC: 1.293 cumulative IPC: 2.406 (Simulation time: 01 hr 01 min 40 sec)
Heartbeat CPU 0 instructions: 520000002 cycles: 295124738 heartbeat IPC: 0.1098 cumulative IPC: 1.665 (Simulation time: 01 hr 18 min 16 sec)
Heartbeat CPU 0 instructions: 530000001 cycles: 375232891 heartbeat IPC: 0.1248 cumulative IPC: 1.325 (Simulation time: 01 hr 32 min 40 sec)
Heartbeat CPU 0 instructions: 540000000 cycles: 412190424 heartbeat IPC: 0.2706 cumulative IPC: 1.227 (Simulation time: 01 hr 39 min 47 sec)
Heartbeat CPU 0 instructions: 550000001 cycles: 449111482 heartbeat IPC: 0.2708 cumulative IPC: 1.146 (Simulation time: 01 hr 46 min 53 sec)
Heartbeat CPU 0 instructions: 560000001 cycles: 485577802 heartbeat IPC: 0.2742 cumulative IPC: 1.079 (Simulation time: 01 hr 53 min 58 sec)
Heartbeat CPU 0 instructions: 570000003 cycles: 522786826 heartbeat IPC: 0.2688 cumulative IPC: 1.02 (Simulation time: 02 hr 01 min 15 sec)
Heartbeat CPU 0 instructions: 580000001 cycles: 560000293 heartbeat IPC: 0.2687 cumulative IPC: 0.9687 (Simulation time: 02 hr 08 min 28 sec)
Heartbeat CPU 0 instructions: 590000001 cycles: 597687066 heartbeat IPC: 0.2653 cumulative IPC: 0.9234 (Simulation time: 02 hr 15 min 58 sec)
*** Reached end of trace: (0, "traces/sp.A.champsimtrace")
Heartbeat CPU 0 instructions: 600000004 cycles: 634689507 heartbeat IPC: 0.2703 cumulative IPC: 0.8845 (Simulation time: 02 hr 23 min 11 sec)
Heartbeat CPU 0 instructions: 610000004 cycles: 658815839 heartbeat IPC: 0.4145 cumulative IPC: 0.867 (Simulation time: 02 hr 27 min 07 sec)
Heartbeat CPU 0 instructions: 620000003 cycles: 661976172 heartbeat IPC: 3.164 cumulative IPC: 0.8781 (Simulation time: 02 hr 28 min 16 sec)
Heartbeat CPU 0 instructions: 630000001 cycles: 666494444 heartbeat IPC: 2.213 cumulative IPC: 0.8874 (Simulation time: 02 hr 29 min 39 sec)
Heartbeat CPU 0 instructions: 640000000 cycles: 671053799 heartbeat IPC: 2.193 cumulative IPC: 0.8964 (Simulation time: 02 hr 31 min 05 sec)
Heartbeat CPU 0 instructions: 650000004 cycles: 675594069 heartbeat IPC: 2.203 cumulative IPC: 0.9054 (Simulation time: 02 hr 32 min 29 sec)
Simulation finished CPU 0 instructions: 600000001 cycles: 662713013 cumulative IPC: 0.9054 (Simulation time: 02 hr 32 min 29 sec)
Simulation complete CPU 0 instructions: 600000001 cycles: 662713013 cumulative IPC: 0.9054 (Simulation time: 02 hr 32 min 29 sec)

ChampSim completed all CPUs

=== Simulation ===
CPU 0 runs traces/sp.A.champsimtrace
Region of Interest Statistics

CPU 0 cumulative IPC: 0.9054 instructions: 600000001 cycles: 662713013
CPU 0 Branch Prediction Accuracy: 99.98% MPKI: 0.004297 Average ROB Occupancy at Mispredict: 114.5
Branch type MPKI
BRANCH_DIRECT_JUMP: 5e-06
BRANCH_INDIRECT: 7.67e-05
BRANCH_CONDITIONAL: 0.00412
BRANCH_DIRECT_CALL: 2e-05
BRANCH_INDIRECT_CALL: 3.33e-05
BRANCH_RETURN: 3.67e-05

LLC TOTAL        ACCESS:    7585604 HIT:    1385535 MISS:    6200069
LLC LOAD         ACCESS:    2306596 HIT:     921674 MISS:    1384922
LLC RFO          ACCESS:     922691 HIT:      28730 MISS:     893961
LLC PREFETCH     ACCESS:    2306596 HIT:     302043 MISS:    2004553
LLC WRITE        ACCESS:    2046209 HIT:     132944 MISS:    1913265
LLC TRANSLATION  ACCESS:       3512 HIT:        144 MISS:       3368
LLC PREFETCH REQUESTED:    2306596 ISSUED:    2306596 USEFUL:    1587416 USELESS:      46930
LLC AVERAGE MISS LATENCY: 757.7 cycles
cpu0_DTLB TOTAL        ACCESS:  128933426 HIT:  127921557 MISS:    1011869
cpu0_DTLB LOAD         ACCESS:  128933426 HIT:  127921557 MISS:    1011869
cpu0_DTLB RFO          ACCESS:          0 HIT:          0 MISS:          0
cpu0_DTLB PREFETCH     ACCESS:          0 HIT:          0 MISS:          0
cpu0_DTLB WRITE        ACCESS:          0 HIT:          0 MISS:          0
cpu0_DTLB TRANSLATION  ACCESS:          0 HIT:          0 MISS:          0
cpu0_DTLB PREFETCH REQUESTED:          0 ISSUED:          0 USEFUL:          0 USELESS:          0
cpu0_DTLB AVERAGE MISS LATENCY: 18.34 cycles
cpu0_ITLB TOTAL        ACCESS:     237104 HIT:     236871 MISS:        233
cpu0_ITLB LOAD         ACCESS:     237104 HIT:     236871 MISS:        233
cpu0_ITLB RFO          ACCESS:          0 HIT:          0 MISS:          0
cpu0_ITLB PREFETCH     ACCESS:          0 HIT:          0 MISS:          0
cpu0_ITLB WRITE        ACCESS:          0 HIT:          0 MISS:          0
cpu0_ITLB TRANSLATION  ACCESS:          0 HIT:          0 MISS:          0
cpu0_ITLB PREFETCH REQUESTED:          0 ISSUED:          0 USEFUL:          0 USELESS:          0
cpu0_ITLB AVERAGE MISS LATENCY: 198.8 cycles
cpu0_L1D TOTAL        ACCESS:  195226866 HIT:  181092263 MISS:   14134603
cpu0_L1D LOAD         ACCESS:  159984711 HIT:  150048532 MISS:    9936179
cpu0_L1D RFO          ACCESS:          0 HIT:          0 MISS:          0
cpu0_L1D PREFETCH     ACCESS:          0 HIT:          0 MISS:          0
cpu0_L1D WRITE        ACCESS:   35194280 HIT:   31014166 MISS:    4180114
cpu0_L1D TRANSLATION  ACCESS:      47875 HIT:      29565 MISS:      18310
cpu0_L1D PREFETCH REQUESTED:          0 ISSUED:          0 USEFUL:          0 USELESS:          0
cpu0_L1D AVERAGE MISS LATENCY: 159.4 cycles
cpu0_L1I TOTAL        ACCESS:     246369 HIT:     243440 MISS:       2929
cpu0_L1I LOAD         ACCESS:     246369 HIT:     243440 MISS:       2929
cpu0_L1I RFO          ACCESS:          0 HIT:          0 MISS:          0
cpu0_L1I PREFETCH     ACCESS:          0 HIT:          0 MISS:          0
cpu0_L1I WRITE        ACCESS:          0 HIT:          0 MISS:          0
cpu0_L1I TRANSLATION  ACCESS:          0 HIT:          0 MISS:          0
cpu0_L1I PREFETCH REQUESTED:          0 ISSUED:          0 USEFUL:          0 USELESS:          0
cpu0_L1I AVERAGE MISS LATENCY: 362.1 cycles
cpu0_L2C TOTAL        ACCESS:    5430875 HIT:    2197729 MISS:    3233146
cpu0_L2C LOAD         ACCESS:    2429118 HIT:     122518 MISS:    2306600
cpu0_L2C RFO          ACCESS:     924649 HIT:       1958 MISS:     922691
cpu0_L2C PREFETCH     ACCESS:          0 HIT:          0 MISS:          0
cpu0_L2C WRITE        ACCESS:    2058801 HIT:    2058458 MISS:        343
cpu0_L2C TRANSLATION  ACCESS:      18307 HIT:      14795 MISS:       3512
cpu0_L2C PREFETCH REQUESTED:          0 ISSUED:          0 USEFUL:          0 USELESS:          0
cpu0_L2C AVERAGE MISS LATENCY: 962.1 cycles
cpu0_STLB TOTAL        ACCESS:     767338 HIT:     719493 MISS:      47845
cpu0_STLB LOAD         ACCESS:     767338 HIT:     719493 MISS:      47845
cpu0_STLB RFO          ACCESS:          0 HIT:          0 MISS:          0
cpu0_STLB PREFETCH     ACCESS:          0 HIT:          0 MISS:          0
cpu0_STLB WRITE        ACCESS:          0 HIT:          0 MISS:          0
cpu0_STLB TRANSLATION  ACCESS:          0 HIT:          0 MISS:          0
cpu0_STLB PREFETCH REQUESTED:          0 ISSUED:          0 USEFUL:          0 USELESS:          0
cpu0_STLB AVERAGE MISS LATENCY: 408.4 cycles

DRAM Statistics

Channel 0 RQ ROW_BUFFER_HIT:     766791
  ROW_BUFFER_MISS:    2171683
 AVG DBUS CONGESTED CYCLE: 3.974
WQ ROW_BUFFER_HIT: Channel 0 
  ROW_BUFFER_MISS:     655705
  FULL:    1264459
