WARNING: physical memory size is smaller than virtual memory size.

*** ChampSim Multicore Out-of-Order Simulator ***
Warmup Instructions: 50000000
Simulation Instructions: 600000000
Number of CPUs: 1
Page size: 4096

Off-chip DRAM Size: 4 GiB Channels: 1 Width: 64-bit Data Race: 3200 MT/s
Heartbeat CPU 0 instructions: 10000003 cycles: 2881057 heartbeat IPC: 3.471 cumulative IPC: 3.471 (Simulation time: 00 hr 00 min 52 sec)
Heartbeat CPU 0 instructions: 20000003 cycles: 5381057 heartbeat IPC: 4 cumulative IPC: 3.717 (Simulation time: 00 hr 01 min 40 sec)
Heartbeat CPU 0 instructions: 30000003 cycles: 7881057 heartbeat IPC: 4 cumulative IPC: 3.807 (Simulation time: 00 hr 02 min 29 sec)
Heartbeat CPU 0 instructions: 40000003 cycles: 10381057 heartbeat IPC: 4 cumulative IPC: 3.853 (Simulation time: 00 hr 03 min 17 sec)
Heartbeat CPU 0 instructions: 50000003 cycles: 12881057 heartbeat IPC: 4 cumulative IPC: 3.882 (Simulation time: 00 hr 04 min 04 sec)
Warmup finished CPU 0 instructions: 50000003 cycles: 12881058 cumulative IPC: 3.882 (Simulation time: 00 hr 04 min 04 sec)
Warmup complete CPU 0 instructions: 50000003 cycles: 12881058 cumulative IPC: 3.882 (Simulation time: 00 hr 04 min 04 sec)
Heartbeat CPU 0 instructions: 60000000 cycles: 19160350 heartbeat IPC: 1.593 cumulative IPC: 1.593 (Simulation time: 00 hr 05 min 44 sec)
Heartbeat CPU 0 instructions: 70000002 cycles: 25501129 heartbeat IPC: 1.577 cumulative IPC: 1.585 (Simulation time: 00 hr 07 min 25 sec)
Heartbeat CPU 0 instructions: 80000001 cycles: 31764365 heartbeat IPC: 1.597 cumulative IPC: 1.589 (Simulation time: 00 hr 09 min 05 sec)
Heartbeat CPU 0 instructions: 90000004 cycles: 38042320 heartbeat IPC: 1.593 cumulative IPC: 1.59 (Simulation time: 00 hr 10 min 47 sec)
Heartbeat CPU 0 instructions: 100000000 cycles: 42286567 heartbeat IPC: 2.356 cumulative IPC: 1.7 (Simulation time: 00 hr 12 min 02 sec)
Heartbeat CPU 0 instructions: 110000004 cycles: 45244652 heartbeat IPC: 3.381 cumulative IPC: 1.854 (Simulation time: 00 hr 13 min 03 sec)
Heartbeat CPU 0 instructions: 120000002 cycles: 51871658 heartbeat IPC: 1.509 cumulative IPC: 1.795 (Simulation time: 00 hr 14 min 46 sec)
Heartbeat CPU 0 instructions: 130000000 cycles: 58968210 heartbeat IPC: 1.409 cumulative IPC: 1.736 (Simulation time: 00 hr 16 min 36 sec)
Heartbeat CPU 0 instructions: 140000004 cycles: 65992901 heartbeat IPC: 1.424 cumulative IPC: 1.695 (Simulation time: 00 hr 18 min 26 sec)
Heartbeat CPU 0 instructions: 150000001 cycles: 73181486 heartbeat IPC: 1.391 cumulative IPC: 1.658 (Simulation time: 00 hr 20 min 16 sec)
Heartbeat CPU 0 instructions: 160000004 cycles: 80188943 heartbeat IPC: 1.427 cumulative IPC: 1.634 (Simulation time: 00 hr 22 min 05 sec)
Heartbeat CPU 0 instructions: 170000000 cycles: 87328634 heartbeat IPC: 1.401 cumulative IPC: 1.612 (Simulation time: 00 hr 23 min 54 sec)
Heartbeat CPU 0 instructions: 180000000 cycles: 94468747 heartbeat IPC: 1.401 cumulative IPC: 1.593 (Simulation time: 00 hr 25 min 43 sec)
Heartbeat CPU 0 instructions: 190000000 cycles: 101166850 heartbeat IPC: 1.493 cumulative IPC: 1.586 (Simulation time: 00 hr 27 min 27 sec)
Heartbeat CPU 0 instructions: 200000003 cycles: 107233824 heartbeat IPC: 1.648 cumulative IPC: 1.59 (Simulation time: 00 hr 29 min 05 sec)
Heartbeat CPU 0 instructions: 210000000 cycles: 113317408 heartbeat IPC: 1.644 cumulative IPC: 1.593 (Simulation time: 00 hr 30 min 43 sec)
Heartbeat CPU 0 instructions: 220000004 cycles: 119444460 heartbeat IPC: 1.632 cumulative IPC: 1.595 (Simulation time: 00 hr 32 min 22 sec)
Heartbeat CPU 0 instructions: 230000000 cycles: 125517268 heartbeat IPC: 1.647 cumulative IPC: 1.598 (Simulation time: 00 hr 34 min 01 sec)
Heartbeat CPU 0 instructions: 240000003 cycles: 131553509 heartbeat IPC: 1.657 cumulative IPC: 1.601 (Simulation time: 00 hr 35 min 39 sec)
Heartbeat CPU 0 instructions: 250000002 cycles: 137721193 heartbeat IPC: 1.621 cumulative IPC: 1.602 (Simulation time: 00 hr 37 min 18 sec)
Heartbeat CPU 0 instructions: 260000002 cycles: 143970489 heartbeat IPC: 1.6 cumulative IPC: 1.602 (Simulation time: 00 hr 38 min 57 sec)
Heartbeat CPU 0 instructions: 270000003 cycles: 150060174 heartbeat IPC: 1.642 cumulative IPC: 1.604 (Simulation time: 00 hr 40 min 36 sec)
Heartbeat CPU 0 instructions: 280000003 cycles: 156319228 heartbeat IPC: 1.598 cumulative IPC: 1.603 (Simulation time: 00 hr 42 min 16 sec)
Heartbeat CPU 0 instructions: 290000000 cycles: 206825538 heartbeat IPC: 0.198 cumulative IPC: 1.237 (Simulation time: 00 hr 51 min 14 sec)
Heartbeat CPU 0 instructions: 300000001 cycles: 209327927 heartbeat IPC: 3.996 cumulative IPC: 1.273 (Simulation time: 00 hr 52 min 08 sec)
Heartbeat CPU 0 instructions: 310000000 cycles: 211831322 heartbeat IPC: 3.995 cumulative IPC: 1.307 (Simulation time: 00 hr 53 min 02 sec)
Heartbeat CPU 0 instructions: 320000002 cycles: 214334734 heartbeat IPC: 3.995 cumulative IPC: 1.34 (Simulation time: 00 hr 54 min 06 sec)
Heartbeat CPU 0 instructions: 330000004 cycles: 216848521 heartbeat IPC: 3.978 cumulative IPC: 1.373 (Simulation time: 00 hr 55 min 00 sec)
Heartbeat CPU 0 instructions: 340000004 cycles: 219350910 heartbeat IPC: 3.996 cumulative IPC: 1.405 (Simulation time: 00 hr 55 min 54 sec)
Heartbeat CPU 0 instructions: 350000003 cycles: 221853708 heartbeat IPC: 3.996 cumulative IPC: 1.436 (Simulation time: 00 hr 56 min 48 sec)
Heartbeat CPU 0 instructions: 360000002 cycles: 224356579 heartbeat IPC: 3.995 cumulative IPC: 1.466 (Simulation time: 00 hr 57 min 42 sec)
Heartbeat CPU 0 instructions: 370000004 cycles: 226858928 heartbeat IPC: 3.996 cumulative IPC: 1.495 (Simulation time: 00 hr 58 min 35 sec)
Heartbeat CPU 0 instructions: 380000003 cycles: 229362719 heartbeat IPC: 3.994 cumulative IPC: 1.524 (Simulation time: 00 hr 59 min 29 sec)
Heartbeat CPU 0 instructions: 390000000 cycles: 231865107 heartbeat IPC: 3.996 cumulative IPC: 1.553 (Simulation time: 01 hr 00 min 23 sec)
Heartbeat CPU 0 instructions: 400000002 cycles: 234367486 heartbeat IPC: 3.996 cumulative IPC: 1.58 (Simulation time: 01 hr 01 min 17 sec)
Heartbeat CPU 0 instructions: 410000002 cycles: 236870325 heartbeat IPC: 3.995 cumulative IPC: 1.607 (Simulation time: 01 hr 02 min 10 sec)
Heartbeat CPU 0 instructions: 420000000 cycles: 239373177 heartbeat IPC: 3.995 cumulative IPC: 1.634 (Simulation time: 01 hr 03 min 04 sec)
Heartbeat CPU 0 instructions: 430000001 cycles: 241876356 heartbeat IPC: 3.995 cumulative IPC: 1.659 (Simulation time: 01 hr 03 min 58 sec)
Heartbeat CPU 0 instructions: 440000000 cycles: 244378805 heartbeat IPC: 3.996 cumulative IPC: 1.685 (Simulation time: 01 hr 04 min 52 sec)
Heartbeat CPU 0 instructions: 450000001 cycles: 246882229 heartbeat IPC: 3.995 cumulative IPC: 1.709 (Simulation time: 01 hr 05 min 46 sec)
Heartbeat CPU 0 instructions: 460000002 cycles: 249384569 heartbeat IPC: 3.996 cumulative IPC: 1.734 (Simulation time: 01 hr 06 min 39 sec)
Heartbeat CPU 0 instructions: 470000001 cycles: 251887328 heartbeat IPC: 3.996 cumulative IPC: 1.757 (Simulation time: 01 hr 07 min 33 sec)
Heartbeat CPU 0 instructions: 480000000 cycles: 254390502 heartbeat IPC: 3.995 cumulative IPC: 1.78 (Simulation time: 01 hr 08 min 27 sec)
Heartbeat CPU 0 instructions: 490000001 cycles: 256893300 heartbeat IPC: 3.996 cumulative IPC: 1.803 (Simulation time: 01 hr 09 min 21 sec)
Heartbeat CPU 0 instructions: 500000004 cycles: 259395716 heartbeat IPC: 3.996 cumulative IPC: 1.825 (Simulation time: 01 hr 10 min 14 sec)
Heartbeat CPU 0 instructions: 510000001 cycles: 266670118 heartbeat IPC: 1.375 cumulative IPC: 1.813 (Simulation time: 01 hr 12 min 02 sec)
Heartbeat CPU 0 instructions: 520000000 cycles: 361876043 heartbeat IPC: 0.105 cumulative IPC: 1.347 (Simulation time: 01 hr 30 min 23 sec)
Heartbeat CPU 0 instructions: 530000001 cycles: 439920278 heartbeat IPC: 0.1281 cumulative IPC: 1.124 (Simulation time: 01 hr 45 min 25 sec)
Heartbeat CPU 0 instructions: 540000000 cycles: 478615358 heartbeat IPC: 0.2584 cumulative IPC: 1.052 (Simulation time: 01 hr 53 min 22 sec)
Heartbeat CPU 0 instructions: 550000001 cycles: 517228345 heartbeat IPC: 0.259 cumulative IPC: 0.9914 (Simulation time: 02 hr 01 min 20 sec)
Heartbeat CPU 0 instructions: 560000003 cycles: 555578524 heartbeat IPC: 0.2608 cumulative IPC: 0.9398 (Simulation time: 02 hr 09 min 11 sec)
Heartbeat CPU 0 instructions: 570000004 cycles: 588727264 heartbeat IPC: 0.3017 cumulative IPC: 0.903 (Simulation time: 02 hr 16 min 18 sec)
Heartbeat CPU 0 instructions: 580000001 cycles: 626311166 heartbeat IPC: 0.2661 cumulative IPC: 0.864 (Simulation time: 02 hr 24 min 05 sec)
Heartbeat CPU 0 instructions: 590000001 cycles: 664855587 heartbeat IPC: 0.2594 cumulative IPC: 0.8283 (Simulation time: 02 hr 32 min 07 sec)
*** Reached end of trace: (0, "traces/sp.A.champsimtrace")
Heartbeat CPU 0 instructions: 600000002 cycles: 703117634 heartbeat IPC: 0.2614 cumulative IPC: 0.7968 (Simulation time: 02 hr 40 min 06 sec)
Heartbeat CPU 0 instructions: 610000004 cycles: 735860078 heartbeat IPC: 0.3054 cumulative IPC: 0.7746 (Simulation time: 02 hr 45 min 38 sec)
Heartbeat CPU 0 instructions: 620000003 cycles: 742023277 heartbeat IPC: 1.623 cumulative IPC: 0.7817 (Simulation time: 02 hr 47 min 18 sec)
Heartbeat CPU 0 instructions: 630000001 cycles: 748155715 heartbeat IPC: 1.631 cumulative IPC: 0.7888 (Simulation time: 02 hr 48 min 57 sec)
Heartbeat CPU 0 instructions: 640000000 cycles: 754280613 heartbeat IPC: 1.633 cumulative IPC: 0.7958 (Simulation time: 02 hr 50 min 41 sec)
Heartbeat CPU 0 instructions: 650000003 cycles: 760424251 heartbeat IPC: 1.628 cumulative IPC: 0.8026 (Simulation time: 02 hr 52 min 20 sec)
Simulation finished CPU 0 instructions: 600000000 cycles: 747543194 cumulative IPC: 0.8026 (Simulation time: 02 hr 52 min 20 sec)
Simulation complete CPU 0 instructions: 600000000 cycles: 747543194 cumulative IPC: 0.8026 (Simulation time: 02 hr 52 min 20 sec)

ChampSim completed all CPUs

=== Simulation ===
CPU 0 runs traces/sp.A.champsimtrace
Region of Interest Statistics

CPU 0 cumulative IPC: 0.8026 instructions: 600000000 cycles: 747543194
CPU 0 Branch Prediction Accuracy: 98.91% MPKI: 0.226 Average ROB Occupancy at Mispredict: 235.6
Branch type MPKI
BRANCH_DIRECT_JUMP: 5e-06
BRANCH_INDIRECT: 7.67e-05
BRANCH_CONDITIONAL: 0.226
BRANCH_DIRECT_CALL: 2e-05
BRANCH_INDIRECT_CALL: 3.33e-05
BRANCH_RETURN: 3.67e-05

LLC TOTAL        ACCESS:    5279015 HIT:     458907 MISS:    4820108
LLC LOAD         ACCESS:    2306600 HIT:     292292 MISS:    2014308
LLC RFO          ACCESS:     922693 HIT:       1253 MISS:     921440
LLC PREFETCH     ACCESS:          0 HIT:          0 MISS:          0
LLC WRITE        ACCESS:    2046204 HIT:     165315 MISS:    1880889
LLC TRANSLATION  ACCESS:       3518 HIT:         47 MISS:       3471
LLC PREFETCH REQUESTED:          0 ISSUED:          0 USEFUL:          0 USELESS:          0
LLC AVERAGE MISS LATENCY: 738.7 cycles
cpu0_DTLB TOTAL        ACCESS:  125837798 HIT:  124986448 MISS:     851350
cpu0_DTLB LOAD         ACCESS:  125837798 HIT:  124986448 MISS:     851350
cpu0_DTLB RFO          ACCESS:          0 HIT:          0 MISS:          0
cpu0_DTLB PREFETCH     ACCESS:          0 HIT:          0 MISS:          0
cpu0_DTLB WRITE        ACCESS:          0 HIT:          0 MISS:          0
cpu0_DTLB TRANSLATION  ACCESS:          0 HIT:          0 MISS:          0
cpu0_DTLB PREFETCH REQUESTED:          0 ISSUED:          0 USEFUL:          0 USELESS:          0
cpu0_DTLB AVERAGE MISS LATENCY: 20.4 cycles
cpu0_ITLB TOTAL        ACCESS:     223946 HIT:     223707 MISS:        239
cpu0_ITLB LOAD         ACCESS:     223946 HIT:     223707 MISS:        239
cpu0_ITLB RFO          ACCESS:          0 HIT:          0 MISS:          0
cpu0_ITLB PREFETCH     ACCESS:          0 HIT:          0 MISS:          0
cpu0_ITLB WRITE        ACCESS:          0 HIT:          0 MISS:          0
cpu0_ITLB TRANSLATION  ACCESS:          0 HIT:          0 MISS:          0
cpu0_ITLB PREFETCH REQUESTED:          0 ISSUED:          0 USEFUL:          0 USELESS:          0
cpu0_ITLB AVERAGE MISS LATENCY: 313.5 cycles
cpu0_L1D TOTAL        ACCESS:  190398791 HIT:  175708744 MISS:   14690047
cpu0_L1D LOAD         ACCESS:  155156609 HIT:  144595116 MISS:   10561493
cpu0_L1D RFO          ACCESS:          0 HIT:          0 MISS:          0
cpu0_L1D PREFETCH     ACCESS:          0 HIT:          0 MISS:          0
cpu0_L1D WRITE        ACCESS:   35194306 HIT:   31084064 MISS:    4110242
cpu0_L1D TRANSLATION  ACCESS:      47876 HIT:      29564 MISS:      18312
cpu0_L1D PREFETCH REQUESTED:          0 ISSUED:          0 USEFUL:          0 USELESS:          0
cpu0_L1D AVERAGE MISS LATENCY: 177.7 cycles
cpu0_L1I TOTAL        ACCESS:     232185 HIT:     229340 MISS:       2845
cpu0_L1I LOAD         ACCESS:     232185 HIT:     229340 MISS:       2845
cpu0_L1I RFO          ACCESS:          0 HIT:          0 MISS:          0
cpu0_L1I PREFETCH     ACCESS:          0 HIT:          0 MISS:          0
cpu0_L1I WRITE        ACCESS:          0 HIT:          0 MISS:          0
cpu0_L1I TRANSLATION  ACCESS:          0 HIT:          0 MISS:          0
cpu0_L1I PREFETCH REQUESTED:          0 ISSUED:          0 USEFUL:          0 USELESS:          0
cpu0_L1I AVERAGE MISS LATENCY: 540.4 cycles
cpu0_L2C TOTAL        ACCESS:    5438355 HIT:    2205198 MISS:    3233157
cpu0_L2C LOAD         ACCESS:    2437273 HIT:     130670 MISS:    2306603
cpu0_L2C RFO          ACCESS:     924309 HIT:       1616 MISS:     922693
cpu0_L2C PREFETCH     ACCESS:          0 HIT:          0 MISS:          0
cpu0_L2C WRITE        ACCESS:    2058465 HIT:    2058122 MISS:        343
cpu0_L2C TRANSLATION  ACCESS:      18308 HIT:      14790 MISS:       3518
cpu0_L2C PREFETCH REQUESTED:          0 ISSUED:          0 USEFUL:          0 USELESS:          0
cpu0_L2C AVERAGE MISS LATENCY: 1122 cycles
cpu0_STLB TOTAL        ACCESS:     592559 HIT:     544712 MISS:      47847
cpu0_STLB LOAD         ACCESS:     592559 HIT:     544712 MISS:      47847
cpu0_STLB RFO          ACCESS:          0 HIT:          0 MISS:          0
cpu0_STLB PREFETCH     ACCESS:          0 HIT:          0 MISS:          0
cpu0_STLB WRITE        ACCESS:          0 HIT:          0 MISS:          0
cpu0_STLB TRANSLATION  ACCESS:          0 HIT:          0 MISS:          0
cpu0_STLB PREFETCH REQUESTED:          0 ISSUED:          0 USEFUL:          0 USELESS:          0
cpu0_STLB AVERAGE MISS LATENCY: 384.3 cycles

DRAM Statistics

Channel 0 RQ ROW_BUFFER_HIT:     763620
  ROW_BUFFER_MISS:    2148817
 AVG DBUS CONGESTED CYCLE: 3.97
WQ ROW_BUFFER_HIT: Channel 0 
  ROW_BUFFER_MISS:     620690
  FULL:    1305584
