WARNING: physical memory size is smaller than virtual memory size.

*** ChampSim Multicore Out-of-Order Simulator ***
Warmup Instructions: 50000000
Simulation Instructions: 600000000
Number of CPUs: 1
Page size: 4096

CPU 0 Tage branch predictor
Off-chip DRAM Size: 4 GiB Channels: 1 Width: 64-bit Data Race: 3200 MT/s
Heartbeat CPU 0 instructions: 10000001 cycles: 2881056 heartbeat IPC: 3.471 cumulative IPC: 3.471 (Simulation time: 00 hr 00 min 56 sec)
Heartbeat CPU 0 instructions: 20000001 cycles: 5381056 heartbeat IPC: 4 cumulative IPC: 3.717 (Simulation time: 00 hr 01 min 51 sec)
Heartbeat CPU 0 instructions: 30000001 cycles: 7881056 heartbeat IPC: 4 cumulative IPC: 3.807 (Simulation time: 00 hr 02 min 43 sec)
Heartbeat CPU 0 instructions: 40000001 cycles: 10381056 heartbeat IPC: 4 cumulative IPC: 3.853 (Simulation time: 00 hr 03 min 36 sec)
Heartbeat CPU 0 instructions: 50000001 cycles: 12881056 heartbeat IPC: 4 cumulative IPC: 3.882 (Simulation time: 00 hr 04 min 30 sec)
Warmup finished CPU 0 instructions: 50000001 cycles: 12881057 cumulative IPC: 3.882 (Simulation time: 00 hr 04 min 30 sec)
Warmup complete CPU 0 instructions: 50000001 cycles: 12881057 cumulative IPC: 3.882 (Simulation time: 00 hr 04 min 30 sec)
Heartbeat CPU 0 instructions: 60000000 cycles: 16274427 heartbeat IPC: 2.947 cumulative IPC: 2.947 (Simulation time: 00 hr 05 min 38 sec)
Heartbeat CPU 0 instructions: 70000003 cycles: 19741389 heartbeat IPC: 2.884 cumulative IPC: 2.915 (Simulation time: 00 hr 06 min 51 sec)
Heartbeat CPU 0 instructions: 80000001 cycles: 23167257 heartbeat IPC: 2.919 cumulative IPC: 2.917 (Simulation time: 00 hr 08 min 00 sec)
Heartbeat CPU 0 instructions: 90000003 cycles: 26592869 heartbeat IPC: 2.919 cumulative IPC: 2.917 (Simulation time: 00 hr 09 min 12 sec)
Heartbeat CPU 0 instructions: 100000000 cycles: 29631819 heartbeat IPC: 3.291 cumulative IPC: 2.985 (Simulation time: 00 hr 10 min 18 sec)
Heartbeat CPU 0 instructions: 110000004 cycles: 33449270 heartbeat IPC: 2.62 cumulative IPC: 2.917 (Simulation time: 00 hr 11 min 33 sec)
Heartbeat CPU 0 instructions: 120000002 cycles: 39249426 heartbeat IPC: 1.724 cumulative IPC: 2.655 (Simulation time: 00 hr 13 min 12 sec)
Heartbeat CPU 0 instructions: 130000000 cycles: 46310257 heartbeat IPC: 1.416 cumulative IPC: 2.393 (Simulation time: 00 hr 15 min 14 sec)
Heartbeat CPU 0 instructions: 140000004 cycles: 53283680 heartbeat IPC: 1.434 cumulative IPC: 2.228 (Simulation time: 00 hr 17 min 04 sec)
Heartbeat CPU 0 instructions: 150000001 cycles: 60377572 heartbeat IPC: 1.41 cumulative IPC: 2.105 (Simulation time: 00 hr 18 min 56 sec)
Heartbeat CPU 0 instructions: 160000004 cycles: 67357444 heartbeat IPC: 1.433 cumulative IPC: 2.019 (Simulation time: 00 hr 20 min 46 sec)
Heartbeat CPU 0 instructions: 170000000 cycles: 74458644 heartbeat IPC: 1.408 cumulative IPC: 1.949 (Simulation time: 00 hr 22 min 35 sec)
Heartbeat CPU 0 instructions: 180000000 cycles: 81461671 heartbeat IPC: 1.428 cumulative IPC: 1.896 (Simulation time: 00 hr 24 min 27 sec)
Heartbeat CPU 0 instructions: 190000000 cycles: 88718480 heartbeat IPC: 1.378 cumulative IPC: 1.846 (Simulation time: 00 hr 26 min 20 sec)
Heartbeat CPU 0 instructions: 200000003 cycles: 94564122 heartbeat IPC: 1.711 cumulative IPC: 1.836 (Simulation time: 00 hr 27 min 59 sec)
Heartbeat CPU 0 instructions: 210000000 cycles: 100849243 heartbeat IPC: 1.591 cumulative IPC: 1.819 (Simulation time: 00 hr 29 min 44 sec)
Heartbeat CPU 0 instructions: 220000004 cycles: 108189945 heartbeat IPC: 1.362 cumulative IPC: 1.784 (Simulation time: 00 hr 31 min 40 sec)
Heartbeat CPU 0 instructions: 230000000 cycles: 115616268 heartbeat IPC: 1.347 cumulative IPC: 1.752 (Simulation time: 00 hr 33 min 34 sec)
Heartbeat CPU 0 instructions: 240000003 cycles: 123005020 heartbeat IPC: 1.353 cumulative IPC: 1.725 (Simulation time: 00 hr 35 min 28 sec)
Heartbeat CPU 0 instructions: 250000002 cycles: 130416783 heartbeat IPC: 1.349 cumulative IPC: 1.702 (Simulation time: 00 hr 37 min 22 sec)
Heartbeat CPU 0 instructions: 260000002 cycles: 137846527 heartbeat IPC: 1.346 cumulative IPC: 1.68 (Simulation time: 00 hr 39 min 18 sec)
Heartbeat CPU 0 instructions: 270000003 cycles: 145222182 heartbeat IPC: 1.356 cumulative IPC: 1.662 (Simulation time: 00 hr 41 min 11 sec)
Heartbeat CPU 0 instructions: 280000001 cycles: 152667741 heartbeat IPC: 1.343 cumulative IPC: 1.645 (Simulation time: 00 hr 43 min 06 sec)
Heartbeat CPU 0 instructions: 290000000 cycles: 216280139 heartbeat IPC: 0.1572 cumulative IPC: 1.18 (Simulation time: 00 hr 54 min 07 sec)
Heartbeat CPU 0 instructions: 300000001 cycles: 218780267 heartbeat IPC: 4 cumulative IPC: 1.214 (Simulation time: 00 hr 55 min 04 sec)
Heartbeat CPU 0 instructions: 310000000 cycles: 221280384 heartbeat IPC: 4 cumulative IPC: 1.248 (Simulation time: 00 hr 56 min 04 sec)
Heartbeat CPU 0 instructions: 320000002 cycles: 223780542 heartbeat IPC: 4 cumulative IPC: 1.28 (Simulation time: 00 hr 57 min 03 sec)
Heartbeat CPU 0 instructions: 330000004 cycles: 226280674 heartbeat IPC: 4 cumulative IPC: 1.312 (Simulation time: 00 hr 58 min 03 sec)
Heartbeat CPU 0 instructions: 340000004 cycles: 228780870 heartbeat IPC: 4 cumulative IPC: 1.343 (Simulation time: 00 hr 59 min 03 sec)
Heartbeat CPU 0 instructions: 350000003 cycles: 231281015 heartbeat IPC: 4 cumulative IPC: 1.374 (Simulation time: 01 hr 00 min 03 sec)
Heartbeat CPU 0 instructions: 360000001 cycles: 233782362 heartbeat IPC: 3.998 cumulative IPC: 1.403 (Simulation time: 01 hr 01 min 04 sec)
Heartbeat CPU 0 instructions: 370000004 cycles: 236282643 heartbeat IPC: 4 cumulative IPC: 1.432 (Simulation time: 01 hr 02 min 04 sec)
Heartbeat CPU 0 instructions: 380000003 cycles: 238783116 heartbeat IPC: 3.999 cumulative IPC: 1.461 (Simulation time: 01 hr 03 min 05 sec)
Heartbeat CPU 0 instructions: 390000000 cycles: 241283661 heartbeat IPC: 3.999 cumulative IPC: 1.489 (Simulation time: 01 hr 04 min 04 sec)
Heartbeat CPU 0 instructions: 400000002 cycles: 243784973 heartbeat IPC: 3.998 cumulative IPC: 1.516 (Simulation time: 01 hr 05 min 04 sec)
Heartbeat CPU 0 instructions: 410000002 cycles: 246285895 heartbeat IPC: 3.999 cumulative IPC: 1.542 (Simulation time: 01 hr 06 min 04 sec)
Heartbeat CPU 0 instructions: 420000000 cycles: 248787065 heartbeat IPC: 3.998 cumulative IPC: 1.568 (Simulation time: 01 hr 07 min 02 sec)
Heartbeat CPU 0 instructions: 430000001 cycles: 251287148 heartbeat IPC: 4 cumulative IPC: 1.594 (Simulation time: 01 hr 08 min 03 sec)
Heartbeat CPU 0 instructions: 440000002 cycles: 253787789 heartbeat IPC: 3.999 cumulative IPC: 1.619 (Simulation time: 01 hr 09 min 03 sec)
Heartbeat CPU 0 instructions: 450000001 cycles: 256287832 heartbeat IPC: 4 cumulative IPC: 1.643 (Simulation time: 01 hr 10 min 02 sec)
Heartbeat CPU 0 instructions: 460000002 cycles: 258787877 heartbeat IPC: 4 cumulative IPC: 1.667 (Simulation time: 01 hr 11 min 01 sec)
Heartbeat CPU 0 instructions: 470000001 cycles: 261290966 heartbeat IPC: 3.995 cumulative IPC: 1.691 (Simulation time: 01 hr 12 min 03 sec)
Heartbeat CPU 0 instructions: 480000000 cycles: 263791050 heartbeat IPC: 4 cumulative IPC: 1.714 (Simulation time: 01 hr 13 min 04 sec)
Heartbeat CPU 0 instructions: 490000001 cycles: 266291519 heartbeat IPC: 3.999 cumulative IPC: 1.736 (Simulation time: 01 hr 14 min 05 sec)
Heartbeat CPU 0 instructions: 500000004 cycles: 268791891 heartbeat IPC: 3.999 cumulative IPC: 1.758 (Simulation time: 01 hr 15 min 05 sec)
Heartbeat CPU 0 instructions: 510000001 cycles: 275980693 heartbeat IPC: 1.391 cumulative IPC: 1.748 (Simulation time: 01 hr 16 min 57 sec)
Heartbeat CPU 0 instructions: 520000002 cycles: 374072597 heartbeat IPC: 0.1019 cumulative IPC: 1.301 (Simulation time: 01 hr 36 min 08 sec)
Heartbeat CPU 0 instructions: 530000001 cycles: 456877591 heartbeat IPC: 0.1208 cumulative IPC: 1.081 (Simulation time: 01 hr 52 min 06 sec)
Heartbeat CPU 0 instructions: 540000001 cycles: 481174576 heartbeat IPC: 0.4116 cumulative IPC: 1.046 (Simulation time: 01 hr 57 min 19 sec)
Heartbeat CPU 0 instructions: 550000001 cycles: 506016931 heartbeat IPC: 0.4025 cumulative IPC: 1.014 (Simulation time: 02 hr 02 min 39 sec)
Heartbeat CPU 0 instructions: 560000003 cycles: 531261299 heartbeat IPC: 0.3961 cumulative IPC: 0.9838 (Simulation time: 02 hr 08 min 08 sec)
Heartbeat CPU 0 instructions: 570000003 cycles: 557508383 heartbeat IPC: 0.381 cumulative IPC: 0.9548 (Simulation time: 02 hr 13 min 45 sec)
Heartbeat CPU 0 instructions: 580000002 cycles: 582287777 heartbeat IPC: 0.4036 cumulative IPC: 0.9308 (Simulation time: 02 hr 19 min 09 sec)
Heartbeat CPU 0 instructions: 590000001 cycles: 607695889 heartbeat IPC: 0.3936 cumulative IPC: 0.9078 (Simulation time: 02 hr 24 min 40 sec)
*** Reached end of trace: (0, "traces/sp.A.champsimtrace")
Heartbeat CPU 0 instructions: 600000001 cycles: 633374835 heartbeat IPC: 0.3894 cumulative IPC: 0.8864 (Simulation time: 02 hr 30 min 14 sec)
Heartbeat CPU 0 instructions: 610000004 cycles: 663164378 heartbeat IPC: 0.3357 cumulative IPC: 0.8612 (Simulation time: 02 hr 35 min 19 sec)
Heartbeat CPU 0 instructions: 620000002 cycles: 666606902 heartbeat IPC: 2.905 cumulative IPC: 0.8719 (Simulation time: 02 hr 36 min 34 sec)
Heartbeat CPU 0 instructions: 630000001 cycles: 670001422 heartbeat IPC: 2.946 cumulative IPC: 0.8826 (Simulation time: 02 hr 37 min 48 sec)
Heartbeat CPU 0 instructions: 640000000 cycles: 673432746 heartbeat IPC: 2.914 cumulative IPC: 0.8932 (Simulation time: 02 hr 39 min 02 sec)
Heartbeat CPU 0 instructions: 650000004 cycles: 676853056 heartbeat IPC: 2.924 cumulative IPC: 0.9037 (Simulation time: 02 hr 40 min 16 sec)
Simulation finished CPU 0 instructions: 600000003 cycles: 663972000 cumulative IPC: 0.9037 (Simulation time: 02 hr 40 min 16 sec)
Simulation complete CPU 0 instructions: 600000003 cycles: 663972000 cumulative IPC: 0.9037 (Simulation time: 02 hr 40 min 16 sec)

ChampSim completed all CPUs

=== Simulation ===
CPU 0 runs traces/sp.A.champsimtrace
Region of Interest Statistics

CPU 0 cumulative IPC: 0.9037 instructions: 600000003 cycles: 663972000
CPU 0 Branch Prediction Accuracy: 99.98% MPKI: 0.004297 Average ROB Occupancy at Mispredict: 115.5
Branch type MPKI
BRANCH_DIRECT_JUMP: 5e-06
BRANCH_INDIRECT: 7.67e-05
BRANCH_CONDITIONAL: 0.00412
BRANCH_DIRECT_CALL: 2e-05
BRANCH_INDIRECT_CALL: 3.33e-05
BRANCH_RETURN: 3.67e-05

LLC TOTAL        ACCESS:    8160300 HIT:    3778241 MISS:    4382059
LLC LOAD         ACCESS:    2306655 HIT:    1494509 MISS:     812146
LLC RFO          ACCESS:     922692 HIT:      33291 MISS:     889401
LLC PREFETCH     ACCESS:    2881158 HIT:    1590727 MISS:    1290431
LLC WRITE        ACCESS:    2046285 HIT:     659647 MISS:    1386638
LLC TRANSLATION  ACCESS:       3510 HIT:         67 MISS:       3443
LLC PREFETCH REQUESTED:    2881158 ISSUED:    2881158 USEFUL:    1023552 USELESS:      13864
LLC AVERAGE MISS LATENCY: 1008 cycles
cpu0_DTLB TOTAL        ACCESS:  127178176 HIT:  126172344 MISS:    1005832
cpu0_DTLB LOAD         ACCESS:  127178176 HIT:  126172344 MISS:    1005832
cpu0_DTLB RFO          ACCESS:          0 HIT:          0 MISS:          0
cpu0_DTLB PREFETCH     ACCESS:          0 HIT:          0 MISS:          0
cpu0_DTLB WRITE        ACCESS:          0 HIT:          0 MISS:          0
cpu0_DTLB TRANSLATION  ACCESS:          0 HIT:          0 MISS:          0
cpu0_DTLB PREFETCH REQUESTED:          0 ISSUED:          0 USEFUL:          0 USELESS:          0
cpu0_DTLB AVERAGE MISS LATENCY: 17.71 cycles
cpu0_ITLB TOTAL        ACCESS:     238485 HIT:     238253 MISS:        232
cpu0_ITLB LOAD         ACCESS:     238485 HIT:     238253 MISS:        232
cpu0_ITLB RFO          ACCESS:          0 HIT:          0 MISS:          0
cpu0_ITLB PREFETCH     ACCESS:          0 HIT:          0 MISS:          0
cpu0_ITLB WRITE        ACCESS:          0 HIT:          0 MISS:          0
cpu0_ITLB TRANSLATION  ACCESS:          0 HIT:          0 MISS:          0
cpu0_ITLB PREFETCH REQUESTED:          0 ISSUED:          0 USEFUL:          0 USELESS:          0
cpu0_ITLB AVERAGE MISS LATENCY: 298 cycles
cpu0_L1D TOTAL        ACCESS:  193496458 HIT:  180330572 MISS:   13165886
cpu0_L1D LOAD         ACCESS:  158254266 HIT:  149481142 MISS:    8773124
cpu0_L1D RFO          ACCESS:          0 HIT:          0 MISS:          0
cpu0_L1D PREFETCH     ACCESS:          0 HIT:          0 MISS:          0
cpu0_L1D WRITE        ACCESS:   35194318 HIT:   30819868 MISS:    4374450
cpu0_L1D TRANSLATION  ACCESS:      47874 HIT:      29562 MISS:      18312
cpu0_L1D PREFETCH REQUESTED:          0 ISSUED:          0 USEFUL:          0 USELESS:          0
cpu0_L1D AVERAGE MISS LATENCY: 158.6 cycles
cpu0_L1I TOTAL        ACCESS:     249227 HIT:     246220 MISS:       3007
cpu0_L1I LOAD         ACCESS:     249227 HIT:     246220 MISS:       3007
cpu0_L1I RFO          ACCESS:          0 HIT:          0 MISS:          0
cpu0_L1I PREFETCH     ACCESS:          0 HIT:          0 MISS:          0
cpu0_L1I WRITE        ACCESS:          0 HIT:          0 MISS:          0
cpu0_L1I TRANSLATION  ACCESS:          0 HIT:          0 MISS:          0
cpu0_L1I PREFETCH REQUESTED:          0 ISSUED:          0 USEFUL:          0 USELESS:          0
cpu0_L1I AVERAGE MISS LATENCY: 525.2 cycles
cpu0_L2C TOTAL        ACCESS:    5428207 HIT:    2194999 MISS:    3233208
cpu0_L2C LOAD         ACCESS:    2426504 HIT:     119839 MISS:    2306665
cpu0_L2C RFO          ACCESS:     924649 HIT:       1957 MISS:     922692
cpu0_L2C PREFETCH     ACCESS:          0 HIT:          0 MISS:          0
cpu0_L2C WRITE        ACCESS:    2058746 HIT:    2058405 MISS:        341
cpu0_L2C TRANSLATION  ACCESS:      18308 HIT:      14798 MISS:       3510
cpu0_L2C PREFETCH REQUESTED:          0 ISSUED:          0 USEFUL:          0 USELESS:          0
cpu0_L2C AVERAGE MISS LATENCY: 824.6 cycles
cpu0_STLB TOTAL        ACCESS:     753397 HIT:     705552 MISS:      47845
cpu0_STLB LOAD         ACCESS:     753397 HIT:     705552 MISS:      47845
cpu0_STLB RFO          ACCESS:          0 HIT:          0 MISS:          0
cpu0_STLB PREFETCH     ACCESS:          0 HIT:          0 MISS:          0
cpu0_STLB WRITE        ACCESS:          0 HIT:          0 MISS:          0
cpu0_STLB TRANSLATION  ACCESS:          0 HIT:          0 MISS:          0
cpu0_STLB PREFETCH REQUESTED:          0 ISSUED:          0 USEFUL:          0 USELESS:          0
cpu0_STLB AVERAGE MISS LATENCY: 366 cycles

DRAM Statistics

Channel 0 RQ ROW_BUFFER_HIT:     901132
  ROW_BUFFER_MISS:    1793974
 AVG DBUS CONGESTED CYCLE: 3.964
WQ ROW_BUFFER_HIT: Channel 0 
  ROW_BUFFER_MISS:     567457
  FULL:    1250505
Final OPTGen Hits: 49497
Final OPTGen Access: 54473
Final OPTGEN Hit Rate: 90.8652
