WARNING: physical memory size is smaller than virtual memory size.

*** ChampSim Multicore Out-of-Order Simulator ***
Warmup Instructions: 50000000
Simulation Instructions: 600000000
Number of CPUs: 1
Page size: 4096

Off-chip DRAM Size: 4 GiB Channels: 1 Width: 64-bit Data Race: 3200 MT/s
Heartbeat CPU 0 instructions: 10000003 cycles: 2881057 heartbeat IPC: 3.471 cumulative IPC: 3.471 (Simulation time: 00 hr 00 min 36 sec)
Heartbeat CPU 0 instructions: 20000003 cycles: 5381057 heartbeat IPC: 4 cumulative IPC: 3.717 (Simulation time: 00 hr 01 min 10 sec)
Heartbeat CPU 0 instructions: 30000003 cycles: 7881057 heartbeat IPC: 4 cumulative IPC: 3.807 (Simulation time: 00 hr 01 min 44 sec)
Heartbeat CPU 0 instructions: 40000003 cycles: 10381057 heartbeat IPC: 4 cumulative IPC: 3.853 (Simulation time: 00 hr 02 min 18 sec)
Heartbeat CPU 0 instructions: 50000003 cycles: 12881057 heartbeat IPC: 4 cumulative IPC: 3.882 (Simulation time: 00 hr 02 min 53 sec)
Warmup finished CPU 0 instructions: 50000003 cycles: 12881058 cumulative IPC: 3.882 (Simulation time: 00 hr 02 min 53 sec)
Warmup complete CPU 0 instructions: 50000003 cycles: 12881058 cumulative IPC: 3.882 (Simulation time: 00 hr 02 min 53 sec)
Heartbeat CPU 0 instructions: 60000000 cycles: 18999900 heartbeat IPC: 1.634 cumulative IPC: 1.634 (Simulation time: 00 hr 04 min 04 sec)
Heartbeat CPU 0 instructions: 70000000 cycles: 25103142 heartbeat IPC: 1.638 cumulative IPC: 1.636 (Simulation time: 00 hr 05 min 16 sec)
Heartbeat CPU 0 instructions: 80000001 cycles: 31215760 heartbeat IPC: 1.636 cumulative IPC: 1.636 (Simulation time: 00 hr 06 min 27 sec)
Heartbeat CPU 0 instructions: 90000003 cycles: 37341282 heartbeat IPC: 1.633 cumulative IPC: 1.635 (Simulation time: 00 hr 07 min 38 sec)
Heartbeat CPU 0 instructions: 100000000 cycles: 41588044 heartbeat IPC: 2.355 cumulative IPC: 1.742 (Simulation time: 00 hr 08 min 32 sec)
Heartbeat CPU 0 instructions: 110000001 cycles: 44133017 heartbeat IPC: 3.929 cumulative IPC: 1.92 (Simulation time: 00 hr 09 min 11 sec)
Heartbeat CPU 0 instructions: 120000001 cycles: 46688415 heartbeat IPC: 3.913 cumulative IPC: 2.071 (Simulation time: 00 hr 09 min 52 sec)
Heartbeat CPU 0 instructions: 130000002 cycles: 50107370 heartbeat IPC: 2.925 cumulative IPC: 2.149 (Simulation time: 00 hr 10 min 40 sec)
Heartbeat CPU 0 instructions: 140000004 cycles: 56939560 heartbeat IPC: 1.464 cumulative IPC: 2.043 (Simulation time: 00 hr 11 min 56 sec)
Heartbeat CPU 0 instructions: 150000000 cycles: 63974161 heartbeat IPC: 1.422 cumulative IPC: 1.957 (Simulation time: 00 hr 13 min 12 sec)
Heartbeat CPU 0 instructions: 160000003 cycles: 71053806 heartbeat IPC: 1.413 cumulative IPC: 1.891 (Simulation time: 00 hr 14 min 27 sec)
Heartbeat CPU 0 instructions: 170000001 cycles: 78127786 heartbeat IPC: 1.414 cumulative IPC: 1.839 (Simulation time: 00 hr 15 min 42 sec)
Heartbeat CPU 0 instructions: 180000002 cycles: 85186075 heartbeat IPC: 1.417 cumulative IPC: 1.798 (Simulation time: 00 hr 17 min 00 sec)
Heartbeat CPU 0 instructions: 190000002 cycles: 91607643 heartbeat IPC: 1.557 cumulative IPC: 1.778 (Simulation time: 00 hr 18 min 13 sec)
Heartbeat CPU 0 instructions: 200000000 cycles: 96482538 heartbeat IPC: 2.051 cumulative IPC: 1.794 (Simulation time: 00 hr 19 min 15 sec)
Heartbeat CPU 0 instructions: 210000001 cycles: 101382647 heartbeat IPC: 2.041 cumulative IPC: 1.808 (Simulation time: 00 hr 20 min 17 sec)
Heartbeat CPU 0 instructions: 220000001 cycles: 106314753 heartbeat IPC: 2.028 cumulative IPC: 1.819 (Simulation time: 00 hr 21 min 18 sec)
Heartbeat CPU 0 instructions: 230000004 cycles: 111263730 heartbeat IPC: 2.021 cumulative IPC: 1.83 (Simulation time: 00 hr 22 min 18 sec)
Heartbeat CPU 0 instructions: 240000003 cycles: 116160710 heartbeat IPC: 2.042 cumulative IPC: 1.84 (Simulation time: 00 hr 23 min 19 sec)
Heartbeat CPU 0 instructions: 250000002 cycles: 121105898 heartbeat IPC: 2.022 cumulative IPC: 1.848 (Simulation time: 00 hr 24 min 19 sec)
Heartbeat CPU 0 instructions: 260000002 cycles: 126018853 heartbeat IPC: 2.035 cumulative IPC: 1.856 (Simulation time: 00 hr 25 min 20 sec)
Heartbeat CPU 0 instructions: 270000003 cycles: 130936346 heartbeat IPC: 2.034 cumulative IPC: 1.864 (Simulation time: 00 hr 26 min 20 sec)
Heartbeat CPU 0 instructions: 280000000 cycles: 135878761 heartbeat IPC: 2.023 cumulative IPC: 1.87 (Simulation time: 00 hr 27 min 19 sec)
Heartbeat CPU 0 instructions: 290000001 cycles: 180620191 heartbeat IPC: 0.2235 cumulative IPC: 1.431 (Simulation time: 00 hr 32 min 36 sec)
Heartbeat CPU 0 instructions: 300000002 cycles: 183123045 heartbeat IPC: 3.995 cumulative IPC: 1.468 (Simulation time: 00 hr 33 min 16 sec)
Heartbeat CPU 0 instructions: 310000001 cycles: 185625614 heartbeat IPC: 3.996 cumulative IPC: 1.505 (Simulation time: 00 hr 33 min 56 sec)
Heartbeat CPU 0 instructions: 320000001 cycles: 188128408 heartbeat IPC: 3.996 cumulative IPC: 1.541 (Simulation time: 00 hr 34 min 37 sec)
Heartbeat CPU 0 instructions: 330000003 cycles: 190631588 heartbeat IPC: 3.995 cumulative IPC: 1.575 (Simulation time: 00 hr 35 min 17 sec)
Heartbeat CPU 0 instructions: 340000000 cycles: 193134119 heartbeat IPC: 3.996 cumulative IPC: 1.609 (Simulation time: 00 hr 35 min 56 sec)
Heartbeat CPU 0 instructions: 350000004 cycles: 195637908 heartbeat IPC: 3.994 cumulative IPC: 1.642 (Simulation time: 00 hr 36 min 35 sec)
Heartbeat CPU 0 instructions: 360000004 cycles: 198140399 heartbeat IPC: 3.996 cumulative IPC: 1.673 (Simulation time: 00 hr 37 min 15 sec)
Heartbeat CPU 0 instructions: 370000000 cycles: 200643867 heartbeat IPC: 3.994 cumulative IPC: 1.704 (Simulation time: 00 hr 37 min 55 sec)
Heartbeat CPU 0 instructions: 380000004 cycles: 203147000 heartbeat IPC: 3.995 cumulative IPC: 1.734 (Simulation time: 00 hr 38 min 35 sec)
Heartbeat CPU 0 instructions: 390000001 cycles: 205650140 heartbeat IPC: 3.995 cumulative IPC: 1.764 (Simulation time: 00 hr 39 min 14 sec)
Heartbeat CPU 0 instructions: 400000003 cycles: 208153107 heartbeat IPC: 3.995 cumulative IPC: 1.792 (Simulation time: 00 hr 39 min 53 sec)
Heartbeat CPU 0 instructions: 410000003 cycles: 210655536 heartbeat IPC: 3.996 cumulative IPC: 1.82 (Simulation time: 00 hr 40 min 32 sec)
Heartbeat CPU 0 instructions: 420000002 cycles: 213158818 heartbeat IPC: 3.995 cumulative IPC: 1.847 (Simulation time: 00 hr 41 min 12 sec)
Heartbeat CPU 0 instructions: 430000000 cycles: 215661275 heartbeat IPC: 3.996 cumulative IPC: 1.874 (Simulation time: 00 hr 41 min 52 sec)
Heartbeat CPU 0 instructions: 440000001 cycles: 218163963 heartbeat IPC: 3.996 cumulative IPC: 1.9 (Simulation time: 00 hr 42 min 34 sec)
Heartbeat CPU 0 instructions: 450000000 cycles: 220668895 heartbeat IPC: 3.992 cumulative IPC: 1.925 (Simulation time: 00 hr 43 min 15 sec)
Heartbeat CPU 0 instructions: 460000003 cycles: 223172097 heartbeat IPC: 3.995 cumulative IPC: 1.95 (Simulation time: 00 hr 43 min 55 sec)
Heartbeat CPU 0 instructions: 470000001 cycles: 225675841 heartbeat IPC: 3.994 cumulative IPC: 1.974 (Simulation time: 00 hr 44 min 35 sec)
Heartbeat CPU 0 instructions: 480000003 cycles: 228178706 heartbeat IPC: 3.995 cumulative IPC: 1.997 (Simulation time: 00 hr 45 min 18 sec)
Heartbeat CPU 0 instructions: 490000003 cycles: 230681490 heartbeat IPC: 3.996 cumulative IPC: 2.02 (Simulation time: 00 hr 45 min 58 sec)
Heartbeat CPU 0 instructions: 500000002 cycles: 233184895 heartbeat IPC: 3.995 cumulative IPC: 2.043 (Simulation time: 00 hr 46 min 39 sec)
Heartbeat CPU 0 instructions: 510000003 cycles: 241194043 heartbeat IPC: 1.249 cumulative IPC: 2.015 (Simulation time: 00 hr 48 min 00 sec)
Heartbeat CPU 0 instructions: 520000001 cycles: 340613638 heartbeat IPC: 0.1006 cumulative IPC: 1.434 (Simulation time: 01 hr 00 min 42 sec)
Heartbeat CPU 0 instructions: 530000002 cycles: 415373483 heartbeat IPC: 0.1338 cumulative IPC: 1.193 (Simulation time: 01 hr 10 min 38 sec)
Heartbeat CPU 0 instructions: 540000000 cycles: 452810217 heartbeat IPC: 0.2671 cumulative IPC: 1.114 (Simulation time: 01 hr 15 min 58 sec)
Heartbeat CPU 0 instructions: 550000002 cycles: 489928983 heartbeat IPC: 0.2694 cumulative IPC: 1.048 (Simulation time: 01 hr 21 min 12 sec)
Heartbeat CPU 0 instructions: 560000004 cycles: 527454226 heartbeat IPC: 0.2665 cumulative IPC: 0.9911 (Simulation time: 01 hr 26 min 34 sec)
Heartbeat CPU 0 instructions: 570000000 cycles: 565467497 heartbeat IPC: 0.2631 cumulative IPC: 0.941 (Simulation time: 01 hr 32 min 02 sec)
Heartbeat CPU 0 instructions: 580000000 cycles: 604493455 heartbeat IPC: 0.2562 cumulative IPC: 0.8959 (Simulation time: 01 hr 37 min 32 sec)
Heartbeat CPU 0 instructions: 590000004 cycles: 644269533 heartbeat IPC: 0.2514 cumulative IPC: 0.8553 (Simulation time: 01 hr 43 min 10 sec)
*** Reached end of trace: (0, "traces/sp.A.champsimtrace")
Heartbeat CPU 0 instructions: 600000002 cycles: 683523477 heartbeat IPC: 0.2548 cumulative IPC: 0.8201 (Simulation time: 01 hr 48 min 43 sec)
Heartbeat CPU 0 instructions: 610000000 cycles: 704175808 heartbeat IPC: 0.4842 cumulative IPC: 0.8101 (Simulation time: 01 hr 51 min 08 sec)
Heartbeat CPU 0 instructions: 620000004 cycles: 706722859 heartbeat IPC: 3.926 cumulative IPC: 0.8215 (Simulation time: 01 hr 51 min 51 sec)
Heartbeat CPU 0 instructions: 630000003 cycles: 709273848 heartbeat IPC: 3.92 cumulative IPC: 0.8329 (Simulation time: 01 hr 52 min 31 sec)
Heartbeat CPU 0 instructions: 640000004 cycles: 713451878 heartbeat IPC: 2.393 cumulative IPC: 0.8422 (Simulation time: 01 hr 53 min 26 sec)
Heartbeat CPU 0 instructions: 650000001 cycles: 719492386 heartbeat IPC: 1.655 cumulative IPC: 0.8491 (Simulation time: 01 hr 54 min 37 sec)
Simulation finished CPU 0 instructions: 600000003 cycles: 706611330 cumulative IPC: 0.8491 (Simulation time: 01 hr 54 min 37 sec)
Simulation complete CPU 0 instructions: 600000003 cycles: 706611330 cumulative IPC: 0.8491 (Simulation time: 01 hr 54 min 37 sec)

ChampSim completed all CPUs

=== Simulation ===
CPU 0 runs traces/sp.A.champsimtrace
Region of Interest Statistics

CPU 0 cumulative IPC: 0.8491 instructions: 600000003 cycles: 706611330
CPU 0 Branch Prediction Accuracy: 98.91% MPKI: 0.226 Average ROB Occupancy at Mispredict: 234.7
Branch type MPKI
BRANCH_DIRECT_JUMP: 5e-06
BRANCH_INDIRECT: 7.5e-05
BRANCH_CONDITIONAL: 0.226
BRANCH_DIRECT_CALL: 2e-05
BRANCH_INDIRECT_CALL: 3.17e-05
BRANCH_RETURN: 3.67e-05

LLC TOTAL        ACCESS:    5274092 HIT:    1224947 MISS:    4049145
LLC LOAD         ACCESS:    2303700 HIT:     425284 MISS:    1878416
LLC RFO          ACCESS:     922633 HIT:      59402 MISS:     863231
LLC PREFETCH     ACCESS:          0 HIT:          0 MISS:          0
LLC WRITE        ACCESS:    2044282 HIT:     739910 MISS:    1304372
LLC TRANSLATION  ACCESS:       3477 HIT:        351 MISS:       3126
LLC PREFETCH REQUESTED:          0 ISSUED:          0 USEFUL:          0 USELESS:          0
LLC AVERAGE MISS LATENCY: 841.7 cycles
cpu0_DTLB TOTAL        ACCESS:  126561881 HIT:  125733842 MISS:     828039
cpu0_DTLB LOAD         ACCESS:  126561881 HIT:  125733842 MISS:     828039
cpu0_DTLB RFO          ACCESS:          0 HIT:          0 MISS:          0
cpu0_DTLB PREFETCH     ACCESS:          0 HIT:          0 MISS:          0
cpu0_DTLB WRITE        ACCESS:          0 HIT:          0 MISS:          0
cpu0_DTLB TRANSLATION  ACCESS:          0 HIT:          0 MISS:          0
cpu0_DTLB PREFETCH REQUESTED:          0 ISSUED:          0 USEFUL:          0 USELESS:          0
cpu0_DTLB AVERAGE MISS LATENCY: 19.91 cycles
cpu0_ITLB TOTAL        ACCESS:     223775 HIT:     223543 MISS:        232
cpu0_ITLB LOAD         ACCESS:     223775 HIT:     223543 MISS:        232
cpu0_ITLB RFO          ACCESS:          0 HIT:          0 MISS:          0
cpu0_ITLB PREFETCH     ACCESS:          0 HIT:          0 MISS:          0
cpu0_ITLB WRITE        ACCESS:          0 HIT:          0 MISS:          0
cpu0_ITLB TRANSLATION  ACCESS:          0 HIT:          0 MISS:          0
cpu0_ITLB PREFETCH REQUESTED:          0 ISSUED:          0 USEFUL:          0 USELESS:          0
cpu0_ITLB AVERAGE MISS LATENCY: 338.8 cycles
cpu0_L1D TOTAL        ACCESS:  191846384 HIT:  177125536 MISS:   14720848
cpu0_L1D LOAD         ACCESS:  156604336 HIT:  146030812 MISS:   10573524
cpu0_L1D RFO          ACCESS:          0 HIT:          0 MISS:          0
cpu0_L1D PREFETCH     ACCESS:          0 HIT:          0 MISS:          0
cpu0_L1D WRITE        ACCESS:   35194167 HIT:   31065128 MISS:    4129039
cpu0_L1D TRANSLATION  ACCESS:      47881 HIT:      29596 MISS:      18285
cpu0_L1D PREFETCH REQUESTED:          0 ISSUED:          0 USEFUL:          0 USELESS:          0
cpu0_L1D AVERAGE MISS LATENCY: 169.7 cycles
cpu0_L1I TOTAL        ACCESS:     231976 HIT:     229158 MISS:       2818
cpu0_L1I LOAD         ACCESS:     231976 HIT:     229158 MISS:       2818
cpu0_L1I RFO          ACCESS:          0 HIT:          0 MISS:          0
cpu0_L1I PREFETCH     ACCESS:          0 HIT:          0 MISS:          0
cpu0_L1I WRITE        ACCESS:          0 HIT:          0 MISS:          0
cpu0_L1I TRANSLATION  ACCESS:          0 HIT:          0 MISS:          0
cpu0_L1I PREFETCH REQUESTED:          0 ISSUED:          0 USEFUL:          0 USELESS:          0
cpu0_L1I AVERAGE MISS LATENCY: 568.2 cycles
cpu0_L2C TOTAL        ACCESS:    5442913 HIT:    2212724 MISS:    3230189
cpu0_L2C LOAD         ACCESS:    2445274 HIT:     141567 MISS:    2303707
cpu0_L2C RFO          ACCESS:     923197 HIT:        564 MISS:     922633
cpu0_L2C PREFETCH     ACCESS:          0 HIT:          0 MISS:          0
cpu0_L2C WRITE        ACCESS:    2056158 HIT:    2055786 MISS:        372
cpu0_L2C TRANSLATION  ACCESS:      18284 HIT:      14807 MISS:       3477
cpu0_L2C PREFETCH REQUESTED:          0 ISSUED:          0 USEFUL:          0 USELESS:          0
cpu0_L2C AVERAGE MISS LATENCY: 1076 cycles
cpu0_STLB TOTAL        ACCESS:     577007 HIT:     529155 MISS:      47852
cpu0_STLB LOAD         ACCESS:     577007 HIT:     529155 MISS:      47852
cpu0_STLB RFO          ACCESS:          0 HIT:          0 MISS:          0
cpu0_STLB PREFETCH     ACCESS:          0 HIT:          0 MISS:          0
cpu0_STLB WRITE        ACCESS:          0 HIT:          0 MISS:          0
cpu0_STLB TRANSLATION  ACCESS:          0 HIT:          0 MISS:          0
cpu0_STLB PREFETCH REQUESTED:          0 ISSUED:          0 USEFUL:          0 USELESS:          0
cpu0_STLB AVERAGE MISS LATENCY: 355.4 cycles

DRAM Statistics

Channel 0 RQ ROW_BUFFER_HIT:     715660
  ROW_BUFFER_MISS:    1959794
 AVG DBUS CONGESTED CYCLE: 3.971
WQ ROW_BUFFER_HIT: Channel 0 
  ROW_BUFFER_MISS:     643264
  FULL:    1080495
