WARNING: physical memory size is smaller than virtual memory size.

*** ChampSim Multicore Out-of-Order Simulator ***
Warmup Instructions: 50000000
Simulation Instructions: 600000000
Number of CPUs: 1
Page size: 4096

Off-chip DRAM Size: 4 GiB Channels: 1 Width: 64-bit Data Race: 3200 MT/s
Heartbeat CPU 0 instructions: 10000000 cycles: 2881055 heartbeat IPC: 3.471 cumulative IPC: 3.471 (Simulation time: 00 hr 00 min 39 sec)
Heartbeat CPU 0 instructions: 20000000 cycles: 5381055 heartbeat IPC: 4 cumulative IPC: 3.717 (Simulation time: 00 hr 01 min 14 sec)
Heartbeat CPU 0 instructions: 30000000 cycles: 7881055 heartbeat IPC: 4 cumulative IPC: 3.807 (Simulation time: 00 hr 01 min 48 sec)
Heartbeat CPU 0 instructions: 40000000 cycles: 10381055 heartbeat IPC: 4 cumulative IPC: 3.853 (Simulation time: 00 hr 02 min 24 sec)
Heartbeat CPU 0 instructions: 50000000 cycles: 12881055 heartbeat IPC: 4 cumulative IPC: 3.882 (Simulation time: 00 hr 02 min 58 sec)
Warmup finished CPU 0 instructions: 50000000 cycles: 12881056 cumulative IPC: 3.882 (Simulation time: 00 hr 02 min 58 sec)
Warmup complete CPU 0 instructions: 50000000 cycles: 12881056 cumulative IPC: 3.882 (Simulation time: 00 hr 02 min 58 sec)
Heartbeat CPU 0 instructions: 60000000 cycles: 16360556 heartbeat IPC: 2.874 cumulative IPC: 2.874 (Simulation time: 00 hr 03 min 47 sec)
Heartbeat CPU 0 instructions: 70000004 cycles: 19856304 heartbeat IPC: 2.861 cumulative IPC: 2.867 (Simulation time: 00 hr 04 min 35 sec)
Heartbeat CPU 0 instructions: 80000001 cycles: 23333188 heartbeat IPC: 2.876 cumulative IPC: 2.87 (Simulation time: 00 hr 05 min 25 sec)
Heartbeat CPU 0 instructions: 90000003 cycles: 26860895 heartbeat IPC: 2.835 cumulative IPC: 2.861 (Simulation time: 00 hr 06 min 16 sec)
Heartbeat CPU 0 instructions: 100000000 cycles: 32217755 heartbeat IPC: 1.867 cumulative IPC: 2.586 (Simulation time: 00 hr 07 min 22 sec)
Heartbeat CPU 0 instructions: 110000001 cycles: 38888979 heartbeat IPC: 1.499 cumulative IPC: 2.307 (Simulation time: 00 hr 08 min 37 sec)
Heartbeat CPU 0 instructions: 120000003 cycles: 45591179 heartbeat IPC: 1.492 cumulative IPC: 2.14 (Simulation time: 00 hr 09 min 52 sec)
Heartbeat CPU 0 instructions: 130000002 cycles: 52260447 heartbeat IPC: 1.499 cumulative IPC: 2.032 (Simulation time: 00 hr 11 min 08 sec)
Heartbeat CPU 0 instructions: 140000004 cycles: 58988711 heartbeat IPC: 1.486 cumulative IPC: 1.952 (Simulation time: 00 hr 12 min 24 sec)
Heartbeat CPU 0 instructions: 150000000 cycles: 65768601 heartbeat IPC: 1.475 cumulative IPC: 1.891 (Simulation time: 00 hr 13 min 40 sec)
Heartbeat CPU 0 instructions: 160000001 cycles: 72496845 heartbeat IPC: 1.486 cumulative IPC: 1.845 (Simulation time: 00 hr 14 min 55 sec)
Heartbeat CPU 0 instructions: 170000001 cycles: 79260712 heartbeat IPC: 1.478 cumulative IPC: 1.808 (Simulation time: 00 hr 16 min 10 sec)
Heartbeat CPU 0 instructions: 180000002 cycles: 85989317 heartbeat IPC: 1.486 cumulative IPC: 1.778 (Simulation time: 00 hr 17 min 24 sec)
Heartbeat CPU 0 instructions: 190000002 cycles: 92155021 heartbeat IPC: 1.622 cumulative IPC: 1.766 (Simulation time: 00 hr 18 min 35 sec)
Heartbeat CPU 0 instructions: 200000000 cycles: 97108449 heartbeat IPC: 2.019 cumulative IPC: 1.781 (Simulation time: 00 hr 19 min 35 sec)
Heartbeat CPU 0 instructions: 210000001 cycles: 102342149 heartbeat IPC: 1.911 cumulative IPC: 1.788 (Simulation time: 00 hr 20 min 37 sec)
Heartbeat CPU 0 instructions: 220000001 cycles: 107949984 heartbeat IPC: 1.783 cumulative IPC: 1.788 (Simulation time: 00 hr 21 min 43 sec)
Heartbeat CPU 0 instructions: 230000004 cycles: 114112488 heartbeat IPC: 1.623 cumulative IPC: 1.778 (Simulation time: 00 hr 22 min 58 sec)
Heartbeat CPU 0 instructions: 240000003 cycles: 120906422 heartbeat IPC: 1.472 cumulative IPC: 1.759 (Simulation time: 00 hr 24 min 14 sec)
Heartbeat CPU 0 instructions: 250000002 cycles: 127869955 heartbeat IPC: 1.436 cumulative IPC: 1.739 (Simulation time: 00 hr 25 min 31 sec)
Heartbeat CPU 0 instructions: 260000002 cycles: 134780733 heartbeat IPC: 1.447 cumulative IPC: 1.723 (Simulation time: 00 hr 26 min 48 sec)
Heartbeat CPU 0 instructions: 270000003 cycles: 141695924 heartbeat IPC: 1.446 cumulative IPC: 1.708 (Simulation time: 00 hr 28 min 04 sec)
Heartbeat CPU 0 instructions: 280000000 cycles: 148628844 heartbeat IPC: 1.442 cumulative IPC: 1.694 (Simulation time: 00 hr 29 min 21 sec)
Heartbeat CPU 0 instructions: 290000001 cycles: 212419745 heartbeat IPC: 0.1568 cumulative IPC: 1.203 (Simulation time: 00 hr 37 min 01 sec)
Heartbeat CPU 0 instructions: 300000002 cycles: 214924849 heartbeat IPC: 3.992 cumulative IPC: 1.237 (Simulation time: 00 hr 37 min 41 sec)
Heartbeat CPU 0 instructions: 310000001 cycles: 217429895 heartbeat IPC: 3.992 cumulative IPC: 1.271 (Simulation time: 00 hr 38 min 21 sec)
Heartbeat CPU 0 instructions: 320000000 cycles: 219935009 heartbeat IPC: 3.992 cumulative IPC: 1.304 (Simulation time: 00 hr 39 min 01 sec)
Heartbeat CPU 0 instructions: 330000003 cycles: 222440047 heartbeat IPC: 3.992 cumulative IPC: 1.336 (Simulation time: 00 hr 39 min 42 sec)
Heartbeat CPU 0 instructions: 340000000 cycles: 224945117 heartbeat IPC: 3.992 cumulative IPC: 1.368 (Simulation time: 00 hr 40 min 22 sec)
Heartbeat CPU 0 instructions: 350000004 cycles: 227450192 heartbeat IPC: 3.992 cumulative IPC: 1.398 (Simulation time: 00 hr 41 min 03 sec)
Heartbeat CPU 0 instructions: 360000004 cycles: 229955567 heartbeat IPC: 3.991 cumulative IPC: 1.428 (Simulation time: 00 hr 41 min 43 sec)
Heartbeat CPU 0 instructions: 370000000 cycles: 232460641 heartbeat IPC: 3.992 cumulative IPC: 1.457 (Simulation time: 00 hr 42 min 24 sec)
Heartbeat CPU 0 instructions: 380000004 cycles: 234965688 heartbeat IPC: 3.992 cumulative IPC: 1.486 (Simulation time: 00 hr 43 min 04 sec)
Heartbeat CPU 0 instructions: 390000001 cycles: 237470761 heartbeat IPC: 3.992 cumulative IPC: 1.514 (Simulation time: 00 hr 43 min 44 sec)
Heartbeat CPU 0 instructions: 400000003 cycles: 239975839 heartbeat IPC: 3.992 cumulative IPC: 1.541 (Simulation time: 00 hr 44 min 24 sec)
Heartbeat CPU 0 instructions: 410000003 cycles: 242480954 heartbeat IPC: 3.992 cumulative IPC: 1.568 (Simulation time: 00 hr 45 min 05 sec)
Heartbeat CPU 0 instructions: 420000002 cycles: 244986029 heartbeat IPC: 3.992 cumulative IPC: 1.594 (Simulation time: 00 hr 45 min 46 sec)
Heartbeat CPU 0 instructions: 430000000 cycles: 247491102 heartbeat IPC: 3.992 cumulative IPC: 1.62 (Simulation time: 00 hr 46 min 26 sec)
Heartbeat CPU 0 instructions: 440000001 cycles: 249996176 heartbeat IPC: 3.992 cumulative IPC: 1.645 (Simulation time: 00 hr 47 min 07 sec)
Heartbeat CPU 0 instructions: 450000000 cycles: 252501223 heartbeat IPC: 3.992 cumulative IPC: 1.669 (Simulation time: 00 hr 47 min 47 sec)
Heartbeat CPU 0 instructions: 460000003 cycles: 255006261 heartbeat IPC: 3.992 cumulative IPC: 1.693 (Simulation time: 00 hr 48 min 27 sec)
Heartbeat CPU 0 instructions: 470000001 cycles: 257511335 heartbeat IPC: 3.992 cumulative IPC: 1.717 (Simulation time: 00 hr 49 min 07 sec)
Heartbeat CPU 0 instructions: 480000003 cycles: 260016408 heartbeat IPC: 3.992 cumulative IPC: 1.74 (Simulation time: 00 hr 49 min 47 sec)
Heartbeat CPU 0 instructions: 490000003 cycles: 262521483 heartbeat IPC: 3.992 cumulative IPC: 1.763 (Simulation time: 00 hr 50 min 27 sec)
Heartbeat CPU 0 instructions: 500000002 cycles: 265026554 heartbeat IPC: 3.992 cumulative IPC: 1.785 (Simulation time: 00 hr 51 min 07 sec)
Heartbeat CPU 0 instructions: 510000003 cycles: 270297014 heartbeat IPC: 1.897 cumulative IPC: 1.787 (Simulation time: 00 hr 52 min 11 sec)
Heartbeat CPU 0 instructions: 520000001 cycles: 380638849 heartbeat IPC: 0.09063 cumulative IPC: 1.278 (Simulation time: 01 hr 06 min 44 sec)
Heartbeat CPU 0 instructions: 530000000 cycles: 465175889 heartbeat IPC: 0.1183 cumulative IPC: 1.061 (Simulation time: 01 hr 17 min 55 sec)
Heartbeat CPU 0 instructions: 540000000 cycles: 488675124 heartbeat IPC: 0.4255 cumulative IPC: 1.03 (Simulation time: 01 hr 21 min 25 sec)
Heartbeat CPU 0 instructions: 550000002 cycles: 512150926 heartbeat IPC: 0.426 cumulative IPC: 1.001 (Simulation time: 01 hr 24 min 58 sec)
Heartbeat CPU 0 instructions: 560000002 cycles: 535794791 heartbeat IPC: 0.4229 cumulative IPC: 0.9753 (Simulation time: 01 hr 28 min 29 sec)
Heartbeat CPU 0 instructions: 570000002 cycles: 559236285 heartbeat IPC: 0.4266 cumulative IPC: 0.9518 (Simulation time: 01 hr 31 min 56 sec)
Heartbeat CPU 0 instructions: 580000001 cycles: 581755517 heartbeat IPC: 0.4441 cumulative IPC: 0.9317 (Simulation time: 01 hr 35 min 17 sec)
Heartbeat CPU 0 instructions: 590000004 cycles: 604757677 heartbeat IPC: 0.4347 cumulative IPC: 0.9124 (Simulation time: 01 hr 38 min 41 sec)
*** Reached end of trace: (0, "traces/sp.A.champsimtrace")
Heartbeat CPU 0 instructions: 600000002 cycles: 627689361 heartbeat IPC: 0.4361 cumulative IPC: 0.8946 (Simulation time: 01 hr 42 min 05 sec)
Heartbeat CPU 0 instructions: 610000000 cycles: 653930152 heartbeat IPC: 0.3811 cumulative IPC: 0.8736 (Simulation time: 01 hr 45 min 03 sec)
Heartbeat CPU 0 instructions: 620000000 cycles: 657412457 heartbeat IPC: 2.872 cumulative IPC: 0.8844 (Simulation time: 01 hr 45 min 52 sec)
Heartbeat CPU 0 instructions: 630000003 cycles: 660901969 heartbeat IPC: 2.866 cumulative IPC: 0.895 (Simulation time: 01 hr 46 min 42 sec)
Heartbeat CPU 0 instructions: 640000004 cycles: 664381102 heartbeat IPC: 2.874 cumulative IPC: 0.9056 (Simulation time: 01 hr 47 min 32 sec)
Heartbeat CPU 0 instructions: 650000000 cycles: 667861369 heartbeat IPC: 2.873 cumulative IPC: 0.9161 (Simulation time: 01 hr 48 min 23 sec)
Simulation finished CPU 0 instructions: 600000000 cycles: 654980314 cumulative IPC: 0.9161 (Simulation time: 01 hr 48 min 23 sec)
Simulation complete CPU 0 instructions: 600000000 cycles: 654980314 cumulative IPC: 0.9161 (Simulation time: 01 hr 48 min 23 sec)

ChampSim completed all CPUs

=== Simulation ===
CPU 0 runs traces/sp.A.champsimtrace
Region of Interest Statistics

CPU 0 cumulative IPC: 0.9161 instructions: 600000000 cycles: 654980314
CPU 0 Branch Prediction Accuracy: 98.84% MPKI: 0.2406 Average ROB Occupancy at Mispredict: 221.5
Branch type MPKI
BRANCH_DIRECT_JUMP: 5e-06
BRANCH_INDIRECT: 7.5e-05
BRANCH_CONDITIONAL: 0.24
BRANCH_DIRECT_CALL: 2e-05
BRANCH_INDIRECT_CALL: 3.17e-05
BRANCH_RETURN: 3.67e-05

LLC TOTAL        ACCESS:    8122831 HIT:    5127298 MISS:    2995533
LLC LOAD         ACCESS:    2304260 HIT:    1490730 MISS:     813530
LLC RFO          ACCESS:     922635 HIT:      10384 MISS:     912251
LLC PREFETCH     ACCESS:    2846877 HIT:    1578963 MISS:    1267914
LLC WRITE        ACCESS:    2045582 HIT:    2045446 MISS:        136
LLC TRANSLATION  ACCESS:       3477 HIT:       1775 MISS:       1702
LLC PREFETCH REQUESTED:    2846877 ISSUED:    2846877 USEFUL:    1018649 USELESS:      18384
LLC AVERAGE MISS LATENCY: 1459 cycles
cpu0_DTLB TOTAL        ACCESS:  125682992 HIT:  124860786 MISS:     822206
cpu0_DTLB LOAD         ACCESS:  125682992 HIT:  124860786 MISS:     822206
cpu0_DTLB RFO          ACCESS:          0 HIT:          0 MISS:          0
cpu0_DTLB PREFETCH     ACCESS:          0 HIT:          0 MISS:          0
cpu0_DTLB WRITE        ACCESS:          0 HIT:          0 MISS:          0
cpu0_DTLB TRANSLATION  ACCESS:          0 HIT:          0 MISS:          0
cpu0_DTLB PREFETCH REQUESTED:          0 ISSUED:          0 USEFUL:          0 USELESS:          0
cpu0_DTLB AVERAGE MISS LATENCY: 17.27 cycles
cpu0_ITLB TOTAL        ACCESS:     217793 HIT:     217577 MISS:        216
cpu0_ITLB LOAD         ACCESS:     217793 HIT:     217577 MISS:        216
cpu0_ITLB RFO          ACCESS:          0 HIT:          0 MISS:          0
cpu0_ITLB PREFETCH     ACCESS:          0 HIT:          0 MISS:          0
cpu0_ITLB WRITE        ACCESS:          0 HIT:          0 MISS:          0
cpu0_ITLB TRANSLATION  ACCESS:          0 HIT:          0 MISS:          0
cpu0_ITLB PREFETCH REQUESTED:          0 ISSUED:          0 USEFUL:          0 USELESS:          0
cpu0_ITLB AVERAGE MISS LATENCY: 329.7 cycles
cpu0_L1D TOTAL        ACCESS:  191943108 HIT:  178643521 MISS:   13299587
cpu0_L1D LOAD         ACCESS:  156700878 HIT:  147854616 MISS:    8846262
cpu0_L1D RFO          ACCESS:          0 HIT:          0 MISS:          0
cpu0_L1D PREFETCH     ACCESS:          0 HIT:          0 MISS:          0
cpu0_L1D WRITE        ACCESS:   35194349 HIT:   30759330 MISS:    4435019
cpu0_L1D TRANSLATION  ACCESS:      47881 HIT:      29575 MISS:      18306
cpu0_L1D PREFETCH REQUESTED:          0 ISSUED:          0 USEFUL:          0 USELESS:          0
cpu0_L1D AVERAGE MISS LATENCY: 156.1 cycles
cpu0_L1I TOTAL        ACCESS:     225351 HIT:     222565 MISS:       2786
cpu0_L1I LOAD         ACCESS:     225351 HIT:     222565 MISS:       2786
cpu0_L1I RFO          ACCESS:          0 HIT:          0 MISS:          0
cpu0_L1I PREFETCH     ACCESS:          0 HIT:          0 MISS:          0
cpu0_L1I WRITE        ACCESS:          0 HIT:          0 MISS:          0
cpu0_L1I TRANSLATION  ACCESS:          0 HIT:          0 MISS:          0
cpu0_L1I PREFETCH REQUESTED:          0 ISSUED:          0 USEFUL:          0 USELESS:          0
cpu0_L1I AVERAGE MISS LATENCY: 536 cycles
cpu0_L2C TOTAL        ACCESS:    5423906 HIT:    2193080 MISS:    3230826
cpu0_L2C LOAD         ACCESS:    2426323 HIT:     121982 MISS:    2304341
cpu0_L2C RFO          ACCESS:     923194 HIT:        559 MISS:     922635
cpu0_L2C PREFETCH     ACCESS:          0 HIT:          0 MISS:          0
cpu0_L2C WRITE        ACCESS:    2056085 HIT:    2055712 MISS:        373
cpu0_L2C TRANSLATION  ACCESS:      18304 HIT:      14827 MISS:       3477
cpu0_L2C PREFETCH REQUESTED:          0 ISSUED:          0 USEFUL:          0 USELESS:          0
cpu0_L2C AVERAGE MISS LATENCY: 833 cycles
cpu0_STLB TOTAL        ACCESS:     570208 HIT:     522357 MISS:      47851
cpu0_STLB LOAD         ACCESS:     570208 HIT:     522357 MISS:      47851
cpu0_STLB RFO          ACCESS:          0 HIT:          0 MISS:          0
cpu0_STLB PREFETCH     ACCESS:          0 HIT:          0 MISS:          0
cpu0_STLB WRITE        ACCESS:          0 HIT:          0 MISS:          0
cpu0_STLB TRANSLATION  ACCESS:          0 HIT:          0 MISS:          0
cpu0_STLB PREFETCH REQUESTED:          0 ISSUED:          0 USEFUL:          0 USELESS:          0
cpu0_STLB AVERAGE MISS LATENCY: 289.2 cycles

DRAM Statistics

Channel 0 RQ ROW_BUFFER_HIT:     900367
  ROW_BUFFER_MISS:    1820626
 AVG DBUS CONGESTED CYCLE: 3.969
WQ ROW_BUFFER_HIT: Channel 0 
  ROW_BUFFER_MISS:     361150
  FULL:    1386423
