WARNING: physical memory size is smaller than virtual memory size.

*** ChampSim Multicore Out-of-Order Simulator ***
Warmup Instructions: 50000000
Simulation Instructions: 600000000
Number of CPUs: 1
Page size: 4096

CPU 0 Tage branch predictor
Off-chip DRAM Size: 4 GiB Channels: 1 Width: 64-bit Data Race: 3200 MT/s
Heartbeat CPU 0 instructions: 10000003 cycles: 2881057 heartbeat IPC: 3.471 cumulative IPC: 3.471 (Simulation time: 00 hr 00 min 39 sec)
Heartbeat CPU 0 instructions: 20000003 cycles: 5381057 heartbeat IPC: 4 cumulative IPC: 3.717 (Simulation time: 00 hr 01 min 17 sec)
Heartbeat CPU 0 instructions: 30000003 cycles: 7881057 heartbeat IPC: 4 cumulative IPC: 3.807 (Simulation time: 00 hr 01 min 53 sec)
Heartbeat CPU 0 instructions: 40000003 cycles: 10381057 heartbeat IPC: 4 cumulative IPC: 3.853 (Simulation time: 00 hr 02 min 28 sec)
Heartbeat CPU 0 instructions: 50000003 cycles: 12881057 heartbeat IPC: 4 cumulative IPC: 3.882 (Simulation time: 00 hr 03 min 02 sec)
Warmup finished CPU 0 instructions: 50000003 cycles: 12881058 cumulative IPC: 3.882 (Simulation time: 00 hr 03 min 02 sec)
Warmup complete CPU 0 instructions: 50000003 cycles: 12881058 cumulative IPC: 3.882 (Simulation time: 00 hr 03 min 02 sec)
Heartbeat CPU 0 instructions: 60000000 cycles: 19053218 heartbeat IPC: 1.62 cumulative IPC: 1.62 (Simulation time: 00 hr 04 min 07 sec)
Heartbeat CPU 0 instructions: 70000002 cycles: 25251529 heartbeat IPC: 1.613 cumulative IPC: 1.617 (Simulation time: 00 hr 05 min 13 sec)
Heartbeat CPU 0 instructions: 80000001 cycles: 31412936 heartbeat IPC: 1.623 cumulative IPC: 1.619 (Simulation time: 00 hr 06 min 22 sec)
Heartbeat CPU 0 instructions: 90000003 cycles: 37579797 heartbeat IPC: 1.622 cumulative IPC: 1.62 (Simulation time: 00 hr 07 min 28 sec)
Heartbeat CPU 0 instructions: 100000000 cycles: 41755648 heartbeat IPC: 2.395 cumulative IPC: 1.732 (Simulation time: 00 hr 08 min 19 sec)
Heartbeat CPU 0 instructions: 110000004 cycles: 44669962 heartbeat IPC: 3.431 cumulative IPC: 1.887 (Simulation time: 00 hr 09 min 00 sec)
Heartbeat CPU 0 instructions: 120000002 cycles: 51306816 heartbeat IPC: 1.507 cumulative IPC: 1.822 (Simulation time: 00 hr 10 min 08 sec)
Heartbeat CPU 0 instructions: 130000000 cycles: 58453195 heartbeat IPC: 1.399 cumulative IPC: 1.755 (Simulation time: 00 hr 11 min 19 sec)
Heartbeat CPU 0 instructions: 140000004 cycles: 65496318 heartbeat IPC: 1.42 cumulative IPC: 1.711 (Simulation time: 00 hr 12 min 31 sec)
Heartbeat CPU 0 instructions: 150000001 cycles: 72676813 heartbeat IPC: 1.393 cumulative IPC: 1.672 (Simulation time: 00 hr 13 min 42 sec)
Heartbeat CPU 0 instructions: 160000004 cycles: 79698143 heartbeat IPC: 1.424 cumulative IPC: 1.646 (Simulation time: 00 hr 14 min 53 sec)
Heartbeat CPU 0 instructions: 170000000 cycles: 86832276 heartbeat IPC: 1.402 cumulative IPC: 1.623 (Simulation time: 00 hr 16 min 03 sec)
Heartbeat CPU 0 instructions: 180000000 cycles: 93870013 heartbeat IPC: 1.421 cumulative IPC: 1.605 (Simulation time: 00 hr 17 min 14 sec)
Heartbeat CPU 0 instructions: 190000000 cycles: 100546134 heartbeat IPC: 1.498 cumulative IPC: 1.597 (Simulation time: 00 hr 18 min 21 sec)
Heartbeat CPU 0 instructions: 200000003 cycles: 106638139 heartbeat IPC: 1.641 cumulative IPC: 1.6 (Simulation time: 00 hr 19 min 25 sec)
Heartbeat CPU 0 instructions: 210000000 cycles: 112687293 heartbeat IPC: 1.653 cumulative IPC: 1.603 (Simulation time: 00 hr 20 min 29 sec)
Heartbeat CPU 0 instructions: 220000004 cycles: 118758095 heartbeat IPC: 1.647 cumulative IPC: 1.606 (Simulation time: 00 hr 21 min 32 sec)
Heartbeat CPU 0 instructions: 230000000 cycles: 124855147 heartbeat IPC: 1.64 cumulative IPC: 1.608 (Simulation time: 00 hr 22 min 37 sec)
Heartbeat CPU 0 instructions: 240000003 cycles: 130874060 heartbeat IPC: 1.661 cumulative IPC: 1.61 (Simulation time: 00 hr 23 min 41 sec)
Heartbeat CPU 0 instructions: 250000002 cycles: 137000809 heartbeat IPC: 1.632 cumulative IPC: 1.611 (Simulation time: 00 hr 24 min 46 sec)
Heartbeat CPU 0 instructions: 260000000 cycles: 143236010 heartbeat IPC: 1.604 cumulative IPC: 1.611 (Simulation time: 00 hr 25 min 51 sec)
Heartbeat CPU 0 instructions: 270000003 cycles: 149294135 heartbeat IPC: 1.651 cumulative IPC: 1.613 (Simulation time: 00 hr 26 min 55 sec)
Heartbeat CPU 0 instructions: 280000003 cycles: 155569877 heartbeat IPC: 1.593 cumulative IPC: 1.612 (Simulation time: 00 hr 28 min 00 sec)
Heartbeat CPU 0 instructions: 290000000 cycles: 206022856 heartbeat IPC: 0.1982 cumulative IPC: 1.243 (Simulation time: 00 hr 33 min 13 sec)
Heartbeat CPU 0 instructions: 300000001 cycles: 208523949 heartbeat IPC: 3.998 cumulative IPC: 1.278 (Simulation time: 00 hr 33 min 50 sec)
Heartbeat CPU 0 instructions: 310000000 cycles: 211024065 heartbeat IPC: 4 cumulative IPC: 1.312 (Simulation time: 00 hr 34 min 27 sec)
Heartbeat CPU 0 instructions: 320000002 cycles: 213525203 heartbeat IPC: 3.998 cumulative IPC: 1.346 (Simulation time: 00 hr 35 min 05 sec)
Heartbeat CPU 0 instructions: 330000004 cycles: 216036648 heartbeat IPC: 3.982 cumulative IPC: 1.378 (Simulation time: 00 hr 35 min 42 sec)
Heartbeat CPU 0 instructions: 340000004 cycles: 218537878 heartbeat IPC: 3.998 cumulative IPC: 1.41 (Simulation time: 00 hr 36 min 20 sec)
Heartbeat CPU 0 instructions: 350000003 cycles: 221037966 heartbeat IPC: 4 cumulative IPC: 1.441 (Simulation time: 00 hr 36 min 57 sec)
Heartbeat CPU 0 instructions: 360000002 cycles: 223538051 heartbeat IPC: 4 cumulative IPC: 1.472 (Simulation time: 00 hr 37 min 35 sec)
Heartbeat CPU 0 instructions: 370000004 cycles: 226038095 heartbeat IPC: 4 cumulative IPC: 1.501 (Simulation time: 00 hr 38 min 16 sec)
Heartbeat CPU 0 instructions: 380000003 cycles: 228540395 heartbeat IPC: 3.996 cumulative IPC: 1.53 (Simulation time: 00 hr 38 min 55 sec)
Heartbeat CPU 0 instructions: 390000000 cycles: 231041114 heartbeat IPC: 3.999 cumulative IPC: 1.558 (Simulation time: 00 hr 39 min 34 sec)
Heartbeat CPU 0 instructions: 400000002 cycles: 233542006 heartbeat IPC: 3.999 cumulative IPC: 1.586 (Simulation time: 00 hr 40 min 12 sec)
Heartbeat CPU 0 instructions: 410000002 cycles: 236042305 heartbeat IPC: 4 cumulative IPC: 1.613 (Simulation time: 00 hr 40 min 49 sec)
Heartbeat CPU 0 instructions: 420000000 cycles: 238542620 heartbeat IPC: 3.999 cumulative IPC: 1.64 (Simulation time: 00 hr 41 min 27 sec)
Heartbeat CPU 0 instructions: 430000001 cycles: 241044063 heartbeat IPC: 3.998 cumulative IPC: 1.665 (Simulation time: 00 hr 42 min 06 sec)
Heartbeat CPU 0 instructions: 440000002 cycles: 243544490 heartbeat IPC: 3.999 cumulative IPC: 1.691 (Simulation time: 00 hr 42 min 44 sec)
Heartbeat CPU 0 instructions: 450000001 cycles: 246045023 heartbeat IPC: 3.999 cumulative IPC: 1.716 (Simulation time: 00 hr 43 min 21 sec)
Heartbeat CPU 0 instructions: 460000002 cycles: 248545549 heartbeat IPC: 3.999 cumulative IPC: 1.74 (Simulation time: 00 hr 43 min 58 sec)
Heartbeat CPU 0 instructions: 470000001 cycles: 251045997 heartbeat IPC: 3.999 cumulative IPC: 1.763 (Simulation time: 00 hr 44 min 35 sec)
Heartbeat CPU 0 instructions: 480000000 cycles: 253547305 heartbeat IPC: 3.998 cumulative IPC: 1.787 (Simulation time: 00 hr 45 min 12 sec)
Heartbeat CPU 0 instructions: 490000001 cycles: 256047389 heartbeat IPC: 4 cumulative IPC: 1.809 (Simulation time: 00 hr 45 min 49 sec)
Heartbeat CPU 0 instructions: 500000004 cycles: 258547477 heartbeat IPC: 4 cumulative IPC: 1.832 (Simulation time: 00 hr 46 min 27 sec)
Heartbeat CPU 0 instructions: 510000001 cycles: 265821757 heartbeat IPC: 1.375 cumulative IPC: 1.819 (Simulation time: 00 hr 47 min 35 sec)
Heartbeat CPU 0 instructions: 520000002 cycles: 360725223 heartbeat IPC: 0.1054 cumulative IPC: 1.351 (Simulation time: 00 hr 57 min 47 sec)
Heartbeat CPU 0 instructions: 530000001 cycles: 438264307 heartbeat IPC: 0.129 cumulative IPC: 1.128 (Simulation time: 01 hr 05 min 35 sec)
Heartbeat CPU 0 instructions: 540000000 cycles: 476862048 heartbeat IPC: 0.2591 cumulative IPC: 1.056 (Simulation time: 01 hr 09 min 45 sec)
Heartbeat CPU 0 instructions: 550000001 cycles: 515558250 heartbeat IPC: 0.2584 cumulative IPC: 0.9947 (Simulation time: 01 hr 14 min 01 sec)
Heartbeat CPU 0 instructions: 560000003 cycles: 553922439 heartbeat IPC: 0.2607 cumulative IPC: 0.9426 (Simulation time: 01 hr 18 min 16 sec)
Heartbeat CPU 0 instructions: 570000004 cycles: 587085674 heartbeat IPC: 0.3015 cumulative IPC: 0.9056 (Simulation time: 01 hr 22 min 01 sec)
Heartbeat CPU 0 instructions: 580000001 cycles: 624636917 heartbeat IPC: 0.2663 cumulative IPC: 0.8664 (Simulation time: 01 hr 26 min 07 sec)
Heartbeat CPU 0 instructions: 590000001 cycles: 663089416 heartbeat IPC: 0.2601 cumulative IPC: 0.8305 (Simulation time: 01 hr 29 min 38 sec)
*** Reached end of trace: (0, "traces/sp.A.champsimtrace")
Heartbeat CPU 0 instructions: 600000002 cycles: 701279757 heartbeat IPC: 0.2618 cumulative IPC: 0.799 (Simulation time: 01 hr 33 min 08 sec)
Heartbeat CPU 0 instructions: 610000004 cycles: 733756112 heartbeat IPC: 0.3079 cumulative IPC: 0.7768 (Simulation time: 01 hr 35 min 21 sec)
Heartbeat CPU 0 instructions: 620000003 cycles: 739742918 heartbeat IPC: 1.67 cumulative IPC: 0.7842 (Simulation time: 01 hr 36 min 04 sec)
Heartbeat CPU 0 instructions: 630000001 cycles: 745686407 heartbeat IPC: 1.683 cumulative IPC: 0.7915 (Simulation time: 01 hr 36 min 45 sec)
Heartbeat CPU 0 instructions: 640000000 cycles: 751632321 heartbeat IPC: 1.682 cumulative IPC: 0.7986 (Simulation time: 01 hr 37 min 25 sec)
Heartbeat CPU 0 instructions: 650000003 cycles: 757584908 heartbeat IPC: 1.68 cumulative IPC: 0.8057 (Simulation time: 01 hr 37 min 59 sec)
Simulation finished CPU 0 instructions: 600000000 cycles: 744703851 cumulative IPC: 0.8057 (Simulation time: 01 hr 37 min 59 sec)
Simulation complete CPU 0 instructions: 600000000 cycles: 744703851 cumulative IPC: 0.8057 (Simulation time: 01 hr 37 min 59 sec)

ChampSim completed all CPUs

=== Simulation ===
CPU 0 runs traces/sp.A.champsimtrace
Region of Interest Statistics

CPU 0 cumulative IPC: 0.8057 instructions: 600000000 cycles: 744703851
CPU 0 Branch Prediction Accuracy: 99.98% MPKI: 0.004297 Average ROB Occupancy at Mispredict: 116.5
Branch type MPKI
BRANCH_DIRECT_JUMP: 5e-06
BRANCH_INDIRECT: 7.67e-05
BRANCH_CONDITIONAL: 0.00413
BRANCH_DIRECT_CALL: 2e-05
BRANCH_INDIRECT_CALL: 3.33e-05
BRANCH_RETURN: 3.67e-05

LLC TOTAL        ACCESS:    5279046 HIT:     461786 MISS:    4817260
LLC LOAD         ACCESS:    2306632 HIT:     294147 MISS:    2012485
LLC RFO          ACCESS:     922692 HIT:       1247 MISS:     921445
LLC PREFETCH     ACCESS:          0 HIT:          0 MISS:          0
LLC WRITE        ACCESS:    2046208 HIT:     166326 MISS:    1879882
LLC TRANSLATION  ACCESS:       3514 HIT:         66 MISS:       3448
LLC PREFETCH REQUESTED:          0 ISSUED:          0 USEFUL:          0 USELESS:          0
LLC AVERAGE MISS LATENCY: 741.2 cycles
cpu0_DTLB TOTAL        ACCESS:  126864065 HIT:  125862532 MISS:    1001533
cpu0_DTLB LOAD         ACCESS:  126864065 HIT:  125862532 MISS:    1001533
cpu0_DTLB RFO          ACCESS:          0 HIT:          0 MISS:          0
cpu0_DTLB PREFETCH     ACCESS:          0 HIT:          0 MISS:          0
cpu0_DTLB WRITE        ACCESS:          0 HIT:          0 MISS:          0
cpu0_DTLB TRANSLATION  ACCESS:          0 HIT:          0 MISS:          0
cpu0_DTLB PREFETCH REQUESTED:          0 ISSUED:          0 USEFUL:          0 USELESS:          0
cpu0_DTLB AVERAGE MISS LATENCY: 18.57 cycles
cpu0_ITLB TOTAL        ACCESS:     233909 HIT:     233678 MISS:        231
cpu0_ITLB LOAD         ACCESS:     233909 HIT:     233678 MISS:        231
cpu0_ITLB RFO          ACCESS:          0 HIT:          0 MISS:          0
cpu0_ITLB PREFETCH     ACCESS:          0 HIT:          0 MISS:          0
cpu0_ITLB WRITE        ACCESS:          0 HIT:          0 MISS:          0
cpu0_ITLB TRANSLATION  ACCESS:          0 HIT:          0 MISS:          0
cpu0_ITLB PREFETCH REQUESTED:          0 ISSUED:          0 USEFUL:          0 USELESS:          0
cpu0_ITLB AVERAGE MISS LATENCY: 319.2 cycles
cpu0_L1D TOTAL        ACCESS:  192180037 HIT:  177545444 MISS:   14634593
cpu0_L1D LOAD         ACCESS:  156937921 HIT:  146443125 MISS:   10494796
cpu0_L1D RFO          ACCESS:          0 HIT:          0 MISS:          0
cpu0_L1D PREFETCH     ACCESS:          0 HIT:          0 MISS:          0
cpu0_L1D WRITE        ACCESS:   35194242 HIT:   31072751 MISS:    4121491
cpu0_L1D TRANSLATION  ACCESS:      47874 HIT:      29568 MISS:      18306
cpu0_L1D PREFETCH REQUESTED:          0 ISSUED:          0 USEFUL:          0 USELESS:          0
cpu0_L1D AVERAGE MISS LATENCY: 177.9 cycles
cpu0_L1I TOTAL        ACCESS:     244655 HIT:     241652 MISS:       3003
cpu0_L1I LOAD         ACCESS:     244655 HIT:     241652 MISS:       3003
cpu0_L1I RFO          ACCESS:          0 HIT:          0 MISS:          0
cpu0_L1I PREFETCH     ACCESS:          0 HIT:          0 MISS:          0
cpu0_L1I WRITE        ACCESS:          0 HIT:          0 MISS:          0
cpu0_L1I TRANSLATION  ACCESS:          0 HIT:          0 MISS:          0
cpu0_L1I PREFETCH REQUESTED:          0 ISSUED:          0 USEFUL:          0 USELESS:          0
cpu0_L1I AVERAGE MISS LATENCY: 526.5 cycles
cpu0_L2C TOTAL        ACCESS:    5439455 HIT:    2206273 MISS:    3233182
cpu0_L2C LOAD         ACCESS:    2437716 HIT:     131082 MISS:    2306634
cpu0_L2C RFO          ACCESS:     924643 HIT:       1951 MISS:     922692
cpu0_L2C PREFETCH     ACCESS:          0 HIT:          0 MISS:          0
cpu0_L2C WRITE        ACCESS:    2058794 HIT:    2058452 MISS:        342
cpu0_L2C TRANSLATION  ACCESS:      18302 HIT:      14788 MISS:       3514
cpu0_L2C PREFETCH REQUESTED:          0 ISSUED:          0 USEFUL:          0 USELESS:          0
cpu0_L2C AVERAGE MISS LATENCY: 1125 cycles
cpu0_STLB TOTAL        ACCESS:     753810 HIT:     705965 MISS:      47845
cpu0_STLB LOAD         ACCESS:     753810 HIT:     705965 MISS:      47845
cpu0_STLB RFO          ACCESS:          0 HIT:          0 MISS:          0
cpu0_STLB PREFETCH     ACCESS:          0 HIT:          0 MISS:          0
cpu0_STLB WRITE        ACCESS:          0 HIT:          0 MISS:          0
cpu0_STLB TRANSLATION  ACCESS:          0 HIT:          0 MISS:          0
cpu0_STLB PREFETCH REQUESTED:          0 ISSUED:          0 USEFUL:          0 USELESS:          0
cpu0_STLB AVERAGE MISS LATENCY: 383.2 cycles

DRAM Statistics

Channel 0 RQ ROW_BUFFER_HIT:     769846
  ROW_BUFFER_MISS:    2141023
 AVG DBUS CONGESTED CYCLE: 3.97
WQ ROW_BUFFER_HIT: Channel 0 
  ROW_BUFFER_MISS:     619226
  FULL:    1305653
