WARNING: physical memory size is smaller than virtual memory size.

*** ChampSim Multicore Out-of-Order Simulator ***
Warmup Instructions: 50000000
Simulation Instructions: 600000000
Number of CPUs: 1
Page size: 4096

Off-chip DRAM Size: 4 GiB Channels: 1 Width: 64-bit Data Race: 3200 MT/s
Heartbeat CPU 0 instructions: 10000001 cycles: 2881056 heartbeat IPC: 3.471 cumulative IPC: 3.471 (Simulation time: 00 hr 00 min 52 sec)
Heartbeat CPU 0 instructions: 20000001 cycles: 5381056 heartbeat IPC: 4 cumulative IPC: 3.717 (Simulation time: 00 hr 01 min 38 sec)
Heartbeat CPU 0 instructions: 30000001 cycles: 7881056 heartbeat IPC: 4 cumulative IPC: 3.807 (Simulation time: 00 hr 02 min 26 sec)
Heartbeat CPU 0 instructions: 40000001 cycles: 10381056 heartbeat IPC: 4 cumulative IPC: 3.853 (Simulation time: 00 hr 03 min 13 sec)
Heartbeat CPU 0 instructions: 50000001 cycles: 12881056 heartbeat IPC: 4 cumulative IPC: 3.882 (Simulation time: 00 hr 04 min 01 sec)
Warmup finished CPU 0 instructions: 50000001 cycles: 12881057 cumulative IPC: 3.882 (Simulation time: 00 hr 04 min 01 sec)
Warmup complete CPU 0 instructions: 50000001 cycles: 12881057 cumulative IPC: 3.882 (Simulation time: 00 hr 04 min 01 sec)
Heartbeat CPU 0 instructions: 60000000 cycles: 18988094 heartbeat IPC: 1.637 cumulative IPC: 1.637 (Simulation time: 00 hr 05 min 40 sec)
Heartbeat CPU 0 instructions: 70000002 cycles: 25119049 heartbeat IPC: 1.631 cumulative IPC: 1.634 (Simulation time: 00 hr 07 min 17 sec)
Heartbeat CPU 0 instructions: 80000001 cycles: 31232227 heartbeat IPC: 1.636 cumulative IPC: 1.635 (Simulation time: 00 hr 08 min 55 sec)
Heartbeat CPU 0 instructions: 90000004 cycles: 37376985 heartbeat IPC: 1.627 cumulative IPC: 1.633 (Simulation time: 00 hr 10 min 32 sec)
Heartbeat CPU 0 instructions: 100000000 cycles: 41628136 heartbeat IPC: 2.352 cumulative IPC: 1.739 (Simulation time: 00 hr 11 min 47 sec)
Heartbeat CPU 0 instructions: 110000004 cycles: 44554803 heartbeat IPC: 3.417 cumulative IPC: 1.894 (Simulation time: 00 hr 12 min 45 sec)
Heartbeat CPU 0 instructions: 120000000 cycles: 49795914 heartbeat IPC: 1.908 cumulative IPC: 1.896 (Simulation time: 00 hr 14 min 10 sec)
Heartbeat CPU 0 instructions: 130000000 cycles: 56860175 heartbeat IPC: 1.416 cumulative IPC: 1.819 (Simulation time: 00 hr 15 min 58 sec)
Heartbeat CPU 0 instructions: 140000004 cycles: 63871417 heartbeat IPC: 1.426 cumulative IPC: 1.765 (Simulation time: 00 hr 17 min 44 sec)
Heartbeat CPU 0 instructions: 150000001 cycles: 70944172 heartbeat IPC: 1.414 cumulative IPC: 1.722 (Simulation time: 00 hr 19 min 32 sec)
Heartbeat CPU 0 instructions: 160000004 cycles: 77889748 heartbeat IPC: 1.44 cumulative IPC: 1.692 (Simulation time: 00 hr 21 min 18 sec)
Heartbeat CPU 0 instructions: 170000000 cycles: 84995869 heartbeat IPC: 1.407 cumulative IPC: 1.664 (Simulation time: 00 hr 23 min 08 sec)
Heartbeat CPU 0 instructions: 180000000 cycles: 91977391 heartbeat IPC: 1.432 cumulative IPC: 1.644 (Simulation time: 00 hr 24 min 53 sec)
Heartbeat CPU 0 instructions: 190000000 cycles: 99217120 heartbeat IPC: 1.381 cumulative IPC: 1.622 (Simulation time: 00 hr 26 min 44 sec)
Heartbeat CPU 0 instructions: 200000003 cycles: 105083623 heartbeat IPC: 1.705 cumulative IPC: 1.627 (Simulation time: 00 hr 28 min 19 sec)
Heartbeat CPU 0 instructions: 210000000 cycles: 111678789 heartbeat IPC: 1.516 cumulative IPC: 1.619 (Simulation time: 00 hr 30 min 02 sec)
Heartbeat CPU 0 instructions: 220000004 cycles: 118936984 heartbeat IPC: 1.378 cumulative IPC: 1.603 (Simulation time: 00 hr 31 min 54 sec)
Heartbeat CPU 0 instructions: 230000000 cycles: 126389177 heartbeat IPC: 1.342 cumulative IPC: 1.586 (Simulation time: 00 hr 33 min 47 sec)
Heartbeat CPU 0 instructions: 240000003 cycles: 133769643 heartbeat IPC: 1.355 cumulative IPC: 1.572 (Simulation time: 00 hr 35 min 37 sec)
Heartbeat CPU 0 instructions: 250000002 cycles: 141190027 heartbeat IPC: 1.348 cumulative IPC: 1.559 (Simulation time: 00 hr 37 min 30 sec)
Heartbeat CPU 0 instructions: 260000002 cycles: 148575572 heartbeat IPC: 1.354 cumulative IPC: 1.548 (Simulation time: 00 hr 39 min 22 sec)
Heartbeat CPU 0 instructions: 270000003 cycles: 155968534 heartbeat IPC: 1.353 cumulative IPC: 1.538 (Simulation time: 00 hr 41 min 15 sec)
Heartbeat CPU 0 instructions: 280000003 cycles: 163375004 heartbeat IPC: 1.35 cumulative IPC: 1.528 (Simulation time: 00 hr 43 min 09 sec)
Heartbeat CPU 0 instructions: 290000000 cycles: 218689102 heartbeat IPC: 0.1808 cumulative IPC: 1.166 (Simulation time: 00 hr 52 min 50 sec)
Heartbeat CPU 0 instructions: 300000001 cycles: 221191492 heartbeat IPC: 3.996 cumulative IPC: 1.2 (Simulation time: 00 hr 53 min 42 sec)
Heartbeat CPU 0 instructions: 310000000 cycles: 223693869 heartbeat IPC: 3.996 cumulative IPC: 1.233 (Simulation time: 00 hr 54 min 35 sec)
Heartbeat CPU 0 instructions: 320000002 cycles: 226196300 heartbeat IPC: 3.996 cumulative IPC: 1.266 (Simulation time: 00 hr 55 min 29 sec)
Heartbeat CPU 0 instructions: 330000004 cycles: 228698997 heartbeat IPC: 3.996 cumulative IPC: 1.297 (Simulation time: 00 hr 56 min 21 sec)
Heartbeat CPU 0 instructions: 340000004 cycles: 231201488 heartbeat IPC: 3.996 cumulative IPC: 1.328 (Simulation time: 00 hr 57 min 14 sec)
Heartbeat CPU 0 instructions: 350000003 cycles: 233704950 heartbeat IPC: 3.994 cumulative IPC: 1.359 (Simulation time: 00 hr 58 min 06 sec)
Heartbeat CPU 0 instructions: 360000002 cycles: 236207542 heartbeat IPC: 3.996 cumulative IPC: 1.388 (Simulation time: 00 hr 58 min 59 sec)
Heartbeat CPU 0 instructions: 370000004 cycles: 238709890 heartbeat IPC: 3.996 cumulative IPC: 1.417 (Simulation time: 00 hr 59 min 51 sec)
Heartbeat CPU 0 instructions: 380000003 cycles: 241212596 heartbeat IPC: 3.996 cumulative IPC: 1.445 (Simulation time: 01 hr 00 min 45 sec)
Heartbeat CPU 0 instructions: 390000000 cycles: 243714985 heartbeat IPC: 3.996 cumulative IPC: 1.473 (Simulation time: 01 hr 01 min 37 sec)
Heartbeat CPU 0 instructions: 400000002 cycles: 246218681 heartbeat IPC: 3.994 cumulative IPC: 1.5 (Simulation time: 01 hr 02 min 31 sec)
Heartbeat CPU 0 instructions: 410000002 cycles: 248721770 heartbeat IPC: 3.995 cumulative IPC: 1.526 (Simulation time: 01 hr 03 min 24 sec)
Heartbeat CPU 0 instructions: 420000000 cycles: 251225255 heartbeat IPC: 3.994 cumulative IPC: 1.552 (Simulation time: 01 hr 04 min 17 sec)
Heartbeat CPU 0 instructions: 430000001 cycles: 253727642 heartbeat IPC: 3.996 cumulative IPC: 1.578 (Simulation time: 01 hr 05 min 10 sec)
Heartbeat CPU 0 instructions: 440000000 cycles: 256230226 heartbeat IPC: 3.996 cumulative IPC: 1.603 (Simulation time: 01 hr 06 min 03 sec)
Heartbeat CPU 0 instructions: 450000001 cycles: 258732988 heartbeat IPC: 3.996 cumulative IPC: 1.627 (Simulation time: 01 hr 07 min 07 sec)
Heartbeat CPU 0 instructions: 460000002 cycles: 261236296 heartbeat IPC: 3.995 cumulative IPC: 1.651 (Simulation time: 01 hr 08 min 01 sec)
Heartbeat CPU 0 instructions: 470000001 cycles: 263740418 heartbeat IPC: 3.993 cumulative IPC: 1.674 (Simulation time: 01 hr 08 min 55 sec)
Heartbeat CPU 0 instructions: 480000000 cycles: 266242805 heartbeat IPC: 3.996 cumulative IPC: 1.697 (Simulation time: 01 hr 09 min 48 sec)
Heartbeat CPU 0 instructions: 490000001 cycles: 268745195 heartbeat IPC: 3.996 cumulative IPC: 1.72 (Simulation time: 01 hr 10 min 40 sec)
Heartbeat CPU 0 instructions: 500000004 cycles: 271248009 heartbeat IPC: 3.996 cumulative IPC: 1.742 (Simulation time: 01 hr 11 min 32 sec)
Heartbeat CPU 0 instructions: 510000000 cycles: 278443189 heartbeat IPC: 1.39 cumulative IPC: 1.732 (Simulation time: 01 hr 13 min 17 sec)
Heartbeat CPU 0 instructions: 520000002 cycles: 375525883 heartbeat IPC: 0.103 cumulative IPC: 1.296 (Simulation time: 01 hr 31 min 40 sec)
Heartbeat CPU 0 instructions: 530000001 cycles: 452427253 heartbeat IPC: 0.13 cumulative IPC: 1.092 (Simulation time: 01 hr 46 min 18 sec)
Heartbeat CPU 0 instructions: 540000000 cycles: 485325540 heartbeat IPC: 0.304 cumulative IPC: 1.037 (Simulation time: 01 hr 53 min 01 sec)
Heartbeat CPU 0 instructions: 550000001 cycles: 517693446 heartbeat IPC: 0.3089 cumulative IPC: 0.9905 (Simulation time: 01 hr 59 min 43 sec)
Heartbeat CPU 0 instructions: 560000003 cycles: 550049200 heartbeat IPC: 0.3091 cumulative IPC: 0.9494 (Simulation time: 02 hr 06 min 17 sec)
Heartbeat CPU 0 instructions: 570000003 cycles: 581948261 heartbeat IPC: 0.3135 cumulative IPC: 0.9138 (Simulation time: 02 hr 12 min 51 sec)
Heartbeat CPU 0 instructions: 580000002 cycles: 614464558 heartbeat IPC: 0.3075 cumulative IPC: 0.881 (Simulation time: 02 hr 19 min 32 sec)
Heartbeat CPU 0 instructions: 590000001 cycles: 648013238 heartbeat IPC: 0.2981 cumulative IPC: 0.8502 (Simulation time: 02 hr 26 min 40 sec)
*** Reached end of trace: (0, "traces/sp.A.champsimtrace")
Heartbeat CPU 0 instructions: 600000002 cycles: 681288933 heartbeat IPC: 0.3005 cumulative IPC: 0.8229 (Simulation time: 02 hr 33 min 32 sec)
Heartbeat CPU 0 instructions: 610000004 cycles: 713764826 heartbeat IPC: 0.3079 cumulative IPC: 0.799 (Simulation time: 02 hr 38 min 58 sec)
Heartbeat CPU 0 instructions: 620000003 cycles: 719899988 heartbeat IPC: 1.63 cumulative IPC: 0.8062 (Simulation time: 02 hr 40 min 37 sec)
Heartbeat CPU 0 instructions: 630000001 cycles: 726011499 heartbeat IPC: 1.636 cumulative IPC: 0.8133 (Simulation time: 02 hr 42 min 15 sec)
Heartbeat CPU 0 instructions: 640000000 cycles: 732127728 heartbeat IPC: 1.635 cumulative IPC: 0.8203 (Simulation time: 02 hr 43 min 54 sec)
Heartbeat CPU 0 instructions: 650000003 cycles: 738245743 heartbeat IPC: 1.635 cumulative IPC: 0.8272 (Simulation time: 02 hr 45 min 33 sec)
Simulation finished CPU 0 instructions: 600000002 cycles: 725364687 cumulative IPC: 0.8272 (Simulation time: 02 hr 45 min 33 sec)
Simulation complete CPU 0 instructions: 600000002 cycles: 725364687 cumulative IPC: 0.8272 (Simulation time: 02 hr 45 min 33 sec)

ChampSim completed all CPUs

=== Simulation ===
CPU 0 runs traces/sp.A.champsimtrace
Region of Interest Statistics

CPU 0 cumulative IPC: 0.8272 instructions: 600000002 cycles: 725364687
CPU 0 Branch Prediction Accuracy: 98.83% MPKI: 0.2409 Average ROB Occupancy at Mispredict: 221.9
Branch type MPKI
BRANCH_DIRECT_JUMP: 5e-06
BRANCH_INDIRECT: 7.67e-05
BRANCH_CONDITIONAL: 0.241
BRANCH_DIRECT_CALL: 2e-05
BRANCH_INDIRECT_CALL: 3.33e-05
BRANCH_RETURN: 3.67e-05

LLC TOTAL        ACCESS:    5279091 HIT:    1242532 MISS:    4036559
LLC LOAD         ACCESS:    2306638 HIT:     562145 MISS:    1744493
LLC RFO          ACCESS:     922693 HIT:      32981 MISS:     889712
LLC PREFETCH     ACCESS:          0 HIT:          0 MISS:          0
LLC WRITE        ACCESS:    2046246 HIT:     646387 MISS:    1399859
LLC TRANSLATION  ACCESS:       3514 HIT:       1019 MISS:       2495
LLC PREFETCH REQUESTED:          0 ISSUED:          0 USEFUL:          0 USELESS:          0
LLC AVERAGE MISS LATENCY: 839.9 cycles
cpu0_DTLB TOTAL        ACCESS:  126105369 HIT:  125249493 MISS:     855876
cpu0_DTLB LOAD         ACCESS:  126105369 HIT:  125249493 MISS:     855876
cpu0_DTLB RFO          ACCESS:          0 HIT:          0 MISS:          0
cpu0_DTLB PREFETCH     ACCESS:          0 HIT:          0 MISS:          0
cpu0_DTLB WRITE        ACCESS:          0 HIT:          0 MISS:          0
cpu0_DTLB TRANSLATION  ACCESS:          0 HIT:          0 MISS:          0
cpu0_DTLB PREFETCH REQUESTED:          0 ISSUED:          0 USEFUL:          0 USELESS:          0
cpu0_DTLB AVERAGE MISS LATENCY: 18.98 cycles
cpu0_ITLB TOTAL        ACCESS:     222743 HIT:     222525 MISS:        218
cpu0_ITLB LOAD         ACCESS:     222743 HIT:     222525 MISS:        218
cpu0_ITLB RFO          ACCESS:          0 HIT:          0 MISS:          0
cpu0_ITLB PREFETCH     ACCESS:          0 HIT:          0 MISS:          0
cpu0_ITLB WRITE        ACCESS:          0 HIT:          0 MISS:          0
cpu0_ITLB TRANSLATION  ACCESS:          0 HIT:          0 MISS:          0
cpu0_ITLB PREFETCH REQUESTED:          0 ISSUED:          0 USEFUL:          0 USELESS:          0
cpu0_ITLB AVERAGE MISS LATENCY: 293 cycles
cpu0_L1D TOTAL        ACCESS:  190862025 HIT:  176514460 MISS:   14347565
cpu0_L1D LOAD         ACCESS:  155619803 HIT:  145325570 MISS:   10294233
cpu0_L1D RFO          ACCESS:          0 HIT:          0 MISS:          0
cpu0_L1D PREFETCH     ACCESS:          0 HIT:          0 MISS:          0
cpu0_L1D WRITE        ACCESS:   35194346 HIT:   31159369 MISS:    4034977
cpu0_L1D TRANSLATION  ACCESS:      47876 HIT:      29521 MISS:      18355
cpu0_L1D PREFETCH REQUESTED:          0 ISSUED:          0 USEFUL:          0 USELESS:          0
cpu0_L1D AVERAGE MISS LATENCY: 175 cycles
cpu0_L1I TOTAL        ACCESS:     230861 HIT:     228101 MISS:       2760
cpu0_L1I LOAD         ACCESS:     230861 HIT:     228101 MISS:       2760
cpu0_L1I RFO          ACCESS:          0 HIT:          0 MISS:          0
cpu0_L1I PREFETCH     ACCESS:          0 HIT:          0 MISS:          0
cpu0_L1I WRITE        ACCESS:          0 HIT:          0 MISS:          0
cpu0_L1I TRANSLATION  ACCESS:          0 HIT:          0 MISS:          0
cpu0_L1I PREFETCH REQUESTED:          0 ISSUED:          0 USEFUL:          0 USELESS:          0
cpu0_L1I AVERAGE MISS LATENCY: 547.2 cycles
cpu0_L2C TOTAL        ACCESS:    5438485 HIT:    2205294 MISS:    3233191
cpu0_L2C LOAD         ACCESS:    2437444 HIT:     130803 MISS:    2306641
cpu0_L2C RFO          ACCESS:     924311 HIT:       1618 MISS:     922693
cpu0_L2C PREFETCH     ACCESS:          0 HIT:          0 MISS:          0
cpu0_L2C WRITE        ACCESS:    2058379 HIT:    2058036 MISS:        343
cpu0_L2C TRANSLATION  ACCESS:      18351 HIT:      14837 MISS:       3514
cpu0_L2C PREFETCH REQUESTED:          0 ISSUED:          0 USEFUL:          0 USELESS:          0
cpu0_L2C AVERAGE MISS LATENCY: 1069 cycles
cpu0_STLB TOTAL        ACCESS:     592317 HIT:     544470 MISS:      47847
cpu0_STLB LOAD         ACCESS:     592317 HIT:     544470 MISS:      47847
cpu0_STLB RFO          ACCESS:          0 HIT:          0 MISS:          0
cpu0_STLB PREFETCH     ACCESS:          0 HIT:          0 MISS:          0
cpu0_STLB WRITE        ACCESS:          0 HIT:          0 MISS:          0
cpu0_STLB TRANSLATION  ACCESS:          0 HIT:          0 MISS:          0
cpu0_STLB PREFETCH REQUESTED:          0 ISSUED:          0 USEFUL:          0 USELESS:          0
cpu0_STLB AVERAGE MISS LATENCY: 338.7 cycles

DRAM Statistics

Channel 0 RQ ROW_BUFFER_HIT:     700583
  ROW_BUFFER_MISS:    1936061
 AVG DBUS CONGESTED CYCLE: 3.971
WQ ROW_BUFFER_HIT: Channel 0 
  ROW_BUFFER_MISS:     589633
  FULL:    1228775
Final OPTGen Hits: 11377
Final OPTGen Access: 54473
Final OPTGEN Hit Rate: 20.8856
