WARNING: physical memory size is smaller than virtual memory size.

*** ChampSim Multicore Out-of-Order Simulator ***
Warmup Instructions: 50000000
Simulation Instructions: 600000000
Number of CPUs: 1
Page size: 4096

Off-chip DRAM Size: 4 GiB Channels: 1 Width: 64-bit Data Race: 3200 MT/s
Heartbeat CPU 0 instructions: 10000000 cycles: 2881055 heartbeat IPC: 3.471 cumulative IPC: 3.471 (Simulation time: 00 hr 00 min 35 sec)
Heartbeat CPU 0 instructions: 20000000 cycles: 5381055 heartbeat IPC: 4 cumulative IPC: 3.717 (Simulation time: 00 hr 01 min 07 sec)
Heartbeat CPU 0 instructions: 30000000 cycles: 7881055 heartbeat IPC: 4 cumulative IPC: 3.807 (Simulation time: 00 hr 01 min 39 sec)
Heartbeat CPU 0 instructions: 40000000 cycles: 10381055 heartbeat IPC: 4 cumulative IPC: 3.853 (Simulation time: 00 hr 02 min 12 sec)
Heartbeat CPU 0 instructions: 50000000 cycles: 12881055 heartbeat IPC: 4 cumulative IPC: 3.882 (Simulation time: 00 hr 02 min 44 sec)
Warmup finished CPU 0 instructions: 50000000 cycles: 12881056 cumulative IPC: 3.882 (Simulation time: 00 hr 02 min 44 sec)
Warmup complete CPU 0 instructions: 50000000 cycles: 12881056 cumulative IPC: 3.882 (Simulation time: 00 hr 02 min 44 sec)
Heartbeat CPU 0 instructions: 60000000 cycles: 17344527 heartbeat IPC: 2.24 cumulative IPC: 2.24 (Simulation time: 00 hr 03 min 39 sec)
Heartbeat CPU 0 instructions: 70000002 cycles: 21818156 heartbeat IPC: 2.235 cumulative IPC: 2.238 (Simulation time: 00 hr 04 min 33 sec)
Heartbeat CPU 0 instructions: 80000001 cycles: 26266304 heartbeat IPC: 2.248 cumulative IPC: 2.241 (Simulation time: 00 hr 05 min 27 sec)
Heartbeat CPU 0 instructions: 90000003 cycles: 30693027 heartbeat IPC: 2.259 cumulative IPC: 2.246 (Simulation time: 00 hr 06 min 21 sec)
Heartbeat CPU 0 instructions: 100000000 cycles: 34701801 heartbeat IPC: 2.495 cumulative IPC: 2.291 (Simulation time: 00 hr 07 min 11 sec)
Heartbeat CPU 0 instructions: 110000001 cycles: 38332114 heartbeat IPC: 2.755 cumulative IPC: 2.357 (Simulation time: 00 hr 07 min 59 sec)
Heartbeat CPU 0 instructions: 120000001 cycles: 41714872 heartbeat IPC: 2.956 cumulative IPC: 2.428 (Simulation time: 00 hr 08 min 44 sec)
Heartbeat CPU 0 instructions: 130000000 cycles: 45337079 heartbeat IPC: 2.761 cumulative IPC: 2.465 (Simulation time: 00 hr 09 min 31 sec)
Heartbeat CPU 0 instructions: 140000004 cycles: 48641599 heartbeat IPC: 3.026 cumulative IPC: 2.517 (Simulation time: 00 hr 10 min 13 sec)
Heartbeat CPU 0 instructions: 150000000 cycles: 52138982 heartbeat IPC: 2.859 cumulative IPC: 2.547 (Simulation time: 00 hr 10 min 57 sec)
Heartbeat CPU 0 instructions: 160000000 cycles: 55697344 heartbeat IPC: 2.81 cumulative IPC: 2.569 (Simulation time: 00 hr 11 min 42 sec)
Heartbeat CPU 0 instructions: 170000000 cycles: 59313872 heartbeat IPC: 2.765 cumulative IPC: 2.584 (Simulation time: 00 hr 12 min 28 sec)
Heartbeat CPU 0 instructions: 180000002 cycles: 62749666 heartbeat IPC: 2.911 cumulative IPC: 2.607 (Simulation time: 00 hr 13 min 12 sec)
Heartbeat CPU 0 instructions: 190000002 cycles: 65936885 heartbeat IPC: 3.138 cumulative IPC: 2.639 (Simulation time: 00 hr 13 min 57 sec)
Heartbeat CPU 0 instructions: 200000000 cycles: 68717003 heartbeat IPC: 3.597 cumulative IPC: 2.686 (Simulation time: 00 hr 14 min 37 sec)
Heartbeat CPU 0 instructions: 210000000 cycles: 71498837 heartbeat IPC: 3.595 cumulative IPC: 2.73 (Simulation time: 00 hr 15 min 17 sec)
Heartbeat CPU 0 instructions: 220000001 cycles: 74551988 heartbeat IPC: 3.275 cumulative IPC: 2.757 (Simulation time: 00 hr 16 min 02 sec)
Heartbeat CPU 0 instructions: 230000004 cycles: 77885018 heartbeat IPC: 3 cumulative IPC: 2.769 (Simulation time: 00 hr 16 min 45 sec)
Heartbeat CPU 0 instructions: 240000002 cycles: 81449968 heartbeat IPC: 2.805 cumulative IPC: 2.771 (Simulation time: 00 hr 17 min 30 sec)
Heartbeat CPU 0 instructions: 250000002 cycles: 85194265 heartbeat IPC: 2.671 cumulative IPC: 2.766 (Simulation time: 00 hr 18 min 16 sec)
Heartbeat CPU 0 instructions: 260000002 cycles: 89021653 heartbeat IPC: 2.613 cumulative IPC: 2.758 (Simulation time: 00 hr 19 min 03 sec)
Heartbeat CPU 0 instructions: 270000003 cycles: 92576942 heartbeat IPC: 2.813 cumulative IPC: 2.76 (Simulation time: 00 hr 19 min 49 sec)
Heartbeat CPU 0 instructions: 280000003 cycles: 96321645 heartbeat IPC: 2.67 cumulative IPC: 2.756 (Simulation time: 00 hr 20 min 35 sec)
Heartbeat CPU 0 instructions: 290000001 cycles: 151093683 heartbeat IPC: 0.1826 cumulative IPC: 1.736 (Simulation time: 00 hr 26 min 34 sec)
Heartbeat CPU 0 instructions: 300000002 cycles: 153596072 heartbeat IPC: 3.996 cumulative IPC: 1.777 (Simulation time: 00 hr 27 min 10 sec)
Heartbeat CPU 0 instructions: 310000001 cycles: 156098449 heartbeat IPC: 3.996 cumulative IPC: 1.815 (Simulation time: 00 hr 27 min 47 sec)
Heartbeat CPU 0 instructions: 320000001 cycles: 158600879 heartbeat IPC: 3.996 cumulative IPC: 1.853 (Simulation time: 00 hr 28 min 23 sec)
Heartbeat CPU 0 instructions: 330000003 cycles: 161103216 heartbeat IPC: 3.996 cumulative IPC: 1.889 (Simulation time: 00 hr 28 min 59 sec)
Heartbeat CPU 0 instructions: 340000000 cycles: 163605602 heartbeat IPC: 3.996 cumulative IPC: 1.924 (Simulation time: 00 hr 29 min 35 sec)
Heartbeat CPU 0 instructions: 350000004 cycles: 166107990 heartbeat IPC: 3.996 cumulative IPC: 1.958 (Simulation time: 00 hr 30 min 11 sec)
Heartbeat CPU 0 instructions: 360000004 cycles: 168610380 heartbeat IPC: 3.996 cumulative IPC: 1.991 (Simulation time: 00 hr 30 min 47 sec)
Heartbeat CPU 0 instructions: 370000000 cycles: 171113480 heartbeat IPC: 3.995 cumulative IPC: 2.022 (Simulation time: 00 hr 31 min 23 sec)
Heartbeat CPU 0 instructions: 380000004 cycles: 173615856 heartbeat IPC: 3.996 cumulative IPC: 2.053 (Simulation time: 00 hr 31 min 59 sec)
Heartbeat CPU 0 instructions: 390000001 cycles: 176118245 heartbeat IPC: 3.996 cumulative IPC: 2.083 (Simulation time: 00 hr 32 min 37 sec)
Heartbeat CPU 0 instructions: 400000003 cycles: 178620624 heartbeat IPC: 3.996 cumulative IPC: 2.112 (Simulation time: 00 hr 33 min 17 sec)
Heartbeat CPU 0 instructions: 410000003 cycles: 181123053 heartbeat IPC: 3.996 cumulative IPC: 2.14 (Simulation time: 00 hr 33 min 59 sec)
Heartbeat CPU 0 instructions: 420000002 cycles: 183625443 heartbeat IPC: 3.996 cumulative IPC: 2.167 (Simulation time: 00 hr 34 min 43 sec)
Heartbeat CPU 0 instructions: 430000000 cycles: 186127831 heartbeat IPC: 3.996 cumulative IPC: 2.193 (Simulation time: 00 hr 35 min 26 sec)
Heartbeat CPU 0 instructions: 440000001 cycles: 188630220 heartbeat IPC: 3.996 cumulative IPC: 2.219 (Simulation time: 00 hr 36 min 09 sec)
Heartbeat CPU 0 instructions: 450000000 cycles: 191132595 heartbeat IPC: 3.996 cumulative IPC: 2.244 (Simulation time: 00 hr 36 min 51 sec)
Heartbeat CPU 0 instructions: 460000003 cycles: 193634931 heartbeat IPC: 3.996 cumulative IPC: 2.268 (Simulation time: 00 hr 37 min 34 sec)
Heartbeat CPU 0 instructions: 470000001 cycles: 196137321 heartbeat IPC: 3.996 cumulative IPC: 2.292 (Simulation time: 00 hr 38 min 18 sec)
Heartbeat CPU 0 instructions: 480000003 cycles: 198639708 heartbeat IPC: 3.996 cumulative IPC: 2.315 (Simulation time: 00 hr 39 min 00 sec)
Heartbeat CPU 0 instructions: 490000003 cycles: 201142096 heartbeat IPC: 3.996 cumulative IPC: 2.337 (Simulation time: 00 hr 39 min 43 sec)
Heartbeat CPU 0 instructions: 500000002 cycles: 203644484 heartbeat IPC: 3.996 cumulative IPC: 2.359 (Simulation time: 00 hr 40 min 24 sec)
Heartbeat CPU 0 instructions: 510000003 cycles: 208916355 heartbeat IPC: 1.897 cumulative IPC: 2.347 (Simulation time: 00 hr 41 min 26 sec)
Heartbeat CPU 0 instructions: 520000001 cycles: 314313287 heartbeat IPC: 0.09488 cumulative IPC: 1.559 (Simulation time: 00 hr 54 min 13 sec)
Heartbeat CPU 0 instructions: 530000004 cycles: 394989184 heartbeat IPC: 0.124 cumulative IPC: 1.256 (Simulation time: 01 hr 04 min 07 sec)
Heartbeat CPU 0 instructions: 540000000 cycles: 422709902 heartbeat IPC: 0.3607 cumulative IPC: 1.196 (Simulation time: 01 hr 07 min 46 sec)
Heartbeat CPU 0 instructions: 550000002 cycles: 450449539 heartbeat IPC: 0.3605 cumulative IPC: 1.143 (Simulation time: 01 hr 11 min 29 sec)
Heartbeat CPU 0 instructions: 560000004 cycles: 478253819 heartbeat IPC: 0.3597 cumulative IPC: 1.096 (Simulation time: 01 hr 15 min 06 sec)
Heartbeat CPU 0 instructions: 570000000 cycles: 506701998 heartbeat IPC: 0.3515 cumulative IPC: 1.053 (Simulation time: 01 hr 18 min 51 sec)
Heartbeat CPU 0 instructions: 580000001 cycles: 535904500 heartbeat IPC: 0.3424 cumulative IPC: 1.013 (Simulation time: 01 hr 22 min 45 sec)
Heartbeat CPU 0 instructions: 590000004 cycles: 565717701 heartbeat IPC: 0.3354 cumulative IPC: 0.9768 (Simulation time: 01 hr 26 min 41 sec)
*** Reached end of trace: (0, "traces/sp.A.champsimtrace")
Heartbeat CPU 0 instructions: 600000001 cycles: 595581984 heartbeat IPC: 0.3348 cumulative IPC: 0.9439 (Simulation time: 01 hr 30 min 39 sec)
Heartbeat CPU 0 instructions: 610000000 cycles: 621665979 heartbeat IPC: 0.3834 cumulative IPC: 0.9199 (Simulation time: 01 hr 33 min 28 sec)
Heartbeat CPU 0 instructions: 620000003 cycles: 626086849 heartbeat IPC: 2.262 cumulative IPC: 0.9295 (Simulation time: 01 hr 34 min 25 sec)
Heartbeat CPU 0 instructions: 630000003 cycles: 630528828 heartbeat IPC: 2.251 cumulative IPC: 0.939 (Simulation time: 01 hr 35 min 24 sec)
Heartbeat CPU 0 instructions: 640000004 cycles: 634968810 heartbeat IPC: 2.252 cumulative IPC: 0.9484 (Simulation time: 01 hr 36 min 22 sec)
Heartbeat CPU 0 instructions: 650000001 cycles: 639438380 heartbeat IPC: 2.237 cumulative IPC: 0.9576 (Simulation time: 01 hr 37 min 20 sec)
Simulation finished CPU 0 instructions: 600000001 cycles: 626557325 cumulative IPC: 0.9576 (Simulation time: 01 hr 37 min 20 sec)
Simulation complete CPU 0 instructions: 600000001 cycles: 626557325 cumulative IPC: 0.9576 (Simulation time: 01 hr 37 min 20 sec)

ChampSim completed all CPUs

=== Simulation ===
CPU 0 runs traces/sp.A.champsimtrace
Region of Interest Statistics

CPU 0 cumulative IPC: 0.9576 instructions: 600000001 cycles: 626557325
CPU 0 Branch Prediction Accuracy: 98.91% MPKI: 0.226 Average ROB Occupancy at Mispredict: 231.7
Branch type MPKI
BRANCH_DIRECT_JUMP: 5e-06
BRANCH_INDIRECT: 7.5e-05
BRANCH_CONDITIONAL: 0.226
BRANCH_DIRECT_CALL: 2e-05
BRANCH_INDIRECT_CALL: 3.17e-05
BRANCH_RETURN: 3.67e-05

LLC TOTAL        ACCESS:    7580679 HIT:    3803588 MISS:    3777091
LLC LOAD         ACCESS:    2304619 HIT:    1199384 MISS:    1105235
LLC RFO          ACCESS:     922633 HIT:      10397 MISS:     912236
LLC PREFETCH     ACCESS:    2304619 HIT:     546823 MISS:    1757796
LLC WRITE        ACCESS:    2045337 HIT:    2045215 MISS:        122
LLC TRANSLATION  ACCESS:       3471 HIT:       1769 MISS:       1702
LLC PREFETCH REQUESTED:    2304619 ISSUED:    2304619 USEFUL:    1486531 USELESS:      25934
LLC AVERAGE MISS LATENCY: 1163 cycles
cpu0_DTLB TOTAL        ACCESS:  127571903 HIT:  126756167 MISS:     815736
cpu0_DTLB LOAD         ACCESS:  127571903 HIT:  126756167 MISS:     815736
cpu0_DTLB RFO          ACCESS:          0 HIT:          0 MISS:          0
cpu0_DTLB PREFETCH     ACCESS:          0 HIT:          0 MISS:          0
cpu0_DTLB WRITE        ACCESS:          0 HIT:          0 MISS:          0
cpu0_DTLB TRANSLATION  ACCESS:          0 HIT:          0 MISS:          0
cpu0_DTLB PREFETCH REQUESTED:          0 ISSUED:          0 USEFUL:          0 USELESS:          0
cpu0_DTLB AVERAGE MISS LATENCY: 16.39 cycles
cpu0_ITLB TOTAL        ACCESS:     216367 HIT:     216131 MISS:        236
cpu0_ITLB LOAD         ACCESS:     216367 HIT:     216131 MISS:        236
cpu0_ITLB RFO          ACCESS:          0 HIT:          0 MISS:          0
cpu0_ITLB PREFETCH     ACCESS:          0 HIT:          0 MISS:          0
cpu0_ITLB WRITE        ACCESS:          0 HIT:          0 MISS:          0
cpu0_ITLB TRANSLATION  ACCESS:          0 HIT:          0 MISS:          0
cpu0_ITLB PREFETCH REQUESTED:          0 ISSUED:          0 USEFUL:          0 USELESS:          0
cpu0_ITLB AVERAGE MISS LATENCY: 353 cycles
cpu0_L1D TOTAL        ACCESS:  193694779 HIT:  179723297 MISS:   13971482
cpu0_L1D LOAD         ACCESS:  158452550 HIT:  148690282 MISS:    9762268
cpu0_L1D RFO          ACCESS:          0 HIT:          0 MISS:          0
cpu0_L1D PREFETCH     ACCESS:          0 HIT:          0 MISS:          0
cpu0_L1D WRITE        ACCESS:   35194348 HIT:   31003454 MISS:    4190894
cpu0_L1D TRANSLATION  ACCESS:      47881 HIT:      29561 MISS:      18320
cpu0_L1D PREFETCH REQUESTED:          0 ISSUED:          0 USEFUL:          0 USELESS:          0
cpu0_L1D AVERAGE MISS LATENCY: 153.2 cycles
cpu0_L1I TOTAL        ACCESS:     223817 HIT:     221030 MISS:       2787
cpu0_L1I LOAD         ACCESS:     223817 HIT:     221030 MISS:       2787
cpu0_L1I RFO          ACCESS:          0 HIT:          0 MISS:          0
cpu0_L1I PREFETCH     ACCESS:          0 HIT:          0 MISS:          0
cpu0_L1I WRITE        ACCESS:          0 HIT:          0 MISS:          0
cpu0_L1I TRANSLATION  ACCESS:          0 HIT:          0 MISS:          0
cpu0_L1I PREFETCH REQUESTED:          0 ISSUED:          0 USEFUL:          0 USELESS:          0
cpu0_L1I AVERAGE MISS LATENCY: 423.2 cycles
cpu0_L2C TOTAL        ACCESS:    5428795 HIT:    2197596 MISS:    3231199
cpu0_L2C LOAD         ACCESS:    2431239 HIT:     126517 MISS:    2304722
cpu0_L2C RFO          ACCESS:     923192 HIT:        559 MISS:     922633
cpu0_L2C PREFETCH     ACCESS:          0 HIT:          0 MISS:          0
cpu0_L2C WRITE        ACCESS:    2056046 HIT:    2055673 MISS:        373
cpu0_L2C TRANSLATION  ACCESS:      18318 HIT:      14847 MISS:       3471
cpu0_L2C PREFETCH REQUESTED:          0 ISSUED:          0 USEFUL:          0 USELESS:          0
cpu0_L2C AVERAGE MISS LATENCY: 900.7 cycles
cpu0_STLB TOTAL        ACCESS:     564099 HIT:     516248 MISS:      47851
cpu0_STLB LOAD         ACCESS:     564099 HIT:     516248 MISS:      47851
cpu0_STLB RFO          ACCESS:          0 HIT:          0 MISS:          0
cpu0_STLB PREFETCH     ACCESS:          0 HIT:          0 MISS:          0
cpu0_STLB WRITE        ACCESS:          0 HIT:          0 MISS:          0
cpu0_STLB TRANSLATION  ACCESS:          0 HIT:          0 MISS:          0
cpu0_STLB PREFETCH REQUESTED:          0 ISSUED:          0 USEFUL:          0 USELESS:          0
cpu0_STLB AVERAGE MISS LATENCY: 291.2 cycles

DRAM Statistics

Channel 0 RQ ROW_BUFFER_HIT:     761583
  ROW_BUFFER_MISS:    1942166
 AVG DBUS CONGESTED CYCLE: 3.98
WQ ROW_BUFFER_HIT: Channel 0 
  ROW_BUFFER_MISS:     452591
  FULL:    1298329
