WARNING: physical memory size is smaller than virtual memory size.

*** ChampSim Multicore Out-of-Order Simulator ***
Warmup Instructions: 50000000
Simulation Instructions: 600000000
Number of CPUs: 1
Page size: 4096

Off-chip DRAM Size: 4 GiB Channels: 1 Width: 64-bit Data Race: 3200 MT/s
Heartbeat CPU 0 instructions: 10000003 cycles: 2881055 heartbeat IPC: 3.471 cumulative IPC: 3.471 (Simulation time: 00 hr 00 min 57 sec)
Heartbeat CPU 0 instructions: 20000003 cycles: 5381055 heartbeat IPC: 4 cumulative IPC: 3.717 (Simulation time: 00 hr 01 min 53 sec)
Heartbeat CPU 0 instructions: 30000003 cycles: 7881055 heartbeat IPC: 4 cumulative IPC: 3.807 (Simulation time: 00 hr 02 min 46 sec)
Heartbeat CPU 0 instructions: 40000003 cycles: 10381055 heartbeat IPC: 4 cumulative IPC: 3.853 (Simulation time: 00 hr 03 min 37 sec)
Heartbeat CPU 0 instructions: 50000003 cycles: 12881055 heartbeat IPC: 4 cumulative IPC: 3.882 (Simulation time: 00 hr 04 min 32 sec)
Warmup finished CPU 0 instructions: 50000003 cycles: 12881056 cumulative IPC: 3.882 (Simulation time: 00 hr 04 min 32 sec)
Warmup complete CPU 0 instructions: 50000003 cycles: 12881056 cumulative IPC: 3.882 (Simulation time: 00 hr 04 min 32 sec)
Heartbeat CPU 0 instructions: 60000000 cycles: 16546709 heartbeat IPC: 2.728 cumulative IPC: 2.728 (Simulation time: 00 hr 05 min 49 sec)
Heartbeat CPU 0 instructions: 70000000 cycles: 20212988 heartbeat IPC: 2.728 cumulative IPC: 2.728 (Simulation time: 00 hr 07 min 01 sec)
Heartbeat CPU 0 instructions: 80000000 cycles: 23811011 heartbeat IPC: 2.779 cumulative IPC: 2.745 (Simulation time: 00 hr 08 min 15 sec)
Heartbeat CPU 0 instructions: 90000003 cycles: 27432776 heartbeat IPC: 2.761 cumulative IPC: 2.749 (Simulation time: 00 hr 09 min 24 sec)
Heartbeat CPU 0 instructions: 100000002 cycles: 30646646 heartbeat IPC: 3.112 cumulative IPC: 2.814 (Simulation time: 00 hr 10 min 26 sec)
Heartbeat CPU 0 instructions: 110000000 cycles: 34866059 heartbeat IPC: 2.37 cumulative IPC: 2.729 (Simulation time: 00 hr 11 min 50 sec)
Heartbeat CPU 0 instructions: 120000000 cycles: 41338860 heartbeat IPC: 1.545 cumulative IPC: 2.46 (Simulation time: 00 hr 13 min 39 sec)
Heartbeat CPU 0 instructions: 130000003 cycles: 48369739 heartbeat IPC: 1.422 cumulative IPC: 2.254 (Simulation time: 00 hr 15 min 34 sec)
Heartbeat CPU 0 instructions: 140000001 cycles: 55325721 heartbeat IPC: 1.438 cumulative IPC: 2.12 (Simulation time: 00 hr 17 min 27 sec)
Heartbeat CPU 0 instructions: 150000001 cycles: 62365593 heartbeat IPC: 1.42 cumulative IPC: 2.021 (Simulation time: 00 hr 19 min 19 sec)
Heartbeat CPU 0 instructions: 160000004 cycles: 69402728 heartbeat IPC: 1.421 cumulative IPC: 1.946 (Simulation time: 00 hr 21 min 09 sec)
Heartbeat CPU 0 instructions: 170000000 cycles: 76312080 heartbeat IPC: 1.447 cumulative IPC: 1.892 (Simulation time: 00 hr 23 min 04 sec)
Heartbeat CPU 0 instructions: 180000003 cycles: 82675890 heartbeat IPC: 1.571 cumulative IPC: 1.863 (Simulation time: 00 hr 24 min 42 sec)
Heartbeat CPU 0 instructions: 190000001 cycles: 87559334 heartbeat IPC: 2.048 cumulative IPC: 1.875 (Simulation time: 00 hr 26 min 03 sec)
Heartbeat CPU 0 instructions: 200000003 cycles: 93438196 heartbeat IPC: 1.701 cumulative IPC: 1.862 (Simulation time: 00 hr 27 min 35 sec)
Heartbeat CPU 0 instructions: 210000001 cycles: 99334578 heartbeat IPC: 1.696 cumulative IPC: 1.851 (Simulation time: 00 hr 29 min 13 sec)
Heartbeat CPU 0 instructions: 220000004 cycles: 105164092 heartbeat IPC: 1.715 cumulative IPC: 1.842 (Simulation time: 00 hr 30 min 50 sec)
Heartbeat CPU 0 instructions: 230000002 cycles: 111046093 heartbeat IPC: 1.7 cumulative IPC: 1.834 (Simulation time: 00 hr 32 min 27 sec)
Heartbeat CPU 0 instructions: 240000002 cycles: 116853321 heartbeat IPC: 1.722 cumulative IPC: 1.827 (Simulation time: 00 hr 34 min 12 sec)
Heartbeat CPU 0 instructions: 250000000 cycles: 122639507 heartbeat IPC: 1.728 cumulative IPC: 1.822 (Simulation time: 00 hr 35 min 55 sec)
Heartbeat CPU 0 instructions: 260000001 cycles: 128424238 heartbeat IPC: 1.729 cumulative IPC: 1.818 (Simulation time: 00 hr 37 min 30 sec)
Heartbeat CPU 0 instructions: 270000002 cycles: 134215352 heartbeat IPC: 1.727 cumulative IPC: 1.813 (Simulation time: 00 hr 39 min 25 sec)
Heartbeat CPU 0 instructions: 280000003 cycles: 140073579 heartbeat IPC: 1.707 cumulative IPC: 1.808 (Simulation time: 00 hr 41 min 01 sec)
Heartbeat CPU 0 instructions: 290000002 cycles: 204462701 heartbeat IPC: 0.1553 cumulative IPC: 1.253 (Simulation time: 00 hr 51 min 43 sec)
Heartbeat CPU 0 instructions: 300000000 cycles: 206965414 heartbeat IPC: 3.996 cumulative IPC: 1.288 (Simulation time: 00 hr 53 min 27 sec)
Heartbeat CPU 0 instructions: 310000003 cycles: 209467788 heartbeat IPC: 3.996 cumulative IPC: 1.323 (Simulation time: 00 hr 55 min 12 sec)
Heartbeat CPU 0 instructions: 320000001 cycles: 211970841 heartbeat IPC: 3.995 cumulative IPC: 1.356 (Simulation time: 00 hr 56 min 47 sec)
Heartbeat CPU 0 instructions: 330000001 cycles: 214474144 heartbeat IPC: 3.995 cumulative IPC: 1.389 (Simulation time: 00 hr 57 min 44 sec)
Heartbeat CPU 0 instructions: 340000004 cycles: 216976531 heartbeat IPC: 3.996 cumulative IPC: 1.421 (Simulation time: 00 hr 58 min 40 sec)
Heartbeat CPU 0 instructions: 350000004 cycles: 219479777 heartbeat IPC: 3.995 cumulative IPC: 1.452 (Simulation time: 00 hr 59 min 36 sec)
Heartbeat CPU 0 instructions: 360000000 cycles: 221983014 heartbeat IPC: 3.995 cumulative IPC: 1.483 (Simulation time: 01 hr 00 min 31 sec)
Heartbeat CPU 0 instructions: 370000003 cycles: 224486654 heartbeat IPC: 3.994 cumulative IPC: 1.512 (Simulation time: 01 hr 01 min 43 sec)
Heartbeat CPU 0 instructions: 380000001 cycles: 226989334 heartbeat IPC: 3.996 cumulative IPC: 1.541 (Simulation time: 01 hr 03 min 18 sec)
Heartbeat CPU 0 instructions: 390000004 cycles: 229493376 heartbeat IPC: 3.994 cumulative IPC: 1.57 (Simulation time: 01 hr 04 min 50 sec)
Heartbeat CPU 0 instructions: 400000000 cycles: 231995817 heartbeat IPC: 3.996 cumulative IPC: 1.597 (Simulation time: 01 hr 06 min 22 sec)
Heartbeat CPU 0 instructions: 410000002 cycles: 234499597 heartbeat IPC: 3.994 cumulative IPC: 1.624 (Simulation time: 01 hr 08 min 00 sec)
Heartbeat CPU 0 instructions: 420000002 cycles: 237007257 heartbeat IPC: 3.988 cumulative IPC: 1.651 (Simulation time: 01 hr 09 min 41 sec)
Heartbeat CPU 0 instructions: 430000003 cycles: 239512721 heartbeat IPC: 3.991 cumulative IPC: 1.677 (Simulation time: 01 hr 11 min 23 sec)
Heartbeat CPU 0 instructions: 440000003 cycles: 242015383 heartbeat IPC: 3.996 cumulative IPC: 1.702 (Simulation time: 01 hr 13 min 18 sec)
Heartbeat CPU 0 instructions: 450000004 cycles: 244517869 heartbeat IPC: 3.996 cumulative IPC: 1.727 (Simulation time: 01 hr 14 min 41 sec)
Heartbeat CPU 0 instructions: 460000001 cycles: 247020205 heartbeat IPC: 3.996 cumulative IPC: 1.751 (Simulation time: 01 hr 15 min 40 sec)
Heartbeat CPU 0 instructions: 470000003 cycles: 249522593 heartbeat IPC: 3.996 cumulative IPC: 1.775 (Simulation time: 01 hr 16 min 38 sec)
Heartbeat CPU 0 instructions: 480000000 cycles: 252025285 heartbeat IPC: 3.996 cumulative IPC: 1.798 (Simulation time: 01 hr 17 min 34 sec)
Heartbeat CPU 0 instructions: 490000002 cycles: 254528476 heartbeat IPC: 3.995 cumulative IPC: 1.821 (Simulation time: 01 hr 18 min 33 sec)
Heartbeat CPU 0 instructions: 500000003 cycles: 257031556 heartbeat IPC: 3.995 cumulative IPC: 1.843 (Simulation time: 01 hr 19 min 31 sec)
Heartbeat CPU 0 instructions: 510000001 cycles: 264108027 heartbeat IPC: 1.413 cumulative IPC: 1.831 (Simulation time: 01 hr 21 min 19 sec)
Heartbeat CPU 0 instructions: 520000004 cycles: 373110333 heartbeat IPC: 0.09174 cumulative IPC: 1.305 (Simulation time: 01 hr 41 min 01 sec)
Heartbeat CPU 0 instructions: 530000001 cycles: 457973436 heartbeat IPC: 0.1178 cumulative IPC: 1.078 (Simulation time: 01 hr 56 min 10 sec)
Heartbeat CPU 0 instructions: 540000002 cycles: 485512275 heartbeat IPC: 0.3631 cumulative IPC: 1.037 (Simulation time: 02 hr 01 min 27 sec)
Heartbeat CPU 0 instructions: 550000004 cycles: 511640727 heartbeat IPC: 0.3827 cumulative IPC: 1.002 (Simulation time: 02 hr 06 min 26 sec)
Heartbeat CPU 0 instructions: 560000004 cycles: 538888063 heartbeat IPC: 0.367 cumulative IPC: 0.9696 (Simulation time: 02 hr 11 min 47 sec)
Heartbeat CPU 0 instructions: 570000002 cycles: 566326743 heartbeat IPC: 0.3644 cumulative IPC: 0.9396 (Simulation time: 02 hr 17 min 19 sec)
Heartbeat CPU 0 instructions: 580000000 cycles: 592874846 heartbeat IPC: 0.3767 cumulative IPC: 0.9138 (Simulation time: 02 hr 22 min 46 sec)
Heartbeat CPU 0 instructions: 590000003 cycles: 619575540 heartbeat IPC: 0.3745 cumulative IPC: 0.8901 (Simulation time: 02 hr 29 min 30 sec)
*** Reached end of trace: (0, "traces/sp.A.champsimtrace")
Heartbeat CPU 0 instructions: 600000001 cycles: 644583550 heartbeat IPC: 0.3999 cumulative IPC: 0.8707 (Simulation time: 02 hr 35 min 37 sec)
Heartbeat CPU 0 instructions: 610000004 cycles: 676034834 heartbeat IPC: 0.318 cumulative IPC: 0.8444 (Simulation time: 02 hr 40 min 23 sec)
Heartbeat CPU 0 instructions: 620000004 cycles: 679658877 heartbeat IPC: 2.759 cumulative IPC: 0.8549 (Simulation time: 02 hr 41 min 39 sec)
Heartbeat CPU 0 instructions: 630000001 cycles: 683300023 heartbeat IPC: 2.746 cumulative IPC: 0.8651 (Simulation time: 02 hr 42 min 55 sec)
Heartbeat CPU 0 instructions: 640000000 cycles: 686928830 heartbeat IPC: 2.756 cumulative IPC: 0.8753 (Simulation time: 02 hr 44 min 12 sec)
Heartbeat CPU 0 instructions: 650000004 cycles: 690547802 heartbeat IPC: 2.763 cumulative IPC: 0.8854 (Simulation time: 02 hr 45 min 24 sec)
Simulation finished CPU 0 instructions: 600000001 cycles: 677666747 cumulative IPC: 0.8854 (Simulation time: 02 hr 45 min 24 sec)
Simulation complete CPU 0 instructions: 600000001 cycles: 677666747 cumulative IPC: 0.8854 (Simulation time: 02 hr 45 min 24 sec)

ChampSim completed all CPUs

=== Simulation ===
CPU 0 runs traces/sp.A.champsimtrace
Region of Interest Statistics

CPU 0 cumulative IPC: 0.8854 instructions: 600000001 cycles: 677666747
CPU 0 Branch Prediction Accuracy: 98.84% MPKI: 0.2405 Average ROB Occupancy at Mispredict: 219.6
Branch type MPKI
BRANCH_DIRECT_JUMP: 5e-06
BRANCH_INDIRECT: 8.67e-05
BRANCH_CONDITIONAL: 0.24
BRANCH_DIRECT_CALL: 2e-05
BRANCH_INDIRECT_CALL: 3.83e-05
BRANCH_RETURN: 3.5e-05

LLC TOTAL        ACCESS:    8152050 HIT:    4032210 MISS:    4119840
LLC LOAD         ACCESS:    2308145 HIT:    1445648 MISS:     862497
LLC RFO          ACCESS:     922644 HIT:       4883 MISS:     917761
LLC PREFETCH     ACCESS:    2871735 HIT:    1536649 MISS:    1335086
LLC WRITE        ACCESS:    2046068 HIT:    1044667 MISS:    1001401
LLC TRANSLATION  ACCESS:       3458 HIT:        363 MISS:       3095
LLC PREFETCH REQUESTED:    2871735 ISSUED:    2871735 USEFUL:    1056570 USELESS:      20881
LLC AVERAGE MISS LATENCY: 1117 cycles
cpu0_DTLB TOTAL        ACCESS:  125506072 HIT:  124653219 MISS:     852853
cpu0_DTLB LOAD         ACCESS:  125506072 HIT:  124653219 MISS:     852853
cpu0_DTLB RFO          ACCESS:          0 HIT:          0 MISS:          0
cpu0_DTLB PREFETCH     ACCESS:          0 HIT:          0 MISS:          0
cpu0_DTLB WRITE        ACCESS:          0 HIT:          0 MISS:          0
cpu0_DTLB TRANSLATION  ACCESS:          0 HIT:          0 MISS:          0
cpu0_DTLB PREFETCH REQUESTED:          0 ISSUED:          0 USEFUL:          0 USELESS:          0
cpu0_DTLB AVERAGE MISS LATENCY: 19.45 cycles
cpu0_ITLB TOTAL        ACCESS:     221081 HIT:     220829 MISS:        252
cpu0_ITLB LOAD         ACCESS:     221081 HIT:     220829 MISS:        252
cpu0_ITLB RFO          ACCESS:          0 HIT:          0 MISS:          0
cpu0_ITLB PREFETCH     ACCESS:          0 HIT:          0 MISS:          0
cpu0_ITLB WRITE        ACCESS:          0 HIT:          0 MISS:          0
cpu0_ITLB TRANSLATION  ACCESS:          0 HIT:          0 MISS:          0
cpu0_ITLB PREFETCH REQUESTED:          0 ISSUED:          0 USEFUL:          0 USELESS:          0
cpu0_ITLB AVERAGE MISS LATENCY: 269.9 cycles
cpu0_L1D TOTAL        ACCESS:  191551075 HIT:  178276138 MISS:   13274937
cpu0_L1D LOAD         ACCESS:  156309048 HIT:  147498472 MISS:    8810576
cpu0_L1D RFO          ACCESS:          0 HIT:          0 MISS:          0
cpu0_L1D PREFETCH     ACCESS:          0 HIT:          0 MISS:          0
cpu0_L1D WRITE        ACCESS:   35194152 HIT:   30748060 MISS:    4446092
cpu0_L1D TRANSLATION  ACCESS:      47875 HIT:      29606 MISS:      18269
cpu0_L1D PREFETCH REQUESTED:          0 ISSUED:          0 USEFUL:          0 USELESS:          0
cpu0_L1D AVERAGE MISS LATENCY: 165.5 cycles
cpu0_L1I TOTAL        ACCESS:     228963 HIT:     226210 MISS:       2753
cpu0_L1I LOAD         ACCESS:     228963 HIT:     226210 MISS:       2753
cpu0_L1I RFO          ACCESS:          0 HIT:          0 MISS:          0
cpu0_L1I PREFETCH     ACCESS:          0 HIT:          0 MISS:          0
cpu0_L1I WRITE        ACCESS:          0 HIT:          0 MISS:          0
cpu0_L1I TRANSLATION  ACCESS:          0 HIT:          0 MISS:          0
cpu0_L1I PREFETCH REQUESTED:          0 ISSUED:          0 USEFUL:          0 USELESS:          0
cpu0_L1I AVERAGE MISS LATENCY: 573.9 cycles
cpu0_L2C TOTAL        ACCESS:    5425604 HIT:    2190972 MISS:    3234632
cpu0_L2C LOAD         ACCESS:    2427550 HIT:     119404 MISS:    2308146
cpu0_L2C RFO          ACCESS:     923633 HIT:        989 MISS:     922644
cpu0_L2C PREFETCH     ACCESS:          0 HIT:          0 MISS:          0
cpu0_L2C WRITE        ACCESS:    2056156 HIT:    2055772 MISS:        384
cpu0_L2C TRANSLATION  ACCESS:      18265 HIT:      14807 MISS:       3458
cpu0_L2C PREFETCH REQUESTED:          0 ISSUED:          0 USEFUL:          0 USELESS:          0
cpu0_L2C AVERAGE MISS LATENCY: 873.7 cycles
cpu0_STLB TOTAL        ACCESS:     590108 HIT:     542255 MISS:      47853
cpu0_STLB LOAD         ACCESS:     590108 HIT:     542255 MISS:      47853
cpu0_STLB RFO          ACCESS:          0 HIT:          0 MISS:          0
cpu0_STLB PREFETCH     ACCESS:          0 HIT:          0 MISS:          0
cpu0_STLB WRITE        ACCESS:          0 HIT:          0 MISS:          0
cpu0_STLB TRANSLATION  ACCESS:          0 HIT:          0 MISS:          0
cpu0_STLB PREFETCH REQUESTED:          0 ISSUED:          0 USEFUL:          0 USELESS:          0
cpu0_STLB AVERAGE MISS LATENCY: 362.7 cycles

DRAM Statistics

Channel 0 RQ ROW_BUFFER_HIT:     938288
  ROW_BUFFER_MISS:    1865494
 AVG DBUS CONGESTED CYCLE: 3.965
WQ ROW_BUFFER_HIT: Channel 0 
  ROW_BUFFER_MISS:     388767
  FULL:    1396792
