WARNING: physical memory size is smaller than virtual memory size.

*** ChampSim Multicore Out-of-Order Simulator ***
Warmup Instructions: 50000000
Simulation Instructions: 600000000
Number of CPUs: 1
Page size: 4096

CPU 0 Tage branch predictor
Off-chip DRAM Size: 4 GiB Channels: 1 Width: 64-bit Data Race: 3200 MT/s
Heartbeat CPU 0 instructions: 10000003 cycles: 2881057 heartbeat IPC: 3.471 cumulative IPC: 3.471 (Simulation time: 00 hr 00 min 42 sec)
Heartbeat CPU 0 instructions: 20000003 cycles: 5381057 heartbeat IPC: 4 cumulative IPC: 3.717 (Simulation time: 00 hr 01 min 22 sec)
Heartbeat CPU 0 instructions: 30000003 cycles: 7881057 heartbeat IPC: 4 cumulative IPC: 3.807 (Simulation time: 00 hr 02 min 01 sec)
Heartbeat CPU 0 instructions: 40000003 cycles: 10381057 heartbeat IPC: 4 cumulative IPC: 3.853 (Simulation time: 00 hr 02 min 41 sec)
Heartbeat CPU 0 instructions: 50000003 cycles: 12881057 heartbeat IPC: 4 cumulative IPC: 3.882 (Simulation time: 00 hr 03 min 22 sec)
Warmup finished CPU 0 instructions: 50000003 cycles: 12881058 cumulative IPC: 3.882 (Simulation time: 00 hr 03 min 22 sec)
Warmup complete CPU 0 instructions: 50000003 cycles: 12881058 cumulative IPC: 3.882 (Simulation time: 00 hr 03 min 22 sec)
Heartbeat CPU 0 instructions: 60000000 cycles: 16248268 heartbeat IPC: 2.97 cumulative IPC: 2.97 (Simulation time: 00 hr 04 min 15 sec)
Heartbeat CPU 0 instructions: 70000004 cycles: 19658607 heartbeat IPC: 2.932 cumulative IPC: 2.951 (Simulation time: 00 hr 05 min 08 sec)
Heartbeat CPU 0 instructions: 80000000 cycles: 23066578 heartbeat IPC: 2.934 cumulative IPC: 2.945 (Simulation time: 00 hr 06 min 01 sec)
Heartbeat CPU 0 instructions: 90000003 cycles: 26450125 heartbeat IPC: 2.955 cumulative IPC: 2.948 (Simulation time: 00 hr 06 min 54 sec)
Heartbeat CPU 0 instructions: 100000000 cycles: 29936573 heartbeat IPC: 2.868 cumulative IPC: 2.932 (Simulation time: 00 hr 07 min 48 sec)
Heartbeat CPU 0 instructions: 110000001 cycles: 33050879 heartbeat IPC: 3.211 cumulative IPC: 2.975 (Simulation time: 00 hr 08 min 37 sec)
Heartbeat CPU 0 instructions: 120000001 cycles: 36183857 heartbeat IPC: 3.192 cumulative IPC: 3.004 (Simulation time: 00 hr 09 min 27 sec)
Heartbeat CPU 0 instructions: 130000002 cycles: 39915732 heartbeat IPC: 2.68 cumulative IPC: 2.959 (Simulation time: 00 hr 10 min 24 sec)
Heartbeat CPU 0 instructions: 140000004 cycles: 44849640 heartbeat IPC: 2.027 cumulative IPC: 2.815 (Simulation time: 00 hr 11 min 29 sec)
Heartbeat CPU 0 instructions: 150000000 cycles: 50868754 heartbeat IPC: 1.661 cumulative IPC: 2.632 (Simulation time: 00 hr 12 min 44 sec)
Heartbeat CPU 0 instructions: 160000001 cycles: 57662263 heartbeat IPC: 1.472 cumulative IPC: 2.456 (Simulation time: 00 hr 14 min 06 sec)
Heartbeat CPU 0 instructions: 170000001 cycles: 64549931 heartbeat IPC: 1.452 cumulative IPC: 2.322 (Simulation time: 00 hr 15 min 29 sec)
Heartbeat CPU 0 instructions: 180000002 cycles: 71589916 heartbeat IPC: 1.42 cumulative IPC: 2.214 (Simulation time: 00 hr 16 min 56 sec)
Heartbeat CPU 0 instructions: 190000002 cycles: 78131905 heartbeat IPC: 1.529 cumulative IPC: 2.146 (Simulation time: 00 hr 18 min 16 sec)
Heartbeat CPU 0 instructions: 200000000 cycles: 83027505 heartbeat IPC: 2.043 cumulative IPC: 2.138 (Simulation time: 00 hr 19 min 22 sec)
Heartbeat CPU 0 instructions: 210000001 cycles: 87886107 heartbeat IPC: 2.058 cumulative IPC: 2.133 (Simulation time: 00 hr 20 min 27 sec)
Heartbeat CPU 0 instructions: 220000001 cycles: 92778520 heartbeat IPC: 2.044 cumulative IPC: 2.128 (Simulation time: 00 hr 21 min 33 sec)
Heartbeat CPU 0 instructions: 230000004 cycles: 97644478 heartbeat IPC: 2.055 cumulative IPC: 2.124 (Simulation time: 00 hr 22 min 40 sec)
Heartbeat CPU 0 instructions: 240000003 cycles: 102543359 heartbeat IPC: 2.041 cumulative IPC: 2.119 (Simulation time: 00 hr 23 min 47 sec)
Heartbeat CPU 0 instructions: 250000003 cycles: 107489812 heartbeat IPC: 2.022 cumulative IPC: 2.114 (Simulation time: 00 hr 24 min 54 sec)
Heartbeat CPU 0 instructions: 260000002 cycles: 112372436 heartbeat IPC: 2.048 cumulative IPC: 2.111 (Simulation time: 00 hr 26 min 01 sec)
Heartbeat CPU 0 instructions: 270000002 cycles: 117279943 heartbeat IPC: 2.038 cumulative IPC: 2.107 (Simulation time: 00 hr 27 min 10 sec)
Heartbeat CPU 0 instructions: 280000000 cycles: 122165007 heartbeat IPC: 2.047 cumulative IPC: 2.105 (Simulation time: 00 hr 28 min 17 sec)
Heartbeat CPU 0 instructions: 290000001 cycles: 171519420 heartbeat IPC: 0.2026 cumulative IPC: 1.513 (Simulation time: 00 hr 34 min 16 sec)
Heartbeat CPU 0 instructions: 300000002 cycles: 174019546 heartbeat IPC: 4 cumulative IPC: 1.551 (Simulation time: 00 hr 35 min 00 sec)
Heartbeat CPU 0 instructions: 310000001 cycles: 176520728 heartbeat IPC: 3.998 cumulative IPC: 1.589 (Simulation time: 00 hr 35 min 45 sec)
Heartbeat CPU 0 instructions: 320000001 cycles: 179022516 heartbeat IPC: 3.997 cumulative IPC: 1.625 (Simulation time: 00 hr 36 min 30 sec)
Heartbeat CPU 0 instructions: 330000003 cycles: 181522608 heartbeat IPC: 4 cumulative IPC: 1.66 (Simulation time: 00 hr 37 min 15 sec)
Heartbeat CPU 0 instructions: 340000000 cycles: 184023485 heartbeat IPC: 3.999 cumulative IPC: 1.694 (Simulation time: 00 hr 38 min 00 sec)
Heartbeat CPU 0 instructions: 350000004 cycles: 186524884 heartbeat IPC: 3.998 cumulative IPC: 1.728 (Simulation time: 00 hr 38 min 45 sec)
Heartbeat CPU 0 instructions: 360000004 cycles: 189026221 heartbeat IPC: 3.998 cumulative IPC: 1.76 (Simulation time: 00 hr 39 min 32 sec)
Heartbeat CPU 0 instructions: 370000000 cycles: 191527991 heartbeat IPC: 3.997 cumulative IPC: 1.791 (Simulation time: 00 hr 40 min 18 sec)
Heartbeat CPU 0 instructions: 380000004 cycles: 194029244 heartbeat IPC: 3.998 cumulative IPC: 1.822 (Simulation time: 00 hr 41 min 03 sec)
Heartbeat CPU 0 instructions: 390000001 cycles: 196529801 heartbeat IPC: 3.999 cumulative IPC: 1.851 (Simulation time: 00 hr 41 min 48 sec)
Heartbeat CPU 0 instructions: 400000003 cycles: 199029981 heartbeat IPC: 4 cumulative IPC: 1.88 (Simulation time: 00 hr 42 min 33 sec)
Heartbeat CPU 0 instructions: 410000003 cycles: 201530230 heartbeat IPC: 4 cumulative IPC: 1.908 (Simulation time: 00 hr 43 min 19 sec)
Heartbeat CPU 0 instructions: 420000002 cycles: 204030583 heartbeat IPC: 3.999 cumulative IPC: 1.936 (Simulation time: 00 hr 44 min 08 sec)
Heartbeat CPU 0 instructions: 430000000 cycles: 206531404 heartbeat IPC: 3.999 cumulative IPC: 1.962 (Simulation time: 00 hr 44 min 53 sec)
Heartbeat CPU 0 instructions: 440000001 cycles: 209031747 heartbeat IPC: 3.999 cumulative IPC: 1.988 (Simulation time: 00 hr 45 min 38 sec)
Heartbeat CPU 0 instructions: 450000000 cycles: 211532336 heartbeat IPC: 3.999 cumulative IPC: 2.014 (Simulation time: 00 hr 46 min 24 sec)
Heartbeat CPU 0 instructions: 460000003 cycles: 214032468 heartbeat IPC: 4 cumulative IPC: 2.038 (Simulation time: 00 hr 47 min 09 sec)
Heartbeat CPU 0 instructions: 470000001 cycles: 216534710 heartbeat IPC: 3.996 cumulative IPC: 2.062 (Simulation time: 00 hr 47 min 55 sec)
Heartbeat CPU 0 instructions: 480000003 cycles: 219035129 heartbeat IPC: 3.999 cumulative IPC: 2.086 (Simulation time: 00 hr 48 min 41 sec)
Heartbeat CPU 0 instructions: 490000003 cycles: 221535338 heartbeat IPC: 4 cumulative IPC: 2.109 (Simulation time: 00 hr 49 min 26 sec)
Heartbeat CPU 0 instructions: 500000002 cycles: 224035737 heartbeat IPC: 3.999 cumulative IPC: 2.131 (Simulation time: 00 hr 50 min 10 sec)
Heartbeat CPU 0 instructions: 510000003 cycles: 232059806 heartbeat IPC: 1.246 cumulative IPC: 2.099 (Simulation time: 00 hr 51 min 37 sec)
Heartbeat CPU 0 instructions: 520000001 cycles: 331437131 heartbeat IPC: 0.1006 cumulative IPC: 1.475 (Simulation time: 01 hr 05 min 17 sec)
Heartbeat CPU 0 instructions: 530000000 cycles: 409669107 heartbeat IPC: 0.1278 cumulative IPC: 1.21 (Simulation time: 01 hr 15 min 53 sec)
Heartbeat CPU 0 instructions: 540000000 cycles: 443125999 heartbeat IPC: 0.2989 cumulative IPC: 1.139 (Simulation time: 01 hr 20 min 49 sec)
Heartbeat CPU 0 instructions: 550000002 cycles: 476169569 heartbeat IPC: 0.3026 cumulative IPC: 1.079 (Simulation time: 01 hr 25 min 42 sec)
Heartbeat CPU 0 instructions: 560000002 cycles: 509114673 heartbeat IPC: 0.3035 cumulative IPC: 1.028 (Simulation time: 01 hr 30 min 34 sec)
Heartbeat CPU 0 instructions: 570000002 cycles: 541380980 heartbeat IPC: 0.3099 cumulative IPC: 0.9839 (Simulation time: 01 hr 35 min 21 sec)
Heartbeat CPU 0 instructions: 580000000 cycles: 572443011 heartbeat IPC: 0.3219 cumulative IPC: 0.9472 (Simulation time: 01 hr 39 min 58 sec)
Heartbeat CPU 0 instructions: 590000004 cycles: 603987722 heartbeat IPC: 0.317 cumulative IPC: 0.9135 (Simulation time: 01 hr 44 min 41 sec)
*** Reached end of trace: (0, "traces/sp.A.champsimtrace")
Heartbeat CPU 0 instructions: 600000002 cycles: 635118018 heartbeat IPC: 0.3212 cumulative IPC: 0.8839 (Simulation time: 01 hr 49 min 22 sec)
Heartbeat CPU 0 instructions: 610000000 cycles: 656773881 heartbeat IPC: 0.4618 cumulative IPC: 0.8697 (Simulation time: 01 hr 52 min 00 sec)
Heartbeat CPU 0 instructions: 620000004 cycles: 659469317 heartbeat IPC: 3.71 cumulative IPC: 0.8816 (Simulation time: 01 hr 52 min 49 sec)
Heartbeat CPU 0 instructions: 630000003 cycles: 662167660 heartbeat IPC: 3.706 cumulative IPC: 0.8933 (Simulation time: 01 hr 53 min 38 sec)
Heartbeat CPU 0 instructions: 640000003 cycles: 665132461 heartbeat IPC: 3.373 cumulative IPC: 0.9046 (Simulation time: 01 hr 54 min 27 sec)
Heartbeat CPU 0 instructions: 650000000 cycles: 668355400 heartbeat IPC: 3.103 cumulative IPC: 0.9154 (Simulation time: 01 hr 55 min 18 sec)
Simulation finished CPU 0 instructions: 600000002 cycles: 655474344 cumulative IPC: 0.9154 (Simulation time: 01 hr 55 min 18 sec)
Simulation complete CPU 0 instructions: 600000002 cycles: 655474344 cumulative IPC: 0.9154 (Simulation time: 01 hr 55 min 18 sec)

ChampSim completed all CPUs

=== Simulation ===
CPU 0 runs traces/sp.A.champsimtrace
Region of Interest Statistics

CPU 0 cumulative IPC: 0.9154 instructions: 600000002 cycles: 655474344
CPU 0 Branch Prediction Accuracy: 99.98% MPKI: 0.003913 Average ROB Occupancy at Mispredict: 106.7
Branch type MPKI
BRANCH_DIRECT_JUMP: 5e-06
BRANCH_INDIRECT: 7.5e-05
BRANCH_CONDITIONAL: 0.00374
BRANCH_DIRECT_CALL: 2e-05
BRANCH_INDIRECT_CALL: 3.17e-05
BRANCH_RETURN: 3.67e-05

LLC TOTAL        ACCESS:    8173405 HIT:    3767587 MISS:    4405818
LLC LOAD         ACCESS:    2303675 HIT:    1388609 MISS:     915066
LLC RFO          ACCESS:     922634 HIT:      61137 MISS:     861497
LLC PREFETCH     ACCESS:    2898645 HIT:    1564317 MISS:    1334328
LLC WRITE        ACCESS:    2044976 HIT:     753214 MISS:    1291762
LLC TRANSLATION  ACCESS:       3475 HIT:        310 MISS:       3165
LLC PREFETCH REQUESTED:    2898645 ISSUED:    2898645 USEFUL:    1042740 USELESS:      61300
LLC AVERAGE MISS LATENCY: 980.5 cycles
cpu0_DTLB TOTAL        ACCESS:  127402236 HIT:  126419548 MISS:     982688
cpu0_DTLB LOAD         ACCESS:  127402236 HIT:  126419548 MISS:     982688
cpu0_DTLB RFO          ACCESS:          0 HIT:          0 MISS:          0
cpu0_DTLB PREFETCH     ACCESS:          0 HIT:          0 MISS:          0
cpu0_DTLB WRITE        ACCESS:          0 HIT:          0 MISS:          0
cpu0_DTLB TRANSLATION  ACCESS:          0 HIT:          0 MISS:          0
cpu0_DTLB PREFETCH REQUESTED:          0 ISSUED:          0 USEFUL:          0 USELESS:          0
cpu0_DTLB AVERAGE MISS LATENCY: 17.77 cycles
cpu0_ITLB TOTAL        ACCESS:     242027 HIT:     241779 MISS:        248
cpu0_ITLB LOAD         ACCESS:     242027 HIT:     241779 MISS:        248
cpu0_ITLB RFO          ACCESS:          0 HIT:          0 MISS:          0
cpu0_ITLB PREFETCH     ACCESS:          0 HIT:          0 MISS:          0
cpu0_ITLB WRITE        ACCESS:          0 HIT:          0 MISS:          0
cpu0_ITLB TRANSLATION  ACCESS:          0 HIT:          0 MISS:          0
cpu0_ITLB PREFETCH REQUESTED:          0 ISSUED:          0 USEFUL:          0 USELESS:          0
cpu0_ITLB AVERAGE MISS LATENCY: 326.4 cycles
cpu0_L1D TOTAL        ACCESS:  194065775 HIT:  180722599 MISS:   13343176
cpu0_L1D LOAD         ACCESS:  158823713 HIT:  149939209 MISS:    8884504
cpu0_L1D RFO          ACCESS:          0 HIT:          0 MISS:          0
cpu0_L1D PREFETCH     ACCESS:          0 HIT:          0 MISS:          0
cpu0_L1D WRITE        ACCESS:   35194184 HIT:   30753790 MISS:    4440394
cpu0_L1D TRANSLATION  ACCESS:      47878 HIT:      29600 MISS:      18278
cpu0_L1D PREFETCH REQUESTED:          0 ISSUED:          0 USEFUL:          0 USELESS:          0
cpu0_L1D AVERAGE MISS LATENCY: 149.2 cycles
cpu0_L1I TOTAL        ACCESS:     252224 HIT:     249192 MISS:       3032
cpu0_L1I LOAD         ACCESS:     252224 HIT:     249192 MISS:       3032
cpu0_L1I RFO          ACCESS:          0 HIT:          0 MISS:          0
cpu0_L1I PREFETCH     ACCESS:          0 HIT:          0 MISS:          0
cpu0_L1I WRITE        ACCESS:          0 HIT:          0 MISS:          0
cpu0_L1I TRANSLATION  ACCESS:          0 HIT:          0 MISS:          0
cpu0_L1I PREFETCH REQUESTED:          0 ISSUED:          0 USEFUL:          0 USELESS:          0
cpu0_L1I AVERAGE MISS LATENCY: 565.4 cycles
cpu0_L2C TOTAL        ACCESS:    5424882 HIT:    2194720 MISS:    3230162
cpu0_L2C LOAD         ACCESS:    2426613 HIT:     122930 MISS:    2303683
cpu0_L2C RFO          ACCESS:     923515 HIT:        881 MISS:     922634
cpu0_L2C PREFETCH     ACCESS:          0 HIT:          0 MISS:          0
cpu0_L2C WRITE        ACCESS:    2056479 HIT:    2056109 MISS:        370
cpu0_L2C TRANSLATION  ACCESS:      18275 HIT:      14800 MISS:       3475
cpu0_L2C PREFETCH REQUESTED:          0 ISSUED:          0 USEFUL:          0 USELESS:          0
cpu0_L2C AVERAGE MISS LATENCY: 816.1 cycles
cpu0_STLB TOTAL        ACCESS:     735417 HIT:     687570 MISS:      47847
cpu0_STLB LOAD         ACCESS:     735417 HIT:     687570 MISS:      47847
cpu0_STLB RFO          ACCESS:          0 HIT:          0 MISS:          0
cpu0_STLB PREFETCH     ACCESS:          0 HIT:          0 MISS:          0
cpu0_STLB WRITE        ACCESS:          0 HIT:          0 MISS:          0
cpu0_STLB TRANSLATION  ACCESS:          0 HIT:          0 MISS:          0
cpu0_STLB PREFETCH REQUESTED:          0 ISSUED:          0 USEFUL:          0 USELESS:          0
cpu0_STLB AVERAGE MISS LATENCY: 356.5 cycles

DRAM Statistics

Channel 0 RQ ROW_BUFFER_HIT:     915609
  ROW_BUFFER_MISS:    1836350
 AVG DBUS CONGESTED CYCLE: 3.958
WQ ROW_BUFFER_HIT: Channel 0 
  ROW_BUFFER_MISS:     640226
  FULL:    1097991
