WARNING: physical memory size is smaller than virtual memory size.

*** ChampSim Multicore Out-of-Order Simulator ***
Warmup Instructions: 50000000
Simulation Instructions: 600000000
Number of CPUs: 1
Page size: 4096

Off-chip DRAM Size: 4 GiB Channels: 1 Width: 64-bit Data Race: 3200 MT/s
Heartbeat CPU 0 instructions: 10000001 cycles: 2881055 heartbeat IPC: 3.471 cumulative IPC: 3.471 (Simulation time: 00 hr 00 min 36 sec)
Heartbeat CPU 0 instructions: 20000001 cycles: 5381055 heartbeat IPC: 4 cumulative IPC: 3.717 (Simulation time: 00 hr 01 min 10 sec)
Heartbeat CPU 0 instructions: 30000001 cycles: 7881055 heartbeat IPC: 4 cumulative IPC: 3.807 (Simulation time: 00 hr 01 min 44 sec)
Heartbeat CPU 0 instructions: 40000001 cycles: 10381055 heartbeat IPC: 4 cumulative IPC: 3.853 (Simulation time: 00 hr 02 min 18 sec)
Heartbeat CPU 0 instructions: 50000001 cycles: 12881055 heartbeat IPC: 4 cumulative IPC: 3.882 (Simulation time: 00 hr 02 min 53 sec)
Warmup finished CPU 0 instructions: 50000001 cycles: 12881056 cumulative IPC: 3.882 (Simulation time: 00 hr 02 min 53 sec)
Warmup complete CPU 0 instructions: 50000001 cycles: 12881056 cumulative IPC: 3.882 (Simulation time: 00 hr 02 min 53 sec)
Heartbeat CPU 0 instructions: 60000000 cycles: 17441130 heartbeat IPC: 2.193 cumulative IPC: 2.193 (Simulation time: 00 hr 03 min 52 sec)
Heartbeat CPU 0 instructions: 70000000 cycles: 21987418 heartbeat IPC: 2.2 cumulative IPC: 2.196 (Simulation time: 00 hr 04 min 50 sec)
Heartbeat CPU 0 instructions: 80000001 cycles: 26537281 heartbeat IPC: 2.198 cumulative IPC: 2.197 (Simulation time: 00 hr 05 min 48 sec)
Heartbeat CPU 0 instructions: 90000003 cycles: 31042510 heartbeat IPC: 2.22 cumulative IPC: 2.202 (Simulation time: 00 hr 06 min 46 sec)
Heartbeat CPU 0 instructions: 100000000 cycles: 35091887 heartbeat IPC: 2.47 cumulative IPC: 2.251 (Simulation time: 00 hr 07 min 39 sec)
Heartbeat CPU 0 instructions: 110000001 cycles: 38543582 heartbeat IPC: 2.897 cumulative IPC: 2.338 (Simulation time: 00 hr 08 min 27 sec)
Heartbeat CPU 0 instructions: 120000001 cycles: 42133524 heartbeat IPC: 2.786 cumulative IPC: 2.393 (Simulation time: 00 hr 09 min 15 sec)
Heartbeat CPU 0 instructions: 130000000 cycles: 45511938 heartbeat IPC: 2.96 cumulative IPC: 2.452 (Simulation time: 00 hr 10 min 01 sec)
Heartbeat CPU 0 instructions: 140000004 cycles: 49025194 heartbeat IPC: 2.846 cumulative IPC: 2.49 (Simulation time: 00 hr 10 min 48 sec)
Heartbeat CPU 0 instructions: 150000000 cycles: 52516308 heartbeat IPC: 2.864 cumulative IPC: 2.523 (Simulation time: 00 hr 11 min 35 sec)
Heartbeat CPU 0 instructions: 160000000 cycles: 56013535 heartbeat IPC: 2.859 cumulative IPC: 2.55 (Simulation time: 00 hr 12 min 22 sec)
Heartbeat CPU 0 instructions: 170000000 cycles: 59388672 heartbeat IPC: 2.963 cumulative IPC: 2.58 (Simulation time: 00 hr 13 min 09 sec)
Heartbeat CPU 0 instructions: 180000002 cycles: 62841374 heartbeat IPC: 2.896 cumulative IPC: 2.602 (Simulation time: 00 hr 13 min 57 sec)
Heartbeat CPU 0 instructions: 190000002 cycles: 66087605 heartbeat IPC: 3.08 cumulative IPC: 2.631 (Simulation time: 00 hr 14 min 46 sec)
Heartbeat CPU 0 instructions: 200000000 cycles: 68911389 heartbeat IPC: 3.541 cumulative IPC: 2.677 (Simulation time: 00 hr 15 min 30 sec)
Heartbeat CPU 0 instructions: 210000000 cycles: 71808530 heartbeat IPC: 3.452 cumulative IPC: 2.715 (Simulation time: 00 hr 16 min 14 sec)
Heartbeat CPU 0 instructions: 220000001 cycles: 74741851 heartbeat IPC: 3.409 cumulative IPC: 2.748 (Simulation time: 00 hr 16 min 59 sec)
Heartbeat CPU 0 instructions: 230000004 cycles: 77871956 heartbeat IPC: 3.195 cumulative IPC: 2.77 (Simulation time: 00 hr 17 min 46 sec)
Heartbeat CPU 0 instructions: 240000002 cycles: 81291001 heartbeat IPC: 2.925 cumulative IPC: 2.777 (Simulation time: 00 hr 18 min 36 sec)
Heartbeat CPU 0 instructions: 250000002 cycles: 84843510 heartbeat IPC: 2.815 cumulative IPC: 2.779 (Simulation time: 00 hr 19 min 27 sec)
Heartbeat CPU 0 instructions: 260000002 cycles: 88412919 heartbeat IPC: 2.802 cumulative IPC: 2.78 (Simulation time: 00 hr 20 min 18 sec)
Heartbeat CPU 0 instructions: 270000003 cycles: 92078148 heartbeat IPC: 2.728 cumulative IPC: 2.778 (Simulation time: 00 hr 21 min 08 sec)
Heartbeat CPU 0 instructions: 280000002 cycles: 95763322 heartbeat IPC: 2.714 cumulative IPC: 2.775 (Simulation time: 00 hr 21 min 59 sec)
Heartbeat CPU 0 instructions: 290000001 cycles: 155067173 heartbeat IPC: 0.1686 cumulative IPC: 1.688 (Simulation time: 00 hr 28 min 59 sec)
Heartbeat CPU 0 instructions: 300000002 cycles: 157572276 heartbeat IPC: 3.992 cumulative IPC: 1.728 (Simulation time: 00 hr 29 min 39 sec)
Heartbeat CPU 0 instructions: 310000001 cycles: 160078139 heartbeat IPC: 3.991 cumulative IPC: 1.766 (Simulation time: 00 hr 30 min 18 sec)
Heartbeat CPU 0 instructions: 320000000 cycles: 162584950 heartbeat IPC: 3.989 cumulative IPC: 1.804 (Simulation time: 00 hr 30 min 57 sec)
Heartbeat CPU 0 instructions: 330000003 cycles: 165090620 heartbeat IPC: 3.991 cumulative IPC: 1.84 (Simulation time: 00 hr 31 min 36 sec)
Heartbeat CPU 0 instructions: 340000000 cycles: 167596237 heartbeat IPC: 3.991 cumulative IPC: 1.874 (Simulation time: 00 hr 32 min 14 sec)
Heartbeat CPU 0 instructions: 350000004 cycles: 170101712 heartbeat IPC: 3.991 cumulative IPC: 1.908 (Simulation time: 00 hr 32 min 53 sec)
Heartbeat CPU 0 instructions: 360000004 cycles: 172607117 heartbeat IPC: 3.991 cumulative IPC: 1.941 (Simulation time: 00 hr 33 min 32 sec)
Heartbeat CPU 0 instructions: 370000000 cycles: 175112191 heartbeat IPC: 3.992 cumulative IPC: 1.972 (Simulation time: 00 hr 34 min 11 sec)
Heartbeat CPU 0 instructions: 380000004 cycles: 177617196 heartbeat IPC: 3.992 cumulative IPC: 2.003 (Simulation time: 00 hr 34 min 51 sec)
Heartbeat CPU 0 instructions: 390000001 cycles: 180122269 heartbeat IPC: 3.992 cumulative IPC: 2.033 (Simulation time: 00 hr 35 min 32 sec)
Heartbeat CPU 0 instructions: 400000003 cycles: 182627348 heartbeat IPC: 3.992 cumulative IPC: 2.062 (Simulation time: 00 hr 36 min 13 sec)
Heartbeat CPU 0 instructions: 410000003 cycles: 185132831 heartbeat IPC: 3.991 cumulative IPC: 2.09 (Simulation time: 00 hr 36 min 54 sec)
Heartbeat CPU 0 instructions: 420000002 cycles: 187638378 heartbeat IPC: 3.991 cumulative IPC: 2.117 (Simulation time: 00 hr 37 min 35 sec)
Heartbeat CPU 0 instructions: 430000000 cycles: 190144226 heartbeat IPC: 3.991 cumulative IPC: 2.144 (Simulation time: 00 hr 38 min 16 sec)
Heartbeat CPU 0 instructions: 440000001 cycles: 192649300 heartbeat IPC: 3.992 cumulative IPC: 2.169 (Simulation time: 00 hr 38 min 57 sec)
Heartbeat CPU 0 instructions: 450000000 cycles: 195154786 heartbeat IPC: 3.991 cumulative IPC: 2.195 (Simulation time: 00 hr 39 min 38 sec)
Heartbeat CPU 0 instructions: 460000003 cycles: 197659823 heartbeat IPC: 3.992 cumulative IPC: 2.219 (Simulation time: 00 hr 40 min 18 sec)
Heartbeat CPU 0 instructions: 470000001 cycles: 200165226 heartbeat IPC: 3.991 cumulative IPC: 2.243 (Simulation time: 00 hr 40 min 58 sec)
Heartbeat CPU 0 instructions: 480000003 cycles: 202671132 heartbeat IPC: 3.991 cumulative IPC: 2.266 (Simulation time: 00 hr 41 min 39 sec)
Heartbeat CPU 0 instructions: 490000003 cycles: 205176165 heartbeat IPC: 3.992 cumulative IPC: 2.288 (Simulation time: 00 hr 42 min 18 sec)
Heartbeat CPU 0 instructions: 500000002 cycles: 207681811 heartbeat IPC: 3.991 cumulative IPC: 2.31 (Simulation time: 00 hr 42 min 58 sec)
Heartbeat CPU 0 instructions: 510000003 cycles: 212986498 heartbeat IPC: 1.885 cumulative IPC: 2.299 (Simulation time: 00 hr 43 min 59 sec)
Heartbeat CPU 0 instructions: 520000001 cycles: 332705776 heartbeat IPC: 0.08353 cumulative IPC: 1.47 (Simulation time: 00 hr 59 min 49 sec)
Heartbeat CPU 0 instructions: 530000004 cycles: 423647147 heartbeat IPC: 0.11 cumulative IPC: 1.169 (Simulation time: 01 hr 11 min 50 sec)
Heartbeat CPU 0 instructions: 540000000 cycles: 454655652 heartbeat IPC: 0.3225 cumulative IPC: 1.109 (Simulation time: 01 hr 16 min 16 sec)
Heartbeat CPU 0 instructions: 550000004 cycles: 485100205 heartbeat IPC: 0.3285 cumulative IPC: 1.059 (Simulation time: 01 hr 20 min 40 sec)
Heartbeat CPU 0 instructions: 560000000 cycles: 515353346 heartbeat IPC: 0.3305 cumulative IPC: 1.015 (Simulation time: 01 hr 25 min 04 sec)
Heartbeat CPU 0 instructions: 570000000 cycles: 545782778 heartbeat IPC: 0.3286 cumulative IPC: 0.9758 (Simulation time: 01 hr 29 min 29 sec)
Heartbeat CPU 0 instructions: 580000001 cycles: 577040649 heartbeat IPC: 0.3199 cumulative IPC: 0.9395 (Simulation time: 01 hr 34 min 02 sec)
Heartbeat CPU 0 instructions: 590000004 cycles: 608794613 heartbeat IPC: 0.3149 cumulative IPC: 0.9062 (Simulation time: 01 hr 38 min 40 sec)
*** Reached end of trace: (0, "traces/sp.A.champsimtrace")
Heartbeat CPU 0 instructions: 600000002 cycles: 640531165 heartbeat IPC: 0.3151 cumulative IPC: 0.8763 (Simulation time: 01 hr 43 min 09 sec)
Heartbeat CPU 0 instructions: 610000000 cycles: 669039008 heartbeat IPC: 0.3508 cumulative IPC: 0.8535 (Simulation time: 01 hr 46 min 05 sec)
Heartbeat CPU 0 instructions: 620000001 cycles: 673546335 heartbeat IPC: 2.219 cumulative IPC: 0.8628 (Simulation time: 01 hr 46 min 59 sec)
Heartbeat CPU 0 instructions: 630000003 cycles: 678076426 heartbeat IPC: 2.207 cumulative IPC: 0.8719 (Simulation time: 01 hr 47 min 52 sec)
Heartbeat CPU 0 instructions: 640000004 cycles: 682621918 heartbeat IPC: 2.2 cumulative IPC: 0.8809 (Simulation time: 01 hr 48 min 46 sec)
Heartbeat CPU 0 instructions: 650000002 cycles: 687196331 heartbeat IPC: 2.186 cumulative IPC: 0.8898 (Simulation time: 01 hr 49 min 39 sec)
Simulation finished CPU 0 instructions: 600000001 cycles: 674315276 cumulative IPC: 0.8898 (Simulation time: 01 hr 49 min 39 sec)
Simulation complete CPU 0 instructions: 600000001 cycles: 674315276 cumulative IPC: 0.8898 (Simulation time: 01 hr 49 min 39 sec)

ChampSim completed all CPUs

=== Simulation ===
CPU 0 runs traces/sp.A.champsimtrace
Region of Interest Statistics

CPU 0 cumulative IPC: 0.8898 instructions: 600000001 cycles: 674315276
CPU 0 Branch Prediction Accuracy: 98.84% MPKI: 0.2406 Average ROB Occupancy at Mispredict: 220.6
Branch type MPKI
BRANCH_DIRECT_JUMP: 5e-06
BRANCH_INDIRECT: 7.5e-05
BRANCH_CONDITIONAL: 0.24
BRANCH_DIRECT_CALL: 2e-05
BRANCH_INDIRECT_CALL: 3.17e-05
BRANCH_RETURN: 3.67e-05

LLC TOTAL        ACCESS:    7578903 HIT:    3756474 MISS:    3822429
LLC LOAD         ACCESS:    2304037 HIT:    1208408 MISS:    1095629
LLC RFO          ACCESS:     922635 HIT:      21180 MISS:     901455
LLC PREFETCH     ACCESS:    2304037 HIT:     581624 MISS:    1722413
LLC WRITE        ACCESS:    2044723 HIT:    1943642 MISS:     101081
LLC TRANSLATION  ACCESS:       3471 HIT:       1620 MISS:       1851
LLC PREFETCH REQUESTED:    2304037 ISSUED:    2304037 USEFUL:    1455310 USELESS:      25470
LLC AVERAGE MISS LATENCY: 1234 cycles
cpu0_DTLB TOTAL        ACCESS:  127347182 HIT:  126532277 MISS:     814905
cpu0_DTLB LOAD         ACCESS:  127347182 HIT:  126532277 MISS:     814905
cpu0_DTLB RFO          ACCESS:          0 HIT:          0 MISS:          0
cpu0_DTLB PREFETCH     ACCESS:          0 HIT:          0 MISS:          0
cpu0_DTLB WRITE        ACCESS:          0 HIT:          0 MISS:          0
cpu0_DTLB TRANSLATION  ACCESS:          0 HIT:          0 MISS:          0
cpu0_DTLB PREFETCH REQUESTED:          0 ISSUED:          0 USEFUL:          0 USELESS:          0
cpu0_DTLB AVERAGE MISS LATENCY: 18.47 cycles
cpu0_ITLB TOTAL        ACCESS:     216620 HIT:     216403 MISS:        217
cpu0_ITLB LOAD         ACCESS:     216620 HIT:     216403 MISS:        217
cpu0_ITLB RFO          ACCESS:          0 HIT:          0 MISS:          0
cpu0_ITLB PREFETCH     ACCESS:          0 HIT:          0 MISS:          0
cpu0_ITLB WRITE        ACCESS:          0 HIT:          0 MISS:          0
cpu0_ITLB TRANSLATION  ACCESS:          0 HIT:          0 MISS:          0
cpu0_ITLB PREFETCH REQUESTED:          0 ISSUED:          0 USEFUL:          0 USELESS:          0
cpu0_ITLB AVERAGE MISS LATENCY: 209.4 cycles
cpu0_L1D TOTAL        ACCESS:  193439800 HIT:  179538220 MISS:   13901580
cpu0_L1D LOAD         ACCESS:  158197566 HIT:  148482896 MISS:    9714670
cpu0_L1D RFO          ACCESS:          0 HIT:          0 MISS:          0
cpu0_L1D PREFETCH     ACCESS:          0 HIT:          0 MISS:          0
cpu0_L1D WRITE        ACCESS:   35194356 HIT:   31025767 MISS:    4168589
cpu0_L1D TRANSLATION  ACCESS:      47878 HIT:      29557 MISS:      18321
cpu0_L1D PREFETCH REQUESTED:          0 ISSUED:          0 USEFUL:          0 USELESS:          0
cpu0_L1D AVERAGE MISS LATENCY: 170.2 cycles
cpu0_L1I TOTAL        ACCESS:     224116 HIT:     221373 MISS:       2743
cpu0_L1I LOAD         ACCESS:     224116 HIT:     221373 MISS:       2743
cpu0_L1I RFO          ACCESS:          0 HIT:          0 MISS:          0
cpu0_L1I PREFETCH     ACCESS:          0 HIT:          0 MISS:          0
cpu0_L1I WRITE        ACCESS:          0 HIT:          0 MISS:          0
cpu0_L1I TRANSLATION  ACCESS:          0 HIT:          0 MISS:          0
cpu0_L1I PREFETCH REQUESTED:          0 ISSUED:          0 USEFUL:          0 USELESS:          0
cpu0_L1I AVERAGE MISS LATENCY: 330.9 cycles
cpu0_L2C TOTAL        ACCESS:    5428873 HIT:    2198275 MISS:    3230598
cpu0_L2C LOAD         ACCESS:    2431304 HIT:     127184 MISS:    2304120
cpu0_L2C RFO          ACCESS:     923197 HIT:        562 MISS:     922635
cpu0_L2C PREFETCH     ACCESS:          0 HIT:          0 MISS:          0
cpu0_L2C WRITE        ACCESS:    2056054 HIT:    2055682 MISS:        372
cpu0_L2C TRANSLATION  ACCESS:      18318 HIT:      14847 MISS:       3471
cpu0_L2C PREFETCH REQUESTED:          0 ISSUED:          0 USEFUL:          0 USELESS:          0
cpu0_L2C AVERAGE MISS LATENCY: 989.7 cycles
cpu0_STLB TOTAL        ACCESS:     564219 HIT:     516371 MISS:      47848
cpu0_STLB LOAD         ACCESS:     564219 HIT:     516371 MISS:      47848
cpu0_STLB RFO          ACCESS:          0 HIT:          0 MISS:          0
cpu0_STLB PREFETCH     ACCESS:          0 HIT:          0 MISS:          0
cpu0_STLB WRITE        ACCESS:          0 HIT:          0 MISS:          0
cpu0_STLB TRANSLATION  ACCESS:          0 HIT:          0 MISS:          0
cpu0_STLB PREFETCH REQUESTED:          0 ISSUED:          0 USEFUL:          0 USELESS:          0
cpu0_STLB AVERAGE MISS LATENCY: 333.2 cycles

DRAM Statistics

Channel 0 RQ ROW_BUFFER_HIT:     758096
  ROW_BUFFER_MISS:    1898258
 AVG DBUS CONGESTED CYCLE: 3.989
WQ ROW_BUFFER_HIT: Channel 0 
  ROW_BUFFER_MISS:      35313
  FULL:    1669974
