WARNING: physical memory size is smaller than virtual memory size.

*** ChampSim Multicore Out-of-Order Simulator ***
Warmup Instructions: 50000000
Simulation Instructions: 600000000
Number of CPUs: 1
Page size: 4096

CPU 0 Tage branch predictor
Off-chip DRAM Size: 4 GiB Channels: 1 Width: 64-bit Data Race: 3200 MT/s
Heartbeat CPU 0 instructions: 10000001 cycles: 2881055 heartbeat IPC: 3.471 cumulative IPC: 3.471 (Simulation time: 00 hr 00 min 42 sec)
Heartbeat CPU 0 instructions: 20000001 cycles: 5381055 heartbeat IPC: 4 cumulative IPC: 3.717 (Simulation time: 00 hr 01 min 21 sec)
Heartbeat CPU 0 instructions: 30000001 cycles: 7881055 heartbeat IPC: 4 cumulative IPC: 3.807 (Simulation time: 00 hr 02 min 01 sec)
Heartbeat CPU 0 instructions: 40000001 cycles: 10381055 heartbeat IPC: 4 cumulative IPC: 3.853 (Simulation time: 00 hr 02 min 40 sec)
Heartbeat CPU 0 instructions: 50000001 cycles: 12881055 heartbeat IPC: 4 cumulative IPC: 3.882 (Simulation time: 00 hr 03 min 19 sec)
Warmup finished CPU 0 instructions: 50000001 cycles: 12881056 cumulative IPC: 3.882 (Simulation time: 00 hr 03 min 19 sec)
Warmup complete CPU 0 instructions: 50000001 cycles: 12881056 cumulative IPC: 3.882 (Simulation time: 00 hr 03 min 19 sec)
Heartbeat CPU 0 instructions: 60000000 cycles: 19229896 heartbeat IPC: 1.575 cumulative IPC: 1.575 (Simulation time: 00 hr 04 min 36 sec)
Heartbeat CPU 0 instructions: 70000000 cycles: 25552017 heartbeat IPC: 1.582 cumulative IPC: 1.578 (Simulation time: 00 hr 05 min 53 sec)
Heartbeat CPU 0 instructions: 80000000 cycles: 31906450 heartbeat IPC: 1.574 cumulative IPC: 1.577 (Simulation time: 00 hr 07 min 10 sec)
Heartbeat CPU 0 instructions: 90000003 cycles: 38265347 heartbeat IPC: 1.573 cumulative IPC: 1.576 (Simulation time: 00 hr 08 min 28 sec)
Heartbeat CPU 0 instructions: 100000000 cycles: 44749512 heartbeat IPC: 1.542 cumulative IPC: 1.569 (Simulation time: 00 hr 09 min 46 sec)
Heartbeat CPU 0 instructions: 110000001 cycles: 51272388 heartbeat IPC: 1.533 cumulative IPC: 1.563 (Simulation time: 00 hr 11 min 04 sec)
Heartbeat CPU 0 instructions: 120000001 cycles: 57820709 heartbeat IPC: 1.527 cumulative IPC: 1.558 (Simulation time: 00 hr 12 min 22 sec)
Heartbeat CPU 0 instructions: 130000002 cycles: 64292494 heartbeat IPC: 1.545 cumulative IPC: 1.556 (Simulation time: 00 hr 13 min 40 sec)
Heartbeat CPU 0 instructions: 140000004 cycles: 70795105 heartbeat IPC: 1.538 cumulative IPC: 1.554 (Simulation time: 00 hr 14 min 57 sec)
Heartbeat CPU 0 instructions: 150000000 cycles: 77268207 heartbeat IPC: 1.545 cumulative IPC: 1.553 (Simulation time: 00 hr 16 min 12 sec)
Heartbeat CPU 0 instructions: 160000003 cycles: 83760185 heartbeat IPC: 1.54 cumulative IPC: 1.552 (Simulation time: 00 hr 17 min 27 sec)
Heartbeat CPU 0 instructions: 170000001 cycles: 90148490 heartbeat IPC: 1.565 cumulative IPC: 1.553 (Simulation time: 00 hr 18 min 39 sec)
Heartbeat CPU 0 instructions: 180000002 cycles: 96624867 heartbeat IPC: 1.544 cumulative IPC: 1.552 (Simulation time: 00 hr 19 min 50 sec)
Heartbeat CPU 0 instructions: 190000002 cycles: 102797590 heartbeat IPC: 1.62 cumulative IPC: 1.557 (Simulation time: 00 hr 21 min 00 sec)
Heartbeat CPU 0 instructions: 200000000 cycles: 108078453 heartbeat IPC: 1.894 cumulative IPC: 1.576 (Simulation time: 00 hr 22 min 04 sec)
Heartbeat CPU 0 instructions: 210000003 cycles: 113522245 heartbeat IPC: 1.837 cumulative IPC: 1.59 (Simulation time: 00 hr 23 min 09 sec)
Heartbeat CPU 0 instructions: 220000001 cycles: 119226670 heartbeat IPC: 1.753 cumulative IPC: 1.599 (Simulation time: 00 hr 24 min 14 sec)
Heartbeat CPU 0 instructions: 230000004 cycles: 125168476 heartbeat IPC: 1.683 cumulative IPC: 1.603 (Simulation time: 00 hr 25 min 20 sec)
Heartbeat CPU 0 instructions: 240000003 cycles: 131412287 heartbeat IPC: 1.602 cumulative IPC: 1.603 (Simulation time: 00 hr 26 min 27 sec)
Heartbeat CPU 0 instructions: 250000002 cycles: 137857674 heartbeat IPC: 1.551 cumulative IPC: 1.6 (Simulation time: 00 hr 27 min 36 sec)
Heartbeat CPU 0 instructions: 260000002 cycles: 144357158 heartbeat IPC: 1.539 cumulative IPC: 1.597 (Simulation time: 00 hr 28 min 44 sec)
Heartbeat CPU 0 instructions: 270000002 cycles: 150992187 heartbeat IPC: 1.507 cumulative IPC: 1.593 (Simulation time: 00 hr 29 min 50 sec)
Heartbeat CPU 0 instructions: 280000000 cycles: 157726556 heartbeat IPC: 1.485 cumulative IPC: 1.588 (Simulation time: 00 hr 30 min 57 sec)
Heartbeat CPU 0 instructions: 290000001 cycles: 216559787 heartbeat IPC: 0.17 cumulative IPC: 1.178 (Simulation time: 00 hr 36 min 47 sec)
Heartbeat CPU 0 instructions: 300000002 cycles: 219060107 heartbeat IPC: 3.999 cumulative IPC: 1.213 (Simulation time: 00 hr 37 min 21 sec)
Heartbeat CPU 0 instructions: 310000001 cycles: 221560256 heartbeat IPC: 4 cumulative IPC: 1.246 (Simulation time: 00 hr 37 min 55 sec)
Heartbeat CPU 0 instructions: 320000001 cycles: 224060942 heartbeat IPC: 3.999 cumulative IPC: 1.279 (Simulation time: 00 hr 38 min 28 sec)
Heartbeat CPU 0 instructions: 330000003 cycles: 226561608 heartbeat IPC: 3.999 cumulative IPC: 1.31 (Simulation time: 00 hr 39 min 01 sec)
Heartbeat CPU 0 instructions: 340000000 cycles: 229062100 heartbeat IPC: 3.999 cumulative IPC: 1.341 (Simulation time: 00 hr 39 min 34 sec)
Heartbeat CPU 0 instructions: 350000004 cycles: 231562436 heartbeat IPC: 3.999 cumulative IPC: 1.372 (Simulation time: 00 hr 40 min 07 sec)
Heartbeat CPU 0 instructions: 360000004 cycles: 234063113 heartbeat IPC: 3.999 cumulative IPC: 1.402 (Simulation time: 00 hr 40 min 40 sec)
Heartbeat CPU 0 instructions: 370000000 cycles: 236563196 heartbeat IPC: 4 cumulative IPC: 1.431 (Simulation time: 00 hr 41 min 13 sec)
Heartbeat CPU 0 instructions: 380000004 cycles: 239063509 heartbeat IPC: 4 cumulative IPC: 1.459 (Simulation time: 00 hr 41 min 46 sec)
Heartbeat CPU 0 instructions: 390000001 cycles: 241565474 heartbeat IPC: 3.997 cumulative IPC: 1.487 (Simulation time: 00 hr 42 min 18 sec)
Heartbeat CPU 0 instructions: 400000003 cycles: 244066141 heartbeat IPC: 3.999 cumulative IPC: 1.514 (Simulation time: 00 hr 42 min 49 sec)
Heartbeat CPU 0 instructions: 410000003 cycles: 246566270 heartbeat IPC: 4 cumulative IPC: 1.541 (Simulation time: 00 hr 43 min 17 sec)
Heartbeat CPU 0 instructions: 420000002 cycles: 249067693 heartbeat IPC: 3.998 cumulative IPC: 1.567 (Simulation time: 00 hr 43 min 48 sec)
Heartbeat CPU 0 instructions: 430000000 cycles: 251568072 heartbeat IPC: 3.999 cumulative IPC: 1.592 (Simulation time: 00 hr 44 min 18 sec)
Heartbeat CPU 0 instructions: 440000001 cycles: 254068176 heartbeat IPC: 4 cumulative IPC: 1.617 (Simulation time: 00 hr 44 min 48 sec)
Heartbeat CPU 0 instructions: 450000000 cycles: 256569241 heartbeat IPC: 3.998 cumulative IPC: 1.641 (Simulation time: 00 hr 45 min 17 sec)
Heartbeat CPU 0 instructions: 460000003 cycles: 259069715 heartbeat IPC: 3.999 cumulative IPC: 1.665 (Simulation time: 00 hr 45 min 47 sec)
Heartbeat CPU 0 instructions: 470000001 cycles: 261569802 heartbeat IPC: 4 cumulative IPC: 1.689 (Simulation time: 00 hr 46 min 18 sec)
Heartbeat CPU 0 instructions: 480000003 cycles: 264069843 heartbeat IPC: 4 cumulative IPC: 1.712 (Simulation time: 00 hr 46 min 49 sec)
Heartbeat CPU 0 instructions: 490000003 cycles: 266570667 heartbeat IPC: 3.999 cumulative IPC: 1.734 (Simulation time: 00 hr 47 min 19 sec)
Heartbeat CPU 0 instructions: 500000002 cycles: 269071112 heartbeat IPC: 3.999 cumulative IPC: 1.757 (Simulation time: 00 hr 47 min 49 sec)
Heartbeat CPU 0 instructions: 510000002 cycles: 274315286 heartbeat IPC: 1.907 cumulative IPC: 1.76 (Simulation time: 00 hr 48 min 35 sec)
Heartbeat CPU 0 instructions: 520000002 cycles: 394569658 heartbeat IPC: 0.08316 cumulative IPC: 1.231 (Simulation time: 00 hr 58 min 49 sec)
Heartbeat CPU 0 instructions: 530000004 cycles: 483396935 heartbeat IPC: 0.1126 cumulative IPC: 1.02 (Simulation time: 01 hr 04 min 49 sec)
Heartbeat CPU 0 instructions: 540000000 cycles: 515652232 heartbeat IPC: 0.31 cumulative IPC: 0.9746 (Simulation time: 01 hr 06 min 54 sec)
Heartbeat CPU 0 instructions: 550000002 cycles: 547338446 heartbeat IPC: 0.3156 cumulative IPC: 0.9355 (Simulation time: 01 hr 08 min 55 sec)
Heartbeat CPU 0 instructions: 560000004 cycles: 578708646 heartbeat IPC: 0.3188 cumulative IPC: 0.9013 (Simulation time: 01 hr 10 min 49 sec)
Heartbeat CPU 0 instructions: 570000000 cycles: 610131802 heartbeat IPC: 0.3182 cumulative IPC: 0.8707 (Simulation time: 01 hr 12 min 41 sec)
Heartbeat CPU 0 instructions: 580000003 cycles: 642089275 heartbeat IPC: 0.3129 cumulative IPC: 0.8423 (Simulation time: 01 hr 14 min 30 sec)
Heartbeat CPU 0 instructions: 590000004 cycles: 674589363 heartbeat IPC: 0.3077 cumulative IPC: 0.8161 (Simulation time: 01 hr 16 min 13 sec)
*** Reached end of trace: (0, "traces/sp.A.champsimtrace")
Heartbeat CPU 0 instructions: 600000002 cycles: 707024815 heartbeat IPC: 0.3083 cumulative IPC: 0.7923 (Simulation time: 01 hr 17 min 49 sec)
Heartbeat CPU 0 instructions: 610000000 cycles: 737064800 heartbeat IPC: 0.3329 cumulative IPC: 0.7733 (Simulation time: 01 hr 18 min 56 sec)
Heartbeat CPU 0 instructions: 620000001 cycles: 743406951 heartbeat IPC: 1.577 cumulative IPC: 0.7803 (Simulation time: 01 hr 19 min 22 sec)
Heartbeat CPU 0 instructions: 630000003 cycles: 749764249 heartbeat IPC: 1.573 cumulative IPC: 0.7871 (Simulation time: 01 hr 19 min 48 sec)
Heartbeat CPU 0 instructions: 640000004 cycles: 756098540 heartbeat IPC: 1.579 cumulative IPC: 0.7938 (Simulation time: 01 hr 20 min 14 sec)
Heartbeat CPU 0 instructions: 650000001 cycles: 762450219 heartbeat IPC: 1.574 cumulative IPC: 0.8005 (Simulation time: 01 hr 20 min 39 sec)
Simulation finished CPU 0 instructions: 600000000 cycles: 749569164 cumulative IPC: 0.8005 (Simulation time: 01 hr 20 min 39 sec)
Simulation complete CPU 0 instructions: 600000000 cycles: 749569164 cumulative IPC: 0.8005 (Simulation time: 01 hr 20 min 39 sec)

ChampSim completed all CPUs

=== Simulation ===
CPU 0 runs traces/sp.A.champsimtrace
Region of Interest Statistics

CPU 0 cumulative IPC: 0.8005 instructions: 600000000 cycles: 749569164
CPU 0 Branch Prediction Accuracy: 99.98% MPKI: 0.003913 Average ROB Occupancy at Mispredict: 98.02
Branch type MPKI
BRANCH_DIRECT_JUMP: 5e-06
BRANCH_INDIRECT: 7.5e-05
BRANCH_CONDITIONAL: 0.00375
BRANCH_DIRECT_CALL: 2e-05
BRANCH_INDIRECT_CALL: 3.17e-05
BRANCH_RETURN: 3.67e-05

LLC TOTAL        ACCESS:    5274983 HIT:    2549184 MISS:    2725799
LLC LOAD         ACCESS:    2304114 HIT:     580862 MISS:    1723252
LLC RFO          ACCESS:     922635 HIT:      21266 MISS:     901369
LLC PREFETCH     ACCESS:          0 HIT:          0 MISS:          0
LLC WRITE        ACCESS:    2044755 HIT:    1945418 MISS:      99337
LLC TRANSLATION  ACCESS:       3479 HIT:       1638 MISS:       1841
LLC PREFETCH REQUESTED:          0 ISSUED:          0 USEFUL:          0 USELESS:          0
LLC AVERAGE MISS LATENCY: 1339 cycles
cpu0_DTLB TOTAL        ACCESS:  126887133 HIT:  125897129 MISS:     990004
cpu0_DTLB LOAD         ACCESS:  126887133 HIT:  125897129 MISS:     990004
cpu0_DTLB RFO          ACCESS:          0 HIT:          0 MISS:          0
cpu0_DTLB PREFETCH     ACCESS:          0 HIT:          0 MISS:          0
cpu0_DTLB WRITE        ACCESS:          0 HIT:          0 MISS:          0
cpu0_DTLB TRANSLATION  ACCESS:          0 HIT:          0 MISS:          0
cpu0_DTLB PREFETCH REQUESTED:          0 ISSUED:          0 USEFUL:          0 USELESS:          0
cpu0_DTLB AVERAGE MISS LATENCY: 17.08 cycles
cpu0_ITLB TOTAL        ACCESS:     233982 HIT:     233743 MISS:        239
cpu0_ITLB LOAD         ACCESS:     233982 HIT:     233743 MISS:        239
cpu0_ITLB RFO          ACCESS:          0 HIT:          0 MISS:          0
cpu0_ITLB PREFETCH     ACCESS:          0 HIT:          0 MISS:          0
cpu0_ITLB WRITE        ACCESS:          0 HIT:          0 MISS:          0
cpu0_ITLB TRANSLATION  ACCESS:          0 HIT:          0 MISS:          0
cpu0_ITLB PREFETCH REQUESTED:          0 ISSUED:          0 USEFUL:          0 USELESS:          0
cpu0_ITLB AVERAGE MISS LATENCY: 171.2 cycles
cpu0_L1D TOTAL        ACCESS:  192878589 HIT:  178522340 MISS:   14356249
cpu0_L1D LOAD         ACCESS:  157636367 HIT:  147401612 MISS:   10234755
cpu0_L1D RFO          ACCESS:          0 HIT:          0 MISS:          0
cpu0_L1D PREFETCH     ACCESS:          0 HIT:          0 MISS:          0
cpu0_L1D WRITE        ACCESS:   35194344 HIT:   31091160 MISS:    4103184
cpu0_L1D TRANSLATION  ACCESS:      47878 HIT:      29568 MISS:      18310
cpu0_L1D PREFETCH REQUESTED:          0 ISSUED:          0 USEFUL:          0 USELESS:          0
cpu0_L1D AVERAGE MISS LATENCY: 186.2 cycles
cpu0_L1I TOTAL        ACCESS:     244605 HIT:     241663 MISS:       2942
cpu0_L1I LOAD         ACCESS:     244605 HIT:     241663 MISS:       2942
cpu0_L1I RFO          ACCESS:          0 HIT:          0 MISS:          0
cpu0_L1I PREFETCH     ACCESS:          0 HIT:          0 MISS:          0
cpu0_L1I WRITE        ACCESS:          0 HIT:          0 MISS:          0
cpu0_L1I TRANSLATION  ACCESS:          0 HIT:          0 MISS:          0
cpu0_L1I PREFETCH REQUESTED:          0 ISSUED:          0 USEFUL:          0 USELESS:          0
cpu0_L1I AVERAGE MISS LATENCY: 327.4 cycles
cpu0_L2C TOTAL        ACCESS:    5443805 HIT:    2213096 MISS:    3230709
cpu0_L2C LOAD         ACCESS:    2445597 HIT:     141372 MISS:    2304225
cpu0_L2C RFO          ACCESS:     923518 HIT:        883 MISS:     922635
cpu0_L2C PREFETCH     ACCESS:          0 HIT:          0 MISS:          0
cpu0_L2C WRITE        ACCESS:    2056383 HIT:    2056013 MISS:        370
cpu0_L2C TRANSLATION  ACCESS:      18307 HIT:      14828 MISS:       3479
cpu0_L2C PREFETCH REQUESTED:          0 ISSUED:          0 USEFUL:          0 USELESS:          0
cpu0_L2C AVERAGE MISS LATENCY: 1151 cycles
cpu0_STLB TOTAL        ACCESS:     738247 HIT:     690398 MISS:      47849
cpu0_STLB LOAD         ACCESS:     738247 HIT:     690398 MISS:      47849
cpu0_STLB RFO          ACCESS:          0 HIT:          0 MISS:          0
cpu0_STLB PREFETCH     ACCESS:          0 HIT:          0 MISS:          0
cpu0_STLB WRITE        ACCESS:          0 HIT:          0 MISS:          0
cpu0_STLB TRANSLATION  ACCESS:          0 HIT:          0 MISS:          0
cpu0_STLB PREFETCH REQUESTED:          0 ISSUED:          0 USEFUL:          0 USELESS:          0
cpu0_STLB AVERAGE MISS LATENCY: 322.6 cycles

DRAM Statistics

Channel 0 RQ ROW_BUFFER_HIT:     715926
  ROW_BUFFER_MISS:    1910169
 AVG DBUS CONGESTED CYCLE: 3.986
WQ ROW_BUFFER_HIT: Channel 0 
  ROW_BUFFER_MISS:      35009
  FULL:    1665899
