WARNING: physical memory size is smaller than virtual memory size.

*** ChampSim Multicore Out-of-Order Simulator ***
Warmup Instructions: 50000000
Simulation Instructions: 600000000
Number of CPUs: 1
Page size: 4096

Off-chip DRAM Size: 4 GiB Channels: 1 Width: 64-bit Data Race: 3200 MT/s
Heartbeat CPU 0 instructions: 10000001 cycles: 2881056 heartbeat IPC: 3.471 cumulative IPC: 3.471 (Simulation time: 00 hr 00 min 46 sec)
Heartbeat CPU 0 instructions: 20000001 cycles: 5381056 heartbeat IPC: 4 cumulative IPC: 3.717 (Simulation time: 00 hr 01 min 33 sec)
Heartbeat CPU 0 instructions: 30000001 cycles: 7881056 heartbeat IPC: 4 cumulative IPC: 3.807 (Simulation time: 00 hr 02 min 20 sec)
Heartbeat CPU 0 instructions: 40000001 cycles: 10381056 heartbeat IPC: 4 cumulative IPC: 3.853 (Simulation time: 00 hr 03 min 06 sec)
Heartbeat CPU 0 instructions: 50000001 cycles: 12881056 heartbeat IPC: 4 cumulative IPC: 3.882 (Simulation time: 00 hr 03 min 53 sec)
Warmup finished CPU 0 instructions: 50000001 cycles: 12881057 cumulative IPC: 3.882 (Simulation time: 00 hr 03 min 53 sec)
Warmup complete CPU 0 instructions: 50000001 cycles: 12881057 cumulative IPC: 3.882 (Simulation time: 00 hr 03 min 53 sec)
Heartbeat CPU 0 instructions: 60000000 cycles: 19003484 heartbeat IPC: 1.633 cumulative IPC: 1.633 (Simulation time: 00 hr 05 min 28 sec)
Heartbeat CPU 0 instructions: 70000002 cycles: 25143504 heartbeat IPC: 1.629 cumulative IPC: 1.631 (Simulation time: 00 hr 07 min 05 sec)
Heartbeat CPU 0 instructions: 80000001 cycles: 31262141 heartbeat IPC: 1.634 cumulative IPC: 1.632 (Simulation time: 00 hr 08 min 40 sec)
Heartbeat CPU 0 instructions: 90000004 cycles: 37417055 heartbeat IPC: 1.625 cumulative IPC: 1.63 (Simulation time: 00 hr 10 min 14 sec)
Heartbeat CPU 0 instructions: 100000000 cycles: 43901905 heartbeat IPC: 1.542 cumulative IPC: 1.612 (Simulation time: 00 hr 11 min 52 sec)
Heartbeat CPU 0 instructions: 110000004 cycles: 50603498 heartbeat IPC: 1.492 cumulative IPC: 1.591 (Simulation time: 00 hr 13 min 32 sec)
Heartbeat CPU 0 instructions: 120000000 cycles: 57212154 heartbeat IPC: 1.513 cumulative IPC: 1.579 (Simulation time: 00 hr 15 min 09 sec)
Heartbeat CPU 0 instructions: 130000000 cycles: 63892516 heartbeat IPC: 1.497 cumulative IPC: 1.568 (Simulation time: 00 hr 16 min 48 sec)
Heartbeat CPU 0 instructions: 140000004 cycles: 70526147 heartbeat IPC: 1.507 cumulative IPC: 1.561 (Simulation time: 00 hr 18 min 25 sec)
Heartbeat CPU 0 instructions: 150000001 cycles: 77238268 heartbeat IPC: 1.49 cumulative IPC: 1.554 (Simulation time: 00 hr 20 min 03 sec)
Heartbeat CPU 0 instructions: 160000004 cycles: 83936235 heartbeat IPC: 1.493 cumulative IPC: 1.548 (Simulation time: 00 hr 21 min 41 sec)
Heartbeat CPU 0 instructions: 170000000 cycles: 90589014 heartbeat IPC: 1.503 cumulative IPC: 1.544 (Simulation time: 00 hr 23 min 19 sec)
Heartbeat CPU 0 instructions: 180000000 cycles: 97269349 heartbeat IPC: 1.497 cumulative IPC: 1.54 (Simulation time: 00 hr 24 min 58 sec)
Heartbeat CPU 0 instructions: 190000000 cycles: 103708134 heartbeat IPC: 1.553 cumulative IPC: 1.541 (Simulation time: 00 hr 26 min 33 sec)
Heartbeat CPU 0 instructions: 200000004 cycles: 109497724 heartbeat IPC: 1.727 cumulative IPC: 1.553 (Simulation time: 00 hr 28 min 02 sec)
Heartbeat CPU 0 instructions: 210000000 cycles: 115838458 heartbeat IPC: 1.577 cumulative IPC: 1.554 (Simulation time: 00 hr 29 min 37 sec)
Heartbeat CPU 0 instructions: 220000004 cycles: 122811339 heartbeat IPC: 1.434 cumulative IPC: 1.546 (Simulation time: 00 hr 31 min 21 sec)
Heartbeat CPU 0 instructions: 230000000 cycles: 129761111 heartbeat IPC: 1.439 cumulative IPC: 1.54 (Simulation time: 00 hr 33 min 04 sec)
Heartbeat CPU 0 instructions: 240000003 cycles: 136587529 heartbeat IPC: 1.465 cumulative IPC: 1.536 (Simulation time: 00 hr 34 min 44 sec)
Heartbeat CPU 0 instructions: 250000002 cycles: 143501477 heartbeat IPC: 1.446 cumulative IPC: 1.531 (Simulation time: 00 hr 36 min 26 sec)
Heartbeat CPU 0 instructions: 260000002 cycles: 150385078 heartbeat IPC: 1.453 cumulative IPC: 1.527 (Simulation time: 00 hr 38 min 06 sec)
Heartbeat CPU 0 instructions: 270000003 cycles: 157260087 heartbeat IPC: 1.455 cumulative IPC: 1.524 (Simulation time: 00 hr 39 min 49 sec)
Heartbeat CPU 0 instructions: 280000003 cycles: 164155356 heartbeat IPC: 1.45 cumulative IPC: 1.52 (Simulation time: 00 hr 41 min 30 sec)
Heartbeat CPU 0 instructions: 290000000 cycles: 220823006 heartbeat IPC: 0.1765 cumulative IPC: 1.154 (Simulation time: 00 hr 50 min 54 sec)
Heartbeat CPU 0 instructions: 300000001 cycles: 223325396 heartbeat IPC: 3.996 cumulative IPC: 1.188 (Simulation time: 00 hr 51 min 45 sec)
Heartbeat CPU 0 instructions: 310000000 cycles: 225827774 heartbeat IPC: 3.996 cumulative IPC: 1.221 (Simulation time: 00 hr 52 min 35 sec)
Heartbeat CPU 0 instructions: 320000002 cycles: 228330508 heartbeat IPC: 3.996 cumulative IPC: 1.253 (Simulation time: 00 hr 53 min 26 sec)
Heartbeat CPU 0 instructions: 330000004 cycles: 230832846 heartbeat IPC: 3.996 cumulative IPC: 1.285 (Simulation time: 00 hr 54 min 13 sec)
Heartbeat CPU 0 instructions: 340000004 cycles: 233335235 heartbeat IPC: 3.996 cumulative IPC: 1.315 (Simulation time: 00 hr 55 min 03 sec)
Heartbeat CPU 0 instructions: 350000003 cycles: 235837628 heartbeat IPC: 3.996 cumulative IPC: 1.346 (Simulation time: 00 hr 55 min 52 sec)
Heartbeat CPU 0 instructions: 360000002 cycles: 238340018 heartbeat IPC: 3.996 cumulative IPC: 1.375 (Simulation time: 00 hr 56 min 43 sec)
Heartbeat CPU 0 instructions: 370000004 cycles: 240842367 heartbeat IPC: 3.996 cumulative IPC: 1.404 (Simulation time: 00 hr 57 min 32 sec)
Heartbeat CPU 0 instructions: 380000003 cycles: 243345311 heartbeat IPC: 3.995 cumulative IPC: 1.432 (Simulation time: 00 hr 58 min 22 sec)
Heartbeat CPU 0 instructions: 390000000 cycles: 245847699 heartbeat IPC: 3.996 cumulative IPC: 1.459 (Simulation time: 00 hr 59 min 12 sec)
Heartbeat CPU 0 instructions: 400000002 cycles: 248350080 heartbeat IPC: 3.996 cumulative IPC: 1.486 (Simulation time: 01 hr 00 min 01 sec)
Heartbeat CPU 0 instructions: 410000002 cycles: 250853293 heartbeat IPC: 3.995 cumulative IPC: 1.513 (Simulation time: 01 hr 00 min 49 sec)
Heartbeat CPU 0 instructions: 420000000 cycles: 253355728 heartbeat IPC: 3.996 cumulative IPC: 1.539 (Simulation time: 01 hr 01 min 40 sec)
Heartbeat CPU 0 instructions: 430000001 cycles: 255858117 heartbeat IPC: 3.996 cumulative IPC: 1.564 (Simulation time: 01 hr 02 min 29 sec)
Heartbeat CPU 0 instructions: 440000000 cycles: 258360505 heartbeat IPC: 3.996 cumulative IPC: 1.589 (Simulation time: 01 hr 03 min 20 sec)
Heartbeat CPU 0 instructions: 450000001 cycles: 260862841 heartbeat IPC: 3.996 cumulative IPC: 1.613 (Simulation time: 01 hr 04 min 08 sec)
Heartbeat CPU 0 instructions: 460000002 cycles: 263365180 heartbeat IPC: 3.996 cumulative IPC: 1.637 (Simulation time: 01 hr 04 min 57 sec)
Heartbeat CPU 0 instructions: 470000001 cycles: 265867612 heartbeat IPC: 3.996 cumulative IPC: 1.66 (Simulation time: 01 hr 05 min 48 sec)
Heartbeat CPU 0 instructions: 480000000 cycles: 268370000 heartbeat IPC: 3.996 cumulative IPC: 1.683 (Simulation time: 01 hr 06 min 37 sec)
Heartbeat CPU 0 instructions: 490000001 cycles: 270872390 heartbeat IPC: 3.996 cumulative IPC: 1.705 (Simulation time: 01 hr 07 min 27 sec)
Heartbeat CPU 0 instructions: 500000004 cycles: 273374781 heartbeat IPC: 3.996 cumulative IPC: 1.727 (Simulation time: 01 hr 08 min 16 sec)
Heartbeat CPU 0 instructions: 510000001 cycles: 280794701 heartbeat IPC: 1.348 cumulative IPC: 1.717 (Simulation time: 01 hr 09 min 58 sec)
Heartbeat CPU 0 instructions: 520000002 cycles: 388216529 heartbeat IPC: 0.09309 cumulative IPC: 1.252 (Simulation time: 01 hr 29 min 13 sec)
Heartbeat CPU 0 instructions: 530000001 cycles: 467635240 heartbeat IPC: 0.1259 cumulative IPC: 1.056 (Simulation time: 01 hr 43 min 28 sec)
Heartbeat CPU 0 instructions: 540000000 cycles: 498291872 heartbeat IPC: 0.3262 cumulative IPC: 1.009 (Simulation time: 01 hr 49 min 23 sec)
Heartbeat CPU 0 instructions: 550000000 cycles: 528883594 heartbeat IPC: 0.3269 cumulative IPC: 0.969 (Simulation time: 01 hr 55 min 10 sec)
Heartbeat CPU 0 instructions: 560000003 cycles: 556946259 heartbeat IPC: 0.3563 cumulative IPC: 0.9374 (Simulation time: 02 hr 00 min 33 sec)
Heartbeat CPU 0 instructions: 570000003 cycles: 587664428 heartbeat IPC: 0.3255 cumulative IPC: 0.9047 (Simulation time: 02 hr 06 min 22 sec)
Heartbeat CPU 0 instructions: 580000002 cycles: 618491844 heartbeat IPC: 0.3244 cumulative IPC: 0.8751 (Simulation time: 02 hr 12 min 18 sec)
Heartbeat CPU 0 instructions: 590000001 cycles: 650033811 heartbeat IPC: 0.317 cumulative IPC: 0.8475 (Simulation time: 02 hr 17 min 03 sec)
*** Reached end of trace: (0, "traces/sp.A.champsimtrace")
Heartbeat CPU 0 instructions: 600000002 cycles: 679228339 heartbeat IPC: 0.3425 cumulative IPC: 0.8254 (Simulation time: 02 hr 20 min 45 sec)
Heartbeat CPU 0 instructions: 610000004 cycles: 710475263 heartbeat IPC: 0.32 cumulative IPC: 0.8028 (Simulation time: 02 hr 23 min 37 sec)
Heartbeat CPU 0 instructions: 620000003 cycles: 716232796 heartbeat IPC: 1.737 cumulative IPC: 0.8104 (Simulation time: 02 hr 24 min 36 sec)
Heartbeat CPU 0 instructions: 630000001 cycles: 722155087 heartbeat IPC: 1.689 cumulative IPC: 0.8177 (Simulation time: 02 hr 25 min 32 sec)
Heartbeat CPU 0 instructions: 640000000 cycles: 728259683 heartbeat IPC: 1.638 cumulative IPC: 0.8247 (Simulation time: 02 hr 26 min 29 sec)
Heartbeat CPU 0 instructions: 650000003 cycles: 734376883 heartbeat IPC: 1.635 cumulative IPC: 0.8316 (Simulation time: 02 hr 27 min 08 sec)
Simulation finished CPU 0 instructions: 600000002 cycles: 721495827 cumulative IPC: 0.8316 (Simulation time: 02 hr 27 min 08 sec)
Simulation complete CPU 0 instructions: 600000002 cycles: 721495827 cumulative IPC: 0.8316 (Simulation time: 02 hr 27 min 08 sec)

ChampSim completed all CPUs

=== Simulation ===
CPU 0 runs traces/sp.A.champsimtrace
Region of Interest Statistics

CPU 0 cumulative IPC: 0.8316 instructions: 600000002 cycles: 721495827
CPU 0 Branch Prediction Accuracy: 98.91% MPKI: 0.226 Average ROB Occupancy at Mispredict: 235.6
Branch type MPKI
BRANCH_DIRECT_JUMP: 5e-06
BRANCH_INDIRECT: 7.67e-05
BRANCH_CONDITIONAL: 0.226
BRANCH_DIRECT_CALL: 2e-05
BRANCH_INDIRECT_CALL: 3.33e-05
BRANCH_RETURN: 3.67e-05

LLC TOTAL        ACCESS:    5279104 HIT:    2042837 MISS:    3236267
LLC LOAD         ACCESS:    2306634 HIT:     518646 MISS:    1787988
LLC RFO          ACCESS:     922693 HIT:       4548 MISS:     918145
LLC PREFETCH     ACCESS:          0 HIT:          0 MISS:          0
LLC WRITE        ACCESS:    2046254 HIT:    1519038 MISS:     527216
LLC TRANSLATION  ACCESS:       3523 HIT:        605 MISS:       2918
LLC PREFETCH REQUESTED:          0 ISSUED:          0 USEFUL:          0 USELESS:          0
LLC AVERAGE MISS LATENCY: 1065 cycles
cpu0_DTLB TOTAL        ACCESS:  126039405 HIT:  125185350 MISS:     854055
cpu0_DTLB LOAD         ACCESS:  126039405 HIT:  125185350 MISS:     854055
cpu0_DTLB RFO          ACCESS:          0 HIT:          0 MISS:          0
cpu0_DTLB PREFETCH     ACCESS:          0 HIT:          0 MISS:          0
cpu0_DTLB WRITE        ACCESS:          0 HIT:          0 MISS:          0
cpu0_DTLB TRANSLATION  ACCESS:          0 HIT:          0 MISS:          0
cpu0_DTLB PREFETCH REQUESTED:          0 ISSUED:          0 USEFUL:          0 USELESS:          0
cpu0_DTLB AVERAGE MISS LATENCY: 19.93 cycles
cpu0_ITLB TOTAL        ACCESS:     218889 HIT:     218645 MISS:        244
cpu0_ITLB LOAD         ACCESS:     218889 HIT:     218645 MISS:        244
cpu0_ITLB RFO          ACCESS:          0 HIT:          0 MISS:          0
cpu0_ITLB PREFETCH     ACCESS:          0 HIT:          0 MISS:          0
cpu0_ITLB WRITE        ACCESS:          0 HIT:          0 MISS:          0
cpu0_ITLB TRANSLATION  ACCESS:          0 HIT:          0 MISS:          0
cpu0_ITLB PREFETCH REQUESTED:          0 ISSUED:          0 USEFUL:          0 USELESS:          0
cpu0_ITLB AVERAGE MISS LATENCY: 329.9 cycles
cpu0_L1D TOTAL        ACCESS:  190788293 HIT:  176262549 MISS:   14525744
cpu0_L1D LOAD         ACCESS:  155546173 HIT:  145147073 MISS:   10399100
cpu0_L1D RFO          ACCESS:          0 HIT:          0 MISS:          0
cpu0_L1D PREFETCH     ACCESS:          0 HIT:          0 MISS:          0
cpu0_L1D WRITE        ACCESS:   35194244 HIT:   31085951 MISS:    4108293
cpu0_L1D TRANSLATION  ACCESS:      47876 HIT:      29525 MISS:      18351
cpu0_L1D PREFETCH REQUESTED:          0 ISSUED:          0 USEFUL:          0 USELESS:          0
cpu0_L1D AVERAGE MISS LATENCY: 173.5 cycles
cpu0_L1I TOTAL        ACCESS:     226517 HIT:     223656 MISS:       2861
cpu0_L1I LOAD         ACCESS:     226517 HIT:     223656 MISS:       2861
cpu0_L1I RFO          ACCESS:          0 HIT:          0 MISS:          0
cpu0_L1I PREFETCH     ACCESS:          0 HIT:          0 MISS:          0
cpu0_L1I WRITE        ACCESS:          0 HIT:          0 MISS:          0
cpu0_L1I TRANSLATION  ACCESS:          0 HIT:          0 MISS:          0
cpu0_L1I PREFETCH REQUESTED:          0 ISSUED:          0 USEFUL:          0 USELESS:          0
cpu0_L1I AVERAGE MISS LATENCY: 599.4 cycles
cpu0_L2C TOTAL        ACCESS:    5438225 HIT:    2205029 MISS:    3233196
cpu0_L2C LOAD         ACCESS:    2437168 HIT:     130531 MISS:    2306637
cpu0_L2C RFO          ACCESS:     924317 HIT:       1624 MISS:     922693
cpu0_L2C PREFETCH     ACCESS:          0 HIT:          0 MISS:          0
cpu0_L2C WRITE        ACCESS:    2058393 HIT:    2058050 MISS:        343
cpu0_L2C TRANSLATION  ACCESS:      18347 HIT:      14824 MISS:       3523
cpu0_L2C PREFETCH REQUESTED:          0 ISSUED:          0 USEFUL:          0 USELESS:          0
cpu0_L2C AVERAGE MISS LATENCY: 1086 cycles
cpu0_STLB TOTAL        ACCESS:     590548 HIT:     542701 MISS:      47847
cpu0_STLB LOAD         ACCESS:     590548 HIT:     542701 MISS:      47847
cpu0_STLB RFO          ACCESS:          0 HIT:          0 MISS:          0
cpu0_STLB PREFETCH     ACCESS:          0 HIT:          0 MISS:          0
cpu0_STLB WRITE        ACCESS:          0 HIT:          0 MISS:          0
cpu0_STLB TRANSLATION  ACCESS:          0 HIT:          0 MISS:          0
cpu0_STLB PREFETCH REQUESTED:          0 ISSUED:          0 USEFUL:          0 USELESS:          0
cpu0_STLB AVERAGE MISS LATENCY: 367.9 cycles

DRAM Statistics

Channel 0 RQ ROW_BUFFER_HIT:     737364
  ROW_BUFFER_MISS:    1971678
 AVG DBUS CONGESTED CYCLE: 3.976
WQ ROW_BUFFER_HIT: Channel 0 
  ROW_BUFFER_MISS:     375125
  FULL:    1430209
