WARNING: physical memory size is smaller than virtual memory size.

*** ChampSim Multicore Out-of-Order Simulator ***
Warmup Instructions: 50000000
Simulation Instructions: 600000000
Number of CPUs: 1
Page size: 4096

Off-chip DRAM Size: 4 GiB Channels: 1 Width: 64-bit Data Race: 3200 MT/s
Heartbeat CPU 0 instructions: 10000003 cycles: 2881056 heartbeat IPC: 3.471 cumulative IPC: 3.471 (Simulation time: 00 hr 00 min 49 sec)
Heartbeat CPU 0 instructions: 20000003 cycles: 5381056 heartbeat IPC: 4 cumulative IPC: 3.717 (Simulation time: 00 hr 01 min 35 sec)
Heartbeat CPU 0 instructions: 30000003 cycles: 7881056 heartbeat IPC: 4 cumulative IPC: 3.807 (Simulation time: 00 hr 02 min 19 sec)
Heartbeat CPU 0 instructions: 40000003 cycles: 10381056 heartbeat IPC: 4 cumulative IPC: 3.853 (Simulation time: 00 hr 03 min 04 sec)
Heartbeat CPU 0 instructions: 50000003 cycles: 12881056 heartbeat IPC: 4 cumulative IPC: 3.882 (Simulation time: 00 hr 03 min 49 sec)
Warmup finished CPU 0 instructions: 50000003 cycles: 12881057 cumulative IPC: 3.882 (Simulation time: 00 hr 03 min 49 sec)
Warmup complete CPU 0 instructions: 50000003 cycles: 12881057 cumulative IPC: 3.882 (Simulation time: 00 hr 03 min 49 sec)
Heartbeat CPU 0 instructions: 60000000 cycles: 18988094 heartbeat IPC: 1.637 cumulative IPC: 1.637 (Simulation time: 00 hr 05 min 22 sec)
Heartbeat CPU 0 instructions: 70000002 cycles: 25119049 heartbeat IPC: 1.631 cumulative IPC: 1.634 (Simulation time: 00 hr 06 min 54 sec)
Heartbeat CPU 0 instructions: 80000001 cycles: 31232227 heartbeat IPC: 1.636 cumulative IPC: 1.635 (Simulation time: 00 hr 08 min 26 sec)
Heartbeat CPU 0 instructions: 90000004 cycles: 37376985 heartbeat IPC: 1.627 cumulative IPC: 1.633 (Simulation time: 00 hr 10 min 00 sec)
Heartbeat CPU 0 instructions: 100000000 cycles: 41570127 heartbeat IPC: 2.385 cumulative IPC: 1.743 (Simulation time: 00 hr 11 min 09 sec)
Heartbeat CPU 0 instructions: 110000004 cycles: 44564378 heartbeat IPC: 3.34 cumulative IPC: 1.894 (Simulation time: 00 hr 12 min 06 sec)
Heartbeat CPU 0 instructions: 120000002 cycles: 51024858 heartbeat IPC: 1.548 cumulative IPC: 1.835 (Simulation time: 00 hr 13 min 41 sec)
Heartbeat CPU 0 instructions: 130000000 cycles: 58065403 heartbeat IPC: 1.42 cumulative IPC: 1.771 (Simulation time: 00 hr 15 min 22 sec)
Heartbeat CPU 0 instructions: 140000004 cycles: 65082278 heartbeat IPC: 1.425 cumulative IPC: 1.724 (Simulation time: 00 hr 17 min 02 sec)
Heartbeat CPU 0 instructions: 150000001 cycles: 72153532 heartbeat IPC: 1.414 cumulative IPC: 1.687 (Simulation time: 00 hr 18 min 45 sec)
Heartbeat CPU 0 instructions: 160000004 cycles: 79077298 heartbeat IPC: 1.444 cumulative IPC: 1.662 (Simulation time: 00 hr 20 min 26 sec)
Heartbeat CPU 0 instructions: 170000000 cycles: 86153554 heartbeat IPC: 1.413 cumulative IPC: 1.638 (Simulation time: 00 hr 22 min 06 sec)
Heartbeat CPU 0 instructions: 180000000 cycles: 93147992 heartbeat IPC: 1.43 cumulative IPC: 1.62 (Simulation time: 00 hr 23 min 48 sec)
Heartbeat CPU 0 instructions: 190000000 cycles: 99797025 heartbeat IPC: 1.504 cumulative IPC: 1.611 (Simulation time: 00 hr 25 min 26 sec)
Heartbeat CPU 0 instructions: 200000004 cycles: 105995262 heartbeat IPC: 1.613 cumulative IPC: 1.611 (Simulation time: 00 hr 26 min 58 sec)
Heartbeat CPU 0 instructions: 210000000 cycles: 112266302 heartbeat IPC: 1.595 cumulative IPC: 1.61 (Simulation time: 00 hr 28 min 32 sec)
Heartbeat CPU 0 instructions: 220000004 cycles: 118426249 heartbeat IPC: 1.623 cumulative IPC: 1.611 (Simulation time: 00 hr 30 min 02 sec)
Heartbeat CPU 0 instructions: 230000000 cycles: 124644735 heartbeat IPC: 1.608 cumulative IPC: 1.611 (Simulation time: 00 hr 31 min 36 sec)
Heartbeat CPU 0 instructions: 240000003 cycles: 130833360 heartbeat IPC: 1.616 cumulative IPC: 1.611 (Simulation time: 00 hr 33 min 07 sec)
Heartbeat CPU 0 instructions: 250000002 cycles: 137120293 heartbeat IPC: 1.591 cumulative IPC: 1.61 (Simulation time: 00 hr 34 min 41 sec)
Heartbeat CPU 0 instructions: 260000002 cycles: 143442744 heartbeat IPC: 1.582 cumulative IPC: 1.608 (Simulation time: 00 hr 36 min 16 sec)
Heartbeat CPU 0 instructions: 270000003 cycles: 149717694 heartbeat IPC: 1.594 cumulative IPC: 1.608 (Simulation time: 00 hr 37 min 50 sec)
Heartbeat CPU 0 instructions: 280000003 cycles: 156062847 heartbeat IPC: 1.576 cumulative IPC: 1.606 (Simulation time: 00 hr 39 min 25 sec)
Heartbeat CPU 0 instructions: 290000000 cycles: 206188853 heartbeat IPC: 0.1995 cumulative IPC: 1.242 (Simulation time: 00 hr 47 min 45 sec)
Heartbeat CPU 0 instructions: 300000001 cycles: 208691242 heartbeat IPC: 3.996 cumulative IPC: 1.277 (Simulation time: 00 hr 48 min 36 sec)
Heartbeat CPU 0 instructions: 310000000 cycles: 211193694 heartbeat IPC: 3.996 cumulative IPC: 1.311 (Simulation time: 00 hr 49 min 26 sec)
Heartbeat CPU 0 instructions: 320000002 cycles: 213696750 heartbeat IPC: 3.995 cumulative IPC: 1.345 (Simulation time: 00 hr 50 min 18 sec)
Heartbeat CPU 0 instructions: 330000004 cycles: 216199787 heartbeat IPC: 3.995 cumulative IPC: 1.377 (Simulation time: 00 hr 51 min 08 sec)
Heartbeat CPU 0 instructions: 340000004 cycles: 218704103 heartbeat IPC: 3.993 cumulative IPC: 1.409 (Simulation time: 00 hr 52 min 00 sec)
Heartbeat CPU 0 instructions: 350000003 cycles: 221206495 heartbeat IPC: 3.996 cumulative IPC: 1.44 (Simulation time: 00 hr 52 min 52 sec)
Heartbeat CPU 0 instructions: 360000002 cycles: 223710020 heartbeat IPC: 3.994 cumulative IPC: 1.47 (Simulation time: 00 hr 53 min 41 sec)
Heartbeat CPU 0 instructions: 370000004 cycles: 226212369 heartbeat IPC: 3.996 cumulative IPC: 1.5 (Simulation time: 00 hr 54 min 33 sec)
Heartbeat CPU 0 instructions: 380000003 cycles: 228716641 heartbeat IPC: 3.993 cumulative IPC: 1.529 (Simulation time: 00 hr 55 min 22 sec)
Heartbeat CPU 0 instructions: 390000000 cycles: 231219029 heartbeat IPC: 3.996 cumulative IPC: 1.557 (Simulation time: 00 hr 56 min 15 sec)
Heartbeat CPU 0 instructions: 400000002 cycles: 233721410 heartbeat IPC: 3.996 cumulative IPC: 1.585 (Simulation time: 00 hr 57 min 04 sec)
Heartbeat CPU 0 instructions: 410000002 cycles: 236224736 heartbeat IPC: 3.995 cumulative IPC: 1.612 (Simulation time: 00 hr 57 min 53 sec)
Heartbeat CPU 0 instructions: 420000000 cycles: 238728721 heartbeat IPC: 3.994 cumulative IPC: 1.638 (Simulation time: 00 hr 58 min 45 sec)
Heartbeat CPU 0 instructions: 430000001 cycles: 241231120 heartbeat IPC: 3.996 cumulative IPC: 1.664 (Simulation time: 00 hr 59 min 36 sec)
Heartbeat CPU 0 instructions: 440000000 cycles: 243734391 heartbeat IPC: 3.995 cumulative IPC: 1.689 (Simulation time: 01 hr 00 min 25 sec)
Heartbeat CPU 0 instructions: 450000001 cycles: 246237153 heartbeat IPC: 3.996 cumulative IPC: 1.714 (Simulation time: 01 hr 01 min 16 sec)
Heartbeat CPU 0 instructions: 460000002 cycles: 248740461 heartbeat IPC: 3.995 cumulative IPC: 1.738 (Simulation time: 01 hr 02 min 07 sec)
Heartbeat CPU 0 instructions: 470000001 cycles: 251244583 heartbeat IPC: 3.993 cumulative IPC: 1.762 (Simulation time: 01 hr 02 min 56 sec)
Heartbeat CPU 0 instructions: 480000000 cycles: 253746970 heartbeat IPC: 3.996 cumulative IPC: 1.785 (Simulation time: 01 hr 03 min 47 sec)
Heartbeat CPU 0 instructions: 490000001 cycles: 256249360 heartbeat IPC: 3.996 cumulative IPC: 1.808 (Simulation time: 01 hr 04 min 37 sec)
Heartbeat CPU 0 instructions: 500000004 cycles: 258752174 heartbeat IPC: 3.996 cumulative IPC: 1.83 (Simulation time: 01 hr 05 min 27 sec)
Heartbeat CPU 0 instructions: 510000000 cycles: 266440536 heartbeat IPC: 1.301 cumulative IPC: 1.814 (Simulation time: 01 hr 07 min 14 sec)
Heartbeat CPU 0 instructions: 520000002 cycles: 359723000 heartbeat IPC: 0.1072 cumulative IPC: 1.355 (Simulation time: 01 hr 23 min 47 sec)
Heartbeat CPU 0 instructions: 530000001 cycles: 437953646 heartbeat IPC: 0.1278 cumulative IPC: 1.129 (Simulation time: 01 hr 37 min 52 sec)
Heartbeat CPU 0 instructions: 540000000 cycles: 477096458 heartbeat IPC: 0.2555 cumulative IPC: 1.056 (Simulation time: 01 hr 45 min 17 sec)
Heartbeat CPU 0 instructions: 550000001 cycles: 516157181 heartbeat IPC: 0.256 cumulative IPC: 0.9935 (Simulation time: 01 hr 52 min 54 sec)
Heartbeat CPU 0 instructions: 560000003 cycles: 554636734 heartbeat IPC: 0.2599 cumulative IPC: 0.9414 (Simulation time: 02 hr 00 min 14 sec)
Heartbeat CPU 0 instructions: 570000003 cycles: 593730761 heartbeat IPC: 0.2558 cumulative IPC: 0.8952 (Simulation time: 02 hr 07 min 45 sec)
Heartbeat CPU 0 instructions: 580000001 cycles: 632471873 heartbeat IPC: 0.2581 cumulative IPC: 0.8554 (Simulation time: 02 hr 15 min 11 sec)
Heartbeat CPU 0 instructions: 590000000 cycles: 671792029 heartbeat IPC: 0.2543 cumulative IPC: 0.8195 (Simulation time: 02 hr 22 min 48 sec)
*** Reached end of trace: (0, "traces/sp.A.champsimtrace")
Heartbeat CPU 0 instructions: 600000002 cycles: 710209471 heartbeat IPC: 0.2603 cumulative IPC: 0.7887 (Simulation time: 02 hr 30 min 12 sec)
Heartbeat CPU 0 instructions: 610000004 cycles: 734544463 heartbeat IPC: 0.4109 cumulative IPC: 0.776 (Simulation time: 02 hr 34 min 06 sec)
Heartbeat CPU 0 instructions: 620000002 cycles: 738272222 heartbeat IPC: 2.683 cumulative IPC: 0.7858 (Simulation time: 02 hr 35 min 12 sec)
Heartbeat CPU 0 instructions: 630000001 cycles: 744349209 heartbeat IPC: 1.646 cumulative IPC: 0.7929 (Simulation time: 02 hr 36 min 46 sec)
Heartbeat CPU 0 instructions: 640000000 cycles: 750466428 heartbeat IPC: 1.635 cumulative IPC: 0.7999 (Simulation time: 02 hr 38 min 17 sec)
Heartbeat CPU 0 instructions: 650000003 cycles: 756589303 heartbeat IPC: 1.633 cumulative IPC: 0.8068 (Simulation time: 02 hr 39 min 53 sec)
Simulation finished CPU 0 instructions: 600000000 cycles: 743708247 cumulative IPC: 0.8068 (Simulation time: 02 hr 39 min 53 sec)
Simulation complete CPU 0 instructions: 600000000 cycles: 743708247 cumulative IPC: 0.8068 (Simulation time: 02 hr 39 min 53 sec)

ChampSim completed all CPUs

=== Simulation ===
CPU 0 runs traces/sp.A.champsimtrace
Region of Interest Statistics

CPU 0 cumulative IPC: 0.8068 instructions: 600000000 cycles: 743708247
CPU 0 Branch Prediction Accuracy: 98.91% MPKI: 0.226 Average ROB Occupancy at Mispredict: 235.4
Branch type MPKI
BRANCH_DIRECT_JUMP: 5e-06
BRANCH_INDIRECT: 7.67e-05
BRANCH_CONDITIONAL: 0.226
BRANCH_DIRECT_CALL: 2e-05
BRANCH_INDIRECT_CALL: 3.33e-05
BRANCH_RETURN: 3.67e-05

LLC TOTAL        ACCESS:    5278976 HIT:     448332 MISS:    4830644
LLC LOAD         ACCESS:    2306582 HIT:     282582 MISS:    2024000
LLC RFO          ACCESS:     922692 HIT:      28983 MISS:     893709
LLC PREFETCH     ACCESS:          0 HIT:          0 MISS:          0
LLC WRITE        ACCESS:    2046193 HIT:     136631 MISS:    1909562
LLC TRANSLATION  ACCESS:       3509 HIT:        136 MISS:       3373
LLC PREFETCH REQUESTED:          0 ISSUED:          0 USEFUL:          0 USELESS:          0
LLC AVERAGE MISS LATENCY: 735.9 cycles
cpu0_DTLB TOTAL        ACCESS:  125939484 HIT:  125087525 MISS:     851959
cpu0_DTLB LOAD         ACCESS:  125939484 HIT:  125087525 MISS:     851959
cpu0_DTLB RFO          ACCESS:          0 HIT:          0 MISS:          0
cpu0_DTLB PREFETCH     ACCESS:          0 HIT:          0 MISS:          0
cpu0_DTLB WRITE        ACCESS:          0 HIT:          0 MISS:          0
cpu0_DTLB TRANSLATION  ACCESS:          0 HIT:          0 MISS:          0
cpu0_DTLB PREFETCH REQUESTED:          0 ISSUED:          0 USEFUL:          0 USELESS:          0
cpu0_DTLB AVERAGE MISS LATENCY: 20.39 cycles
cpu0_ITLB TOTAL        ACCESS:     224385 HIT:     224147 MISS:        238
cpu0_ITLB LOAD         ACCESS:     224385 HIT:     224147 MISS:        238
cpu0_ITLB RFO          ACCESS:          0 HIT:          0 MISS:          0
cpu0_ITLB PREFETCH     ACCESS:          0 HIT:          0 MISS:          0
cpu0_ITLB WRITE        ACCESS:          0 HIT:          0 MISS:          0
cpu0_ITLB TRANSLATION  ACCESS:          0 HIT:          0 MISS:          0
cpu0_ITLB PREFETCH REQUESTED:          0 ISSUED:          0 USEFUL:          0 USELESS:          0
cpu0_ITLB AVERAGE MISS LATENCY: 161.8 cycles
cpu0_L1D TOTAL        ACCESS:  190473085 HIT:  175758533 MISS:   14714552
cpu0_L1D LOAD         ACCESS:  155230914 HIT:  144636736 MISS:   10594178
cpu0_L1D RFO          ACCESS:          0 HIT:          0 MISS:          0
cpu0_L1D PREFETCH     ACCESS:          0 HIT:          0 MISS:          0
cpu0_L1D WRITE        ACCESS:   35194295 HIT:   31092233 MISS:    4102062
cpu0_L1D TRANSLATION  ACCESS:      47876 HIT:      29564 MISS:      18312
cpu0_L1D PREFETCH REQUESTED:          0 ISSUED:          0 USEFUL:          0 USELESS:          0
cpu0_L1D AVERAGE MISS LATENCY: 175.6 cycles
cpu0_L1I TOTAL        ACCESS:     232675 HIT:     229854 MISS:       2821
cpu0_L1I LOAD         ACCESS:     232675 HIT:     229854 MISS:       2821
cpu0_L1I RFO          ACCESS:          0 HIT:          0 MISS:          0
cpu0_L1I PREFETCH     ACCESS:          0 HIT:          0 MISS:          0
cpu0_L1I WRITE        ACCESS:          0 HIT:          0 MISS:          0
cpu0_L1I TRANSLATION  ACCESS:          0 HIT:          0 MISS:          0
cpu0_L1I PREFETCH REQUESTED:          0 ISSUED:          0 USEFUL:          0 USELESS:          0
cpu0_L1I AVERAGE MISS LATENCY: 414.6 cycles
cpu0_L2C TOTAL        ACCESS:    5438432 HIT:    2205306 MISS:    3233126
cpu0_L2C LOAD         ACCESS:    2437344 HIT:     130761 MISS:    2306583
cpu0_L2C RFO          ACCESS:     924314 HIT:       1622 MISS:     922692
cpu0_L2C PREFETCH     ACCESS:          0 HIT:          0 MISS:          0
cpu0_L2C WRITE        ACCESS:    2058465 HIT:    2058123 MISS:        342
cpu0_L2C TRANSLATION  ACCESS:      18309 HIT:      14800 MISS:       3509
cpu0_L2C PREFETCH REQUESTED:          0 ISSUED:          0 USEFUL:          0 USELESS:          0
cpu0_L2C AVERAGE MISS LATENCY: 1120 cycles
cpu0_STLB TOTAL        ACCESS:     592848 HIT:     545001 MISS:      47847
cpu0_STLB LOAD         ACCESS:     592848 HIT:     545001 MISS:      47847
cpu0_STLB RFO          ACCESS:          0 HIT:          0 MISS:          0
cpu0_STLB PREFETCH     ACCESS:          0 HIT:          0 MISS:          0
cpu0_STLB WRITE        ACCESS:          0 HIT:          0 MISS:          0
cpu0_STLB TRANSLATION  ACCESS:          0 HIT:          0 MISS:          0
cpu0_STLB PREFETCH REQUESTED:          0 ISSUED:          0 USEFUL:          0 USELESS:          0
cpu0_STLB AVERAGE MISS LATENCY: 383.8 cycles

DRAM Statistics

Channel 0 RQ ROW_BUFFER_HIT:     725868
  ROW_BUFFER_MISS:    2161794
 AVG DBUS CONGESTED CYCLE: 3.97
WQ ROW_BUFFER_HIT: Channel 0 
  ROW_BUFFER_MISS:     664882
  FULL:    1251911
