WARNING: physical memory size is smaller than virtual memory size.

*** ChampSim Multicore Out-of-Order Simulator ***
Warmup Instructions: 50000000
Simulation Instructions: 600000000
Number of CPUs: 1
Page size: 4096

CPU 0 Tage branch predictor
Off-chip DRAM Size: 4 GiB Channels: 1 Width: 64-bit Data Race: 3200 MT/s
Heartbeat CPU 0 instructions: 10000003 cycles: 2881057 heartbeat IPC: 3.471 cumulative IPC: 3.471 (Simulation time: 00 hr 00 min 42 sec)
Heartbeat CPU 0 instructions: 20000003 cycles: 5381057 heartbeat IPC: 4 cumulative IPC: 3.717 (Simulation time: 00 hr 01 min 22 sec)
Heartbeat CPU 0 instructions: 30000003 cycles: 7881057 heartbeat IPC: 4 cumulative IPC: 3.807 (Simulation time: 00 hr 02 min 02 sec)
Heartbeat CPU 0 instructions: 40000003 cycles: 10381057 heartbeat IPC: 4 cumulative IPC: 3.853 (Simulation time: 00 hr 02 min 42 sec)
Heartbeat CPU 0 instructions: 50000003 cycles: 12881057 heartbeat IPC: 4 cumulative IPC: 3.882 (Simulation time: 00 hr 03 min 22 sec)
Warmup finished CPU 0 instructions: 50000003 cycles: 12881058 cumulative IPC: 3.882 (Simulation time: 00 hr 03 min 22 sec)
Warmup complete CPU 0 instructions: 50000003 cycles: 12881058 cumulative IPC: 3.882 (Simulation time: 00 hr 03 min 22 sec)
Heartbeat CPU 0 instructions: 60000000 cycles: 18779990 heartbeat IPC: 1.695 cumulative IPC: 1.695 (Simulation time: 00 hr 04 min 36 sec)
Heartbeat CPU 0 instructions: 70000000 cycles: 24705633 heartbeat IPC: 1.688 cumulative IPC: 1.691 (Simulation time: 00 hr 05 min 55 sec)
Heartbeat CPU 0 instructions: 80000001 cycles: 30564666 heartbeat IPC: 1.707 cumulative IPC: 1.696 (Simulation time: 00 hr 07 min 10 sec)
Heartbeat CPU 0 instructions: 90000003 cycles: 36458457 heartbeat IPC: 1.697 cumulative IPC: 1.697 (Simulation time: 00 hr 08 min 25 sec)
Heartbeat CPU 0 instructions: 100000000 cycles: 40575391 heartbeat IPC: 2.429 cumulative IPC: 1.805 (Simulation time: 00 hr 09 min 25 sec)
Heartbeat CPU 0 instructions: 110000001 cycles: 43077607 heartbeat IPC: 3.996 cumulative IPC: 1.987 (Simulation time: 00 hr 10 min 12 sec)
Heartbeat CPU 0 instructions: 120000001 cycles: 45590197 heartbeat IPC: 3.98 cumulative IPC: 2.14 (Simulation time: 00 hr 10 min 59 sec)
Heartbeat CPU 0 instructions: 130000002 cycles: 48963377 heartbeat IPC: 2.965 cumulative IPC: 2.217 (Simulation time: 00 hr 11 min 52 sec)
Heartbeat CPU 0 instructions: 140000004 cycles: 55785237 heartbeat IPC: 1.466 cumulative IPC: 2.098 (Simulation time: 00 hr 13 min 16 sec)
Heartbeat CPU 0 instructions: 150000000 cycles: 62828754 heartbeat IPC: 1.42 cumulative IPC: 2.002 (Simulation time: 00 hr 14 min 38 sec)
Heartbeat CPU 0 instructions: 160000003 cycles: 69854541 heartbeat IPC: 1.423 cumulative IPC: 1.931 (Simulation time: 00 hr 16 min 02 sec)
Heartbeat CPU 0 instructions: 170000001 cycles: 76903441 heartbeat IPC: 1.419 cumulative IPC: 1.874 (Simulation time: 00 hr 17 min 25 sec)
Heartbeat CPU 0 instructions: 180000002 cycles: 83927821 heartbeat IPC: 1.424 cumulative IPC: 1.83 (Simulation time: 00 hr 18 min 46 sec)
Heartbeat CPU 0 instructions: 190000002 cycles: 90335860 heartbeat IPC: 1.561 cumulative IPC: 1.808 (Simulation time: 00 hr 20 min 03 sec)
Heartbeat CPU 0 instructions: 200000000 cycles: 95176835 heartbeat IPC: 2.066 cumulative IPC: 1.823 (Simulation time: 00 hr 21 min 08 sec)
Heartbeat CPU 0 instructions: 210000001 cycles: 100028292 heartbeat IPC: 2.061 cumulative IPC: 1.836 (Simulation time: 00 hr 22 min 15 sec)
Heartbeat CPU 0 instructions: 220000001 cycles: 104915974 heartbeat IPC: 2.046 cumulative IPC: 1.847 (Simulation time: 00 hr 23 min 21 sec)
Heartbeat CPU 0 instructions: 230000004 cycles: 109821565 heartbeat IPC: 2.038 cumulative IPC: 1.857 (Simulation time: 00 hr 24 min 30 sec)
Heartbeat CPU 0 instructions: 240000003 cycles: 114676937 heartbeat IPC: 2.06 cumulative IPC: 1.866 (Simulation time: 00 hr 25 min 36 sec)
Heartbeat CPU 0 instructions: 250000001 cycles: 119579823 heartbeat IPC: 2.04 cumulative IPC: 1.874 (Simulation time: 00 hr 26 min 41 sec)
Heartbeat CPU 0 instructions: 260000002 cycles: 124458611 heartbeat IPC: 2.05 cumulative IPC: 1.882 (Simulation time: 00 hr 27 min 46 sec)
Heartbeat CPU 0 instructions: 270000002 cycles: 129339273 heartbeat IPC: 2.049 cumulative IPC: 1.889 (Simulation time: 00 hr 28 min 52 sec)
Heartbeat CPU 0 instructions: 280000000 cycles: 134243964 heartbeat IPC: 2.039 cumulative IPC: 1.895 (Simulation time: 00 hr 29 min 57 sec)
Heartbeat CPU 0 instructions: 290000001 cycles: 178920095 heartbeat IPC: 0.2238 cumulative IPC: 1.445 (Simulation time: 00 hr 35 min 20 sec)
Heartbeat CPU 0 instructions: 300000002 cycles: 181420226 heartbeat IPC: 4 cumulative IPC: 1.483 (Simulation time: 00 hr 36 min 05 sec)
Heartbeat CPU 0 instructions: 310000001 cycles: 183920742 heartbeat IPC: 3.999 cumulative IPC: 1.52 (Simulation time: 00 hr 36 min 53 sec)
Heartbeat CPU 0 instructions: 320000001 cycles: 186421632 heartbeat IPC: 3.999 cumulative IPC: 1.556 (Simulation time: 00 hr 37 min 39 sec)
Heartbeat CPU 0 instructions: 330000003 cycles: 188921683 heartbeat IPC: 4 cumulative IPC: 1.591 (Simulation time: 00 hr 38 min 25 sec)
Heartbeat CPU 0 instructions: 340000000 cycles: 191421967 heartbeat IPC: 4 cumulative IPC: 1.624 (Simulation time: 00 hr 39 min 11 sec)
Heartbeat CPU 0 instructions: 350000004 cycles: 193922957 heartbeat IPC: 3.998 cumulative IPC: 1.657 (Simulation time: 00 hr 39 min 57 sec)
Heartbeat CPU 0 instructions: 360000004 cycles: 196423845 heartbeat IPC: 3.999 cumulative IPC: 1.689 (Simulation time: 00 hr 40 min 44 sec)
Heartbeat CPU 0 instructions: 370000000 cycles: 198925870 heartbeat IPC: 3.997 cumulative IPC: 1.72 (Simulation time: 00 hr 41 min 29 sec)
Heartbeat CPU 0 instructions: 380000004 cycles: 201427014 heartbeat IPC: 3.998 cumulative IPC: 1.75 (Simulation time: 00 hr 42 min 12 sec)
Heartbeat CPU 0 instructions: 390000001 cycles: 203927926 heartbeat IPC: 3.999 cumulative IPC: 1.78 (Simulation time: 00 hr 42 min 56 sec)
Heartbeat CPU 0 instructions: 400000003 cycles: 206429556 heartbeat IPC: 3.997 cumulative IPC: 1.808 (Simulation time: 00 hr 43 min 40 sec)
Heartbeat CPU 0 instructions: 410000003 cycles: 208930841 heartbeat IPC: 3.998 cumulative IPC: 1.836 (Simulation time: 00 hr 44 min 24 sec)
Heartbeat CPU 0 instructions: 420000002 cycles: 211432253 heartbeat IPC: 3.998 cumulative IPC: 1.863 (Simulation time: 00 hr 45 min 09 sec)
Heartbeat CPU 0 instructions: 430000000 cycles: 213932337 heartbeat IPC: 4 cumulative IPC: 1.89 (Simulation time: 00 hr 45 min 55 sec)
Heartbeat CPU 0 instructions: 440000001 cycles: 216432933 heartbeat IPC: 3.999 cumulative IPC: 1.916 (Simulation time: 00 hr 46 min 40 sec)
Heartbeat CPU 0 instructions: 450000000 cycles: 218933826 heartbeat IPC: 3.999 cumulative IPC: 1.941 (Simulation time: 00 hr 47 min 26 sec)
Heartbeat CPU 0 instructions: 460000003 cycles: 221434405 heartbeat IPC: 3.999 cumulative IPC: 1.966 (Simulation time: 00 hr 48 min 11 sec)
Heartbeat CPU 0 instructions: 470000001 cycles: 223934945 heartbeat IPC: 3.999 cumulative IPC: 1.99 (Simulation time: 00 hr 48 min 57 sec)
Heartbeat CPU 0 instructions: 480000003 cycles: 226435028 heartbeat IPC: 4 cumulative IPC: 2.014 (Simulation time: 00 hr 49 min 43 sec)
Heartbeat CPU 0 instructions: 490000003 cycles: 228935482 heartbeat IPC: 3.999 cumulative IPC: 2.037 (Simulation time: 00 hr 50 min 27 sec)
Heartbeat CPU 0 instructions: 500000002 cycles: 231435567 heartbeat IPC: 4 cumulative IPC: 2.059 (Simulation time: 00 hr 51 min 12 sec)
Heartbeat CPU 0 instructions: 510000003 cycles: 239434048 heartbeat IPC: 1.25 cumulative IPC: 2.03 (Simulation time: 00 hr 52 min 37 sec)
Heartbeat CPU 0 instructions: 520000001 cycles: 338033279 heartbeat IPC: 0.1014 cumulative IPC: 1.445 (Simulation time: 01 hr 05 min 41 sec)
Heartbeat CPU 0 instructions: 530000002 cycles: 413557917 heartbeat IPC: 0.1324 cumulative IPC: 1.198 (Simulation time: 01 hr 15 min 45 sec)
Heartbeat CPU 0 instructions: 540000002 cycles: 452725958 heartbeat IPC: 0.2553 cumulative IPC: 1.114 (Simulation time: 01 hr 21 min 17 sec)
Heartbeat CPU 0 instructions: 550000002 cycles: 491103943 heartbeat IPC: 0.2606 cumulative IPC: 1.046 (Simulation time: 01 hr 26 min 48 sec)
Heartbeat CPU 0 instructions: 560000004 cycles: 529638100 heartbeat IPC: 0.2595 cumulative IPC: 0.9869 (Simulation time: 01 hr 32 min 19 sec)
Heartbeat CPU 0 instructions: 570000000 cycles: 567733193 heartbeat IPC: 0.2625 cumulative IPC: 0.9372 (Simulation time: 01 hr 37 min 47 sec)
Heartbeat CPU 0 instructions: 580000001 cycles: 606723924 heartbeat IPC: 0.2565 cumulative IPC: 0.8925 (Simulation time: 01 hr 43 min 19 sec)
Heartbeat CPU 0 instructions: 590000004 cycles: 646609440 heartbeat IPC: 0.2507 cumulative IPC: 0.8521 (Simulation time: 01 hr 49 min 02 sec)
*** Reached end of trace: (0, "traces/sp.A.champsimtrace")
Heartbeat CPU 0 instructions: 600000002 cycles: 685927323 heartbeat IPC: 0.2543 cumulative IPC: 0.8172 (Simulation time: 01 hr 54 min 42 sec)
Heartbeat CPU 0 instructions: 610000000 cycles: 706022698 heartbeat IPC: 0.4976 cumulative IPC: 0.8079 (Simulation time: 01 hr 57 min 06 sec)
Heartbeat CPU 0 instructions: 620000003 cycles: 708524440 heartbeat IPC: 3.997 cumulative IPC: 0.8194 (Simulation time: 01 hr 57 min 50 sec)
Heartbeat CPU 0 instructions: 630000003 cycles: 711026460 heartbeat IPC: 3.997 cumulative IPC: 0.8308 (Simulation time: 01 hr 58 min 37 sec)
Heartbeat CPU 0 instructions: 640000004 cycles: 715097554 heartbeat IPC: 2.456 cumulative IPC: 0.8402 (Simulation time: 01 hr 59 min 37 sec)
Heartbeat CPU 0 instructions: 650000001 cycles: 720990595 heartbeat IPC: 1.697 cumulative IPC: 0.8473 (Simulation time: 02 hr 00 min 53 sec)
Simulation finished CPU 0 instructions: 600000003 cycles: 708109539 cumulative IPC: 0.8473 (Simulation time: 02 hr 00 min 53 sec)
Simulation complete CPU 0 instructions: 600000003 cycles: 708109539 cumulative IPC: 0.8473 (Simulation time: 02 hr 00 min 53 sec)

ChampSim completed all CPUs

=== Simulation ===
CPU 0 runs traces/sp.A.champsimtrace
Region of Interest Statistics

CPU 0 cumulative IPC: 0.8473 instructions: 600000003 cycles: 708109539
CPU 0 Branch Prediction Accuracy: 99.98% MPKI: 0.003913 Average ROB Occupancy at Mispredict: 107.6
Branch type MPKI
BRANCH_DIRECT_JUMP: 5e-06
BRANCH_INDIRECT: 7.5e-05
BRANCH_CONDITIONAL: 0.00374
BRANCH_DIRECT_CALL: 2e-05
BRANCH_INDIRECT_CALL: 3.17e-05
BRANCH_RETURN: 3.67e-05

LLC TOTAL        ACCESS:    5274071 HIT:    1200962 MISS:    4073109
LLC LOAD         ACCESS:    2303697 HIT:     423143 MISS:    1880554
LLC RFO          ACCESS:     922635 HIT:      59608 MISS:     863027
LLC PREFETCH     ACCESS:          0 HIT:          0 MISS:          0
LLC WRITE        ACCESS:    2044259 HIT:     717793 MISS:    1326466
LLC TRANSLATION  ACCESS:       3480 HIT:        418 MISS:       3062
LLC PREFETCH REQUESTED:          0 ISSUED:          0 USEFUL:          0 USELESS:          0
LLC AVERAGE MISS LATENCY: 845.6 cycles
cpu0_DTLB TOTAL        ACCESS:  127856705 HIT:  126878498 MISS:     978207
cpu0_DTLB LOAD         ACCESS:  127856705 HIT:  126878498 MISS:     978207
cpu0_DTLB RFO          ACCESS:          0 HIT:          0 MISS:          0
cpu0_DTLB PREFETCH     ACCESS:          0 HIT:          0 MISS:          0
cpu0_DTLB WRITE        ACCESS:          0 HIT:          0 MISS:          0
cpu0_DTLB TRANSLATION  ACCESS:          0 HIT:          0 MISS:          0
cpu0_DTLB PREFETCH REQUESTED:          0 ISSUED:          0 USEFUL:          0 USELESS:          0
cpu0_DTLB AVERAGE MISS LATENCY: 17.93 cycles
cpu0_ITLB TOTAL        ACCESS:     238117 HIT:     237864 MISS:        253
cpu0_ITLB LOAD         ACCESS:     238117 HIT:     237864 MISS:        253
cpu0_ITLB RFO          ACCESS:          0 HIT:          0 MISS:          0
cpu0_ITLB PREFETCH     ACCESS:          0 HIT:          0 MISS:          0
cpu0_ITLB WRITE        ACCESS:          0 HIT:          0 MISS:          0
cpu0_ITLB TRANSLATION  ACCESS:          0 HIT:          0 MISS:          0
cpu0_ITLB PREFETCH REQUESTED:          0 ISSUED:          0 USEFUL:          0 USELESS:          0
cpu0_ITLB AVERAGE MISS LATENCY: 285.7 cycles
cpu0_L1D TOTAL        ACCESS:  193727426 HIT:  179091665 MISS:   14635761
cpu0_L1D LOAD         ACCESS:  158485363 HIT:  148014317 MISS:   10471046
cpu0_L1D RFO          ACCESS:          0 HIT:          0 MISS:          0
cpu0_L1D PREFETCH     ACCESS:          0 HIT:          0 MISS:          0
cpu0_L1D WRITE        ACCESS:   35194184 HIT:   31047753 MISS:    4146431
cpu0_L1D TRANSLATION  ACCESS:      47879 HIT:      29595 MISS:      18284
cpu0_L1D PREFETCH REQUESTED:          0 ISSUED:          0 USEFUL:          0 USELESS:          0
cpu0_L1D AVERAGE MISS LATENCY: 171.3 cycles
cpu0_L1I TOTAL        ACCESS:     248936 HIT:     245902 MISS:       3034
cpu0_L1I LOAD         ACCESS:     248936 HIT:     245902 MISS:       3034
cpu0_L1I RFO          ACCESS:          0 HIT:          0 MISS:          0
cpu0_L1I PREFETCH     ACCESS:          0 HIT:          0 MISS:          0
cpu0_L1I WRITE        ACCESS:          0 HIT:          0 MISS:          0
cpu0_L1I TRANSLATION  ACCESS:          0 HIT:          0 MISS:          0
cpu0_L1I PREFETCH REQUESTED:          0 ISSUED:          0 USEFUL:          0 USELESS:          0
cpu0_L1I AVERAGE MISS LATENCY: 547.5 cycles
cpu0_L2C TOTAL        ACCESS:    5444032 HIT:    2213844 MISS:    3230188
cpu0_L2C LOAD         ACCESS:    2445758 HIT:     142053 MISS:    2303705
cpu0_L2C RFO          ACCESS:     923515 HIT:        880 MISS:     922635
cpu0_L2C PREFETCH     ACCESS:          0 HIT:          0 MISS:          0
cpu0_L2C WRITE        ACCESS:    2056478 HIT:    2056110 MISS:        368
cpu0_L2C TRANSLATION  ACCESS:      18281 HIT:      14801 MISS:       3480
cpu0_L2C PREFETCH REQUESTED:          0 ISSUED:          0 USEFUL:          0 USELESS:          0
cpu0_L2C AVERAGE MISS LATENCY: 1087 cycles
cpu0_STLB TOTAL        ACCESS:     735022 HIT:     687173 MISS:      47849
cpu0_STLB LOAD         ACCESS:     735022 HIT:     687173 MISS:      47849
cpu0_STLB RFO          ACCESS:          0 HIT:          0 MISS:          0
cpu0_STLB PREFETCH     ACCESS:          0 HIT:          0 MISS:          0
cpu0_STLB WRITE        ACCESS:          0 HIT:          0 MISS:          0
cpu0_STLB TRANSLATION  ACCESS:          0 HIT:          0 MISS:          0
cpu0_STLB PREFETCH REQUESTED:          0 ISSUED:          0 USEFUL:          0 USELESS:          0
cpu0_STLB AVERAGE MISS LATENCY: 351.9 cycles

DRAM Statistics

Channel 0 RQ ROW_BUFFER_HIT:     721767
  ROW_BUFFER_MISS:    1955794
 AVG DBUS CONGESTED CYCLE: 3.971
WQ ROW_BUFFER_HIT: Channel 0 
  ROW_BUFFER_MISS:     666764
  FULL:    1078166
