WARNING: physical memory size is smaller than virtual memory size.

*** ChampSim Multicore Out-of-Order Simulator ***
Warmup Instructions: 50000000
Simulation Instructions: 600000000
Number of CPUs: 1
Page size: 4096

CPU 0 Tage branch predictor
Off-chip DRAM Size: 4 GiB Channels: 1 Width: 64-bit Data Race: 3200 MT/s
Heartbeat CPU 0 instructions: 10000000 cycles: 2881055 heartbeat IPC: 3.471 cumulative IPC: 3.471 (Simulation time: 00 hr 00 min 45 sec)
Heartbeat CPU 0 instructions: 20000000 cycles: 5381055 heartbeat IPC: 4 cumulative IPC: 3.717 (Simulation time: 00 hr 01 min 25 sec)
Heartbeat CPU 0 instructions: 30000000 cycles: 7881055 heartbeat IPC: 4 cumulative IPC: 3.807 (Simulation time: 00 hr 02 min 05 sec)
Heartbeat CPU 0 instructions: 40000000 cycles: 10381055 heartbeat IPC: 4 cumulative IPC: 3.853 (Simulation time: 00 hr 02 min 45 sec)
Heartbeat CPU 0 instructions: 50000000 cycles: 12881055 heartbeat IPC: 4 cumulative IPC: 3.882 (Simulation time: 00 hr 03 min 25 sec)
Warmup finished CPU 0 instructions: 50000000 cycles: 12881056 cumulative IPC: 3.882 (Simulation time: 00 hr 03 min 25 sec)
Warmup complete CPU 0 instructions: 50000000 cycles: 12881056 cumulative IPC: 3.882 (Simulation time: 00 hr 03 min 25 sec)
Heartbeat CPU 0 instructions: 60000000 cycles: 16258905 heartbeat IPC: 2.96 cumulative IPC: 2.96 (Simulation time: 00 hr 04 min 18 sec)
Heartbeat CPU 0 instructions: 70000004 cycles: 19615462 heartbeat IPC: 2.979 cumulative IPC: 2.97 (Simulation time: 00 hr 05 min 11 sec)
Heartbeat CPU 0 instructions: 80000000 cycles: 22953614 heartbeat IPC: 2.996 cumulative IPC: 2.978 (Simulation time: 00 hr 06 min 03 sec)
Heartbeat CPU 0 instructions: 90000003 cycles: 26473090 heartbeat IPC: 2.841 cumulative IPC: 2.943 (Simulation time: 00 hr 06 min 58 sec)
Heartbeat CPU 0 instructions: 100000000 cycles: 31806738 heartbeat IPC: 1.875 cumulative IPC: 2.642 (Simulation time: 00 hr 08 min 07 sec)
Heartbeat CPU 0 instructions: 110000001 cycles: 38464728 heartbeat IPC: 1.502 cumulative IPC: 2.345 (Simulation time: 00 hr 09 min 27 sec)
Heartbeat CPU 0 instructions: 120000003 cycles: 45185024 heartbeat IPC: 1.488 cumulative IPC: 2.167 (Simulation time: 00 hr 10 min 47 sec)
Heartbeat CPU 0 instructions: 130000002 cycles: 51864565 heartbeat IPC: 1.497 cumulative IPC: 2.052 (Simulation time: 00 hr 12 min 06 sec)
Heartbeat CPU 0 instructions: 140000004 cycles: 58621377 heartbeat IPC: 1.48 cumulative IPC: 1.968 (Simulation time: 00 hr 13 min 27 sec)
Heartbeat CPU 0 instructions: 150000000 cycles: 65360174 heartbeat IPC: 1.484 cumulative IPC: 1.906 (Simulation time: 00 hr 14 min 47 sec)
Heartbeat CPU 0 instructions: 160000001 cycles: 72106980 heartbeat IPC: 1.482 cumulative IPC: 1.857 (Simulation time: 00 hr 16 min 06 sec)
Heartbeat CPU 0 instructions: 170000001 cycles: 78875046 heartbeat IPC: 1.478 cumulative IPC: 1.818 (Simulation time: 00 hr 17 min 27 sec)
Heartbeat CPU 0 instructions: 180000002 cycles: 85650767 heartbeat IPC: 1.476 cumulative IPC: 1.786 (Simulation time: 00 hr 18 min 48 sec)
Heartbeat CPU 0 instructions: 190000002 cycles: 91814549 heartbeat IPC: 1.622 cumulative IPC: 1.774 (Simulation time: 00 hr 20 min 03 sec)
Heartbeat CPU 0 instructions: 200000004 cycles: 96703645 heartbeat IPC: 2.045 cumulative IPC: 1.789 (Simulation time: 00 hr 21 min 08 sec)
Heartbeat CPU 0 instructions: 210000001 cycles: 101872244 heartbeat IPC: 1.935 cumulative IPC: 1.798 (Simulation time: 00 hr 22 min 15 sec)
Heartbeat CPU 0 instructions: 220000001 cycles: 107416958 heartbeat IPC: 1.804 cumulative IPC: 1.798 (Simulation time: 00 hr 23 min 26 sec)
Heartbeat CPU 0 instructions: 230000004 cycles: 113560834 heartbeat IPC: 1.628 cumulative IPC: 1.788 (Simulation time: 00 hr 24 min 45 sec)
Heartbeat CPU 0 instructions: 240000003 cycles: 120214067 heartbeat IPC: 1.503 cumulative IPC: 1.77 (Simulation time: 00 hr 26 min 11 sec)
Heartbeat CPU 0 instructions: 250000002 cycles: 127019164 heartbeat IPC: 1.469 cumulative IPC: 1.752 (Simulation time: 00 hr 27 min 34 sec)
Heartbeat CPU 0 instructions: 260000002 cycles: 133742932 heartbeat IPC: 1.487 cumulative IPC: 1.738 (Simulation time: 00 hr 28 min 56 sec)
Heartbeat CPU 0 instructions: 270000003 cycles: 140495789 heartbeat IPC: 1.481 cumulative IPC: 1.724 (Simulation time: 00 hr 30 min 20 sec)
Heartbeat CPU 0 instructions: 280000000 cycles: 147305224 heartbeat IPC: 1.469 cumulative IPC: 1.711 (Simulation time: 00 hr 31 min 40 sec)
Heartbeat CPU 0 instructions: 290000001 cycles: 211233508 heartbeat IPC: 0.1564 cumulative IPC: 1.21 (Simulation time: 00 hr 39 min 26 sec)
Heartbeat CPU 0 instructions: 300000002 cycles: 213733636 heartbeat IPC: 4 cumulative IPC: 1.245 (Simulation time: 00 hr 40 min 10 sec)
Heartbeat CPU 0 instructions: 310000001 cycles: 216233732 heartbeat IPC: 4 cumulative IPC: 1.279 (Simulation time: 00 hr 40 min 54 sec)
Heartbeat CPU 0 instructions: 320000001 cycles: 218733861 heartbeat IPC: 4 cumulative IPC: 1.312 (Simulation time: 00 hr 41 min 39 sec)
Heartbeat CPU 0 instructions: 330000003 cycles: 221233904 heartbeat IPC: 4 cumulative IPC: 1.344 (Simulation time: 00 hr 42 min 24 sec)
Heartbeat CPU 0 instructions: 340000000 cycles: 223733989 heartbeat IPC: 4 cumulative IPC: 1.375 (Simulation time: 00 hr 43 min 09 sec)
Heartbeat CPU 0 instructions: 350000004 cycles: 226234076 heartbeat IPC: 4 cumulative IPC: 1.406 (Simulation time: 00 hr 43 min 53 sec)
Heartbeat CPU 0 instructions: 360000004 cycles: 228734484 heartbeat IPC: 3.999 cumulative IPC: 1.436 (Simulation time: 00 hr 44 min 36 sec)
Heartbeat CPU 0 instructions: 370000000 cycles: 231234569 heartbeat IPC: 4 cumulative IPC: 1.466 (Simulation time: 00 hr 45 min 21 sec)
Heartbeat CPU 0 instructions: 380000004 cycles: 233734655 heartbeat IPC: 4 cumulative IPC: 1.494 (Simulation time: 00 hr 46 min 05 sec)
Heartbeat CPU 0 instructions: 390000001 cycles: 236234740 heartbeat IPC: 4 cumulative IPC: 1.522 (Simulation time: 00 hr 46 min 49 sec)
Heartbeat CPU 0 instructions: 400000003 cycles: 238734826 heartbeat IPC: 4 cumulative IPC: 1.55 (Simulation time: 00 hr 47 min 33 sec)
Heartbeat CPU 0 instructions: 410000003 cycles: 241234955 heartbeat IPC: 4 cumulative IPC: 1.577 (Simulation time: 00 hr 48 min 18 sec)
Heartbeat CPU 0 instructions: 420000002 cycles: 243735042 heartbeat IPC: 4 cumulative IPC: 1.603 (Simulation time: 00 hr 49 min 03 sec)
Heartbeat CPU 0 instructions: 430000000 cycles: 246235127 heartbeat IPC: 4 cumulative IPC: 1.628 (Simulation time: 00 hr 49 min 47 sec)
Heartbeat CPU 0 instructions: 440000001 cycles: 248735213 heartbeat IPC: 4 cumulative IPC: 1.654 (Simulation time: 00 hr 50 min 33 sec)
Heartbeat CPU 0 instructions: 450000000 cycles: 251235297 heartbeat IPC: 4 cumulative IPC: 1.678 (Simulation time: 00 hr 51 min 18 sec)
Heartbeat CPU 0 instructions: 460000003 cycles: 253735340 heartbeat IPC: 4 cumulative IPC: 1.702 (Simulation time: 00 hr 52 min 04 sec)
Heartbeat CPU 0 instructions: 470000001 cycles: 256235427 heartbeat IPC: 4 cumulative IPC: 1.726 (Simulation time: 00 hr 52 min 49 sec)
Heartbeat CPU 0 instructions: 480000003 cycles: 258735511 heartbeat IPC: 4 cumulative IPC: 1.749 (Simulation time: 00 hr 53 min 34 sec)
Heartbeat CPU 0 instructions: 490000003 cycles: 261235598 heartbeat IPC: 4 cumulative IPC: 1.772 (Simulation time: 00 hr 54 min 20 sec)
Heartbeat CPU 0 instructions: 500000002 cycles: 263735684 heartbeat IPC: 4 cumulative IPC: 1.794 (Simulation time: 00 hr 55 min 04 sec)
Heartbeat CPU 0 instructions: 510000003 cycles: 269014530 heartbeat IPC: 1.894 cumulative IPC: 1.796 (Simulation time: 00 hr 56 min 09 sec)
Heartbeat CPU 0 instructions: 520000001 cycles: 379520428 heartbeat IPC: 0.09049 cumulative IPC: 1.282 (Simulation time: 01 hr 10 min 49 sec)
Heartbeat CPU 0 instructions: 530000000 cycles: 464026638 heartbeat IPC: 0.1183 cumulative IPC: 1.064 (Simulation time: 01 hr 22 min 04 sec)
Heartbeat CPU 0 instructions: 540000000 cycles: 487532866 heartbeat IPC: 0.4254 cumulative IPC: 1.032 (Simulation time: 01 hr 25 min 33 sec)
Heartbeat CPU 0 instructions: 550000002 cycles: 510908395 heartbeat IPC: 0.4278 cumulative IPC: 1.004 (Simulation time: 01 hr 29 min 03 sec)
Heartbeat CPU 0 instructions: 560000002 cycles: 534466897 heartbeat IPC: 0.4245 cumulative IPC: 0.9778 (Simulation time: 01 hr 32 min 33 sec)
Heartbeat CPU 0 instructions: 570000002 cycles: 557918959 heartbeat IPC: 0.4264 cumulative IPC: 0.9541 (Simulation time: 01 hr 36 min 04 sec)
Heartbeat CPU 0 instructions: 580000003 cycles: 580369674 heartbeat IPC: 0.4454 cumulative IPC: 0.9339 (Simulation time: 01 hr 39 min 29 sec)
Heartbeat CPU 0 instructions: 590000004 cycles: 603271223 heartbeat IPC: 0.4367 cumulative IPC: 0.9146 (Simulation time: 01 hr 42 min 58 sec)
*** Reached end of trace: (0, "traces/sp.A.champsimtrace")
Heartbeat CPU 0 instructions: 600000002 cycles: 626079297 heartbeat IPC: 0.4384 cumulative IPC: 0.8969 (Simulation time: 01 hr 46 min 30 sec)
Heartbeat CPU 0 instructions: 610000000 cycles: 652033724 heartbeat IPC: 0.3853 cumulative IPC: 0.8762 (Simulation time: 01 hr 49 min 32 sec)
Heartbeat CPU 0 instructions: 620000003 cycles: 655367457 heartbeat IPC: 3 cumulative IPC: 0.8872 (Simulation time: 01 hr 50 min 26 sec)
Heartbeat CPU 0 instructions: 630000003 cycles: 658716749 heartbeat IPC: 2.986 cumulative IPC: 0.8981 (Simulation time: 01 hr 51 min 19 sec)
Heartbeat CPU 0 instructions: 640000004 cycles: 662082364 heartbeat IPC: 2.971 cumulative IPC: 0.9088 (Simulation time: 01 hr 52 min 13 sec)
Heartbeat CPU 0 instructions: 650000000 cycles: 665456161 heartbeat IPC: 2.964 cumulative IPC: 0.9194 (Simulation time: 01 hr 53 min 08 sec)
Simulation finished CPU 0 instructions: 600000000 cycles: 652575106 cumulative IPC: 0.9194 (Simulation time: 01 hr 53 min 08 sec)
Simulation complete CPU 0 instructions: 600000000 cycles: 652575106 cumulative IPC: 0.9194 (Simulation time: 01 hr 53 min 08 sec)

ChampSim completed all CPUs

=== Simulation ===
CPU 0 runs traces/sp.A.champsimtrace
Region of Interest Statistics

CPU 0 cumulative IPC: 0.9194 instructions: 600000000 cycles: 652575106
CPU 0 Branch Prediction Accuracy: 99.98% MPKI: 0.003913 Average ROB Occupancy at Mispredict: 105.4
Branch type MPKI
BRANCH_DIRECT_JUMP: 5e-06
BRANCH_INDIRECT: 7.5e-05
BRANCH_CONDITIONAL: 0.00375
BRANCH_DIRECT_CALL: 2e-05
BRANCH_INDIRECT_CALL: 3.17e-05
BRANCH_RETURN: 3.67e-05

LLC TOTAL        ACCESS:    8162879 HIT:    5154192 MISS:    3008687
LLC LOAD         ACCESS:    2304443 HIT:    1496928 MISS:     807515
LLC RFO          ACCESS:     922633 HIT:      10384 MISS:     912249
LLC PREFETCH     ACCESS:    2886543 HIT:    1599466 MISS:    1287077
LLC WRITE        ACCESS:    2045785 HIT:    2045648 MISS:        137
LLC TRANSLATION  ACCESS:       3475 HIT:       1766 MISS:       1709
LLC PREFETCH REQUESTED:    2886543 ISSUED:    2886543 USEFUL:    1027780 USELESS:      18363
LLC AVERAGE MISS LATENCY: 1460 cycles
cpu0_DTLB TOTAL        ACCESS:  127356293 HIT:  126367808 MISS:     988485
cpu0_DTLB LOAD         ACCESS:  127356293 HIT:  126367808 MISS:     988485
cpu0_DTLB RFO          ACCESS:          0 HIT:          0 MISS:          0
cpu0_DTLB PREFETCH     ACCESS:          0 HIT:          0 MISS:          0
cpu0_DTLB WRITE        ACCESS:          0 HIT:          0 MISS:          0
cpu0_DTLB TRANSLATION  ACCESS:          0 HIT:          0 MISS:          0
cpu0_DTLB PREFETCH REQUESTED:          0 ISSUED:          0 USEFUL:          0 USELESS:          0
cpu0_DTLB AVERAGE MISS LATENCY: 15.94 cycles
cpu0_ITLB TOTAL        ACCESS:     240286 HIT:     240031 MISS:        255
cpu0_ITLB LOAD         ACCESS:     240286 HIT:     240031 MISS:        255
cpu0_ITLB RFO          ACCESS:          0 HIT:          0 MISS:          0
cpu0_ITLB PREFETCH     ACCESS:          0 HIT:          0 MISS:          0
cpu0_ITLB WRITE        ACCESS:          0 HIT:          0 MISS:          0
cpu0_ITLB TRANSLATION  ACCESS:          0 HIT:          0 MISS:          0
cpu0_ITLB PREFETCH REQUESTED:          0 ISSUED:          0 USEFUL:          0 USELESS:          0
cpu0_ITLB AVERAGE MISS LATENCY: 316.6 cycles
cpu0_L1D TOTAL        ACCESS:  194335913 HIT:  181083103 MISS:   13252810
cpu0_L1D LOAD         ACCESS:  159093700 HIT:  150294141 MISS:    8799559
cpu0_L1D RFO          ACCESS:          0 HIT:          0 MISS:          0
cpu0_L1D PREFETCH     ACCESS:          0 HIT:          0 MISS:          0
cpu0_L1D WRITE        ACCESS:   35194334 HIT:   30759404 MISS:    4434930
cpu0_L1D TRANSLATION  ACCESS:      47879 HIT:      29558 MISS:      18321
cpu0_L1D PREFETCH REQUESTED:          0 ISSUED:          0 USEFUL:          0 USELESS:          0
cpu0_L1D AVERAGE MISS LATENCY: 156.5 cycles
cpu0_L1I TOTAL        ACCESS:     249963 HIT:     246942 MISS:       3021
cpu0_L1I LOAD         ACCESS:     249963 HIT:     246942 MISS:       3021
cpu0_L1I RFO          ACCESS:          0 HIT:          0 MISS:          0
cpu0_L1I PREFETCH     ACCESS:          0 HIT:          0 MISS:          0
cpu0_L1I WRITE        ACCESS:          0 HIT:          0 MISS:          0
cpu0_L1I TRANSLATION  ACCESS:          0 HIT:          0 MISS:          0
cpu0_L1I PREFETCH REQUESTED:          0 ISSUED:          0 USEFUL:          0 USELESS:          0
cpu0_L1I AVERAGE MISS LATENCY: 498.8 cycles
cpu0_L2C TOTAL        ACCESS:    5424848 HIT:    2193811 MISS:    3231037
cpu0_L2C LOAD         ACCESS:    2426605 HIT:     122047 MISS:    2304558
cpu0_L2C RFO          ACCESS:     923510 HIT:        877 MISS:     922633
cpu0_L2C PREFETCH     ACCESS:          0 HIT:          0 MISS:          0
cpu0_L2C WRITE        ACCESS:    2056416 HIT:    2056045 MISS:        371
cpu0_L2C TRANSLATION  ACCESS:      18317 HIT:      14842 MISS:       3475
cpu0_L2C PREFETCH REQUESTED:          0 ISSUED:          0 USEFUL:          0 USELESS:          0
cpu0_L2C AVERAGE MISS LATENCY: 832.7 cycles
cpu0_STLB TOTAL        ACCESS:     742096 HIT:     694248 MISS:      47848
cpu0_STLB LOAD         ACCESS:     742096 HIT:     694248 MISS:      47848
cpu0_STLB RFO          ACCESS:          0 HIT:          0 MISS:          0
cpu0_STLB PREFETCH     ACCESS:          0 HIT:          0 MISS:          0
cpu0_STLB WRITE        ACCESS:          0 HIT:          0 MISS:          0
cpu0_STLB TRANSLATION  ACCESS:          0 HIT:          0 MISS:          0
cpu0_STLB PREFETCH REQUESTED:          0 ISSUED:          0 USEFUL:          0 USELESS:          0
cpu0_STLB AVERAGE MISS LATENCY: 290 cycles

DRAM Statistics

Channel 0 RQ ROW_BUFFER_HIT:     902363
  ROW_BUFFER_MISS:    1819078
 AVG DBUS CONGESTED CYCLE: 3.969
WQ ROW_BUFFER_HIT: Channel 0 
  ROW_BUFFER_MISS:     359907
  FULL:    1387683
