WARNING: physical memory size is smaller than virtual memory size.

*** ChampSim Multicore Out-of-Order Simulator ***
Warmup Instructions: 50000000
Simulation Instructions: 600000000
Number of CPUs: 1
Page size: 4096

CPU 0 Tage branch predictor
Off-chip DRAM Size: 4 GiB Channels: 1 Width: 64-bit Data Race: 3200 MT/s
Heartbeat CPU 0 instructions: 10000003 cycles: 2881057 heartbeat IPC: 3.471 cumulative IPC: 3.471 (Simulation time: 00 hr 00 min 42 sec)
Heartbeat CPU 0 instructions: 20000003 cycles: 5381057 heartbeat IPC: 4 cumulative IPC: 3.717 (Simulation time: 00 hr 01 min 21 sec)
Heartbeat CPU 0 instructions: 30000003 cycles: 7881057 heartbeat IPC: 4 cumulative IPC: 3.807 (Simulation time: 00 hr 02 min 01 sec)
Heartbeat CPU 0 instructions: 40000003 cycles: 10381057 heartbeat IPC: 4 cumulative IPC: 3.853 (Simulation time: 00 hr 02 min 40 sec)
Heartbeat CPU 0 instructions: 50000003 cycles: 12881057 heartbeat IPC: 4 cumulative IPC: 3.882 (Simulation time: 00 hr 03 min 20 sec)
Warmup finished CPU 0 instructions: 50000003 cycles: 12881058 cumulative IPC: 3.882 (Simulation time: 00 hr 03 min 20 sec)
Warmup complete CPU 0 instructions: 50000003 cycles: 12881058 cumulative IPC: 3.882 (Simulation time: 00 hr 03 min 20 sec)
Heartbeat CPU 0 instructions: 60000000 cycles: 16189209 heartbeat IPC: 3.023 cumulative IPC: 3.023 (Simulation time: 00 hr 04 min 14 sec)
Heartbeat CPU 0 instructions: 70000004 cycles: 19540107 heartbeat IPC: 2.984 cumulative IPC: 3.003 (Simulation time: 00 hr 05 min 11 sec)
Heartbeat CPU 0 instructions: 80000000 cycles: 22885583 heartbeat IPC: 2.989 cumulative IPC: 2.999 (Simulation time: 00 hr 06 min 03 sec)
Heartbeat CPU 0 instructions: 90000003 cycles: 26218519 heartbeat IPC: 3 cumulative IPC: 2.999 (Simulation time: 00 hr 06 min 56 sec)
Heartbeat CPU 0 instructions: 100000000 cycles: 29939846 heartbeat IPC: 2.687 cumulative IPC: 2.931 (Simulation time: 00 hr 07 min 51 sec)
Heartbeat CPU 0 instructions: 110000001 cycles: 32459563 heartbeat IPC: 3.969 cumulative IPC: 3.065 (Simulation time: 00 hr 08 min 35 sec)
Heartbeat CPU 0 instructions: 120000001 cycles: 34973072 heartbeat IPC: 3.979 cumulative IPC: 3.169 (Simulation time: 00 hr 09 min 20 sec)
Heartbeat CPU 0 instructions: 130000002 cycles: 38353006 heartbeat IPC: 2.959 cumulative IPC: 3.141 (Simulation time: 00 hr 10 min 12 sec)
Heartbeat CPU 0 instructions: 140000004 cycles: 45070306 heartbeat IPC: 1.489 cumulative IPC: 2.796 (Simulation time: 00 hr 11 min 33 sec)
Heartbeat CPU 0 instructions: 150000000 cycles: 51965730 heartbeat IPC: 1.45 cumulative IPC: 2.559 (Simulation time: 00 hr 12 min 57 sec)
Heartbeat CPU 0 instructions: 160000001 cycles: 58926528 heartbeat IPC: 1.437 cumulative IPC: 2.389 (Simulation time: 00 hr 14 min 21 sec)
Heartbeat CPU 0 instructions: 170000001 cycles: 65901829 heartbeat IPC: 1.434 cumulative IPC: 2.263 (Simulation time: 00 hr 15 min 45 sec)
Heartbeat CPU 0 instructions: 180000001 cycles: 72776160 heartbeat IPC: 1.455 cumulative IPC: 2.17 (Simulation time: 00 hr 17 min 10 sec)
Heartbeat CPU 0 instructions: 190000002 cycles: 78322658 heartbeat IPC: 1.803 cumulative IPC: 2.139 (Simulation time: 00 hr 18 min 24 sec)
Heartbeat CPU 0 instructions: 200000000 cycles: 83172135 heartbeat IPC: 2.062 cumulative IPC: 2.134 (Simulation time: 00 hr 19 min 29 sec)
Heartbeat CPU 0 instructions: 210000001 cycles: 88022499 heartbeat IPC: 2.062 cumulative IPC: 2.129 (Simulation time: 00 hr 20 min 36 sec)
Heartbeat CPU 0 instructions: 220000001 cycles: 92913537 heartbeat IPC: 2.045 cumulative IPC: 2.124 (Simulation time: 00 hr 21 min 44 sec)
Heartbeat CPU 0 instructions: 230000004 cycles: 97777229 heartbeat IPC: 2.056 cumulative IPC: 2.12 (Simulation time: 00 hr 22 min 52 sec)
Heartbeat CPU 0 instructions: 240000003 cycles: 102653207 heartbeat IPC: 2.051 cumulative IPC: 2.116 (Simulation time: 00 hr 23 min 59 sec)
Heartbeat CPU 0 instructions: 250000001 cycles: 107603828 heartbeat IPC: 2.02 cumulative IPC: 2.111 (Simulation time: 00 hr 25 min 05 sec)
Heartbeat CPU 0 instructions: 260000002 cycles: 112474441 heartbeat IPC: 2.053 cumulative IPC: 2.109 (Simulation time: 00 hr 26 min 11 sec)
Heartbeat CPU 0 instructions: 270000003 cycles: 117366798 heartbeat IPC: 2.044 cumulative IPC: 2.106 (Simulation time: 00 hr 27 min 19 sec)
Heartbeat CPU 0 instructions: 280000000 cycles: 122209844 heartbeat IPC: 2.065 cumulative IPC: 2.104 (Simulation time: 00 hr 28 min 28 sec)
Heartbeat CPU 0 instructions: 290000001 cycles: 173494972 heartbeat IPC: 0.195 cumulative IPC: 1.494 (Simulation time: 00 hr 34 min 42 sec)
Heartbeat CPU 0 instructions: 300000002 cycles: 175996364 heartbeat IPC: 3.998 cumulative IPC: 1.533 (Simulation time: 00 hr 35 min 30 sec)
Heartbeat CPU 0 instructions: 310000001 cycles: 178496933 heartbeat IPC: 3.999 cumulative IPC: 1.57 (Simulation time: 00 hr 36 min 16 sec)
Heartbeat CPU 0 instructions: 320000001 cycles: 180998951 heartbeat IPC: 3.997 cumulative IPC: 1.606 (Simulation time: 00 hr 37 min 02 sec)
Heartbeat CPU 0 instructions: 330000003 cycles: 183499114 heartbeat IPC: 4 cumulative IPC: 1.641 (Simulation time: 00 hr 37 min 49 sec)
Heartbeat CPU 0 instructions: 340000000 cycles: 185999267 heartbeat IPC: 4 cumulative IPC: 1.675 (Simulation time: 00 hr 38 min 35 sec)
Heartbeat CPU 0 instructions: 350000004 cycles: 188500409 heartbeat IPC: 3.998 cumulative IPC: 1.708 (Simulation time: 00 hr 39 min 21 sec)
Heartbeat CPU 0 instructions: 360000004 cycles: 191001976 heartbeat IPC: 3.997 cumulative IPC: 1.74 (Simulation time: 00 hr 40 min 07 sec)
Heartbeat CPU 0 instructions: 370000000 cycles: 193504900 heartbeat IPC: 3.995 cumulative IPC: 1.772 (Simulation time: 00 hr 40 min 53 sec)
Heartbeat CPU 0 instructions: 380000004 cycles: 196006098 heartbeat IPC: 3.998 cumulative IPC: 1.802 (Simulation time: 00 hr 41 min 42 sec)
Heartbeat CPU 0 instructions: 390000001 cycles: 198506183 heartbeat IPC: 4 cumulative IPC: 1.832 (Simulation time: 00 hr 42 min 26 sec)
Heartbeat CPU 0 instructions: 400000003 cycles: 201007006 heartbeat IPC: 3.999 cumulative IPC: 1.86 (Simulation time: 00 hr 43 min 10 sec)
Heartbeat CPU 0 instructions: 410000003 cycles: 203508233 heartbeat IPC: 3.998 cumulative IPC: 1.889 (Simulation time: 00 hr 43 min 55 sec)
Heartbeat CPU 0 instructions: 420000002 cycles: 206009548 heartbeat IPC: 3.998 cumulative IPC: 1.916 (Simulation time: 00 hr 44 min 40 sec)
Heartbeat CPU 0 instructions: 430000000 cycles: 208509632 heartbeat IPC: 4 cumulative IPC: 1.942 (Simulation time: 00 hr 45 min 24 sec)
Heartbeat CPU 0 instructions: 440000001 cycles: 211010228 heartbeat IPC: 3.999 cumulative IPC: 1.968 (Simulation time: 00 hr 46 min 08 sec)
Heartbeat CPU 0 instructions: 450000000 cycles: 213511121 heartbeat IPC: 3.999 cumulative IPC: 1.994 (Simulation time: 00 hr 46 min 51 sec)
Heartbeat CPU 0 instructions: 460000003 cycles: 216011700 heartbeat IPC: 3.999 cumulative IPC: 2.018 (Simulation time: 00 hr 47 min 35 sec)
Heartbeat CPU 0 instructions: 470000001 cycles: 218512240 heartbeat IPC: 3.999 cumulative IPC: 2.042 (Simulation time: 00 hr 48 min 19 sec)
Heartbeat CPU 0 instructions: 480000003 cycles: 221012323 heartbeat IPC: 4 cumulative IPC: 2.066 (Simulation time: 00 hr 49 min 03 sec)
Heartbeat CPU 0 instructions: 490000003 cycles: 223512777 heartbeat IPC: 3.999 cumulative IPC: 2.089 (Simulation time: 00 hr 49 min 48 sec)
Heartbeat CPU 0 instructions: 500000002 cycles: 226012862 heartbeat IPC: 4 cumulative IPC: 2.111 (Simulation time: 00 hr 50 min 32 sec)
Heartbeat CPU 0 instructions: 510000003 cycles: 234048905 heartbeat IPC: 1.244 cumulative IPC: 2.08 (Simulation time: 00 hr 51 min 58 sec)
Heartbeat CPU 0 instructions: 520000004 cycles: 341573122 heartbeat IPC: 0.093 cumulative IPC: 1.43 (Simulation time: 01 hr 06 min 27 sec)
Heartbeat CPU 0 instructions: 530000000 cycles: 420908458 heartbeat IPC: 0.126 cumulative IPC: 1.176 (Simulation time: 01 hr 17 min 08 sec)
Heartbeat CPU 0 instructions: 540000000 cycles: 453453355 heartbeat IPC: 0.3073 cumulative IPC: 1.112 (Simulation time: 01 hr 21 min 57 sec)
Heartbeat CPU 0 instructions: 550000002 cycles: 486334643 heartbeat IPC: 0.3041 cumulative IPC: 1.056 (Simulation time: 01 hr 26 min 53 sec)
Heartbeat CPU 0 instructions: 560000002 cycles: 519047657 heartbeat IPC: 0.3057 cumulative IPC: 1.008 (Simulation time: 01 hr 31 min 48 sec)
Heartbeat CPU 0 instructions: 570000002 cycles: 550353270 heartbeat IPC: 0.3194 cumulative IPC: 0.9675 (Simulation time: 01 hr 36 min 24 sec)
Heartbeat CPU 0 instructions: 580000001 cycles: 580411343 heartbeat IPC: 0.3327 cumulative IPC: 0.9339 (Simulation time: 01 hr 40 min 52 sec)
Heartbeat CPU 0 instructions: 590000004 cycles: 611820882 heartbeat IPC: 0.3184 cumulative IPC: 0.9016 (Simulation time: 01 hr 45 min 33 sec)
*** Reached end of trace: (0, "traces/sp.A.champsimtrace")
Heartbeat CPU 0 instructions: 600000002 cycles: 642947176 heartbeat IPC: 0.3213 cumulative IPC: 0.8729 (Simulation time: 01 hr 50 min 11 sec)
Heartbeat CPU 0 instructions: 610000000 cycles: 665858419 heartbeat IPC: 0.4365 cumulative IPC: 0.8576 (Simulation time: 01 hr 52 min 55 sec)
Heartbeat CPU 0 instructions: 620000003 cycles: 668397570 heartbeat IPC: 3.938 cumulative IPC: 0.8695 (Simulation time: 01 hr 53 min 42 sec)
Heartbeat CPU 0 instructions: 630000003 cycles: 670903092 heartbeat IPC: 3.991 cumulative IPC: 0.8814 (Simulation time: 01 hr 54 min 29 sec)
Heartbeat CPU 0 instructions: 640000004 cycles: 673799516 heartbeat IPC: 3.453 cumulative IPC: 0.8927 (Simulation time: 01 hr 55 min 19 sec)
Heartbeat CPU 0 instructions: 650000000 cycles: 677112036 heartbeat IPC: 3.019 cumulative IPC: 0.9033 (Simulation time: 01 hr 56 min 15 sec)
Simulation finished CPU 0 instructions: 600000002 cycles: 664230980 cumulative IPC: 0.9033 (Simulation time: 01 hr 56 min 15 sec)
Simulation complete CPU 0 instructions: 600000002 cycles: 664230980 cumulative IPC: 0.9033 (Simulation time: 01 hr 56 min 15 sec)

ChampSim completed all CPUs

=== Simulation ===
CPU 0 runs traces/sp.A.champsimtrace
Region of Interest Statistics

CPU 0 cumulative IPC: 0.9033 instructions: 600000002 cycles: 664230980
CPU 0 Branch Prediction Accuracy: 99.98% MPKI: 0.003913 Average ROB Occupancy at Mispredict: 106.7
Branch type MPKI
BRANCH_DIRECT_JUMP: 5e-06
BRANCH_INDIRECT: 7.5e-05
BRANCH_CONDITIONAL: 0.00374
BRANCH_DIRECT_CALL: 2e-05
BRANCH_INDIRECT_CALL: 3.17e-05
BRANCH_RETURN: 3.67e-05

LLC TOTAL        ACCESS:    8168056 HIT:    3834551 MISS:    4333505
LLC LOAD         ACCESS:    2303692 HIT:    1397782 MISS:     905910
LLC RFO          ACCESS:     922635 HIT:      51340 MISS:     871295
LLC PREFETCH     ACCESS:    2893272 HIT:    1535101 MISS:    1358171
LLC WRITE        ACCESS:    2044984 HIT:     849986 MISS:    1194998
LLC TRANSLATION  ACCESS:       3473 HIT:        342 MISS:       3131
LLC PREFETCH REQUESTED:    2893272 ISSUED:    2893272 USEFUL:    1055710 USELESS:      56030
LLC AVERAGE MISS LATENCY: 1029 cycles
cpu0_DTLB TOTAL        ACCESS:  127548273 HIT:  126565216 MISS:     983057
cpu0_DTLB LOAD         ACCESS:  127548273 HIT:  126565216 MISS:     983057
cpu0_DTLB RFO          ACCESS:          0 HIT:          0 MISS:          0
cpu0_DTLB PREFETCH     ACCESS:          0 HIT:          0 MISS:          0
cpu0_DTLB WRITE        ACCESS:          0 HIT:          0 MISS:          0
cpu0_DTLB TRANSLATION  ACCESS:          0 HIT:          0 MISS:          0
cpu0_DTLB PREFETCH REQUESTED:          0 ISSUED:          0 USEFUL:          0 USELESS:          0
cpu0_DTLB AVERAGE MISS LATENCY: 18.39 cycles
cpu0_ITLB TOTAL        ACCESS:     241221 HIT:     240979 MISS:        242
cpu0_ITLB LOAD         ACCESS:     241221 HIT:     240979 MISS:        242
cpu0_ITLB RFO          ACCESS:          0 HIT:          0 MISS:          0
cpu0_ITLB PREFETCH     ACCESS:          0 HIT:          0 MISS:          0
cpu0_ITLB WRITE        ACCESS:          0 HIT:          0 MISS:          0
cpu0_ITLB TRANSLATION  ACCESS:          0 HIT:          0 MISS:          0
cpu0_ITLB PREFETCH REQUESTED:          0 ISSUED:          0 USEFUL:          0 USELESS:          0
cpu0_ITLB AVERAGE MISS LATENCY: 311.8 cycles
cpu0_L1D TOTAL        ACCESS:  194219340 HIT:  180941120 MISS:   13278220
cpu0_L1D LOAD         ACCESS:  158977249 HIT:  150155466 MISS:    8821783
cpu0_L1D RFO          ACCESS:          0 HIT:          0 MISS:          0
cpu0_L1D PREFETCH     ACCESS:          0 HIT:          0 MISS:          0
cpu0_L1D WRITE        ACCESS:   35194213 HIT:   30756052 MISS:    4438161
cpu0_L1D TRANSLATION  ACCESS:      47878 HIT:      29602 MISS:      18276
cpu0_L1D PREFETCH REQUESTED:          0 ISSUED:          0 USEFUL:          0 USELESS:          0
cpu0_L1D AVERAGE MISS LATENCY: 155.2 cycles
cpu0_L1I TOTAL        ACCESS:     251645 HIT:     248605 MISS:       3040
cpu0_L1I LOAD         ACCESS:     251645 HIT:     248605 MISS:       3040
cpu0_L1I RFO          ACCESS:          0 HIT:          0 MISS:          0
cpu0_L1I PREFETCH     ACCESS:          0 HIT:          0 MISS:          0
cpu0_L1I WRITE        ACCESS:          0 HIT:          0 MISS:          0
cpu0_L1I TRANSLATION  ACCESS:          0 HIT:          0 MISS:          0
cpu0_L1I PREFETCH REQUESTED:          0 ISSUED:          0 USEFUL:          0 USELESS:          0
cpu0_L1I AVERAGE MISS LATENCY: 550.8 cycles
cpu0_L2C TOTAL        ACCESS:    5424838 HIT:    2194654 MISS:    3230184
cpu0_L2C LOAD         ACCESS:    2426579 HIT:     122874 MISS:    2303705
cpu0_L2C RFO          ACCESS:     923512 HIT:        877 MISS:     922635
cpu0_L2C PREFETCH     ACCESS:          0 HIT:          0 MISS:          0
cpu0_L2C WRITE        ACCESS:    2056474 HIT:    2056103 MISS:        371
cpu0_L2C TRANSLATION  ACCESS:      18273 HIT:      14800 MISS:       3473
cpu0_L2C PREFETCH REQUESTED:          0 ISSUED:          0 USEFUL:          0 USELESS:          0
cpu0_L2C AVERAGE MISS LATENCY: 843.9 cycles
cpu0_STLB TOTAL        ACCESS:     736478 HIT:     688631 MISS:      47847
cpu0_STLB LOAD         ACCESS:     736478 HIT:     688631 MISS:      47847
cpu0_STLB RFO          ACCESS:          0 HIT:          0 MISS:          0
cpu0_STLB PREFETCH     ACCESS:          0 HIT:          0 MISS:          0
cpu0_STLB WRITE        ACCESS:          0 HIT:          0 MISS:          0
cpu0_STLB TRANSLATION  ACCESS:          0 HIT:          0 MISS:          0
cpu0_STLB PREFETCH REQUESTED:          0 ISSUED:          0 USEFUL:          0 USELESS:          0
cpu0_STLB AVERAGE MISS LATENCY: 372 cycles

DRAM Statistics

Channel 0 RQ ROW_BUFFER_HIT:     929638
  ROW_BUFFER_MISS:    1832655
 AVG DBUS CONGESTED CYCLE: 3.959
WQ ROW_BUFFER_HIT: Channel 0 
  ROW_BUFFER_MISS:     606334
  FULL:    1155149
