WARNING: physical memory size is smaller than virtual memory size.

*** ChampSim Multicore Out-of-Order Simulator ***
Warmup Instructions: 50000000
Simulation Instructions: 600000000
Number of CPUs: 1
Page size: 4096

CPU 0 Tage branch predictor
Off-chip DRAM Size: 4 GiB Channels: 1 Width: 64-bit Data Race: 3200 MT/s
Heartbeat CPU 0 instructions: 10000003 cycles: 2881055 heartbeat IPC: 3.471 cumulative IPC: 3.471 (Simulation time: 00 hr 01 min 14 sec)
Heartbeat CPU 0 instructions: 20000003 cycles: 5381055 heartbeat IPC: 4 cumulative IPC: 3.717 (Simulation time: 00 hr 02 min 21 sec)
Heartbeat CPU 0 instructions: 30000003 cycles: 7881055 heartbeat IPC: 4 cumulative IPC: 3.807 (Simulation time: 00 hr 03 min 27 sec)
Heartbeat CPU 0 instructions: 40000003 cycles: 10381055 heartbeat IPC: 4 cumulative IPC: 3.853 (Simulation time: 00 hr 04 min 33 sec)
Heartbeat CPU 0 instructions: 50000003 cycles: 12881055 heartbeat IPC: 4 cumulative IPC: 3.882 (Simulation time: 00 hr 05 min 42 sec)
Warmup finished CPU 0 instructions: 50000003 cycles: 12881056 cumulative IPC: 3.882 (Simulation time: 00 hr 05 min 42 sec)
Warmup complete CPU 0 instructions: 50000003 cycles: 12881056 cumulative IPC: 3.882 (Simulation time: 00 hr 05 min 42 sec)
Heartbeat CPU 0 instructions: 60000000 cycles: 16401020 heartbeat IPC: 2.841 cumulative IPC: 2.841 (Simulation time: 00 hr 07 min 10 sec)
Heartbeat CPU 0 instructions: 70000000 cycles: 19940534 heartbeat IPC: 2.825 cumulative IPC: 2.833 (Simulation time: 00 hr 08 min 37 sec)
Heartbeat CPU 0 instructions: 80000000 cycles: 23441324 heartbeat IPC: 2.856 cumulative IPC: 2.841 (Simulation time: 00 hr 10 min 02 sec)
Heartbeat CPU 0 instructions: 90000003 cycles: 26948902 heartbeat IPC: 2.851 cumulative IPC: 2.843 (Simulation time: 00 hr 11 min 27 sec)
Heartbeat CPU 0 instructions: 100000002 cycles: 29951348 heartbeat IPC: 3.331 cumulative IPC: 2.929 (Simulation time: 00 hr 12 min 48 sec)
Heartbeat CPU 0 instructions: 110000000 cycles: 33086672 heartbeat IPC: 3.189 cumulative IPC: 2.969 (Simulation time: 00 hr 14 min 05 sec)
Heartbeat CPU 0 instructions: 120000000 cycles: 39399220 heartbeat IPC: 1.584 cumulative IPC: 2.64 (Simulation time: 00 hr 16 min 00 sec)
Heartbeat CPU 0 instructions: 130000003 cycles: 46342643 heartbeat IPC: 1.44 cumulative IPC: 2.391 (Simulation time: 00 hr 18 min 01 sec)
Heartbeat CPU 0 instructions: 140000001 cycles: 53303231 heartbeat IPC: 1.437 cumulative IPC: 2.227 (Simulation time: 00 hr 20 min 00 sec)
Heartbeat CPU 0 instructions: 150000001 cycles: 60314661 heartbeat IPC: 1.426 cumulative IPC: 2.108 (Simulation time: 00 hr 21 min 58 sec)
Heartbeat CPU 0 instructions: 160000004 cycles: 67311889 heartbeat IPC: 1.429 cumulative IPC: 2.021 (Simulation time: 00 hr 24 min 02 sec)
Heartbeat CPU 0 instructions: 170000000 cycles: 74328592 heartbeat IPC: 1.425 cumulative IPC: 1.953 (Simulation time: 00 hr 26 min 02 sec)
Heartbeat CPU 0 instructions: 180000003 cycles: 81308339 heartbeat IPC: 1.433 cumulative IPC: 1.9 (Simulation time: 00 hr 27 min 58 sec)
Heartbeat CPU 0 instructions: 190000001 cycles: 86620062 heartbeat IPC: 1.883 cumulative IPC: 1.899 (Simulation time: 00 hr 29 min 43 sec)
Heartbeat CPU 0 instructions: 200000000 cycles: 92481729 heartbeat IPC: 1.706 cumulative IPC: 1.884 (Simulation time: 00 hr 31 min 32 sec)
Heartbeat CPU 0 instructions: 210000003 cycles: 98284385 heartbeat IPC: 1.723 cumulative IPC: 1.873 (Simulation time: 00 hr 33 min 22 sec)
Heartbeat CPU 0 instructions: 220000004 cycles: 104161053 heartbeat IPC: 1.702 cumulative IPC: 1.862 (Simulation time: 00 hr 35 min 12 sec)
Heartbeat CPU 0 instructions: 230000002 cycles: 109995639 heartbeat IPC: 1.714 cumulative IPC: 1.853 (Simulation time: 00 hr 37 min 02 sec)
Heartbeat CPU 0 instructions: 240000002 cycles: 115757771 heartbeat IPC: 1.735 cumulative IPC: 1.847 (Simulation time: 00 hr 38 min 52 sec)
Heartbeat CPU 0 instructions: 250000004 cycles: 121578526 heartbeat IPC: 1.718 cumulative IPC: 1.84 (Simulation time: 00 hr 40 min 38 sec)
Heartbeat CPU 0 instructions: 260000001 cycles: 127339186 heartbeat IPC: 1.736 cumulative IPC: 1.835 (Simulation time: 00 hr 42 min 24 sec)
Heartbeat CPU 0 instructions: 270000002 cycles: 133079693 heartbeat IPC: 1.742 cumulative IPC: 1.83 (Simulation time: 00 hr 44 min 14 sec)
Heartbeat CPU 0 instructions: 280000003 cycles: 138913328 heartbeat IPC: 1.714 cumulative IPC: 1.825 (Simulation time: 00 hr 46 min 04 sec)
Heartbeat CPU 0 instructions: 290000002 cycles: 202207675 heartbeat IPC: 0.158 cumulative IPC: 1.268 (Simulation time: 00 hr 56 min 42 sec)
Heartbeat CPU 0 instructions: 300000000 cycles: 204708221 heartbeat IPC: 3.999 cumulative IPC: 1.303 (Simulation time: 00 hr 57 min 51 sec)
Heartbeat CPU 0 instructions: 310000003 cycles: 207208507 heartbeat IPC: 4 cumulative IPC: 1.338 (Simulation time: 00 hr 58 min 58 sec)
Heartbeat CPU 0 instructions: 320000001 cycles: 209710192 heartbeat IPC: 3.997 cumulative IPC: 1.372 (Simulation time: 01 hr 00 min 06 sec)
Heartbeat CPU 0 instructions: 330000001 cycles: 212211022 heartbeat IPC: 3.999 cumulative IPC: 1.405 (Simulation time: 01 hr 01 min 17 sec)
Heartbeat CPU 0 instructions: 340000004 cycles: 214711379 heartbeat IPC: 3.999 cumulative IPC: 1.437 (Simulation time: 01 hr 02 min 28 sec)
Heartbeat CPU 0 instructions: 350000004 cycles: 217211848 heartbeat IPC: 3.999 cumulative IPC: 1.468 (Simulation time: 01 hr 03 min 39 sec)
Heartbeat CPU 0 instructions: 360000000 cycles: 219713284 heartbeat IPC: 3.998 cumulative IPC: 1.499 (Simulation time: 01 hr 04 min 49 sec)
Heartbeat CPU 0 instructions: 370000003 cycles: 222214892 heartbeat IPC: 3.997 cumulative IPC: 1.529 (Simulation time: 01 hr 05 min 57 sec)
Heartbeat CPU 0 instructions: 380000001 cycles: 224715927 heartbeat IPC: 3.998 cumulative IPC: 1.558 (Simulation time: 01 hr 07 min 06 sec)
Heartbeat CPU 0 instructions: 390000004 cycles: 227218476 heartbeat IPC: 3.996 cumulative IPC: 1.586 (Simulation time: 01 hr 08 min 18 sec)
Heartbeat CPU 0 instructions: 400000000 cycles: 229720720 heartbeat IPC: 3.996 cumulative IPC: 1.614 (Simulation time: 01 hr 09 min 23 sec)
Heartbeat CPU 0 instructions: 410000002 cycles: 232221434 heartbeat IPC: 3.999 cumulative IPC: 1.641 (Simulation time: 01 hr 10 min 28 sec)
Heartbeat CPU 0 instructions: 420000002 cycles: 234723166 heartbeat IPC: 3.997 cumulative IPC: 1.668 (Simulation time: 01 hr 11 min 36 sec)
Heartbeat CPU 0 instructions: 430000003 cycles: 237223283 heartbeat IPC: 4 cumulative IPC: 1.694 (Simulation time: 01 hr 12 min 49 sec)
Heartbeat CPU 0 instructions: 440000003 cycles: 239723630 heartbeat IPC: 3.999 cumulative IPC: 1.719 (Simulation time: 01 hr 13 min 58 sec)
Heartbeat CPU 0 instructions: 450000004 cycles: 242224466 heartbeat IPC: 3.999 cumulative IPC: 1.744 (Simulation time: 01 hr 15 min 07 sec)
Heartbeat CPU 0 instructions: 460000001 cycles: 244725565 heartbeat IPC: 3.998 cumulative IPC: 1.768 (Simulation time: 01 hr 16 min 20 sec)
Heartbeat CPU 0 instructions: 470000003 cycles: 247225867 heartbeat IPC: 4 cumulative IPC: 1.792 (Simulation time: 01 hr 17 min 27 sec)
Heartbeat CPU 0 instructions: 480000000 cycles: 249726302 heartbeat IPC: 3.999 cumulative IPC: 1.816 (Simulation time: 01 hr 18 min 32 sec)
Heartbeat CPU 0 instructions: 490000002 cycles: 252226874 heartbeat IPC: 3.999 cumulative IPC: 1.838 (Simulation time: 01 hr 19 min 43 sec)
Heartbeat CPU 0 instructions: 500000003 cycles: 254727355 heartbeat IPC: 3.999 cumulative IPC: 1.861 (Simulation time: 01 hr 21 min 28 sec)
Heartbeat CPU 0 instructions: 510000000 cycles: 261969368 heartbeat IPC: 1.381 cumulative IPC: 1.847 (Simulation time: 01 hr 23 min 50 sec)
Heartbeat CPU 0 instructions: 520000004 cycles: 370865798 heartbeat IPC: 0.09183 cumulative IPC: 1.313 (Simulation time: 01 hr 44 min 46 sec)
Heartbeat CPU 0 instructions: 530000001 cycles: 455020012 heartbeat IPC: 0.1188 cumulative IPC: 1.086 (Simulation time: 02 hr 01 min 02 sec)
Heartbeat CPU 0 instructions: 540000000 cycles: 481761198 heartbeat IPC: 0.374 cumulative IPC: 1.045 (Simulation time: 02 hr 06 min 31 sec)
Heartbeat CPU 0 instructions: 550000004 cycles: 508413265 heartbeat IPC: 0.3752 cumulative IPC: 1.009 (Simulation time: 02 hr 12 min 04 sec)
Heartbeat CPU 0 instructions: 560000004 cycles: 536076524 heartbeat IPC: 0.3615 cumulative IPC: 0.9748 (Simulation time: 02 hr 17 min 24 sec)
Heartbeat CPU 0 instructions: 570000002 cycles: 563035638 heartbeat IPC: 0.3709 cumulative IPC: 0.9452 (Simulation time: 02 hr 22 min 32 sec)
Heartbeat CPU 0 instructions: 580000004 cycles: 589360448 heartbeat IPC: 0.3799 cumulative IPC: 0.9194 (Simulation time: 02 hr 28 min 25 sec)
Heartbeat CPU 0 instructions: 590000003 cycles: 614241845 heartbeat IPC: 0.4019 cumulative IPC: 0.898 (Simulation time: 02 hr 35 min 58 sec)
*** Reached end of trace: (0, "traces/sp.A.champsimtrace")
Heartbeat CPU 0 instructions: 600000001 cycles: 641050168 heartbeat IPC: 0.373 cumulative IPC: 0.8756 (Simulation time: 02 hr 41 min 37 sec)
Heartbeat CPU 0 instructions: 610000004 cycles: 672203946 heartbeat IPC: 0.321 cumulative IPC: 0.8494 (Simulation time: 02 hr 48 min 42 sec)
Heartbeat CPU 0 instructions: 620000004 cycles: 675685682 heartbeat IPC: 2.872 cumulative IPC: 0.86 (Simulation time: 02 hr 50 min 46 sec)
Heartbeat CPU 0 instructions: 630000001 cycles: 679193744 heartbeat IPC: 2.851 cumulative IPC: 0.8705 (Simulation time: 02 hr 52 min 09 sec)
Heartbeat CPU 0 instructions: 640000000 cycles: 682714607 heartbeat IPC: 2.84 cumulative IPC: 0.8808 (Simulation time: 02 hr 53 min 33 sec)
Heartbeat CPU 0 instructions: 650000000 cycles: 686208545 heartbeat IPC: 2.862 cumulative IPC: 0.8911 (Simulation time: 02 hr 55 min 01 sec)
Simulation finished CPU 0 instructions: 600000002 cycles: 673327491 cumulative IPC: 0.8911 (Simulation time: 02 hr 55 min 01 sec)
Simulation complete CPU 0 instructions: 600000002 cycles: 673327491 cumulative IPC: 0.8911 (Simulation time: 02 hr 55 min 01 sec)

ChampSim completed all CPUs

=== Simulation ===
CPU 0 runs traces/sp.A.champsimtrace
Region of Interest Statistics

CPU 0 cumulative IPC: 0.8911 instructions: 600000002 cycles: 673327491
CPU 0 Branch Prediction Accuracy: 99.98% MPKI: 0.004065 Average ROB Occupancy at Mispredict: 116
Branch type MPKI
BRANCH_DIRECT_JUMP: 5e-06
BRANCH_INDIRECT: 8.67e-05
BRANCH_CONDITIONAL: 0.00388
BRANCH_DIRECT_CALL: 2e-05
BRANCH_INDIRECT_CALL: 3.83e-05
BRANCH_RETURN: 3.5e-05

LLC TOTAL        ACCESS:    8187972 HIT:    4064374 MISS:    4123598
LLC LOAD         ACCESS:    2308137 HIT:    1455627 MISS:     852510
LLC RFO          ACCESS:     922643 HIT:       4394 MISS:     918249
LLC PREFETCH     ACCESS:    2907648 HIT:    1558717 MISS:    1348931
LLC WRITE        ACCESS:    2046075 HIT:    1045292 MISS:    1000783
LLC TRANSLATION  ACCESS:       3469 HIT:        344 MISS:       3125
LLC PREFETCH REQUESTED:    2907648 ISSUED:    2907648 USEFUL:    1063361 USELESS:      20926
LLC AVERAGE MISS LATENCY: 1114 cycles
cpu0_DTLB TOTAL        ACCESS:  127125086 HIT:  126113434 MISS:    1011652
cpu0_DTLB LOAD         ACCESS:  127125086 HIT:  126113434 MISS:    1011652
cpu0_DTLB RFO          ACCESS:          0 HIT:          0 MISS:          0
cpu0_DTLB PREFETCH     ACCESS:          0 HIT:          0 MISS:          0
cpu0_DTLB WRITE        ACCESS:          0 HIT:          0 MISS:          0
cpu0_DTLB TRANSLATION  ACCESS:          0 HIT:          0 MISS:          0
cpu0_DTLB PREFETCH REQUESTED:          0 ISSUED:          0 USEFUL:          0 USELESS:          0
cpu0_DTLB AVERAGE MISS LATENCY: 17.75 cycles
cpu0_ITLB TOTAL        ACCESS:     238722 HIT:     238479 MISS:        243
cpu0_ITLB LOAD         ACCESS:     238722 HIT:     238479 MISS:        243
cpu0_ITLB RFO          ACCESS:          0 HIT:          0 MISS:          0
cpu0_ITLB PREFETCH     ACCESS:          0 HIT:          0 MISS:          0
cpu0_ITLB WRITE        ACCESS:          0 HIT:          0 MISS:          0
cpu0_ITLB TRANSLATION  ACCESS:          0 HIT:          0 MISS:          0
cpu0_ITLB PREFETCH REQUESTED:          0 ISSUED:          0 USEFUL:          0 USELESS:          0
cpu0_ITLB AVERAGE MISS LATENCY: 302.6 cycles
cpu0_L1D TOTAL        ACCESS:  193845922 HIT:  180637977 MISS:   13207945
cpu0_L1D LOAD         ACCESS:  158603904 HIT:  149857798 MISS:    8746106
cpu0_L1D RFO          ACCESS:          0 HIT:          0 MISS:          0
cpu0_L1D PREFETCH     ACCESS:          0 HIT:          0 MISS:          0
cpu0_L1D WRITE        ACCESS:   35194145 HIT:   30750577 MISS:    4443568
cpu0_L1D TRANSLATION  ACCESS:      47873 HIT:      29602 MISS:      18271
cpu0_L1D PREFETCH REQUESTED:          0 ISSUED:          0 USEFUL:          0 USELESS:          0
cpu0_L1D AVERAGE MISS LATENCY: 165.6 cycles
cpu0_L1I TOTAL        ACCESS:     249077 HIT:     246099 MISS:       2978
cpu0_L1I LOAD         ACCESS:     249077 HIT:     246099 MISS:       2978
cpu0_L1I RFO          ACCESS:          0 HIT:          0 MISS:          0
cpu0_L1I PREFETCH     ACCESS:          0 HIT:          0 MISS:          0
cpu0_L1I WRITE        ACCESS:          0 HIT:          0 MISS:          0
cpu0_L1I TRANSLATION  ACCESS:          0 HIT:          0 MISS:          0
cpu0_L1I PREFETCH REQUESTED:          0 ISSUED:          0 USEFUL:          0 USELESS:          0
cpu0_L1I AVERAGE MISS LATENCY: 550.7 cycles
cpu0_L2C TOTAL        ACCESS:    5426522 HIT:    2191884 MISS:    3234638
cpu0_L2C LOAD         ACCESS:    2427823 HIT:     119685 MISS:    2308138
cpu0_L2C RFO          ACCESS:     923945 HIT:       1302 MISS:     922643
cpu0_L2C PREFETCH     ACCESS:          0 HIT:          0 MISS:          0
cpu0_L2C WRITE        ACCESS:    2056486 HIT:    2056098 MISS:        388
cpu0_L2C TRANSLATION  ACCESS:      18268 HIT:      14799 MISS:       3469
cpu0_L2C PREFETCH REQUESTED:          0 ISSUED:          0 USEFUL:          0 USELESS:          0
cpu0_L2C AVERAGE MISS LATENCY: 869.5 cycles
cpu0_STLB TOTAL        ACCESS:     759486 HIT:     711636 MISS:      47850
cpu0_STLB LOAD         ACCESS:     759486 HIT:     711636 MISS:      47850
cpu0_STLB RFO          ACCESS:          0 HIT:          0 MISS:          0
cpu0_STLB PREFETCH     ACCESS:          0 HIT:          0 MISS:          0
cpu0_STLB WRITE        ACCESS:          0 HIT:          0 MISS:          0
cpu0_STLB TRANSLATION  ACCESS:          0 HIT:          0 MISS:          0
cpu0_STLB PREFETCH REQUESTED:          0 ISSUED:          0 USEFUL:          0 USELESS:          0
cpu0_STLB AVERAGE MISS LATENCY: 366.4 cycles

DRAM Statistics

Channel 0 RQ ROW_BUFFER_HIT:     937917
  ROW_BUFFER_MISS:    1861376
 AVG DBUS CONGESTED CYCLE: 3.965
WQ ROW_BUFFER_HIT: Channel 0 
  ROW_BUFFER_MISS:     392625
  FULL:    1387273
