WARNING: physical memory size is smaller than virtual memory size.

*** ChampSim Multicore Out-of-Order Simulator ***
Warmup Instructions: 50000000
Simulation Instructions: 600000000
Number of CPUs: 1
Page size: 4096

Off-chip DRAM Size: 4 GiB Channels: 1 Width: 64-bit Data Race: 3200 MT/s
Heartbeat CPU 0 instructions: 10000003 cycles: 2881057 heartbeat IPC: 3.471 cumulative IPC: 3.471 (Simulation time: 00 hr 00 min 49 sec)
Heartbeat CPU 0 instructions: 20000003 cycles: 5381057 heartbeat IPC: 4 cumulative IPC: 3.717 (Simulation time: 00 hr 01 min 36 sec)
Heartbeat CPU 0 instructions: 30000003 cycles: 7881057 heartbeat IPC: 4 cumulative IPC: 3.807 (Simulation time: 00 hr 02 min 19 sec)
Heartbeat CPU 0 instructions: 40000003 cycles: 10381057 heartbeat IPC: 4 cumulative IPC: 3.853 (Simulation time: 00 hr 03 min 04 sec)
Heartbeat CPU 0 instructions: 50000003 cycles: 12881057 heartbeat IPC: 4 cumulative IPC: 3.882 (Simulation time: 00 hr 03 min 50 sec)
Warmup finished CPU 0 instructions: 50000003 cycles: 12881058 cumulative IPC: 3.882 (Simulation time: 00 hr 03 min 50 sec)
Warmup complete CPU 0 instructions: 50000003 cycles: 12881058 cumulative IPC: 3.882 (Simulation time: 00 hr 03 min 50 sec)
Heartbeat CPU 0 instructions: 60000000 cycles: 17446253 heartbeat IPC: 2.19 cumulative IPC: 2.19 (Simulation time: 00 hr 05 min 06 sec)
Heartbeat CPU 0 instructions: 70000002 cycles: 22070261 heartbeat IPC: 2.163 cumulative IPC: 2.176 (Simulation time: 00 hr 06 min 24 sec)
Heartbeat CPU 0 instructions: 80000001 cycles: 26709653 heartbeat IPC: 2.155 cumulative IPC: 2.169 (Simulation time: 00 hr 07 min 42 sec)
Heartbeat CPU 0 instructions: 90000004 cycles: 31356651 heartbeat IPC: 2.152 cumulative IPC: 2.165 (Simulation time: 00 hr 09 min 00 sec)
Heartbeat CPU 0 instructions: 100000000 cycles: 34897377 heartbeat IPC: 2.824 cumulative IPC: 2.271 (Simulation time: 00 hr 10 min 03 sec)
Heartbeat CPU 0 instructions: 110000004 cycles: 37556355 heartbeat IPC: 3.761 cumulative IPC: 2.432 (Simulation time: 00 hr 10 min 58 sec)
Heartbeat CPU 0 instructions: 120000000 cycles: 40767980 heartbeat IPC: 3.114 cumulative IPC: 2.51 (Simulation time: 00 hr 11 min 56 sec)
Heartbeat CPU 0 instructions: 130000002 cycles: 44099959 heartbeat IPC: 3.001 cumulative IPC: 2.563 (Simulation time: 00 hr 12 min 59 sec)
Heartbeat CPU 0 instructions: 140000004 cycles: 47552164 heartbeat IPC: 2.897 cumulative IPC: 2.596 (Simulation time: 00 hr 14 min 00 sec)
Heartbeat CPU 0 instructions: 150000001 cycles: 51092938 heartbeat IPC: 2.824 cumulative IPC: 2.617 (Simulation time: 00 hr 15 min 06 sec)
Heartbeat CPU 0 instructions: 160000003 cycles: 54563231 heartbeat IPC: 2.882 cumulative IPC: 2.639 (Simulation time: 00 hr 16 min 08 sec)
Heartbeat CPU 0 instructions: 170000000 cycles: 58176056 heartbeat IPC: 2.768 cumulative IPC: 2.649 (Simulation time: 00 hr 17 min 13 sec)
Heartbeat CPU 0 instructions: 180000000 cycles: 61774452 heartbeat IPC: 2.779 cumulative IPC: 2.659 (Simulation time: 00 hr 18 min 15 sec)
Heartbeat CPU 0 instructions: 190000000 cycles: 65258903 heartbeat IPC: 2.87 cumulative IPC: 2.673 (Simulation time: 00 hr 19 min 20 sec)
Heartbeat CPU 0 instructions: 200000004 cycles: 68608314 heartbeat IPC: 2.986 cumulative IPC: 2.692 (Simulation time: 00 hr 20 min 21 sec)
Heartbeat CPU 0 instructions: 210000001 cycles: 71874333 heartbeat IPC: 3.062 cumulative IPC: 2.712 (Simulation time: 00 hr 21 min 22 sec)
Heartbeat CPU 0 instructions: 220000004 cycles: 75181924 heartbeat IPC: 3.023 cumulative IPC: 2.729 (Simulation time: 00 hr 22 min 23 sec)
Heartbeat CPU 0 instructions: 230000000 cycles: 78477863 heartbeat IPC: 3.034 cumulative IPC: 2.744 (Simulation time: 00 hr 23 min 25 sec)
Heartbeat CPU 0 instructions: 240000001 cycles: 81698469 heartbeat IPC: 3.105 cumulative IPC: 2.761 (Simulation time: 00 hr 24 min 25 sec)
Heartbeat CPU 0 instructions: 250000002 cycles: 84972251 heartbeat IPC: 3.055 cumulative IPC: 2.774 (Simulation time: 00 hr 25 min 26 sec)
Heartbeat CPU 0 instructions: 260000002 cycles: 88294237 heartbeat IPC: 3.01 cumulative IPC: 2.785 (Simulation time: 00 hr 26 min 27 sec)
Heartbeat CPU 0 instructions: 270000002 cycles: 91565460 heartbeat IPC: 3.057 cumulative IPC: 2.796 (Simulation time: 00 hr 27 min 28 sec)
Heartbeat CPU 0 instructions: 280000003 cycles: 94877191 heartbeat IPC: 3.02 cumulative IPC: 2.805 (Simulation time: 00 hr 28 min 29 sec)
Heartbeat CPU 0 instructions: 290000000 cycles: 146915523 heartbeat IPC: 0.1922 cumulative IPC: 1.791 (Simulation time: 00 hr 37 min 09 sec)
Heartbeat CPU 0 instructions: 300000001 cycles: 149419685 heartbeat IPC: 3.993 cumulative IPC: 1.831 (Simulation time: 00 hr 37 min 59 sec)
Heartbeat CPU 0 instructions: 310000000 cycles: 151923589 heartbeat IPC: 3.994 cumulative IPC: 1.87 (Simulation time: 00 hr 38 min 50 sec)
Heartbeat CPU 0 instructions: 320000002 cycles: 154426020 heartbeat IPC: 3.996 cumulative IPC: 1.908 (Simulation time: 00 hr 39 min 39 sec)
Heartbeat CPU 0 instructions: 330000004 cycles: 156929903 heartbeat IPC: 3.994 cumulative IPC: 1.944 (Simulation time: 00 hr 40 min 31 sec)
Heartbeat CPU 0 instructions: 340000004 cycles: 159433841 heartbeat IPC: 3.994 cumulative IPC: 1.979 (Simulation time: 00 hr 41 min 21 sec)
Heartbeat CPU 0 instructions: 350000003 cycles: 161937106 heartbeat IPC: 3.995 cumulative IPC: 2.013 (Simulation time: 00 hr 42 min 11 sec)
Heartbeat CPU 0 instructions: 360000002 cycles: 164440193 heartbeat IPC: 3.995 cumulative IPC: 2.045 (Simulation time: 00 hr 43 min 03 sec)
Heartbeat CPU 0 instructions: 370000004 cycles: 166944045 heartbeat IPC: 3.994 cumulative IPC: 2.077 (Simulation time: 00 hr 43 min 52 sec)
Heartbeat CPU 0 instructions: 380000003 cycles: 169447725 heartbeat IPC: 3.994 cumulative IPC: 2.108 (Simulation time: 00 hr 44 min 42 sec)
Heartbeat CPU 0 instructions: 390000000 cycles: 171950131 heartbeat IPC: 3.996 cumulative IPC: 2.137 (Simulation time: 00 hr 45 min 35 sec)
Heartbeat CPU 0 instructions: 400000002 cycles: 174452780 heartbeat IPC: 3.996 cumulative IPC: 2.166 (Simulation time: 00 hr 46 min 25 sec)
Heartbeat CPU 0 instructions: 410000002 cycles: 176956178 heartbeat IPC: 3.995 cumulative IPC: 2.194 (Simulation time: 00 hr 47 min 16 sec)
Heartbeat CPU 0 instructions: 420000000 cycles: 179461039 heartbeat IPC: 3.992 cumulative IPC: 2.221 (Simulation time: 00 hr 48 min 07 sec)
Heartbeat CPU 0 instructions: 430000001 cycles: 181963730 heartbeat IPC: 3.996 cumulative IPC: 2.247 (Simulation time: 00 hr 48 min 59 sec)
Heartbeat CPU 0 instructions: 440000000 cycles: 184466120 heartbeat IPC: 3.996 cumulative IPC: 2.273 (Simulation time: 00 hr 49 min 49 sec)
Heartbeat CPU 0 instructions: 450000001 cycles: 186968456 heartbeat IPC: 3.996 cumulative IPC: 2.298 (Simulation time: 00 hr 50 min 41 sec)
Heartbeat CPU 0 instructions: 460000002 cycles: 189471375 heartbeat IPC: 3.995 cumulative IPC: 2.322 (Simulation time: 00 hr 51 min 31 sec)
Heartbeat CPU 0 instructions: 470000001 cycles: 191974587 heartbeat IPC: 3.995 cumulative IPC: 2.345 (Simulation time: 00 hr 52 min 21 sec)
Heartbeat CPU 0 instructions: 480000000 cycles: 194476975 heartbeat IPC: 3.996 cumulative IPC: 2.368 (Simulation time: 00 hr 53 min 11 sec)
Heartbeat CPU 0 instructions: 490000001 cycles: 196979365 heartbeat IPC: 3.996 cumulative IPC: 2.39 (Simulation time: 00 hr 54 min 00 sec)
Heartbeat CPU 0 instructions: 500000004 cycles: 199482179 heartbeat IPC: 3.996 cumulative IPC: 2.412 (Simulation time: 00 hr 54 min 53 sec)
Heartbeat CPU 0 instructions: 510000000 cycles: 207228956 heartbeat IPC: 1.291 cumulative IPC: 2.367 (Simulation time: 00 hr 56 min 37 sec)
Heartbeat CPU 0 instructions: 520000000 cycles: 301329228 heartbeat IPC: 0.1063 cumulative IPC: 1.629 (Simulation time: 01 hr 13 min 42 sec)
Heartbeat CPU 0 instructions: 530000000 cycles: 386609361 heartbeat IPC: 0.1173 cumulative IPC: 1.284 (Simulation time: 01 hr 29 min 15 sec)
Heartbeat CPU 0 instructions: 540000000 cycles: 422900149 heartbeat IPC: 0.2756 cumulative IPC: 1.195 (Simulation time: 01 hr 36 min 18 sec)
Heartbeat CPU 0 instructions: 550000003 cycles: 459958043 heartbeat IPC: 0.2698 cumulative IPC: 1.118 (Simulation time: 01 hr 43 min 28 sec)
Heartbeat CPU 0 instructions: 560000000 cycles: 496500864 heartbeat IPC: 0.2737 cumulative IPC: 1.055 (Simulation time: 01 hr 50 min 30 sec)
Heartbeat CPU 0 instructions: 570000003 cycles: 530119932 heartbeat IPC: 0.2975 cumulative IPC: 1.005 (Simulation time: 01 hr 56 min 58 sec)
Heartbeat CPU 0 instructions: 580000001 cycles: 566594297 heartbeat IPC: 0.2742 cumulative IPC: 0.9572 (Simulation time: 02 hr 04 min 02 sec)
Heartbeat CPU 0 instructions: 590000001 cycles: 603391103 heartbeat IPC: 0.2718 cumulative IPC: 0.9145 (Simulation time: 02 hr 11 min 19 sec)
*** Reached end of trace: (0, "traces/sp.A.champsimtrace")
Heartbeat CPU 0 instructions: 600000004 cycles: 640500238 heartbeat IPC: 0.2695 cumulative IPC: 0.8763 (Simulation time: 02 hr 18 min 37 sec)
Heartbeat CPU 0 instructions: 610000004 cycles: 671413799 heartbeat IPC: 0.3235 cumulative IPC: 0.8504 (Simulation time: 02 hr 23 min 25 sec)
Heartbeat CPU 0 instructions: 620000002 cycles: 676013272 heartbeat IPC: 2.174 cumulative IPC: 0.8596 (Simulation time: 02 hr 24 min 39 sec)
Heartbeat CPU 0 instructions: 630000001 cycles: 680637047 heartbeat IPC: 2.163 cumulative IPC: 0.8686 (Simulation time: 02 hr 25 min 52 sec)
Heartbeat CPU 0 instructions: 640000000 cycles: 685242947 heartbeat IPC: 2.171 cumulative IPC: 0.8775 (Simulation time: 02 hr 27 min 05 sec)
Heartbeat CPU 0 instructions: 650000004 cycles: 689872195 heartbeat IPC: 2.16 cumulative IPC: 0.8863 (Simulation time: 02 hr 28 min 20 sec)
Simulation finished CPU 0 instructions: 600000001 cycles: 676991138 cumulative IPC: 0.8863 (Simulation time: 02 hr 28 min 20 sec)
Simulation complete CPU 0 instructions: 600000001 cycles: 676991138 cumulative IPC: 0.8863 (Simulation time: 02 hr 28 min 20 sec)

ChampSim completed all CPUs

=== Simulation ===
CPU 0 runs traces/sp.A.champsimtrace
Region of Interest Statistics

CPU 0 cumulative IPC: 0.8863 instructions: 600000001 cycles: 676991138
CPU 0 Branch Prediction Accuracy: 98.91% MPKI: 0.226 Average ROB Occupancy at Mispredict: 232.3
Branch type MPKI
BRANCH_DIRECT_JUMP: 5e-06
BRANCH_INDIRECT: 7.67e-05
BRANCH_CONDITIONAL: 0.226
BRANCH_DIRECT_CALL: 2e-05
BRANCH_INDIRECT_CALL: 3.33e-05
BRANCH_RETURN: 3.67e-05

LLC TOTAL        ACCESS:    7585629 HIT:    1344401 MISS:    6241228
LLC LOAD         ACCESS:    2306589 HIT:     902854 MISS:    1403735
LLC RFO          ACCESS:     922693 HIT:        614 MISS:     922079
LLC PREFETCH     ACCESS:    2306619 HIT:     292163 MISS:    2014456
LLC WRITE        ACCESS:    2046211 HIT:     148756 MISS:    1897455
LLC TRANSLATION  ACCESS:       3517 HIT:         14 MISS:       3503
LLC PREFETCH REQUESTED:    2306734 ISSUED:    2306619 USEFUL:    1573558 USELESS:      46722
LLC AVERAGE MISS LATENCY: 756.1 cycles
cpu0_DTLB TOTAL        ACCESS:  127199281 HIT:  126359992 MISS:     839289
cpu0_DTLB LOAD         ACCESS:  127199281 HIT:  126359992 MISS:     839289
cpu0_DTLB RFO          ACCESS:          0 HIT:          0 MISS:          0
cpu0_DTLB PREFETCH     ACCESS:          0 HIT:          0 MISS:          0
cpu0_DTLB WRITE        ACCESS:          0 HIT:          0 MISS:          0
cpu0_DTLB TRANSLATION  ACCESS:          0 HIT:          0 MISS:          0
cpu0_DTLB PREFETCH REQUESTED:          0 ISSUED:          0 USEFUL:          0 USELESS:          0
cpu0_DTLB AVERAGE MISS LATENCY: 20.43 cycles
cpu0_ITLB TOTAL        ACCESS:     218034 HIT:     217794 MISS:        240
cpu0_ITLB LOAD         ACCESS:     218034 HIT:     217794 MISS:        240
cpu0_ITLB RFO          ACCESS:          0 HIT:          0 MISS:          0
cpu0_ITLB PREFETCH     ACCESS:          0 HIT:          0 MISS:          0
cpu0_ITLB WRITE        ACCESS:          0 HIT:          0 MISS:          0
cpu0_ITLB TRANSLATION  ACCESS:          0 HIT:          0 MISS:          0
cpu0_ITLB PREFETCH REQUESTED:          0 ISSUED:          0 USEFUL:          0 USELESS:          0
cpu0_ITLB AVERAGE MISS LATENCY: 346.6 cycles
cpu0_L1D TOTAL        ACCESS:  192507794 HIT:  178306153 MISS:   14201641
cpu0_L1D LOAD         ACCESS:  157265629 HIT:  147269331 MISS:    9996298
cpu0_L1D RFO          ACCESS:          0 HIT:          0 MISS:          0
cpu0_L1D PREFETCH     ACCESS:          0 HIT:          0 MISS:          0
cpu0_L1D WRITE        ACCESS:   35194287 HIT:   31007254 MISS:    4187033
cpu0_L1D TRANSLATION  ACCESS:      47878 HIT:      29568 MISS:      18310
cpu0_L1D PREFETCH REQUESTED:          0 ISSUED:          0 USEFUL:          0 USELESS:          0
cpu0_L1D AVERAGE MISS LATENCY: 164.9 cycles
cpu0_L1I TOTAL        ACCESS:     225637 HIT:     222797 MISS:       2840
cpu0_L1I LOAD         ACCESS:     225637 HIT:     222797 MISS:       2840
cpu0_L1I RFO          ACCESS:          0 HIT:          0 MISS:          0
cpu0_L1I PREFETCH     ACCESS:          0 HIT:          0 MISS:          0
cpu0_L1I WRITE        ACCESS:          0 HIT:          0 MISS:          0
cpu0_L1I TRANSLATION  ACCESS:          0 HIT:          0 MISS:          0
cpu0_L1I PREFETCH REQUESTED:          0 ISSUED:          0 USEFUL:          0 USELESS:          0
cpu0_L1I AVERAGE MISS LATENCY: 509.8 cycles
cpu0_L2C TOTAL        ACCESS:    5429591 HIT:    2196440 MISS:    3233151
cpu0_L2C LOAD         ACCESS:    2428516 HIT:     121920 MISS:    2306596
cpu0_L2C RFO          ACCESS:     924313 HIT:       1620 MISS:     922693
cpu0_L2C PREFETCH     ACCESS:          0 HIT:          0 MISS:          0
cpu0_L2C WRITE        ACCESS:    2058455 HIT:    2058110 MISS:        345
cpu0_L2C TRANSLATION  ACCESS:      18307 HIT:      14790 MISS:       3517
cpu0_L2C PREFETCH REQUESTED:          0 ISSUED:          0 USEFUL:          0 USELESS:          0
cpu0_L2C AVERAGE MISS LATENCY: 980.7 cycles
cpu0_STLB TOTAL        ACCESS:     584830 HIT:     536983 MISS:      47847
cpu0_STLB LOAD         ACCESS:     584830 HIT:     536983 MISS:      47847
cpu0_STLB RFO          ACCESS:          0 HIT:          0 MISS:          0
cpu0_STLB PREFETCH     ACCESS:          0 HIT:          0 MISS:          0
cpu0_STLB WRITE        ACCESS:          0 HIT:          0 MISS:          0
cpu0_STLB TRANSLATION  ACCESS:          0 HIT:          0 MISS:          0
cpu0_STLB PREFETCH REQUESTED:          0 ISSUED:          0 USEFUL:          0 USELESS:          0
cpu0_STLB AVERAGE MISS LATENCY: 409.9 cycles

DRAM Statistics

Channel 0 RQ ROW_BUFFER_HIT:     799475
  ROW_BUFFER_MISS:    2177813
 AVG DBUS CONGESTED CYCLE: 3.974
WQ ROW_BUFFER_HIT: Channel 0 
  ROW_BUFFER_MISS:     658178
  FULL:    1325739
