WARNING: physical memory size is smaller than virtual memory size.

*** ChampSim Multicore Out-of-Order Simulator ***
Warmup Instructions: 50000000
Simulation Instructions: 600000000
Number of CPUs: 1
Page size: 4096

Off-chip DRAM Size: 4 GiB Channels: 1 Width: 64-bit Data Race: 3200 MT/s
Heartbeat CPU 0 instructions: 10000003 cycles: 2881056 heartbeat IPC: 3.471 cumulative IPC: 3.471 (Simulation time: 00 hr 00 min 47 sec)
Heartbeat CPU 0 instructions: 20000003 cycles: 5381056 heartbeat IPC: 4 cumulative IPC: 3.717 (Simulation time: 00 hr 01 min 31 sec)
Heartbeat CPU 0 instructions: 30000003 cycles: 7881056 heartbeat IPC: 4 cumulative IPC: 3.807 (Simulation time: 00 hr 02 min 15 sec)
Heartbeat CPU 0 instructions: 40000003 cycles: 10381056 heartbeat IPC: 4 cumulative IPC: 3.853 (Simulation time: 00 hr 02 min 59 sec)
Heartbeat CPU 0 instructions: 50000003 cycles: 12881056 heartbeat IPC: 4 cumulative IPC: 3.882 (Simulation time: 00 hr 03 min 42 sec)
Warmup finished CPU 0 instructions: 50000003 cycles: 12881057 cumulative IPC: 3.882 (Simulation time: 00 hr 03 min 42 sec)
Warmup complete CPU 0 instructions: 50000003 cycles: 12881057 cumulative IPC: 3.882 (Simulation time: 00 hr 03 min 42 sec)
Heartbeat CPU 0 instructions: 60000000 cycles: 17486468 heartbeat IPC: 2.171 cumulative IPC: 2.171 (Simulation time: 00 hr 04 min 53 sec)
Heartbeat CPU 0 instructions: 70000002 cycles: 22110476 heartbeat IPC: 2.163 cumulative IPC: 2.167 (Simulation time: 00 hr 06 min 04 sec)
Heartbeat CPU 0 instructions: 80000001 cycles: 26749868 heartbeat IPC: 2.155 cumulative IPC: 2.163 (Simulation time: 00 hr 07 min 14 sec)
Heartbeat CPU 0 instructions: 90000004 cycles: 31396866 heartbeat IPC: 2.152 cumulative IPC: 2.16 (Simulation time: 00 hr 08 min 25 sec)
Heartbeat CPU 0 instructions: 100000000 cycles: 34933592 heartbeat IPC: 2.827 cumulative IPC: 2.267 (Simulation time: 00 hr 09 min 23 sec)
Heartbeat CPU 0 instructions: 110000004 cycles: 37525108 heartbeat IPC: 3.859 cumulative IPC: 2.435 (Simulation time: 00 hr 10 min 12 sec)
Heartbeat CPU 0 instructions: 120000000 cycles: 40716657 heartbeat IPC: 3.133 cumulative IPC: 2.515 (Simulation time: 00 hr 11 min 07 sec)
Heartbeat CPU 0 instructions: 130000002 cycles: 44250477 heartbeat IPC: 2.83 cumulative IPC: 2.55 (Simulation time: 00 hr 12 min 04 sec)
Heartbeat CPU 0 instructions: 140000004 cycles: 47787905 heartbeat IPC: 2.827 cumulative IPC: 2.578 (Simulation time: 00 hr 13 min 02 sec)
Heartbeat CPU 0 instructions: 150000001 cycles: 51348859 heartbeat IPC: 2.808 cumulative IPC: 2.6 (Simulation time: 00 hr 14 min 01 sec)
Heartbeat CPU 0 instructions: 160000002 cycles: 54814938 heartbeat IPC: 2.885 cumulative IPC: 2.623 (Simulation time: 00 hr 15 min 01 sec)
Heartbeat CPU 0 instructions: 170000000 cycles: 58387046 heartbeat IPC: 2.799 cumulative IPC: 2.637 (Simulation time: 00 hr 16 min 01 sec)
Heartbeat CPU 0 instructions: 180000000 cycles: 61956342 heartbeat IPC: 2.802 cumulative IPC: 2.649 (Simulation time: 00 hr 17 min 02 sec)
Heartbeat CPU 0 instructions: 190000000 cycles: 65407297 heartbeat IPC: 2.898 cumulative IPC: 2.665 (Simulation time: 00 hr 18 min 02 sec)
Heartbeat CPU 0 instructions: 200000004 cycles: 68521176 heartbeat IPC: 3.211 cumulative IPC: 2.696 (Simulation time: 00 hr 18 min 58 sec)
Heartbeat CPU 0 instructions: 210000001 cycles: 71635938 heartbeat IPC: 3.211 cumulative IPC: 2.723 (Simulation time: 00 hr 19 min 55 sec)
Heartbeat CPU 0 instructions: 220000004 cycles: 74716454 heartbeat IPC: 3.246 cumulative IPC: 2.749 (Simulation time: 00 hr 20 min 50 sec)
Heartbeat CPU 0 instructions: 230000000 cycles: 77860180 heartbeat IPC: 3.181 cumulative IPC: 2.77 (Simulation time: 00 hr 21 min 46 sec)
Heartbeat CPU 0 instructions: 240000001 cycles: 80867264 heartbeat IPC: 3.325 cumulative IPC: 2.795 (Simulation time: 00 hr 22 min 42 sec)
Heartbeat CPU 0 instructions: 250000002 cycles: 83928967 heartbeat IPC: 3.266 cumulative IPC: 2.815 (Simulation time: 00 hr 23 min 37 sec)
Heartbeat CPU 0 instructions: 260000002 cycles: 87090585 heartbeat IPC: 3.163 cumulative IPC: 2.83 (Simulation time: 00 hr 24 min 34 sec)
Heartbeat CPU 0 instructions: 270000002 cycles: 90194961 heartbeat IPC: 3.221 cumulative IPC: 2.846 (Simulation time: 00 hr 25 min 31 sec)
Heartbeat CPU 0 instructions: 280000003 cycles: 93407210 heartbeat IPC: 3.113 cumulative IPC: 2.856 (Simulation time: 00 hr 26 min 29 sec)
Heartbeat CPU 0 instructions: 290000000 cycles: 144147249 heartbeat IPC: 0.1971 cumulative IPC: 1.828 (Simulation time: 00 hr 34 min 38 sec)
Heartbeat CPU 0 instructions: 300000001 cycles: 146649637 heartbeat IPC: 3.996 cumulative IPC: 1.869 (Simulation time: 00 hr 35 min 27 sec)
Heartbeat CPU 0 instructions: 310000000 cycles: 149152490 heartbeat IPC: 3.995 cumulative IPC: 1.908 (Simulation time: 00 hr 36 min 17 sec)
Heartbeat CPU 0 instructions: 320000002 cycles: 151656265 heartbeat IPC: 3.994 cumulative IPC: 1.946 (Simulation time: 00 hr 37 min 06 sec)
Heartbeat CPU 0 instructions: 330000004 cycles: 154160523 heartbeat IPC: 3.993 cumulative IPC: 1.982 (Simulation time: 00 hr 37 min 55 sec)
Heartbeat CPU 0 instructions: 340000004 cycles: 156663648 heartbeat IPC: 3.995 cumulative IPC: 2.017 (Simulation time: 00 hr 38 min 45 sec)
Heartbeat CPU 0 instructions: 350000003 cycles: 159166040 heartbeat IPC: 3.996 cumulative IPC: 2.051 (Simulation time: 00 hr 39 min 34 sec)
Heartbeat CPU 0 instructions: 360000002 cycles: 161670830 heartbeat IPC: 3.992 cumulative IPC: 2.083 (Simulation time: 00 hr 40 min 23 sec)
Heartbeat CPU 0 instructions: 370000004 cycles: 164173279 heartbeat IPC: 3.996 cumulative IPC: 2.115 (Simulation time: 00 hr 41 min 14 sec)
Heartbeat CPU 0 instructions: 380000003 cycles: 166676794 heartbeat IPC: 3.994 cumulative IPC: 2.146 (Simulation time: 00 hr 42 min 03 sec)
Heartbeat CPU 0 instructions: 390000000 cycles: 169179435 heartbeat IPC: 3.996 cumulative IPC: 2.175 (Simulation time: 00 hr 42 min 53 sec)
Heartbeat CPU 0 instructions: 400000002 cycles: 171683744 heartbeat IPC: 3.993 cumulative IPC: 2.204 (Simulation time: 00 hr 43 min 42 sec)
Heartbeat CPU 0 instructions: 410000002 cycles: 174186213 heartbeat IPC: 3.996 cumulative IPC: 2.232 (Simulation time: 00 hr 44 min 32 sec)
Heartbeat CPU 0 instructions: 420000000 cycles: 176690149 heartbeat IPC: 3.994 cumulative IPC: 2.259 (Simulation time: 00 hr 45 min 21 sec)
Heartbeat CPU 0 instructions: 430000001 cycles: 179192537 heartbeat IPC: 3.996 cumulative IPC: 2.285 (Simulation time: 00 hr 46 min 11 sec)
Heartbeat CPU 0 instructions: 440000000 cycles: 181694925 heartbeat IPC: 3.996 cumulative IPC: 2.31 (Simulation time: 00 hr 46 min 59 sec)
Heartbeat CPU 0 instructions: 450000001 cycles: 184197669 heartbeat IPC: 3.996 cumulative IPC: 2.335 (Simulation time: 00 hr 47 min 50 sec)
Heartbeat CPU 0 instructions: 460000002 cycles: 186701133 heartbeat IPC: 3.994 cumulative IPC: 2.359 (Simulation time: 00 hr 48 min 40 sec)
Heartbeat CPU 0 instructions: 470000001 cycles: 189204563 heartbeat IPC: 3.995 cumulative IPC: 2.382 (Simulation time: 00 hr 49 min 30 sec)
Heartbeat CPU 0 instructions: 480000000 cycles: 191707292 heartbeat IPC: 3.996 cumulative IPC: 2.405 (Simulation time: 00 hr 50 min 20 sec)
Heartbeat CPU 0 instructions: 490000001 cycles: 194209756 heartbeat IPC: 3.996 cumulative IPC: 2.427 (Simulation time: 00 hr 51 min 10 sec)
Heartbeat CPU 0 instructions: 500000004 cycles: 196712569 heartbeat IPC: 3.996 cumulative IPC: 2.448 (Simulation time: 00 hr 52 min 02 sec)
Heartbeat CPU 0 instructions: 510000000 cycles: 204432889 heartbeat IPC: 1.295 cumulative IPC: 2.401 (Simulation time: 00 hr 53 min 43 sec)
Heartbeat CPU 0 instructions: 520000000 cycles: 296334618 heartbeat IPC: 0.1088 cumulative IPC: 1.658 (Simulation time: 01 hr 09 min 43 sec)
Heartbeat CPU 0 instructions: 530000001 cycles: 376484529 heartbeat IPC: 0.1248 cumulative IPC: 1.32 (Simulation time: 01 hr 24 min 00 sec)
Heartbeat CPU 0 instructions: 540000000 cycles: 413523936 heartbeat IPC: 0.27 cumulative IPC: 1.223 (Simulation time: 01 hr 30 min 56 sec)
Heartbeat CPU 0 instructions: 550000003 cycles: 450547752 heartbeat IPC: 0.2701 cumulative IPC: 1.142 (Simulation time: 01 hr 37 min 53 sec)
Heartbeat CPU 0 instructions: 560000000 cycles: 487145460 heartbeat IPC: 0.2732 cumulative IPC: 1.075 (Simulation time: 01 hr 44 min 56 sec)
Heartbeat CPU 0 instructions: 570000003 cycles: 524435297 heartbeat IPC: 0.2682 cumulative IPC: 1.017 (Simulation time: 01 hr 52 min 06 sec)
Heartbeat CPU 0 instructions: 580000004 cycles: 561759011 heartbeat IPC: 0.2679 cumulative IPC: 0.9656 (Simulation time: 01 hr 59 min 14 sec)
Heartbeat CPU 0 instructions: 590000001 cycles: 599557024 heartbeat IPC: 0.2646 cumulative IPC: 0.9204 (Simulation time: 02 hr 06 min 27 sec)
*** Reached end of trace: (0, "traces/sp.A.champsimtrace")
Heartbeat CPU 0 instructions: 600000004 cycles: 636689113 heartbeat IPC: 0.2693 cumulative IPC: 0.8817 (Simulation time: 02 hr 13 min 33 sec)
Heartbeat CPU 0 instructions: 610000004 cycles: 660893026 heartbeat IPC: 0.4132 cumulative IPC: 0.8642 (Simulation time: 02 hr 17 min 18 sec)
Heartbeat CPU 0 instructions: 620000003 cycles: 664117922 heartbeat IPC: 3.101 cumulative IPC: 0.8753 (Simulation time: 02 hr 18 min 20 sec)
Heartbeat CPU 0 instructions: 630000001 cycles: 668714787 heartbeat IPC: 2.175 cumulative IPC: 0.8844 (Simulation time: 02 hr 19 min 43 sec)
Heartbeat CPU 0 instructions: 640000000 cycles: 673321867 heartbeat IPC: 2.171 cumulative IPC: 0.8933 (Simulation time: 02 hr 21 min 00 sec)
Heartbeat CPU 0 instructions: 650000004 cycles: 677947020 heartbeat IPC: 2.162 cumulative IPC: 0.9022 (Simulation time: 02 hr 22 min 15 sec)
Simulation finished CPU 0 instructions: 600000001 cycles: 665065964 cumulative IPC: 0.9022 (Simulation time: 02 hr 22 min 15 sec)
Simulation complete CPU 0 instructions: 600000001 cycles: 665065964 cumulative IPC: 0.9022 (Simulation time: 02 hr 22 min 15 sec)

ChampSim completed all CPUs

=== Simulation ===
CPU 0 runs traces/sp.A.champsimtrace
Region of Interest Statistics

CPU 0 cumulative IPC: 0.9022 instructions: 600000001 cycles: 665065964
CPU 0 Branch Prediction Accuracy: 98.91% MPKI: 0.226 Average ROB Occupancy at Mispredict: 231.9
Branch type MPKI
BRANCH_DIRECT_JUMP: 5e-06
BRANCH_INDIRECT: 7.67e-05
BRANCH_CONDITIONAL: 0.226
BRANCH_DIRECT_CALL: 2e-05
BRANCH_INDIRECT_CALL: 3.33e-05
BRANCH_RETURN: 3.67e-05

LLC TOTAL        ACCESS:    7585603 HIT:    1387340 MISS:    6198263
LLC LOAD         ACCESS:    2306583 HIT:     923988 MISS:    1382595
LLC RFO          ACCESS:     922692 HIT:      28730 MISS:     893962
LLC PREFETCH     ACCESS:    2306613 HIT:     301535 MISS:    2005078
LLC WRITE        ACCESS:    2046202 HIT:     132941 MISS:    1913261
LLC TRANSLATION  ACCESS:       3513 HIT:        146 MISS:       3367
LLC PREFETCH REQUESTED:    2307012 ISSUED:    2306613 USEFUL:    1579268 USELESS:      46984
LLC AVERAGE MISS LATENCY: 752.6 cycles
cpu0_DTLB TOTAL        ACCESS:  127324820 HIT:  126487158 MISS:     837662
cpu0_DTLB LOAD         ACCESS:  127324820 HIT:  126487158 MISS:     837662
cpu0_DTLB RFO          ACCESS:          0 HIT:          0 MISS:          0
cpu0_DTLB PREFETCH     ACCESS:          0 HIT:          0 MISS:          0
cpu0_DTLB WRITE        ACCESS:          0 HIT:          0 MISS:          0
cpu0_DTLB TRANSLATION  ACCESS:          0 HIT:          0 MISS:          0
cpu0_DTLB PREFETCH REQUESTED:          0 ISSUED:          0 USEFUL:          0 USELESS:          0
cpu0_DTLB AVERAGE MISS LATENCY: 20.13 cycles
cpu0_ITLB TOTAL        ACCESS:     217278 HIT:     217038 MISS:        240
cpu0_ITLB LOAD         ACCESS:     217278 HIT:     217038 MISS:        240
cpu0_ITLB RFO          ACCESS:          0 HIT:          0 MISS:          0
cpu0_ITLB PREFETCH     ACCESS:          0 HIT:          0 MISS:          0
cpu0_ITLB WRITE        ACCESS:          0 HIT:          0 MISS:          0
cpu0_ITLB TRANSLATION  ACCESS:          0 HIT:          0 MISS:          0
cpu0_ITLB PREFETCH REQUESTED:          0 ISSUED:          0 USEFUL:          0 USELESS:          0
cpu0_ITLB AVERAGE MISS LATENCY: 188.8 cycles
cpu0_L1D TOTAL        ACCESS:  192631032 HIT:  178443730 MISS:   14187302
cpu0_L1D LOAD         ACCESS:  157388856 HIT:  147405978 MISS:    9982878
cpu0_L1D RFO          ACCESS:          0 HIT:          0 MISS:          0
cpu0_L1D PREFETCH     ACCESS:          0 HIT:          0 MISS:          0
cpu0_L1D WRITE        ACCESS:   35194299 HIT:   31008187 MISS:    4186112
cpu0_L1D TRANSLATION  ACCESS:      47877 HIT:      29565 MISS:      18312
cpu0_L1D PREFETCH REQUESTED:          0 ISSUED:          0 USEFUL:          0 USELESS:          0
cpu0_L1D AVERAGE MISS LATENCY: 159.3 cycles
cpu0_L1I TOTAL        ACCESS:     224717 HIT:     221922 MISS:       2795
cpu0_L1I LOAD         ACCESS:     224717 HIT:     221922 MISS:       2795
cpu0_L1I RFO          ACCESS:          0 HIT:          0 MISS:          0
cpu0_L1I PREFETCH     ACCESS:          0 HIT:          0 MISS:          0
cpu0_L1I WRITE        ACCESS:          0 HIT:          0 MISS:          0
cpu0_L1I TRANSLATION  ACCESS:          0 HIT:          0 MISS:          0
cpu0_L1I PREFETCH REQUESTED:          0 ISSUED:          0 USEFUL:          0 USELESS:          0
cpu0_L1I AVERAGE MISS LATENCY: 377.9 cycles
cpu0_L2C TOTAL        ACCESS:    5429809 HIT:    2196674 MISS:    3233135
cpu0_L2C LOAD         ACCESS:    2428722 HIT:     122137 MISS:    2306585
cpu0_L2C RFO          ACCESS:     924314 HIT:       1622 MISS:     922692
cpu0_L2C PREFETCH     ACCESS:          0 HIT:          0 MISS:          0
cpu0_L2C WRITE        ACCESS:    2058464 HIT:    2058119 MISS:        345
cpu0_L2C TRANSLATION  ACCESS:      18309 HIT:      14796 MISS:       3513
cpu0_L2C PREFETCH REQUESTED:          0 ISSUED:          0 USEFUL:          0 USELESS:          0
cpu0_L2C AVERAGE MISS LATENCY: 960.9 cycles
cpu0_STLB TOTAL        ACCESS:     582873 HIT:     535026 MISS:      47847
cpu0_STLB LOAD         ACCESS:     582873 HIT:     535026 MISS:      47847
cpu0_STLB RFO          ACCESS:          0 HIT:          0 MISS:          0
cpu0_STLB PREFETCH     ACCESS:          0 HIT:          0 MISS:          0
cpu0_STLB WRITE        ACCESS:          0 HIT:          0 MISS:          0
cpu0_STLB TRANSLATION  ACCESS:          0 HIT:          0 MISS:          0
cpu0_STLB PREFETCH REQUESTED:          0 ISSUED:          0 USEFUL:          0 USELESS:          0
cpu0_STLB AVERAGE MISS LATENCY: 398.2 cycles

DRAM Statistics

Channel 0 RQ ROW_BUFFER_HIT:     764908
  ROW_BUFFER_MISS:    2173606
 AVG DBUS CONGESTED CYCLE: 3.976
WQ ROW_BUFFER_HIT: Channel 0 
  ROW_BUFFER_MISS:     656290
  FULL:    1263869
