WARNING: physical memory size is smaller than virtual memory size.

*** ChampSim Multicore Out-of-Order Simulator ***
Warmup Instructions: 50000000
Simulation Instructions: 600000000
Number of CPUs: 1
Page size: 4096

Off-chip DRAM Size: 4 GiB Channels: 1 Width: 64-bit Data Race: 3200 MT/s
Heartbeat CPU 0 instructions: 10000000 cycles: 2881055 heartbeat IPC: 3.471 cumulative IPC: 3.471 (Simulation time: 00 hr 00 min 40 sec)
Heartbeat CPU 0 instructions: 20000000 cycles: 5381055 heartbeat IPC: 4 cumulative IPC: 3.717 (Simulation time: 00 hr 01 min 18 sec)
Heartbeat CPU 0 instructions: 30000000 cycles: 7881055 heartbeat IPC: 4 cumulative IPC: 3.807 (Simulation time: 00 hr 01 min 53 sec)
Heartbeat CPU 0 instructions: 40000000 cycles: 10381055 heartbeat IPC: 4 cumulative IPC: 3.853 (Simulation time: 00 hr 02 min 28 sec)
Heartbeat CPU 0 instructions: 50000000 cycles: 12881055 heartbeat IPC: 4 cumulative IPC: 3.882 (Simulation time: 00 hr 03 min 03 sec)
Warmup finished CPU 0 instructions: 50000000 cycles: 12881056 cumulative IPC: 3.882 (Simulation time: 00 hr 03 min 03 sec)
Warmup complete CPU 0 instructions: 50000000 cycles: 12881056 cumulative IPC: 3.882 (Simulation time: 00 hr 03 min 03 sec)
Heartbeat CPU 0 instructions: 60000000 cycles: 17377120 heartbeat IPC: 2.224 cumulative IPC: 2.224 (Simulation time: 00 hr 04 min 00 sec)
Heartbeat CPU 0 instructions: 70000002 cycles: 21868547 heartbeat IPC: 2.226 cumulative IPC: 2.225 (Simulation time: 00 hr 04 min 57 sec)
Heartbeat CPU 0 instructions: 80000001 cycles: 26368539 heartbeat IPC: 2.222 cumulative IPC: 2.224 (Simulation time: 00 hr 05 min 55 sec)
Heartbeat CPU 0 instructions: 90000003 cycles: 30768677 heartbeat IPC: 2.273 cumulative IPC: 2.236 (Simulation time: 00 hr 06 min 51 sec)
Heartbeat CPU 0 instructions: 100000000 cycles: 34872937 heartbeat IPC: 2.436 cumulative IPC: 2.274 (Simulation time: 00 hr 07 min 43 sec)
Heartbeat CPU 0 instructions: 110000001 cycles: 38576671 heartbeat IPC: 2.7 cumulative IPC: 2.335 (Simulation time: 00 hr 08 min 33 sec)
Heartbeat CPU 0 instructions: 120000001 cycles: 42167866 heartbeat IPC: 2.785 cumulative IPC: 2.39 (Simulation time: 00 hr 09 min 23 sec)
Heartbeat CPU 0 instructions: 130000000 cycles: 45793423 heartbeat IPC: 2.758 cumulative IPC: 2.431 (Simulation time: 00 hr 10 min 12 sec)
Heartbeat CPU 0 instructions: 140000004 cycles: 49359205 heartbeat IPC: 2.804 cumulative IPC: 2.467 (Simulation time: 00 hr 11 min 01 sec)
Heartbeat CPU 0 instructions: 150000000 cycles: 52862917 heartbeat IPC: 2.854 cumulative IPC: 2.501 (Simulation time: 00 hr 11 min 49 sec)
Heartbeat CPU 0 instructions: 160000000 cycles: 56362055 heartbeat IPC: 2.858 cumulative IPC: 2.53 (Simulation time: 00 hr 12 min 37 sec)
Heartbeat CPU 0 instructions: 170000000 cycles: 59970178 heartbeat IPC: 2.772 cumulative IPC: 2.548 (Simulation time: 00 hr 13 min 26 sec)
Heartbeat CPU 0 instructions: 180000002 cycles: 63612933 heartbeat IPC: 2.745 cumulative IPC: 2.562 (Simulation time: 00 hr 14 min 16 sec)
Heartbeat CPU 0 instructions: 190000002 cycles: 66870783 heartbeat IPC: 3.07 cumulative IPC: 2.593 (Simulation time: 00 hr 15 min 04 sec)
Heartbeat CPU 0 instructions: 200000000 cycles: 69651755 heartbeat IPC: 3.596 cumulative IPC: 2.642 (Simulation time: 00 hr 15 min 47 sec)
Heartbeat CPU 0 instructions: 210000000 cycles: 72445598 heartbeat IPC: 3.579 cumulative IPC: 2.686 (Simulation time: 00 hr 16 min 30 sec)
Heartbeat CPU 0 instructions: 220000001 cycles: 75520250 heartbeat IPC: 3.252 cumulative IPC: 2.714 (Simulation time: 00 hr 17 min 15 sec)
Heartbeat CPU 0 instructions: 230000004 cycles: 78897937 heartbeat IPC: 2.961 cumulative IPC: 2.727 (Simulation time: 00 hr 18 min 02 sec)
Heartbeat CPU 0 instructions: 240000002 cycles: 82382829 heartbeat IPC: 2.87 cumulative IPC: 2.734 (Simulation time: 00 hr 18 min 52 sec)
Heartbeat CPU 0 instructions: 250000002 cycles: 86013872 heartbeat IPC: 2.754 cumulative IPC: 2.735 (Simulation time: 00 hr 19 min 41 sec)
Heartbeat CPU 0 instructions: 260000002 cycles: 89887866 heartbeat IPC: 2.581 cumulative IPC: 2.727 (Simulation time: 00 hr 20 min 34 sec)
Heartbeat CPU 0 instructions: 270000003 cycles: 93710905 heartbeat IPC: 2.616 cumulative IPC: 2.722 (Simulation time: 00 hr 21 min 25 sec)
Heartbeat CPU 0 instructions: 280000003 cycles: 97529512 heartbeat IPC: 2.619 cumulative IPC: 2.717 (Simulation time: 00 hr 22 min 15 sec)
Heartbeat CPU 0 instructions: 290000001 cycles: 153190405 heartbeat IPC: 0.1797 cumulative IPC: 1.711 (Simulation time: 00 hr 28 min 52 sec)
Heartbeat CPU 0 instructions: 300000002 cycles: 155695509 heartbeat IPC: 3.992 cumulative IPC: 1.751 (Simulation time: 00 hr 29 min 31 sec)
Heartbeat CPU 0 instructions: 310000001 cycles: 158200555 heartbeat IPC: 3.992 cumulative IPC: 1.789 (Simulation time: 00 hr 30 min 10 sec)
Heartbeat CPU 0 instructions: 320000000 cycles: 160705669 heartbeat IPC: 3.992 cumulative IPC: 1.826 (Simulation time: 00 hr 30 min 49 sec)
Heartbeat CPU 0 instructions: 330000003 cycles: 163210707 heartbeat IPC: 3.992 cumulative IPC: 1.863 (Simulation time: 00 hr 31 min 28 sec)
Heartbeat CPU 0 instructions: 340000000 cycles: 165715777 heartbeat IPC: 3.992 cumulative IPC: 1.897 (Simulation time: 00 hr 32 min 07 sec)
Heartbeat CPU 0 instructions: 350000004 cycles: 168221037 heartbeat IPC: 3.992 cumulative IPC: 1.931 (Simulation time: 00 hr 32 min 46 sec)
Heartbeat CPU 0 instructions: 360000004 cycles: 170726112 heartbeat IPC: 3.992 cumulative IPC: 1.964 (Simulation time: 00 hr 33 min 25 sec)
Heartbeat CPU 0 instructions: 370000000 cycles: 173231186 heartbeat IPC: 3.992 cumulative IPC: 1.996 (Simulation time: 00 hr 34 min 03 sec)
Heartbeat CPU 0 instructions: 380000004 cycles: 175736233 heartbeat IPC: 3.992 cumulative IPC: 2.026 (Simulation time: 00 hr 34 min 42 sec)
Heartbeat CPU 0 instructions: 390000001 cycles: 178241306 heartbeat IPC: 3.992 cumulative IPC: 2.056 (Simulation time: 00 hr 35 min 21 sec)
Heartbeat CPU 0 instructions: 400000003 cycles: 180746384 heartbeat IPC: 3.992 cumulative IPC: 2.085 (Simulation time: 00 hr 36 min 01 sec)
Heartbeat CPU 0 instructions: 410000003 cycles: 183251499 heartbeat IPC: 3.992 cumulative IPC: 2.113 (Simulation time: 00 hr 36 min 41 sec)
Heartbeat CPU 0 instructions: 420000002 cycles: 185756574 heartbeat IPC: 3.992 cumulative IPC: 2.14 (Simulation time: 00 hr 37 min 19 sec)
Heartbeat CPU 0 instructions: 430000000 cycles: 188261735 heartbeat IPC: 3.992 cumulative IPC: 2.167 (Simulation time: 00 hr 37 min 58 sec)
Heartbeat CPU 0 instructions: 440000001 cycles: 190766809 heartbeat IPC: 3.992 cumulative IPC: 2.192 (Simulation time: 00 hr 38 min 37 sec)
Heartbeat CPU 0 instructions: 450000000 cycles: 193271856 heartbeat IPC: 3.992 cumulative IPC: 2.217 (Simulation time: 00 hr 39 min 16 sec)
Heartbeat CPU 0 instructions: 460000003 cycles: 195776893 heartbeat IPC: 3.992 cumulative IPC: 2.242 (Simulation time: 00 hr 39 min 55 sec)
Heartbeat CPU 0 instructions: 470000001 cycles: 198281967 heartbeat IPC: 3.992 cumulative IPC: 2.265 (Simulation time: 00 hr 40 min 35 sec)
Heartbeat CPU 0 instructions: 480000003 cycles: 200787039 heartbeat IPC: 3.992 cumulative IPC: 2.288 (Simulation time: 00 hr 41 min 14 sec)
Heartbeat CPU 0 instructions: 490000003 cycles: 203292113 heartbeat IPC: 3.992 cumulative IPC: 2.311 (Simulation time: 00 hr 41 min 55 sec)
Heartbeat CPU 0 instructions: 500000002 cycles: 205797238 heartbeat IPC: 3.992 cumulative IPC: 2.333 (Simulation time: 00 hr 42 min 34 sec)
Heartbeat CPU 0 instructions: 510000003 cycles: 211067394 heartbeat IPC: 1.897 cumulative IPC: 2.321 (Simulation time: 00 hr 43 min 33 sec)
Heartbeat CPU 0 instructions: 520000001 cycles: 318459882 heartbeat IPC: 0.09312 cumulative IPC: 1.538 (Simulation time: 00 hr 57 min 19 sec)
Heartbeat CPU 0 instructions: 530000004 cycles: 400013797 heartbeat IPC: 0.1226 cumulative IPC: 1.24 (Simulation time: 01 hr 07 min 53 sec)
Heartbeat CPU 0 instructions: 540000000 cycles: 428685052 heartbeat IPC: 0.3488 cumulative IPC: 1.178 (Simulation time: 01 hr 11 min 55 sec)
Heartbeat CPU 0 instructions: 550000002 cycles: 457274081 heartbeat IPC: 0.3498 cumulative IPC: 1.125 (Simulation time: 01 hr 16 min 01 sec)
Heartbeat CPU 0 instructions: 560000004 cycles: 485982910 heartbeat IPC: 0.3483 cumulative IPC: 1.078 (Simulation time: 01 hr 20 min 15 sec)
Heartbeat CPU 0 instructions: 570000000 cycles: 515223454 heartbeat IPC: 0.342 cumulative IPC: 1.035 (Simulation time: 01 hr 24 min 25 sec)
Heartbeat CPU 0 instructions: 580000001 cycles: 545059095 heartbeat IPC: 0.3352 cumulative IPC: 0.9959 (Simulation time: 01 hr 28 min 42 sec)
Heartbeat CPU 0 instructions: 590000004 cycles: 575515767 heartbeat IPC: 0.3283 cumulative IPC: 0.9598 (Simulation time: 01 hr 33 min 03 sec)
*** Reached end of trace: (0, "traces/sp.A.champsimtrace")
Heartbeat CPU 0 instructions: 600000001 cycles: 605933436 heartbeat IPC: 0.3288 cumulative IPC: 0.9274 (Simulation time: 01 hr 37 min 26 sec)
Heartbeat CPU 0 instructions: 610000000 cycles: 632709829 heartbeat IPC: 0.3735 cumulative IPC: 0.9035 (Simulation time: 01 hr 40 min 29 sec)
Heartbeat CPU 0 instructions: 620000003 cycles: 637130699 heartbeat IPC: 2.262 cumulative IPC: 0.9131 (Simulation time: 01 hr 41 min 26 sec)
Heartbeat CPU 0 instructions: 630000003 cycles: 641572678 heartbeat IPC: 2.251 cumulative IPC: 0.9226 (Simulation time: 01 hr 42 min 23 sec)
Heartbeat CPU 0 instructions: 640000004 cycles: 646012650 heartbeat IPC: 2.252 cumulative IPC: 0.9319 (Simulation time: 01 hr 43 min 21 sec)
Heartbeat CPU 0 instructions: 650000001 cycles: 650488130 heartbeat IPC: 2.234 cumulative IPC: 0.941 (Simulation time: 01 hr 44 min 17 sec)
Simulation finished CPU 0 instructions: 600000001 cycles: 637607075 cumulative IPC: 0.941 (Simulation time: 01 hr 44 min 17 sec)
Simulation complete CPU 0 instructions: 600000001 cycles: 637607075 cumulative IPC: 0.941 (Simulation time: 01 hr 44 min 17 sec)

ChampSim completed all CPUs

=== Simulation ===
CPU 0 runs traces/sp.A.champsimtrace
Region of Interest Statistics

CPU 0 cumulative IPC: 0.941 instructions: 600000001 cycles: 637607075
CPU 0 Branch Prediction Accuracy: 98.84% MPKI: 0.2406 Average ROB Occupancy at Mispredict: 220.7
Branch type MPKI
BRANCH_DIRECT_JUMP: 5e-06
BRANCH_INDIRECT: 7.5e-05
BRANCH_CONDITIONAL: 0.24
BRANCH_DIRECT_CALL: 2e-05
BRANCH_INDIRECT_CALL: 3.17e-05
BRANCH_RETURN: 3.67e-05

LLC TOTAL        ACCESS:    7580682 HIT:    3807228 MISS:    3773454
LLC LOAD         ACCESS:    2304626 HIT:    1199823 MISS:    1104803
LLC RFO          ACCESS:     922634 HIT:      10400 MISS:     912234
LLC PREFETCH     ACCESS:    2304626 HIT:     550046 MISS:    1754580
LLC WRITE        ACCESS:    2045323 HIT:    2045191 MISS:        132
LLC TRANSLATION  ACCESS:       3473 HIT:       1768 MISS:       1705
LLC PREFETCH REQUESTED:    2304626 ISSUED:    2304626 USEFUL:    1484829 USELESS:      25951
LLC AVERAGE MISS LATENCY: 1201 cycles
cpu0_DTLB TOTAL        ACCESS:  127489253 HIT:  126673630 MISS:     815623
cpu0_DTLB LOAD         ACCESS:  127489253 HIT:  126673630 MISS:     815623
cpu0_DTLB RFO          ACCESS:          0 HIT:          0 MISS:          0
cpu0_DTLB PREFETCH     ACCESS:          0 HIT:          0 MISS:          0
cpu0_DTLB WRITE        ACCESS:          0 HIT:          0 MISS:          0
cpu0_DTLB TRANSLATION  ACCESS:          0 HIT:          0 MISS:          0
cpu0_DTLB PREFETCH REQUESTED:          0 ISSUED:          0 USEFUL:          0 USELESS:          0
cpu0_DTLB AVERAGE MISS LATENCY: 16.56 cycles
cpu0_ITLB TOTAL        ACCESS:     216429 HIT:     216212 MISS:        217
cpu0_ITLB LOAD         ACCESS:     216429 HIT:     216212 MISS:        217
cpu0_ITLB RFO          ACCESS:          0 HIT:          0 MISS:          0
cpu0_ITLB PREFETCH     ACCESS:          0 HIT:          0 MISS:          0
cpu0_ITLB WRITE        ACCESS:          0 HIT:          0 MISS:          0
cpu0_ITLB TRANSLATION  ACCESS:          0 HIT:          0 MISS:          0
cpu0_ITLB PREFETCH REQUESTED:          0 ISSUED:          0 USEFUL:          0 USELESS:          0
cpu0_ITLB AVERAGE MISS LATENCY: 373.5 cycles
cpu0_L1D TOTAL        ACCESS:  193666220 HIT:  179689226 MISS:   13976994
cpu0_L1D LOAD         ACCESS:  158423996 HIT:  148657229 MISS:    9766767
cpu0_L1D RFO          ACCESS:          0 HIT:          0 MISS:          0
cpu0_L1D PREFETCH     ACCESS:          0 HIT:          0 MISS:          0
cpu0_L1D WRITE        ACCESS:   35194344 HIT:   31002440 MISS:    4191904
cpu0_L1D TRANSLATION  ACCESS:      47880 HIT:      29557 MISS:      18323
cpu0_L1D PREFETCH REQUESTED:          0 ISSUED:          0 USEFUL:          0 USELESS:          0
cpu0_L1D AVERAGE MISS LATENCY: 156.2 cycles
cpu0_L1I TOTAL        ACCESS:     223901 HIT:     221120 MISS:       2781
cpu0_L1I LOAD         ACCESS:     223901 HIT:     221120 MISS:       2781
cpu0_L1I RFO          ACCESS:          0 HIT:          0 MISS:          0
cpu0_L1I PREFETCH     ACCESS:          0 HIT:          0 MISS:          0
cpu0_L1I WRITE        ACCESS:          0 HIT:          0 MISS:          0
cpu0_L1I TRANSLATION  ACCESS:          0 HIT:          0 MISS:          0
cpu0_L1I PREFETCH REQUESTED:          0 ISSUED:          0 USEFUL:          0 USELESS:          0
cpu0_L1I AVERAGE MISS LATENCY: 452.2 cycles
cpu0_L2C TOTAL        ACCESS:    5428885 HIT:    2197668 MISS:    3231217
cpu0_L2C LOAD         ACCESS:    2431330 HIT:     126593 MISS:    2304737
cpu0_L2C RFO          ACCESS:     923194 HIT:        560 MISS:     922634
cpu0_L2C PREFETCH     ACCESS:          0 HIT:          0 MISS:          0
cpu0_L2C WRITE        ACCESS:    2056041 HIT:    2055668 MISS:        373
cpu0_L2C TRANSLATION  ACCESS:      18320 HIT:      14847 MISS:       3473
cpu0_L2C PREFETCH REQUESTED:          0 ISSUED:          0 USEFUL:          0 USELESS:          0
cpu0_L2C AVERAGE MISS LATENCY: 918.8 cycles
cpu0_STLB TOTAL        ACCESS:     564245 HIT:     516395 MISS:      47850
cpu0_STLB LOAD         ACCESS:     564245 HIT:     516395 MISS:      47850
cpu0_STLB RFO          ACCESS:          0 HIT:          0 MISS:          0
cpu0_STLB PREFETCH     ACCESS:          0 HIT:          0 MISS:          0
cpu0_STLB WRITE        ACCESS:          0 HIT:          0 MISS:          0
cpu0_STLB TRANSLATION  ACCESS:          0 HIT:          0 MISS:          0
cpu0_STLB PREFETCH REQUESTED:          0 ISSUED:          0 USEFUL:          0 USELESS:          0
cpu0_STLB AVERAGE MISS LATENCY: 294.4 cycles

DRAM Statistics

Channel 0 RQ ROW_BUFFER_HIT:     758189
  ROW_BUFFER_MISS:    1942315
 AVG DBUS CONGESTED CYCLE: 3.981
WQ ROW_BUFFER_HIT: Channel 0 
  ROW_BUFFER_MISS:     392541
  FULL:    1355191
