WARNING: physical memory size is smaller than virtual memory size.

*** ChampSim Multicore Out-of-Order Simulator ***
Warmup Instructions: 50000000
Simulation Instructions: 600000000
Number of CPUs: 1
Page size: 4096

Off-chip DRAM Size: 4 GiB Channels: 1 Width: 64-bit Data Race: 3200 MT/s
Heartbeat CPU 0 instructions: 10000001 cycles: 2881056 heartbeat IPC: 3.471 cumulative IPC: 3.471 (Simulation time: 00 hr 00 min 48 sec)
Heartbeat CPU 0 instructions: 20000001 cycles: 5381056 heartbeat IPC: 4 cumulative IPC: 3.717 (Simulation time: 00 hr 01 min 36 sec)
Heartbeat CPU 0 instructions: 30000001 cycles: 7881056 heartbeat IPC: 4 cumulative IPC: 3.807 (Simulation time: 00 hr 02 min 23 sec)
Heartbeat CPU 0 instructions: 40000001 cycles: 10381056 heartbeat IPC: 4 cumulative IPC: 3.853 (Simulation time: 00 hr 03 min 10 sec)
Heartbeat CPU 0 instructions: 50000001 cycles: 12881056 heartbeat IPC: 4 cumulative IPC: 3.882 (Simulation time: 00 hr 03 min 56 sec)
Warmup finished CPU 0 instructions: 50000001 cycles: 12881057 cumulative IPC: 3.882 (Simulation time: 00 hr 03 min 56 sec)
Warmup complete CPU 0 instructions: 50000001 cycles: 12881057 cumulative IPC: 3.882 (Simulation time: 00 hr 03 min 56 sec)
Heartbeat CPU 0 instructions: 60000000 cycles: 19003484 heartbeat IPC: 1.633 cumulative IPC: 1.633 (Simulation time: 00 hr 05 min 31 sec)
Heartbeat CPU 0 instructions: 70000002 cycles: 25143504 heartbeat IPC: 1.629 cumulative IPC: 1.631 (Simulation time: 00 hr 07 min 08 sec)
Heartbeat CPU 0 instructions: 80000001 cycles: 31262141 heartbeat IPC: 1.634 cumulative IPC: 1.632 (Simulation time: 00 hr 08 min 43 sec)
Heartbeat CPU 0 instructions: 90000004 cycles: 37417055 heartbeat IPC: 1.625 cumulative IPC: 1.63 (Simulation time: 00 hr 10 min 20 sec)
Heartbeat CPU 0 instructions: 100000000 cycles: 43888080 heartbeat IPC: 1.545 cumulative IPC: 1.613 (Simulation time: 00 hr 11 min 58 sec)
Heartbeat CPU 0 instructions: 110000004 cycles: 50589673 heartbeat IPC: 1.492 cumulative IPC: 1.591 (Simulation time: 00 hr 13 min 39 sec)
Heartbeat CPU 0 instructions: 120000000 cycles: 57198329 heartbeat IPC: 1.513 cumulative IPC: 1.58 (Simulation time: 00 hr 15 min 14 sec)
Heartbeat CPU 0 instructions: 130000000 cycles: 63878691 heartbeat IPC: 1.497 cumulative IPC: 1.569 (Simulation time: 00 hr 16 min 52 sec)
Heartbeat CPU 0 instructions: 140000004 cycles: 70512322 heartbeat IPC: 1.507 cumulative IPC: 1.562 (Simulation time: 00 hr 18 min 30 sec)
Heartbeat CPU 0 instructions: 150000001 cycles: 77224443 heartbeat IPC: 1.49 cumulative IPC: 1.554 (Simulation time: 00 hr 20 min 06 sec)
Heartbeat CPU 0 instructions: 160000004 cycles: 83922410 heartbeat IPC: 1.493 cumulative IPC: 1.548 (Simulation time: 00 hr 21 min 43 sec)
Heartbeat CPU 0 instructions: 170000000 cycles: 90575189 heartbeat IPC: 1.503 cumulative IPC: 1.545 (Simulation time: 00 hr 23 min 21 sec)
Heartbeat CPU 0 instructions: 180000000 cycles: 97255524 heartbeat IPC: 1.497 cumulative IPC: 1.541 (Simulation time: 00 hr 24 min 58 sec)
Heartbeat CPU 0 instructions: 190000000 cycles: 103692939 heartbeat IPC: 1.553 cumulative IPC: 1.542 (Simulation time: 00 hr 26 min 33 sec)
Heartbeat CPU 0 instructions: 200000004 cycles: 109482539 heartbeat IPC: 1.727 cumulative IPC: 1.553 (Simulation time: 00 hr 28 min 01 sec)
Heartbeat CPU 0 instructions: 210000000 cycles: 115823273 heartbeat IPC: 1.577 cumulative IPC: 1.554 (Simulation time: 00 hr 29 min 35 sec)
Heartbeat CPU 0 instructions: 220000004 cycles: 122796154 heartbeat IPC: 1.434 cumulative IPC: 1.547 (Simulation time: 00 hr 31 min 18 sec)
Heartbeat CPU 0 instructions: 230000000 cycles: 129745926 heartbeat IPC: 1.439 cumulative IPC: 1.54 (Simulation time: 00 hr 33 min 00 sec)
Heartbeat CPU 0 instructions: 240000003 cycles: 136572344 heartbeat IPC: 1.465 cumulative IPC: 1.536 (Simulation time: 00 hr 34 min 38 sec)
Heartbeat CPU 0 instructions: 250000002 cycles: 143486292 heartbeat IPC: 1.446 cumulative IPC: 1.531 (Simulation time: 00 hr 36 min 18 sec)
Heartbeat CPU 0 instructions: 260000002 cycles: 150369893 heartbeat IPC: 1.453 cumulative IPC: 1.527 (Simulation time: 00 hr 37 min 57 sec)
Heartbeat CPU 0 instructions: 270000003 cycles: 157244902 heartbeat IPC: 1.455 cumulative IPC: 1.524 (Simulation time: 00 hr 39 min 38 sec)
Heartbeat CPU 0 instructions: 280000003 cycles: 164140171 heartbeat IPC: 1.45 cumulative IPC: 1.521 (Simulation time: 00 hr 41 min 17 sec)
Heartbeat CPU 0 instructions: 290000000 cycles: 220851305 heartbeat IPC: 0.1763 cumulative IPC: 1.154 (Simulation time: 00 hr 50 min 32 sec)
Heartbeat CPU 0 instructions: 300000001 cycles: 223353994 heartbeat IPC: 3.996 cumulative IPC: 1.188 (Simulation time: 00 hr 51 min 23 sec)
Heartbeat CPU 0 instructions: 310000000 cycles: 225856372 heartbeat IPC: 3.996 cumulative IPC: 1.221 (Simulation time: 00 hr 52 min 14 sec)
Heartbeat CPU 0 instructions: 320000002 cycles: 228359018 heartbeat IPC: 3.996 cumulative IPC: 1.253 (Simulation time: 00 hr 53 min 03 sec)
Heartbeat CPU 0 instructions: 330000004 cycles: 230861356 heartbeat IPC: 3.996 cumulative IPC: 1.285 (Simulation time: 00 hr 53 min 50 sec)
Heartbeat CPU 0 instructions: 340000004 cycles: 233364118 heartbeat IPC: 3.996 cumulative IPC: 1.315 (Simulation time: 00 hr 54 min 40 sec)
Heartbeat CPU 0 instructions: 350000003 cycles: 235866510 heartbeat IPC: 3.996 cumulative IPC: 1.345 (Simulation time: 00 hr 55 min 29 sec)
Heartbeat CPU 0 instructions: 360000002 cycles: 238368900 heartbeat IPC: 3.996 cumulative IPC: 1.375 (Simulation time: 00 hr 56 min 19 sec)
Heartbeat CPU 0 instructions: 370000004 cycles: 240871249 heartbeat IPC: 3.996 cumulative IPC: 1.404 (Simulation time: 00 hr 57 min 08 sec)
Heartbeat CPU 0 instructions: 380000003 cycles: 243374191 heartbeat IPC: 3.995 cumulative IPC: 1.432 (Simulation time: 00 hr 57 min 58 sec)
Heartbeat CPU 0 instructions: 390000000 cycles: 245876579 heartbeat IPC: 3.996 cumulative IPC: 1.459 (Simulation time: 00 hr 58 min 47 sec)
Heartbeat CPU 0 instructions: 400000002 cycles: 248378960 heartbeat IPC: 3.996 cumulative IPC: 1.486 (Simulation time: 00 hr 59 min 36 sec)
Heartbeat CPU 0 instructions: 410000002 cycles: 250882173 heartbeat IPC: 3.995 cumulative IPC: 1.513 (Simulation time: 01 hr 00 min 24 sec)
Heartbeat CPU 0 instructions: 420000000 cycles: 253384608 heartbeat IPC: 3.996 cumulative IPC: 1.538 (Simulation time: 01 hr 01 min 14 sec)
Heartbeat CPU 0 instructions: 430000001 cycles: 255886997 heartbeat IPC: 3.996 cumulative IPC: 1.564 (Simulation time: 01 hr 02 min 03 sec)
Heartbeat CPU 0 instructions: 440000000 cycles: 258389385 heartbeat IPC: 3.996 cumulative IPC: 1.589 (Simulation time: 01 hr 02 min 53 sec)
Heartbeat CPU 0 instructions: 450000001 cycles: 260891721 heartbeat IPC: 3.996 cumulative IPC: 1.613 (Simulation time: 01 hr 03 min 41 sec)
Heartbeat CPU 0 instructions: 460000002 cycles: 263394060 heartbeat IPC: 3.996 cumulative IPC: 1.637 (Simulation time: 01 hr 04 min 30 sec)
Heartbeat CPU 0 instructions: 470000001 cycles: 265896492 heartbeat IPC: 3.996 cumulative IPC: 1.66 (Simulation time: 01 hr 05 min 20 sec)
Heartbeat CPU 0 instructions: 480000000 cycles: 268398880 heartbeat IPC: 3.996 cumulative IPC: 1.683 (Simulation time: 01 hr 06 min 09 sec)
Heartbeat CPU 0 instructions: 490000001 cycles: 270901270 heartbeat IPC: 3.996 cumulative IPC: 1.705 (Simulation time: 01 hr 07 min 00 sec)
Heartbeat CPU 0 instructions: 500000004 cycles: 273403661 heartbeat IPC: 3.996 cumulative IPC: 1.727 (Simulation time: 01 hr 07 min 49 sec)
Heartbeat CPU 0 instructions: 510000001 cycles: 280843308 heartbeat IPC: 1.344 cumulative IPC: 1.717 (Simulation time: 01 hr 09 min 29 sec)
Heartbeat CPU 0 instructions: 520000002 cycles: 388317226 heartbeat IPC: 0.09305 cumulative IPC: 1.252 (Simulation time: 01 hr 28 min 21 sec)
Heartbeat CPU 0 instructions: 530000001 cycles: 467701762 heartbeat IPC: 0.126 cumulative IPC: 1.055 (Simulation time: 01 hr 42 min 21 sec)
Heartbeat CPU 0 instructions: 540000000 cycles: 498367178 heartbeat IPC: 0.3261 cumulative IPC: 1.009 (Simulation time: 01 hr 48 min 06 sec)
Heartbeat CPU 0 instructions: 550000001 cycles: 528972194 heartbeat IPC: 0.3267 cumulative IPC: 0.9688 (Simulation time: 01 hr 53 min 48 sec)
Heartbeat CPU 0 instructions: 560000003 cycles: 557043900 heartbeat IPC: 0.3562 cumulative IPC: 0.9372 (Simulation time: 01 hr 59 min 02 sec)
Heartbeat CPU 0 instructions: 570000003 cycles: 587748935 heartbeat IPC: 0.3257 cumulative IPC: 0.9046 (Simulation time: 02 hr 04 min 44 sec)
Heartbeat CPU 0 instructions: 580000002 cycles: 618542456 heartbeat IPC: 0.3247 cumulative IPC: 0.8751 (Simulation time: 02 hr 10 min 35 sec)
Heartbeat CPU 0 instructions: 590000001 cycles: 650113427 heartbeat IPC: 0.3167 cumulative IPC: 0.8474 (Simulation time: 02 hr 15 min 29 sec)
*** Reached end of trace: (0, "traces/sp.A.champsimtrace")
Heartbeat CPU 0 instructions: 600000003 cycles: 679318374 heartbeat IPC: 0.3424 cumulative IPC: 0.8253 (Simulation time: 02 hr 19 min 24 sec)
Heartbeat CPU 0 instructions: 610000004 cycles: 710418024 heartbeat IPC: 0.3215 cumulative IPC: 0.8028 (Simulation time: 02 hr 22 min 10 sec)
Heartbeat CPU 0 instructions: 620000003 cycles: 716170216 heartbeat IPC: 1.738 cumulative IPC: 0.8105 (Simulation time: 02 hr 23 min 03 sec)
Heartbeat CPU 0 instructions: 630000001 cycles: 722088082 heartbeat IPC: 1.69 cumulative IPC: 0.8178 (Simulation time: 02 hr 24 min 04 sec)
Heartbeat CPU 0 instructions: 640000000 cycles: 728190488 heartbeat IPC: 1.639 cumulative IPC: 0.8248 (Simulation time: 02 hr 25 min 02 sec)
Heartbeat CPU 0 instructions: 650000003 cycles: 734307368 heartbeat IPC: 1.635 cumulative IPC: 0.8317 (Simulation time: 02 hr 25 min 59 sec)
Simulation finished CPU 0 instructions: 600000002 cycles: 721426312 cumulative IPC: 0.8317 (Simulation time: 02 hr 25 min 59 sec)
Simulation complete CPU 0 instructions: 600000002 cycles: 721426312 cumulative IPC: 0.8317 (Simulation time: 02 hr 25 min 59 sec)

ChampSim completed all CPUs

=== Simulation ===
CPU 0 runs traces/sp.A.champsimtrace
Region of Interest Statistics

CPU 0 cumulative IPC: 0.8317 instructions: 600000002 cycles: 721426312
CPU 0 Branch Prediction Accuracy: 98.83% MPKI: 0.2409 Average ROB Occupancy at Mispredict: 221.9
Branch type MPKI
BRANCH_DIRECT_JUMP: 5e-06
BRANCH_INDIRECT: 7.67e-05
BRANCH_CONDITIONAL: 0.241
BRANCH_DIRECT_CALL: 2e-05
BRANCH_INDIRECT_CALL: 3.33e-05
BRANCH_RETURN: 3.67e-05

LLC TOTAL        ACCESS:    5279110 HIT:    2042845 MISS:    3236265
LLC LOAD         ACCESS:    2306638 HIT:     518640 MISS:    1787998
LLC RFO          ACCESS:     922693 HIT:       4546 MISS:     918147
LLC PREFETCH     ACCESS:          0 HIT:          0 MISS:          0
LLC WRITE        ACCESS:    2046255 HIT:    1519055 MISS:     527200
LLC TRANSLATION  ACCESS:       3524 HIT:        604 MISS:       2920
LLC PREFETCH REQUESTED:          0 ISSUED:          0 USEFUL:          0 USELESS:          0
LLC AVERAGE MISS LATENCY: 1064 cycles
cpu0_DTLB TOTAL        ACCESS:  126047548 HIT:  125193359 MISS:     854189
cpu0_DTLB LOAD         ACCESS:  126047548 HIT:  125193359 MISS:     854189
cpu0_DTLB RFO          ACCESS:          0 HIT:          0 MISS:          0
cpu0_DTLB PREFETCH     ACCESS:          0 HIT:          0 MISS:          0
cpu0_DTLB WRITE        ACCESS:          0 HIT:          0 MISS:          0
cpu0_DTLB TRANSLATION  ACCESS:          0 HIT:          0 MISS:          0
cpu0_DTLB PREFETCH REQUESTED:          0 ISSUED:          0 USEFUL:          0 USELESS:          0
cpu0_DTLB AVERAGE MISS LATENCY: 20.19 cycles
cpu0_ITLB TOTAL        ACCESS:     218892 HIT:     218675 MISS:        217
cpu0_ITLB LOAD         ACCESS:     218892 HIT:     218675 MISS:        217
cpu0_ITLB RFO          ACCESS:          0 HIT:          0 MISS:          0
cpu0_ITLB PREFETCH     ACCESS:          0 HIT:          0 MISS:          0
cpu0_ITLB WRITE        ACCESS:          0 HIT:          0 MISS:          0
cpu0_ITLB TRANSLATION  ACCESS:          0 HIT:          0 MISS:          0
cpu0_ITLB PREFETCH REQUESTED:          0 ISSUED:          0 USEFUL:          0 USELESS:          0
cpu0_ITLB AVERAGE MISS LATENCY: 364.9 cycles
cpu0_L1D TOTAL        ACCESS:  190798842 HIT:  176272170 MISS:   14526672
cpu0_L1D LOAD         ACCESS:  155556686 HIT:  145155602 MISS:   10401084
cpu0_L1D RFO          ACCESS:          0 HIT:          0 MISS:          0
cpu0_L1D PREFETCH     ACCESS:          0 HIT:          0 MISS:          0
cpu0_L1D WRITE        ACCESS:   35194280 HIT:   31087041 MISS:    4107239
cpu0_L1D TRANSLATION  ACCESS:      47876 HIT:      29527 MISS:      18349
cpu0_L1D PREFETCH REQUESTED:          0 ISSUED:          0 USEFUL:          0 USELESS:          0
cpu0_L1D AVERAGE MISS LATENCY: 173.2 cycles
cpu0_L1I TOTAL        ACCESS:     226511 HIT:     223760 MISS:       2751
cpu0_L1I LOAD         ACCESS:     226511 HIT:     223760 MISS:       2751
cpu0_L1I RFO          ACCESS:          0 HIT:          0 MISS:          0
cpu0_L1I PREFETCH     ACCESS:          0 HIT:          0 MISS:          0
cpu0_L1I WRITE        ACCESS:          0 HIT:          0 MISS:          0
cpu0_L1I TRANSLATION  ACCESS:          0 HIT:          0 MISS:          0
cpu0_L1I PREFETCH REQUESTED:          0 ISSUED:          0 USEFUL:          0 USELESS:          0
cpu0_L1I AVERAGE MISS LATENCY: 612.1 cycles
cpu0_L2C TOTAL        ACCESS:    5438152 HIT:    2204950 MISS:    3233202
cpu0_L2C LOAD         ACCESS:    2437111 HIT:     130469 MISS:    2306642
cpu0_L2C RFO          ACCESS:     924309 HIT:       1616 MISS:     922693
cpu0_L2C PREFETCH     ACCESS:          0 HIT:          0 MISS:          0
cpu0_L2C WRITE        ACCESS:    2058387 HIT:    2058044 MISS:        343
cpu0_L2C TRANSLATION  ACCESS:      18345 HIT:      14821 MISS:       3524
cpu0_L2C PREFETCH REQUESTED:          0 ISSUED:          0 USEFUL:          0 USELESS:          0
cpu0_L2C AVERAGE MISS LATENCY: 1086 cycles
cpu0_STLB TOTAL        ACCESS:     590546 HIT:     542699 MISS:      47847
cpu0_STLB LOAD         ACCESS:     590546 HIT:     542699 MISS:      47847
cpu0_STLB RFO          ACCESS:          0 HIT:          0 MISS:          0
cpu0_STLB PREFETCH     ACCESS:          0 HIT:          0 MISS:          0
cpu0_STLB WRITE        ACCESS:          0 HIT:          0 MISS:          0
cpu0_STLB TRANSLATION  ACCESS:          0 HIT:          0 MISS:          0
cpu0_STLB PREFETCH REQUESTED:          0 ISSUED:          0 USEFUL:          0 USELESS:          0
cpu0_STLB AVERAGE MISS LATENCY: 371.8 cycles

DRAM Statistics

Channel 0 RQ ROW_BUFFER_HIT:     737302
  ROW_BUFFER_MISS:    1971753
 AVG DBUS CONGESTED CYCLE: 3.977
WQ ROW_BUFFER_HIT: Channel 0 
  ROW_BUFFER_MISS:     375620
  FULL:    1429720
