WARNING: physical memory size is smaller than virtual memory size.

*** ChampSim Multicore Out-of-Order Simulator ***
Warmup Instructions: 50000000
Simulation Instructions: 600000000
Number of CPUs: 1
Page size: 4096

Off-chip DRAM Size: 4 GiB Channels: 1 Width: 64-bit Data Race: 3200 MT/s
Heartbeat CPU 0 instructions: 10000000 cycles: 2881054 heartbeat IPC: 3.471 cumulative IPC: 3.471 (Simulation time: 00 hr 00 min 58 sec)
Heartbeat CPU 0 instructions: 20000000 cycles: 5381054 heartbeat IPC: 4 cumulative IPC: 3.717 (Simulation time: 00 hr 01 min 44 sec)
Heartbeat CPU 0 instructions: 30000000 cycles: 7881054 heartbeat IPC: 4 cumulative IPC: 3.807 (Simulation time: 00 hr 02 min 31 sec)
Heartbeat CPU 0 instructions: 40000000 cycles: 10381054 heartbeat IPC: 4 cumulative IPC: 3.853 (Simulation time: 00 hr 03 min 36 sec)
Heartbeat CPU 0 instructions: 50000000 cycles: 12881054 heartbeat IPC: 4 cumulative IPC: 3.882 (Simulation time: 00 hr 04 min 46 sec)
Warmup finished CPU 0 instructions: 50000000 cycles: 12881055 cumulative IPC: 3.882 (Simulation time: 00 hr 04 min 46 sec)
Warmup complete CPU 0 instructions: 50000000 cycles: 12881055 cumulative IPC: 3.882 (Simulation time: 00 hr 04 min 46 sec)
Heartbeat CPU 0 instructions: 60000000 cycles: 17317842 heartbeat IPC: 2.254 cumulative IPC: 2.254 (Simulation time: 00 hr 06 min 27 sec)
Heartbeat CPU 0 instructions: 70000000 cycles: 21744332 heartbeat IPC: 2.259 cumulative IPC: 2.257 (Simulation time: 00 hr 07 min 48 sec)
Heartbeat CPU 0 instructions: 80000000 cycles: 26124314 heartbeat IPC: 2.283 cumulative IPC: 2.265 (Simulation time: 00 hr 09 min 07 sec)
Heartbeat CPU 0 instructions: 90000003 cycles: 30492812 heartbeat IPC: 2.289 cumulative IPC: 2.271 (Simulation time: 00 hr 10 min 32 sec)
Heartbeat CPU 0 instructions: 100000002 cycles: 34560171 heartbeat IPC: 2.459 cumulative IPC: 2.306 (Simulation time: 00 hr 11 min 51 sec)
Heartbeat CPU 0 instructions: 110000000 cycles: 38110955 heartbeat IPC: 2.816 cumulative IPC: 2.378 (Simulation time: 00 hr 13 min 05 sec)
Heartbeat CPU 0 instructions: 120000002 cycles: 41677337 heartbeat IPC: 2.804 cumulative IPC: 2.431 (Simulation time: 00 hr 14 min 19 sec)
Heartbeat CPU 0 instructions: 130000000 cycles: 45232728 heartbeat IPC: 2.813 cumulative IPC: 2.473 (Simulation time: 00 hr 15 min 33 sec)
Heartbeat CPU 0 instructions: 140000001 cycles: 48857705 heartbeat IPC: 2.759 cumulative IPC: 2.502 (Simulation time: 00 hr 16 min 46 sec)
Heartbeat CPU 0 instructions: 150000001 cycles: 52335449 heartbeat IPC: 2.875 cumulative IPC: 2.535 (Simulation time: 00 hr 17 min 52 sec)
Heartbeat CPU 0 instructions: 160000003 cycles: 55949744 heartbeat IPC: 2.767 cumulative IPC: 2.554 (Simulation time: 00 hr 19 min 03 sec)
Heartbeat CPU 0 instructions: 170000004 cycles: 59525717 heartbeat IPC: 2.796 cumulative IPC: 2.573 (Simulation time: 00 hr 20 min 19 sec)
Heartbeat CPU 0 instructions: 180000003 cycles: 63142008 heartbeat IPC: 2.765 cumulative IPC: 2.587 (Simulation time: 00 hr 21 min 34 sec)
Heartbeat CPU 0 instructions: 190000001 cycles: 66384672 heartbeat IPC: 3.084 cumulative IPC: 2.617 (Simulation time: 00 hr 22 min 44 sec)
Heartbeat CPU 0 instructions: 200000003 cycles: 69405369 heartbeat IPC: 3.31 cumulative IPC: 2.654 (Simulation time: 00 hr 23 min 54 sec)
Heartbeat CPU 0 instructions: 210000000 cycles: 72688131 heartbeat IPC: 3.046 cumulative IPC: 2.675 (Simulation time: 00 hr 25 min 04 sec)
Heartbeat CPU 0 instructions: 220000004 cycles: 76487118 heartbeat IPC: 2.632 cumulative IPC: 2.673 (Simulation time: 00 hr 26 min 20 sec)
Heartbeat CPU 0 instructions: 230000002 cycles: 80274542 heartbeat IPC: 2.64 cumulative IPC: 2.671 (Simulation time: 00 hr 27 min 37 sec)
Heartbeat CPU 0 instructions: 240000002 cycles: 83827763 heartbeat IPC: 2.814 cumulative IPC: 2.678 (Simulation time: 00 hr 28 min 50 sec)
Heartbeat CPU 0 instructions: 250000000 cycles: 87555787 heartbeat IPC: 2.682 cumulative IPC: 2.678 (Simulation time: 00 hr 30 min 05 sec)
Heartbeat CPU 0 instructions: 260000001 cycles: 91431467 heartbeat IPC: 2.58 cumulative IPC: 2.673 (Simulation time: 00 hr 31 min 19 sec)
Heartbeat CPU 0 instructions: 270000002 cycles: 95150773 heartbeat IPC: 2.689 cumulative IPC: 2.674 (Simulation time: 00 hr 32 min 29 sec)
Heartbeat CPU 0 instructions: 280000001 cycles: 98721551 heartbeat IPC: 2.801 cumulative IPC: 2.679 (Simulation time: 00 hr 33 min 44 sec)
Heartbeat CPU 0 instructions: 290000002 cycles: 159945945 heartbeat IPC: 0.1633 cumulative IPC: 1.632 (Simulation time: 00 hr 43 min 48 sec)
Heartbeat CPU 0 instructions: 300000000 cycles: 162448393 heartbeat IPC: 3.996 cumulative IPC: 1.671 (Simulation time: 00 hr 44 min 47 sec)
Heartbeat CPU 0 instructions: 310000003 cycles: 164950768 heartbeat IPC: 3.996 cumulative IPC: 1.71 (Simulation time: 00 hr 45 min 43 sec)
Heartbeat CPU 0 instructions: 320000001 cycles: 167453197 heartbeat IPC: 3.996 cumulative IPC: 1.747 (Simulation time: 00 hr 46 min 42 sec)
Heartbeat CPU 0 instructions: 330000001 cycles: 169955576 heartbeat IPC: 3.996 cumulative IPC: 1.783 (Simulation time: 00 hr 47 min 42 sec)
Heartbeat CPU 0 instructions: 340000004 cycles: 172457965 heartbeat IPC: 3.996 cumulative IPC: 1.817 (Simulation time: 00 hr 48 min 41 sec)
Heartbeat CPU 0 instructions: 350000004 cycles: 174960354 heartbeat IPC: 3.996 cumulative IPC: 1.851 (Simulation time: 00 hr 49 min 42 sec)
Heartbeat CPU 0 instructions: 360000000 cycles: 177462742 heartbeat IPC: 3.996 cumulative IPC: 1.884 (Simulation time: 00 hr 50 min 41 sec)
Heartbeat CPU 0 instructions: 370000003 cycles: 179965132 heartbeat IPC: 3.996 cumulative IPC: 1.915 (Simulation time: 00 hr 51 min 42 sec)
Heartbeat CPU 0 instructions: 380000001 cycles: 182467506 heartbeat IPC: 3.996 cumulative IPC: 1.946 (Simulation time: 00 hr 52 min 43 sec)
Heartbeat CPU 0 instructions: 390000004 cycles: 184969895 heartbeat IPC: 3.996 cumulative IPC: 1.976 (Simulation time: 00 hr 53 min 42 sec)
Heartbeat CPU 0 instructions: 400000000 cycles: 187472270 heartbeat IPC: 3.996 cumulative IPC: 2.005 (Simulation time: 00 hr 54 min 41 sec)
Heartbeat CPU 0 instructions: 410000002 cycles: 189974659 heartbeat IPC: 3.996 cumulative IPC: 2.033 (Simulation time: 00 hr 55 min 51 sec)
Heartbeat CPU 0 instructions: 420000002 cycles: 192477348 heartbeat IPC: 3.996 cumulative IPC: 2.06 (Simulation time: 00 hr 56 min 50 sec)
Heartbeat CPU 0 instructions: 430000003 cycles: 194979736 heartbeat IPC: 3.996 cumulative IPC: 2.087 (Simulation time: 00 hr 57 min 51 sec)
Heartbeat CPU 0 instructions: 440000003 cycles: 197482125 heartbeat IPC: 3.996 cumulative IPC: 2.113 (Simulation time: 00 hr 58 min 50 sec)
Heartbeat CPU 0 instructions: 450000004 cycles: 199984459 heartbeat IPC: 3.996 cumulative IPC: 2.138 (Simulation time: 00 hr 59 min 51 sec)
Heartbeat CPU 0 instructions: 460000001 cycles: 202486795 heartbeat IPC: 3.996 cumulative IPC: 2.162 (Simulation time: 01 hr 00 min 53 sec)
Heartbeat CPU 0 instructions: 470000003 cycles: 204989183 heartbeat IPC: 3.996 cumulative IPC: 2.186 (Simulation time: 01 hr 01 min 55 sec)
Heartbeat CPU 0 instructions: 480000000 cycles: 207491800 heartbeat IPC: 3.996 cumulative IPC: 2.21 (Simulation time: 01 hr 02 min 54 sec)
Heartbeat CPU 0 instructions: 490000002 cycles: 209995305 heartbeat IPC: 3.994 cumulative IPC: 2.232 (Simulation time: 01 hr 03 min 54 sec)
Heartbeat CPU 0 instructions: 500000003 cycles: 212497922 heartbeat IPC: 3.996 cumulative IPC: 2.254 (Simulation time: 01 hr 04 min 54 sec)
Heartbeat CPU 0 instructions: 510000000 cycles: 219918968 heartbeat IPC: 1.348 cumulative IPC: 2.222 (Simulation time: 01 hr 06 min 48 sec)
Heartbeat CPU 0 instructions: 520000003 cycles: 326872118 heartbeat IPC: 0.0935 cumulative IPC: 1.497 (Simulation time: 01 hr 26 min 33 sec)
Heartbeat CPU 0 instructions: 530000003 cycles: 408174017 heartbeat IPC: 0.123 cumulative IPC: 1.214 (Simulation time: 01 hr 41 min 21 sec)
Heartbeat CPU 0 instructions: 540000003 cycles: 437733064 heartbeat IPC: 0.3383 cumulative IPC: 1.153 (Simulation time: 01 hr 47 min 11 sec)
Heartbeat CPU 0 instructions: 550000004 cycles: 469262848 heartbeat IPC: 0.3172 cumulative IPC: 1.096 (Simulation time: 01 hr 53 min 26 sec)
Heartbeat CPU 0 instructions: 560000003 cycles: 500047301 heartbeat IPC: 0.3248 cumulative IPC: 1.047 (Simulation time: 01 hr 59 min 44 sec)
Heartbeat CPU 0 instructions: 570000001 cycles: 531499447 heartbeat IPC: 0.3179 cumulative IPC: 1.003 (Simulation time: 02 hr 05 min 47 sec)
Heartbeat CPU 0 instructions: 580000004 cycles: 564230459 heartbeat IPC: 0.3055 cumulative IPC: 0.9613 (Simulation time: 02 hr 12 min 05 sec)
Heartbeat CPU 0 instructions: 590000004 cycles: 594729814 heartbeat IPC: 0.3279 cumulative IPC: 0.9281 (Simulation time: 02 hr 17 min 52 sec)
*** Reached end of trace: (0, "traces/sp.A.champsimtrace")
Heartbeat CPU 0 instructions: 600000001 cycles: 626950682 heartbeat IPC: 0.3104 cumulative IPC: 0.8957 (Simulation time: 02 hr 23 min 58 sec)
Heartbeat CPU 0 instructions: 610000004 cycles: 656150507 heartbeat IPC: 0.3425 cumulative IPC: 0.8706 (Simulation time: 02 hr 28 min 27 sec)
Heartbeat CPU 0 instructions: 620000001 cycles: 660463437 heartbeat IPC: 2.319 cumulative IPC: 0.8802 (Simulation time: 02 hr 29 min 48 sec)
Heartbeat CPU 0 instructions: 630000001 cycles: 664728481 heartbeat IPC: 2.345 cumulative IPC: 0.8898 (Simulation time: 02 hr 31 min 10 sec)
Heartbeat CPU 0 instructions: 640000000 cycles: 668980093 heartbeat IPC: 2.352 cumulative IPC: 0.8993 (Simulation time: 02 hr 32 min 31 sec)
Heartbeat CPU 0 instructions: 650000001 cycles: 673238493 heartbeat IPC: 2.348 cumulative IPC: 0.9086 (Simulation time: 02 hr 34 min 01 sec)
Simulation finished CPU 0 instructions: 600000001 cycles: 660357439 cumulative IPC: 0.9086 (Simulation time: 02 hr 34 min 01 sec)
Simulation complete CPU 0 instructions: 600000001 cycles: 660357439 cumulative IPC: 0.9086 (Simulation time: 02 hr 34 min 01 sec)

ChampSim completed all CPUs

=== Simulation ===
CPU 0 runs traces/sp.A.champsimtrace
Region of Interest Statistics

CPU 0 cumulative IPC: 0.9086 instructions: 600000001 cycles: 660357439
CPU 0 Branch Prediction Accuracy: 98.84% MPKI: 0.2405 Average ROB Occupancy at Mispredict: 219
Branch type MPKI
BRANCH_DIRECT_JUMP: 5e-06
BRANCH_INDIRECT: 8.67e-05
BRANCH_CONDITIONAL: 0.24
BRANCH_DIRECT_CALL: 2e-05
BRANCH_INDIRECT_CALL: 3.83e-05
BRANCH_RETURN: 3.5e-05

LLC TOTAL        ACCESS:    7588412 HIT:    3183957 MISS:    4404455
LLC LOAD         ACCESS:    2308132 HIT:    1182079 MISS:    1126053
LLC RFO          ACCESS:     922644 HIT:       4705 MISS:     917939
LLC PREFETCH     ACCESS:    2308132 HIT:     522699 MISS:    1785433
LLC WRITE        ACCESS:    2046035 HIT:    1474342 MISS:     571693
LLC TRANSLATION  ACCESS:       3469 HIT:        132 MISS:       3337
LLC PREFETCH REQUESTED:    2308132 ISSUED:    2308132 USEFUL:    1491526 USELESS:      23997
LLC AVERAGE MISS LATENCY: 1081 cycles
cpu0_DTLB TOTAL        ACCESS:  127451041 HIT:  126603918 MISS:     847123
cpu0_DTLB LOAD         ACCESS:  127451041 HIT:  126603918 MISS:     847123
cpu0_DTLB RFO          ACCESS:          0 HIT:          0 MISS:          0
cpu0_DTLB PREFETCH     ACCESS:          0 HIT:          0 MISS:          0
cpu0_DTLB WRITE        ACCESS:          0 HIT:          0 MISS:          0
cpu0_DTLB TRANSLATION  ACCESS:          0 HIT:          0 MISS:          0
cpu0_DTLB PREFETCH REQUESTED:          0 ISSUED:          0 USEFUL:          0 USELESS:          0
cpu0_DTLB AVERAGE MISS LATENCY: 19.99 cycles
cpu0_ITLB TOTAL        ACCESS:     216703 HIT:     216442 MISS:        261
cpu0_ITLB LOAD         ACCESS:     216703 HIT:     216442 MISS:        261
cpu0_ITLB RFO          ACCESS:          0 HIT:          0 MISS:          0
cpu0_ITLB PREFETCH     ACCESS:          0 HIT:          0 MISS:          0
cpu0_ITLB WRITE        ACCESS:          0 HIT:          0 MISS:          0
cpu0_ITLB TRANSLATION  ACCESS:          0 HIT:          0 MISS:          0
cpu0_ITLB PREFETCH REQUESTED:          0 ISSUED:          0 USEFUL:          0 USELESS:          0
cpu0_ITLB AVERAGE MISS LATENCY: 261.1 cycles
cpu0_L1D TOTAL        ACCESS:  193518641 HIT:  179553811 MISS:   13964830
cpu0_L1D LOAD         ACCESS:  158276682 HIT:  148502165 MISS:    9774517
cpu0_L1D RFO          ACCESS:          0 HIT:          0 MISS:          0
cpu0_L1D PREFETCH     ACCESS:          0 HIT:          0 MISS:          0
cpu0_L1D WRITE        ACCESS:   35194083 HIT:   31022043 MISS:    4172040
cpu0_L1D TRANSLATION  ACCESS:      47876 HIT:      29603 MISS:      18273
cpu0_L1D PREFETCH REQUESTED:          0 ISSUED:          0 USEFUL:          0 USELESS:          0
cpu0_L1D AVERAGE MISS LATENCY: 165.7 cycles
cpu0_L1I TOTAL        ACCESS:     224224 HIT:     221494 MISS:       2730
cpu0_L1I LOAD         ACCESS:     224224 HIT:     221494 MISS:       2730
cpu0_L1I RFO          ACCESS:          0 HIT:          0 MISS:          0
cpu0_L1I PREFETCH     ACCESS:          0 HIT:          0 MISS:          0
cpu0_L1I WRITE        ACCESS:          0 HIT:          0 MISS:          0
cpu0_L1I TRANSLATION  ACCESS:          0 HIT:          0 MISS:          0
cpu0_L1I PREFETCH REQUESTED:          0 ISSUED:          0 USEFUL:          0 USELESS:          0
cpu0_L1I AVERAGE MISS LATENCY: 484.2 cycles
cpu0_L2C TOTAL        ACCESS:    5428955 HIT:    2194360 MISS:    3234595
cpu0_L2C LOAD         ACCESS:    2431048 HIT:     122915 MISS:    2308133
cpu0_L2C RFO          ACCESS:     923203 HIT:        559 MISS:     922644
cpu0_L2C PREFETCH     ACCESS:          0 HIT:          0 MISS:          0
cpu0_L2C WRITE        ACCESS:    2056435 HIT:    2056086 MISS:        349
cpu0_L2C TRANSLATION  ACCESS:      18269 HIT:      14800 MISS:       3469
cpu0_L2C PREFETCH REQUESTED:          0 ISSUED:          0 USEFUL:          0 USELESS:          0
cpu0_L2C AVERAGE MISS LATENCY: 956.7 cycles
cpu0_STLB TOTAL        ACCESS:     585604 HIT:     537750 MISS:      47854
cpu0_STLB LOAD         ACCESS:     585604 HIT:     537750 MISS:      47854
cpu0_STLB RFO          ACCESS:          0 HIT:          0 MISS:          0
cpu0_STLB PREFETCH     ACCESS:          0 HIT:          0 MISS:          0
cpu0_STLB WRITE        ACCESS:          0 HIT:          0 MISS:          0
cpu0_STLB TRANSLATION  ACCESS:          0 HIT:          0 MISS:          0
cpu0_STLB PREFETCH REQUESTED:          0 ISSUED:          0 USEFUL:          0 USELESS:          0
cpu0_STLB AVERAGE MISS LATENCY: 403.6 cycles

DRAM Statistics

Channel 0 RQ ROW_BUFFER_HIT:     789488
  ROW_BUFFER_MISS:    1956777
 AVG DBUS CONGESTED CYCLE: 3.981
WQ ROW_BUFFER_HIT: Channel 0 
  ROW_BUFFER_MISS:     329054
  FULL:    1512098
