WARNING: physical memory size is smaller than virtual memory size.

*** ChampSim Multicore Out-of-Order Simulator ***
Warmup Instructions: 50000000
Simulation Instructions: 600000000
Number of CPUs: 1
Page size: 4096

Off-chip DRAM Size: 4 GiB Channels: 1 Width: 64-bit Data Race: 3200 MT/s
Heartbeat CPU 0 instructions: 10000003 cycles: 2881057 heartbeat IPC: 3.471 cumulative IPC: 3.471 (Simulation time: 00 hr 00 min 37 sec)
Heartbeat CPU 0 instructions: 20000003 cycles: 5381057 heartbeat IPC: 4 cumulative IPC: 3.717 (Simulation time: 00 hr 01 min 11 sec)
Heartbeat CPU 0 instructions: 30000003 cycles: 7881057 heartbeat IPC: 4 cumulative IPC: 3.807 (Simulation time: 00 hr 01 min 46 sec)
Heartbeat CPU 0 instructions: 40000003 cycles: 10381057 heartbeat IPC: 4 cumulative IPC: 3.853 (Simulation time: 00 hr 02 min 21 sec)
Heartbeat CPU 0 instructions: 50000003 cycles: 12881057 heartbeat IPC: 4 cumulative IPC: 3.882 (Simulation time: 00 hr 02 min 56 sec)
Warmup finished CPU 0 instructions: 50000003 cycles: 12881058 cumulative IPC: 3.882 (Simulation time: 00 hr 02 min 56 sec)
Warmup complete CPU 0 instructions: 50000003 cycles: 12881058 cumulative IPC: 3.882 (Simulation time: 00 hr 02 min 56 sec)
Heartbeat CPU 0 instructions: 60000000 cycles: 18999900 heartbeat IPC: 1.634 cumulative IPC: 1.634 (Simulation time: 00 hr 04 min 07 sec)
Heartbeat CPU 0 instructions: 70000000 cycles: 25103142 heartbeat IPC: 1.638 cumulative IPC: 1.636 (Simulation time: 00 hr 05 min 17 sec)
Heartbeat CPU 0 instructions: 80000001 cycles: 31215760 heartbeat IPC: 1.636 cumulative IPC: 1.636 (Simulation time: 00 hr 06 min 29 sec)
Heartbeat CPU 0 instructions: 90000003 cycles: 37341282 heartbeat IPC: 1.633 cumulative IPC: 1.635 (Simulation time: 00 hr 07 min 40 sec)
Heartbeat CPU 0 instructions: 100000000 cycles: 41590624 heartbeat IPC: 2.353 cumulative IPC: 1.742 (Simulation time: 00 hr 08 min 35 sec)
Heartbeat CPU 0 instructions: 110000001 cycles: 44135597 heartbeat IPC: 3.929 cumulative IPC: 1.92 (Simulation time: 00 hr 09 min 14 sec)
Heartbeat CPU 0 instructions: 120000001 cycles: 46690995 heartbeat IPC: 3.913 cumulative IPC: 2.07 (Simulation time: 00 hr 09 min 53 sec)
Heartbeat CPU 0 instructions: 130000002 cycles: 50109950 heartbeat IPC: 2.925 cumulative IPC: 2.149 (Simulation time: 00 hr 10 min 42 sec)
Heartbeat CPU 0 instructions: 140000004 cycles: 56942140 heartbeat IPC: 1.464 cumulative IPC: 2.043 (Simulation time: 00 hr 12 min 00 sec)
Heartbeat CPU 0 instructions: 150000000 cycles: 63976741 heartbeat IPC: 1.422 cumulative IPC: 1.957 (Simulation time: 00 hr 13 min 21 sec)
Heartbeat CPU 0 instructions: 160000003 cycles: 71056386 heartbeat IPC: 1.413 cumulative IPC: 1.891 (Simulation time: 00 hr 14 min 41 sec)
Heartbeat CPU 0 instructions: 170000001 cycles: 78130366 heartbeat IPC: 1.414 cumulative IPC: 1.839 (Simulation time: 00 hr 16 min 01 sec)
Heartbeat CPU 0 instructions: 180000002 cycles: 85188655 heartbeat IPC: 1.417 cumulative IPC: 1.798 (Simulation time: 00 hr 17 min 20 sec)
Heartbeat CPU 0 instructions: 190000002 cycles: 91609603 heartbeat IPC: 1.557 cumulative IPC: 1.778 (Simulation time: 00 hr 18 min 35 sec)
Heartbeat CPU 0 instructions: 200000000 cycles: 96484498 heartbeat IPC: 2.051 cumulative IPC: 1.794 (Simulation time: 00 hr 19 min 39 sec)
Heartbeat CPU 0 instructions: 210000001 cycles: 101384607 heartbeat IPC: 2.041 cumulative IPC: 1.808 (Simulation time: 00 hr 20 min 39 sec)
Heartbeat CPU 0 instructions: 220000001 cycles: 106316713 heartbeat IPC: 2.028 cumulative IPC: 1.819 (Simulation time: 00 hr 21 min 41 sec)
Heartbeat CPU 0 instructions: 230000004 cycles: 111265690 heartbeat IPC: 2.021 cumulative IPC: 1.83 (Simulation time: 00 hr 22 min 43 sec)
Heartbeat CPU 0 instructions: 240000003 cycles: 116162670 heartbeat IPC: 2.042 cumulative IPC: 1.84 (Simulation time: 00 hr 23 min 44 sec)
Heartbeat CPU 0 instructions: 250000002 cycles: 121107858 heartbeat IPC: 2.022 cumulative IPC: 1.848 (Simulation time: 00 hr 24 min 45 sec)
Heartbeat CPU 0 instructions: 260000002 cycles: 126020813 heartbeat IPC: 2.035 cumulative IPC: 1.856 (Simulation time: 00 hr 25 min 46 sec)
Heartbeat CPU 0 instructions: 270000003 cycles: 130938306 heartbeat IPC: 2.034 cumulative IPC: 1.864 (Simulation time: 00 hr 26 min 47 sec)
Heartbeat CPU 0 instructions: 280000000 cycles: 135880721 heartbeat IPC: 2.023 cumulative IPC: 1.87 (Simulation time: 00 hr 27 min 49 sec)
Heartbeat CPU 0 instructions: 290000001 cycles: 180622218 heartbeat IPC: 0.2235 cumulative IPC: 1.431 (Simulation time: 00 hr 33 min 06 sec)
Heartbeat CPU 0 instructions: 300000002 cycles: 183127828 heartbeat IPC: 3.991 cumulative IPC: 1.468 (Simulation time: 00 hr 33 min 47 sec)
Heartbeat CPU 0 instructions: 310000001 cycles: 185632874 heartbeat IPC: 3.992 cumulative IPC: 1.505 (Simulation time: 00 hr 34 min 28 sec)
Heartbeat CPU 0 instructions: 320000000 cycles: 188139009 heartbeat IPC: 3.99 cumulative IPC: 1.541 (Simulation time: 00 hr 35 min 09 sec)
Heartbeat CPU 0 instructions: 330000003 cycles: 190644352 heartbeat IPC: 3.991 cumulative IPC: 1.575 (Simulation time: 00 hr 35 min 50 sec)
Heartbeat CPU 0 instructions: 340000000 cycles: 193150665 heartbeat IPC: 3.99 cumulative IPC: 1.609 (Simulation time: 00 hr 36 min 30 sec)
Heartbeat CPU 0 instructions: 350000004 cycles: 195657017 heartbeat IPC: 3.99 cumulative IPC: 1.641 (Simulation time: 00 hr 37 min 10 sec)
Heartbeat CPU 0 instructions: 360000004 cycles: 198163522 heartbeat IPC: 3.99 cumulative IPC: 1.673 (Simulation time: 00 hr 37 min 51 sec)
Heartbeat CPU 0 instructions: 370000000 cycles: 200670741 heartbeat IPC: 3.988 cumulative IPC: 1.704 (Simulation time: 00 hr 38 min 33 sec)
Heartbeat CPU 0 instructions: 380000004 cycles: 203177820 heartbeat IPC: 3.989 cumulative IPC: 1.734 (Simulation time: 00 hr 39 min 13 sec)
Heartbeat CPU 0 instructions: 390000001 cycles: 205682891 heartbeat IPC: 3.992 cumulative IPC: 1.763 (Simulation time: 00 hr 39 min 52 sec)
Heartbeat CPU 0 instructions: 400000003 cycles: 208188368 heartbeat IPC: 3.991 cumulative IPC: 1.792 (Simulation time: 00 hr 40 min 33 sec)
Heartbeat CPU 0 instructions: 410000003 cycles: 210694888 heartbeat IPC: 3.99 cumulative IPC: 1.82 (Simulation time: 00 hr 41 min 14 sec)
Heartbeat CPU 0 instructions: 420000002 cycles: 213202249 heartbeat IPC: 3.988 cumulative IPC: 1.847 (Simulation time: 00 hr 41 min 57 sec)
Heartbeat CPU 0 instructions: 430000000 cycles: 215709030 heartbeat IPC: 3.989 cumulative IPC: 1.874 (Simulation time: 00 hr 42 min 38 sec)
Heartbeat CPU 0 instructions: 440000001 cycles: 218216904 heartbeat IPC: 3.987 cumulative IPC: 1.899 (Simulation time: 00 hr 43 min 20 sec)
Heartbeat CPU 0 instructions: 450000000 cycles: 220722461 heartbeat IPC: 3.991 cumulative IPC: 1.925 (Simulation time: 00 hr 44 min 01 sec)
Heartbeat CPU 0 instructions: 460000003 cycles: 223228363 heartbeat IPC: 3.991 cumulative IPC: 1.949 (Simulation time: 00 hr 44 min 41 sec)
Heartbeat CPU 0 instructions: 470000001 cycles: 225734778 heartbeat IPC: 3.99 cumulative IPC: 1.973 (Simulation time: 00 hr 45 min 20 sec)
Heartbeat CPU 0 instructions: 480000003 cycles: 228240332 heartbeat IPC: 3.991 cumulative IPC: 1.997 (Simulation time: 00 hr 45 min 59 sec)
Heartbeat CPU 0 instructions: 490000003 cycles: 230745788 heartbeat IPC: 3.991 cumulative IPC: 2.02 (Simulation time: 00 hr 46 min 39 sec)
Heartbeat CPU 0 instructions: 500000002 cycles: 233251874 heartbeat IPC: 3.99 cumulative IPC: 2.042 (Simulation time: 00 hr 47 min 19 sec)
Heartbeat CPU 0 instructions: 510000003 cycles: 241271106 heartbeat IPC: 1.247 cumulative IPC: 2.014 (Simulation time: 00 hr 48 min 45 sec)
Heartbeat CPU 0 instructions: 520000001 cycles: 340684308 heartbeat IPC: 0.1006 cumulative IPC: 1.434 (Simulation time: 01 hr 01 min 50 sec)
Heartbeat CPU 0 instructions: 530000002 cycles: 415473682 heartbeat IPC: 0.1337 cumulative IPC: 1.192 (Simulation time: 01 hr 11 min 53 sec)
Heartbeat CPU 0 instructions: 540000002 cycles: 452910000 heartbeat IPC: 0.2671 cumulative IPC: 1.114 (Simulation time: 01 hr 17 min 17 sec)
Heartbeat CPU 0 instructions: 550000002 cycles: 490028285 heartbeat IPC: 0.2694 cumulative IPC: 1.048 (Simulation time: 01 hr 22 min 37 sec)
Heartbeat CPU 0 instructions: 560000004 cycles: 527570541 heartbeat IPC: 0.2664 cumulative IPC: 0.9909 (Simulation time: 01 hr 27 min 56 sec)
Heartbeat CPU 0 instructions: 570000000 cycles: 565580856 heartbeat IPC: 0.2631 cumulative IPC: 0.9408 (Simulation time: 01 hr 33 min 22 sec)
Heartbeat CPU 0 instructions: 580000001 cycles: 604598923 heartbeat IPC: 0.2563 cumulative IPC: 0.8957 (Simulation time: 01 hr 39 min 00 sec)
Heartbeat CPU 0 instructions: 590000004 cycles: 644336062 heartbeat IPC: 0.2517 cumulative IPC: 0.8552 (Simulation time: 01 hr 44 min 44 sec)
*** Reached end of trace: (0, "traces/sp.A.champsimtrace")
Heartbeat CPU 0 instructions: 600000002 cycles: 683540216 heartbeat IPC: 0.2551 cumulative IPC: 0.8201 (Simulation time: 01 hr 50 min 24 sec)
Heartbeat CPU 0 instructions: 610000000 cycles: 704224268 heartbeat IPC: 0.4835 cumulative IPC: 0.81 (Simulation time: 01 hr 52 min 50 sec)
Heartbeat CPU 0 instructions: 620000004 cycles: 706771319 heartbeat IPC: 3.926 cumulative IPC: 0.8215 (Simulation time: 01 hr 53 min 30 sec)
Heartbeat CPU 0 instructions: 630000003 cycles: 709322308 heartbeat IPC: 3.92 cumulative IPC: 0.8328 (Simulation time: 01 hr 54 min 12 sec)
Heartbeat CPU 0 instructions: 640000004 cycles: 713499743 heartbeat IPC: 2.394 cumulative IPC: 0.8421 (Simulation time: 01 hr 55 min 08 sec)
Heartbeat CPU 0 instructions: 650000001 cycles: 719540501 heartbeat IPC: 1.655 cumulative IPC: 0.8491 (Simulation time: 01 hr 56 min 20 sec)
Simulation finished CPU 0 instructions: 600000003 cycles: 706659445 cumulative IPC: 0.8491 (Simulation time: 01 hr 56 min 20 sec)
Simulation complete CPU 0 instructions: 600000003 cycles: 706659445 cumulative IPC: 0.8491 (Simulation time: 01 hr 56 min 20 sec)

ChampSim completed all CPUs

=== Simulation ===
CPU 0 runs traces/sp.A.champsimtrace
Region of Interest Statistics

CPU 0 cumulative IPC: 0.8491 instructions: 600000003 cycles: 706659445
CPU 0 Branch Prediction Accuracy: 98.84% MPKI: 0.2406 Average ROB Occupancy at Mispredict: 223.4
Branch type MPKI
BRANCH_DIRECT_JUMP: 5e-06
BRANCH_INDIRECT: 7.5e-05
BRANCH_CONDITIONAL: 0.24
BRANCH_DIRECT_CALL: 2e-05
BRANCH_INDIRECT_CALL: 3.17e-05
BRANCH_RETURN: 3.67e-05

LLC TOTAL        ACCESS:    5274056 HIT:    1225262 MISS:    4048794
LLC LOAD         ACCESS:    2303687 HIT:     425248 MISS:    1878439
LLC RFO          ACCESS:     922634 HIT:      59405 MISS:     863229
LLC PREFETCH     ACCESS:          0 HIT:          0 MISS:          0
LLC WRITE        ACCESS:    2044262 HIT:     740258 MISS:    1304004
LLC TRANSLATION  ACCESS:       3473 HIT:        351 MISS:       3122
LLC PREFETCH REQUESTED:          0 ISSUED:          0 USEFUL:          0 USELESS:          0
LLC AVERAGE MISS LATENCY: 841.9 cycles
cpu0_DTLB TOTAL        ACCESS:  126496441 HIT:  125668019 MISS:     828422
cpu0_DTLB LOAD         ACCESS:  126496441 HIT:  125668019 MISS:     828422
cpu0_DTLB RFO          ACCESS:          0 HIT:          0 MISS:          0
cpu0_DTLB PREFETCH     ACCESS:          0 HIT:          0 MISS:          0
cpu0_DTLB WRITE        ACCESS:          0 HIT:          0 MISS:          0
cpu0_DTLB TRANSLATION  ACCESS:          0 HIT:          0 MISS:          0
cpu0_DTLB PREFETCH REQUESTED:          0 ISSUED:          0 USEFUL:          0 USELESS:          0
cpu0_DTLB AVERAGE MISS LATENCY: 19.99 cycles
cpu0_ITLB TOTAL        ACCESS:     223776 HIT:     223556 MISS:        220
cpu0_ITLB LOAD         ACCESS:     223776 HIT:     223556 MISS:        220
cpu0_ITLB RFO          ACCESS:          0 HIT:          0 MISS:          0
cpu0_ITLB PREFETCH     ACCESS:          0 HIT:          0 MISS:          0
cpu0_ITLB WRITE        ACCESS:          0 HIT:          0 MISS:          0
cpu0_ITLB TRANSLATION  ACCESS:          0 HIT:          0 MISS:          0
cpu0_ITLB PREFETCH REQUESTED:          0 ISSUED:          0 USEFUL:          0 USELESS:          0
cpu0_ITLB AVERAGE MISS LATENCY: 308 cycles
cpu0_L1D TOTAL        ACCESS:  191831774 HIT:  177106769 MISS:   14725005
cpu0_L1D LOAD         ACCESS:  156589732 HIT:  146011737 MISS:   10577995
cpu0_L1D RFO          ACCESS:          0 HIT:          0 MISS:          0
cpu0_L1D PREFETCH     ACCESS:          0 HIT:          0 MISS:          0
cpu0_L1D WRITE        ACCESS:   35194162 HIT:   31065435 MISS:    4128727
cpu0_L1D TRANSLATION  ACCESS:      47880 HIT:      29597 MISS:      18283
cpu0_L1D PREFETCH REQUESTED:          0 ISSUED:          0 USEFUL:          0 USELESS:          0
cpu0_L1D AVERAGE MISS LATENCY: 169.6 cycles
cpu0_L1I TOTAL        ACCESS:     232026 HIT:     229229 MISS:       2797
cpu0_L1I LOAD         ACCESS:     232026 HIT:     229229 MISS:       2797
cpu0_L1I RFO          ACCESS:          0 HIT:          0 MISS:          0
cpu0_L1I PREFETCH     ACCESS:          0 HIT:          0 MISS:          0
cpu0_L1I WRITE        ACCESS:          0 HIT:          0 MISS:          0
cpu0_L1I TRANSLATION  ACCESS:          0 HIT:          0 MISS:          0
cpu0_L1I PREFETCH REQUESTED:          0 ISSUED:          0 USEFUL:          0 USELESS:          0
cpu0_L1I AVERAGE MISS LATENCY: 566.2 cycles
cpu0_L2C TOTAL        ACCESS:    5442939 HIT:    2212767 MISS:    3230172
cpu0_L2C LOAD         ACCESS:    2445304 HIT:     141610 MISS:    2303694
cpu0_L2C RFO          ACCESS:     923199 HIT:        565 MISS:     922634
cpu0_L2C PREFETCH     ACCESS:          0 HIT:          0 MISS:          0
cpu0_L2C WRITE        ACCESS:    2056154 HIT:    2055783 MISS:        371
cpu0_L2C TRANSLATION  ACCESS:      18282 HIT:      14809 MISS:       3473
cpu0_L2C PREFETCH REQUESTED:          0 ISSUED:          0 USEFUL:          0 USELESS:          0
cpu0_L2C AVERAGE MISS LATENCY: 1076 cycles
cpu0_STLB TOTAL        ACCESS:     577005 HIT:     529154 MISS:      47851
cpu0_STLB LOAD         ACCESS:     577005 HIT:     529154 MISS:      47851
cpu0_STLB RFO          ACCESS:          0 HIT:          0 MISS:          0
cpu0_STLB PREFETCH     ACCESS:          0 HIT:          0 MISS:          0
cpu0_STLB WRITE        ACCESS:          0 HIT:          0 MISS:          0
cpu0_STLB TRANSLATION  ACCESS:          0 HIT:          0 MISS:          0
cpu0_STLB PREFETCH REQUESTED:          0 ISSUED:          0 USEFUL:          0 USELESS:          0
cpu0_STLB AVERAGE MISS LATENCY: 355.7 cycles

DRAM Statistics

Channel 0 RQ ROW_BUFFER_HIT:     715198
  ROW_BUFFER_MISS:    1960229
 AVG DBUS CONGESTED CYCLE: 3.971
WQ ROW_BUFFER_HIT: Channel 0 
  ROW_BUFFER_MISS:     642212
  FULL:    1081161
