WARNING: physical memory size is smaller than virtual memory size.

*** ChampSim Multicore Out-of-Order Simulator ***
Warmup Instructions: 50000000
Simulation Instructions: 600000000
Number of CPUs: 1
Page size: 4096

Off-chip DRAM Size: 4 GiB Channels: 1 Width: 64-bit Data Race: 3200 MT/s
Heartbeat CPU 0 instructions: 10000001 cycles: 2881056 heartbeat IPC: 3.471 cumulative IPC: 3.471 (Simulation time: 00 hr 01 min 06 sec)
Heartbeat CPU 0 instructions: 20000001 cycles: 5381056 heartbeat IPC: 4 cumulative IPC: 3.717 (Simulation time: 00 hr 01 min 54 sec)
Heartbeat CPU 0 instructions: 30000001 cycles: 7881056 heartbeat IPC: 4 cumulative IPC: 3.807 (Simulation time: 00 hr 02 min 38 sec)
Heartbeat CPU 0 instructions: 40000001 cycles: 10381056 heartbeat IPC: 4 cumulative IPC: 3.853 (Simulation time: 00 hr 03 min 22 sec)
Heartbeat CPU 0 instructions: 50000001 cycles: 12881056 heartbeat IPC: 4 cumulative IPC: 3.882 (Simulation time: 00 hr 04 min 05 sec)
Warmup finished CPU 0 instructions: 50000001 cycles: 12881057 cumulative IPC: 3.882 (Simulation time: 00 hr 04 min 05 sec)
Warmup complete CPU 0 instructions: 50000001 cycles: 12881057 cumulative IPC: 3.882 (Simulation time: 00 hr 04 min 05 sec)
Heartbeat CPU 0 instructions: 60000000 cycles: 17486328 heartbeat IPC: 2.171 cumulative IPC: 2.171 (Simulation time: 00 hr 05 min 19 sec)
Heartbeat CPU 0 instructions: 70000002 cycles: 22083361 heartbeat IPC: 2.175 cumulative IPC: 2.173 (Simulation time: 00 hr 06 min 33 sec)
Heartbeat CPU 0 instructions: 80000001 cycles: 26705247 heartbeat IPC: 2.164 cumulative IPC: 2.17 (Simulation time: 00 hr 07 min 48 sec)
Heartbeat CPU 0 instructions: 90000004 cycles: 31342576 heartbeat IPC: 2.156 cumulative IPC: 2.167 (Simulation time: 00 hr 09 min 02 sec)
Heartbeat CPU 0 instructions: 100000000 cycles: 34903752 heartbeat IPC: 2.808 cumulative IPC: 2.27 (Simulation time: 00 hr 10 min 04 sec)
Heartbeat CPU 0 instructions: 110000004 cycles: 37540652 heartbeat IPC: 3.792 cumulative IPC: 2.433 (Simulation time: 00 hr 10 min 55 sec)
Heartbeat CPU 0 instructions: 120000000 cycles: 40401645 heartbeat IPC: 3.495 cumulative IPC: 2.544 (Simulation time: 00 hr 11 min 48 sec)
Heartbeat CPU 0 instructions: 130000002 cycles: 43984985 heartbeat IPC: 2.791 cumulative IPC: 2.572 (Simulation time: 00 hr 12 min 51 sec)
Heartbeat CPU 0 instructions: 140000004 cycles: 47550188 heartbeat IPC: 2.805 cumulative IPC: 2.596 (Simulation time: 00 hr 13 min 52 sec)
Heartbeat CPU 0 instructions: 150000001 cycles: 51178943 heartbeat IPC: 2.756 cumulative IPC: 2.611 (Simulation time: 00 hr 14 min 54 sec)
Heartbeat CPU 0 instructions: 160000002 cycles: 54697693 heartbeat IPC: 2.842 cumulative IPC: 2.631 (Simulation time: 00 hr 15 min 55 sec)
Heartbeat CPU 0 instructions: 170000000 cycles: 58387526 heartbeat IPC: 2.71 cumulative IPC: 2.637 (Simulation time: 00 hr 16 min 58 sec)
Heartbeat CPU 0 instructions: 180000000 cycles: 62019903 heartbeat IPC: 2.753 cumulative IPC: 2.646 (Simulation time: 00 hr 18 min 01 sec)
Heartbeat CPU 0 instructions: 190000000 cycles: 65816935 heartbeat IPC: 2.634 cumulative IPC: 2.645 (Simulation time: 00 hr 19 min 04 sec)
Heartbeat CPU 0 instructions: 200000004 cycles: 69026547 heartbeat IPC: 3.116 cumulative IPC: 2.672 (Simulation time: 00 hr 20 min 01 sec)
Heartbeat CPU 0 instructions: 210000001 cycles: 72084985 heartbeat IPC: 3.27 cumulative IPC: 2.703 (Simulation time: 00 hr 20 min 57 sec)
Heartbeat CPU 0 instructions: 220000004 cycles: 75822170 heartbeat IPC: 2.676 cumulative IPC: 2.701 (Simulation time: 00 hr 22 min 01 sec)
Heartbeat CPU 0 instructions: 230000000 cycles: 79543785 heartbeat IPC: 2.687 cumulative IPC: 2.7 (Simulation time: 00 hr 23 min 04 sec)
Heartbeat CPU 0 instructions: 240000001 cycles: 83229836 heartbeat IPC: 2.713 cumulative IPC: 2.701 (Simulation time: 00 hr 24 min 07 sec)
Heartbeat CPU 0 instructions: 250000002 cycles: 86955618 heartbeat IPC: 2.684 cumulative IPC: 2.7 (Simulation time: 00 hr 25 min 11 sec)
Heartbeat CPU 0 instructions: 260000002 cycles: 90737286 heartbeat IPC: 2.644 cumulative IPC: 2.697 (Simulation time: 00 hr 26 min 15 sec)
Heartbeat CPU 0 instructions: 270000002 cycles: 94469260 heartbeat IPC: 2.68 cumulative IPC: 2.696 (Simulation time: 00 hr 27 min 19 sec)
Heartbeat CPU 0 instructions: 280000003 cycles: 98216904 heartbeat IPC: 2.668 cumulative IPC: 2.695 (Simulation time: 00 hr 28 min 23 sec)
Heartbeat CPU 0 instructions: 290000000 cycles: 153506861 heartbeat IPC: 0.1809 cumulative IPC: 1.707 (Simulation time: 00 hr 37 min 33 sec)
Heartbeat CPU 0 instructions: 300000001 cycles: 156009251 heartbeat IPC: 3.996 cumulative IPC: 1.747 (Simulation time: 00 hr 38 min 25 sec)
Heartbeat CPU 0 instructions: 310000000 cycles: 158511629 heartbeat IPC: 3.996 cumulative IPC: 1.785 (Simulation time: 00 hr 39 min 20 sec)
Heartbeat CPU 0 instructions: 320000002 cycles: 161014060 heartbeat IPC: 3.996 cumulative IPC: 1.823 (Simulation time: 00 hr 40 min 13 sec)
Heartbeat CPU 0 instructions: 330000004 cycles: 163516397 heartbeat IPC: 3.996 cumulative IPC: 1.859 (Simulation time: 00 hr 41 min 07 sec)
Heartbeat CPU 0 instructions: 340000004 cycles: 166019192 heartbeat IPC: 3.996 cumulative IPC: 1.894 (Simulation time: 00 hr 41 min 59 sec)
Heartbeat CPU 0 instructions: 350000003 cycles: 168521585 heartbeat IPC: 3.996 cumulative IPC: 1.928 (Simulation time: 00 hr 42 min 55 sec)
Heartbeat CPU 0 instructions: 360000002 cycles: 171025110 heartbeat IPC: 3.994 cumulative IPC: 1.96 (Simulation time: 00 hr 43 min 50 sec)
Heartbeat CPU 0 instructions: 370000004 cycles: 173527459 heartbeat IPC: 3.996 cumulative IPC: 1.992 (Simulation time: 00 hr 44 min 46 sec)
Heartbeat CPU 0 instructions: 380000003 cycles: 176031731 heartbeat IPC: 3.993 cumulative IPC: 2.023 (Simulation time: 00 hr 45 min 40 sec)
Heartbeat CPU 0 instructions: 390000000 cycles: 178534119 heartbeat IPC: 3.996 cumulative IPC: 2.052 (Simulation time: 00 hr 46 min 35 sec)
Heartbeat CPU 0 instructions: 400000002 cycles: 181036500 heartbeat IPC: 3.996 cumulative IPC: 2.081 (Simulation time: 00 hr 47 min 28 sec)
Heartbeat CPU 0 instructions: 410000002 cycles: 183539826 heartbeat IPC: 3.995 cumulative IPC: 2.109 (Simulation time: 00 hr 48 min 22 sec)
Heartbeat CPU 0 instructions: 420000000 cycles: 186043811 heartbeat IPC: 3.994 cumulative IPC: 2.137 (Simulation time: 00 hr 49 min 16 sec)
Heartbeat CPU 0 instructions: 430000001 cycles: 188546210 heartbeat IPC: 3.996 cumulative IPC: 2.163 (Simulation time: 00 hr 50 min 10 sec)
Heartbeat CPU 0 instructions: 440000000 cycles: 191049481 heartbeat IPC: 3.995 cumulative IPC: 2.189 (Simulation time: 00 hr 51 min 05 sec)
Heartbeat CPU 0 instructions: 450000001 cycles: 193552243 heartbeat IPC: 3.996 cumulative IPC: 2.214 (Simulation time: 00 hr 51 min 59 sec)
Heartbeat CPU 0 instructions: 460000002 cycles: 196055551 heartbeat IPC: 3.995 cumulative IPC: 2.238 (Simulation time: 00 hr 52 min 53 sec)
Heartbeat CPU 0 instructions: 470000001 cycles: 198559673 heartbeat IPC: 3.993 cumulative IPC: 2.262 (Simulation time: 00 hr 53 min 46 sec)
Heartbeat CPU 0 instructions: 480000000 cycles: 201062060 heartbeat IPC: 3.996 cumulative IPC: 2.285 (Simulation time: 00 hr 54 min 41 sec)
Heartbeat CPU 0 instructions: 490000001 cycles: 203564450 heartbeat IPC: 3.996 cumulative IPC: 2.307 (Simulation time: 00 hr 55 min 36 sec)
Heartbeat CPU 0 instructions: 500000004 cycles: 206067264 heartbeat IPC: 3.996 cumulative IPC: 2.329 (Simulation time: 00 hr 56 min 30 sec)
Heartbeat CPU 0 instructions: 510000001 cycles: 213299943 heartbeat IPC: 1.383 cumulative IPC: 2.295 (Simulation time: 00 hr 58 min 16 sec)
Heartbeat CPU 0 instructions: 520000002 cycles: 311111992 heartbeat IPC: 0.1022 cumulative IPC: 1.576 (Simulation time: 01 hr 17 min 10 sec)
Heartbeat CPU 0 instructions: 530000001 cycles: 387792081 heartbeat IPC: 0.1304 cumulative IPC: 1.28 (Simulation time: 01 hr 31 min 59 sec)
Heartbeat CPU 0 instructions: 540000000 cycles: 417239820 heartbeat IPC: 0.3396 cumulative IPC: 1.212 (Simulation time: 01 hr 38 min 07 sec)
Heartbeat CPU 0 instructions: 550000003 cycles: 447492260 heartbeat IPC: 0.3306 cumulative IPC: 1.15 (Simulation time: 01 hr 44 min 22 sec)
Heartbeat CPU 0 instructions: 560000000 cycles: 478134331 heartbeat IPC: 0.3263 cumulative IPC: 1.096 (Simulation time: 01 hr 50 min 40 sec)
Heartbeat CPU 0 instructions: 570000004 cycles: 509274194 heartbeat IPC: 0.3211 cumulative IPC: 1.048 (Simulation time: 01 hr 57 min 05 sec)
Heartbeat CPU 0 instructions: 580000002 cycles: 538910068 heartbeat IPC: 0.3374 cumulative IPC: 1.008 (Simulation time: 02 hr 03 min 14 sec)
Heartbeat CPU 0 instructions: 590000000 cycles: 569949200 heartbeat IPC: 0.3222 cumulative IPC: 0.9694 (Simulation time: 02 hr 09 min 39 sec)
*** Reached end of trace: (0, "traces/sp.A.champsimtrace")
Heartbeat CPU 0 instructions: 600000004 cycles: 600985516 heartbeat IPC: 0.3222 cumulative IPC: 0.9352 (Simulation time: 02 hr 16 min 16 sec)
Heartbeat CPU 0 instructions: 610000004 cycles: 631876524 heartbeat IPC: 0.3237 cumulative IPC: 0.9047 (Simulation time: 02 hr 21 min 30 sec)
Heartbeat CPU 0 instructions: 620000002 cycles: 636481147 heartbeat IPC: 2.172 cumulative IPC: 0.914 (Simulation time: 02 hr 22 min 52 sec)
Heartbeat CPU 0 instructions: 630000001 cycles: 641100537 heartbeat IPC: 2.165 cumulative IPC: 0.9232 (Simulation time: 02 hr 24 min 12 sec)
Heartbeat CPU 0 instructions: 640000000 cycles: 645702227 heartbeat IPC: 2.173 cumulative IPC: 0.9323 (Simulation time: 02 hr 25 min 33 sec)
Heartbeat CPU 0 instructions: 650000004 cycles: 650330435 heartbeat IPC: 2.161 cumulative IPC: 0.9413 (Simulation time: 02 hr 26 min 54 sec)
Simulation finished CPU 0 instructions: 600000003 cycles: 637449379 cumulative IPC: 0.9413 (Simulation time: 02 hr 26 min 54 sec)
Simulation complete CPU 0 instructions: 600000003 cycles: 637449379 cumulative IPC: 0.9413 (Simulation time: 02 hr 26 min 54 sec)

ChampSim completed all CPUs

=== Simulation ===
CPU 0 runs traces/sp.A.champsimtrace
Region of Interest Statistics

CPU 0 cumulative IPC: 0.9413 instructions: 600000003 cycles: 637449379
CPU 0 Branch Prediction Accuracy: 98.83% MPKI: 0.2409 Average ROB Occupancy at Mispredict: 218.8
Branch type MPKI
BRANCH_DIRECT_JUMP: 5e-06
BRANCH_INDIRECT: 7.67e-05
BRANCH_CONDITIONAL: 0.241
BRANCH_DIRECT_CALL: 2e-05
BRANCH_INDIRECT_CALL: 3.33e-05
BRANCH_RETURN: 3.67e-05

LLC TOTAL        ACCESS:    7585751 HIT:    2517635 MISS:    5068116
LLC LOAD         ACCESS:    2306642 HIT:    1200198 MISS:    1106444
LLC RFO          ACCESS:     922693 HIT:      28372 MISS:     894321
LLC PREFETCH     ACCESS:    2306649 HIT:     555649 MISS:    1751000
LLC WRITE        ACCESS:    2046256 HIT:     733382 MISS:    1312874
LLC TRANSLATION  ACCESS:       3511 HIT:         34 MISS:       3477
LLC PREFETCH REQUESTED:    2306649 ISSUED:    2306649 USEFUL:    1477798 USELESS:      21330
LLC AVERAGE MISS LATENCY: 901 cycles
cpu0_DTLB TOTAL        ACCESS:  127425651 HIT:  126579898 MISS:     845753
cpu0_DTLB LOAD         ACCESS:  127425651 HIT:  126579898 MISS:     845753
cpu0_DTLB RFO          ACCESS:          0 HIT:          0 MISS:          0
cpu0_DTLB PREFETCH     ACCESS:          0 HIT:          0 MISS:          0
cpu0_DTLB WRITE        ACCESS:          0 HIT:          0 MISS:          0
cpu0_DTLB TRANSLATION  ACCESS:          0 HIT:          0 MISS:          0
cpu0_DTLB PREFETCH REQUESTED:          0 ISSUED:          0 USEFUL:          0 USELESS:          0
cpu0_DTLB AVERAGE MISS LATENCY: 19.25 cycles
cpu0_ITLB TOTAL        ACCESS:     217387 HIT:     217167 MISS:        220
cpu0_ITLB LOAD         ACCESS:     217387 HIT:     217167 MISS:        220
cpu0_ITLB RFO          ACCESS:          0 HIT:          0 MISS:          0
cpu0_ITLB PREFETCH     ACCESS:          0 HIT:          0 MISS:          0
cpu0_ITLB WRITE        ACCESS:          0 HIT:          0 MISS:          0
cpu0_ITLB TRANSLATION  ACCESS:          0 HIT:          0 MISS:          0
cpu0_ITLB PREFETCH REQUESTED:          0 ISSUED:          0 USEFUL:          0 USELESS:          0
cpu0_ITLB AVERAGE MISS LATENCY: 305.1 cycles
cpu0_L1D TOTAL        ACCESS:  192933153 HIT:  179039315 MISS:   13893838
cpu0_L1D LOAD         ACCESS:  157691070 HIT:  147940423 MISS:    9750647
cpu0_L1D RFO          ACCESS:          0 HIT:          0 MISS:          0
cpu0_L1D PREFETCH     ACCESS:          0 HIT:          0 MISS:          0
cpu0_L1D WRITE        ACCESS:   35194207 HIT:   31069327 MISS:    4124880
cpu0_L1D TRANSLATION  ACCESS:      47876 HIT:      29565 MISS:      18311
cpu0_L1D PREFETCH REQUESTED:          0 ISSUED:          0 USEFUL:          0 USELESS:          0
cpu0_L1D AVERAGE MISS LATENCY: 156.5 cycles
cpu0_L1I TOTAL        ACCESS:     224991 HIT:     222246 MISS:       2745
cpu0_L1I LOAD         ACCESS:     224991 HIT:     222246 MISS:       2745
cpu0_L1I RFO          ACCESS:          0 HIT:          0 MISS:          0
cpu0_L1I PREFETCH     ACCESS:          0 HIT:          0 MISS:          0
cpu0_L1I WRITE        ACCESS:          0 HIT:          0 MISS:          0
cpu0_L1I TRANSLATION  ACCESS:          0 HIT:          0 MISS:          0
cpu0_L1I PREFETCH REQUESTED:          0 ISSUED:          0 USEFUL:          0 USELESS:          0
cpu0_L1I AVERAGE MISS LATENCY: 502.1 cycles
cpu0_L2C TOTAL        ACCESS:    5429364 HIT:    2196170 MISS:    3233194
cpu0_L2C LOAD         ACCESS:    2428367 HIT:     121722 MISS:    2306645
cpu0_L2C RFO          ACCESS:     924306 HIT:       1613 MISS:     922693
cpu0_L2C PREFETCH     ACCESS:          0 HIT:          0 MISS:          0
cpu0_L2C WRITE        ACCESS:    2058384 HIT:    2058039 MISS:        345
cpu0_L2C TRANSLATION  ACCESS:      18307 HIT:      14796 MISS:       3511
cpu0_L2C PREFETCH REQUESTED:          0 ISSUED:          0 USEFUL:          0 USELESS:          0
cpu0_L2C AVERAGE MISS LATENCY: 903.6 cycles
cpu0_STLB TOTAL        ACCESS:     583956 HIT:     536109 MISS:      47847
cpu0_STLB LOAD         ACCESS:     583956 HIT:     536109 MISS:      47847
cpu0_STLB RFO          ACCESS:          0 HIT:          0 MISS:          0
cpu0_STLB PREFETCH     ACCESS:          0 HIT:          0 MISS:          0
cpu0_STLB WRITE        ACCESS:          0 HIT:          0 MISS:          0
cpu0_STLB TRANSLATION  ACCESS:          0 HIT:          0 MISS:          0
cpu0_STLB PREFETCH REQUESTED:          0 ISSUED:          0 USEFUL:          0 USELESS:          0
cpu0_STLB AVERAGE MISS LATENCY: 382.3 cycles

DRAM Statistics

Channel 0 RQ ROW_BUFFER_HIT:     740310
  ROW_BUFFER_MISS:    1940154
 AVG DBUS CONGESTED CYCLE: 3.977
WQ ROW_BUFFER_HIT: Channel 0 
  ROW_BUFFER_MISS:     500487
  FULL:    1246300
Final OPTGen Hits: 29395
Final OPTGen Access: 54474
Final OPTGEN Hit Rate: 53.9616
