WARNING: physical memory size is smaller than virtual memory size.

*** ChampSim Multicore Out-of-Order Simulator ***
Warmup Instructions: 50000000
Simulation Instructions: 600000000
Number of CPUs: 1
Page size: 4096

Off-chip DRAM Size: 4 GiB Channels: 1 Width: 64-bit Data Race: 3200 MT/s
Heartbeat CPU 0 instructions: 10000001 cycles: 2500318 heartbeat IPC: 3.999 cumulative IPC: 3.999 (Simulation time: 00 hr 03 min 51 sec)
Heartbeat CPU 0 instructions: 20000002 cycles: 5037136 heartbeat IPC: 3.942 cumulative IPC: 3.971 (Simulation time: 00 hr 07 min 31 sec)
Heartbeat CPU 0 instructions: 30000002 cycles: 7537136 heartbeat IPC: 4 cumulative IPC: 3.98 (Simulation time: 00 hr 10 min 56 sec)
Heartbeat CPU 0 instructions: 40000002 cycles: 10037136 heartbeat IPC: 4 cumulative IPC: 3.985 (Simulation time: 00 hr 14 min 24 sec)
Heartbeat CPU 0 instructions: 50000002 cycles: 12537136 heartbeat IPC: 4 cumulative IPC: 3.988 (Simulation time: 00 hr 17 min 39 sec)
Warmup finished CPU 0 instructions: 50000002 cycles: 12537137 cumulative IPC: 3.988 (Simulation time: 00 hr 17 min 39 sec)
Warmup complete CPU 0 instructions: 50000002 cycles: 12537137 cumulative IPC: 3.988 (Simulation time: 00 hr 17 min 39 sec)
Heartbeat CPU 0 instructions: 60000000 cycles: 17138401 heartbeat IPC: 2.173 cumulative IPC: 2.173 (Simulation time: 00 hr 22 min 33 sec)
Heartbeat CPU 0 instructions: 70000004 cycles: 21408466 heartbeat IPC: 2.342 cumulative IPC: 2.254 (Simulation time: 00 hr 27 min 23 sec)
Heartbeat CPU 0 instructions: 80000001 cycles: 26000750 heartbeat IPC: 2.178 cumulative IPC: 2.228 (Simulation time: 00 hr 32 min 17 sec)
Heartbeat CPU 0 instructions: 90000001 cycles: 30129822 heartbeat IPC: 2.422 cumulative IPC: 2.274 (Simulation time: 00 hr 36 min 53 sec)
Heartbeat CPU 0 instructions: 100000000 cycles: 34180097 heartbeat IPC: 2.469 cumulative IPC: 2.31 (Simulation time: 00 hr 41 min 25 sec)
Heartbeat CPU 0 instructions: 110000000 cycles: 38412715 heartbeat IPC: 2.363 cumulative IPC: 2.319 (Simulation time: 00 hr 46 min 00 sec)
Heartbeat CPU 0 instructions: 120000001 cycles: 42424020 heartbeat IPC: 2.493 cumulative IPC: 2.342 (Simulation time: 00 hr 50 min 30 sec)
Heartbeat CPU 0 instructions: 130000001 cycles: 46155566 heartbeat IPC: 2.68 cumulative IPC: 2.38 (Simulation time: 00 hr 54 min 55 sec)
Heartbeat CPU 0 instructions: 140000001 cycles: 50317318 heartbeat IPC: 2.403 cumulative IPC: 2.382 (Simulation time: 00 hr 59 min 29 sec)
Heartbeat CPU 0 instructions: 150000001 cycles: 54515023 heartbeat IPC: 2.382 cumulative IPC: 2.382 (Simulation time: 01 hr 04 min 04 sec)
Heartbeat CPU 0 instructions: 160000004 cycles: 58932580 heartbeat IPC: 2.264 cumulative IPC: 2.371 (Simulation time: 01 hr 08 min 46 sec)
Heartbeat CPU 0 instructions: 170000000 cycles: 66962513 heartbeat IPC: 1.245 cumulative IPC: 2.205 (Simulation time: 01 hr 15 min 44 sec)
Heartbeat CPU 0 instructions: 180000004 cycles: 73718266 heartbeat IPC: 1.48 cumulative IPC: 2.125 (Simulation time: 01 hr 22 min 13 sec)
Heartbeat CPU 0 instructions: 190000001 cycles: 80368593 heartbeat IPC: 1.504 cumulative IPC: 2.064 (Simulation time: 01 hr 28 min 35 sec)
Heartbeat CPU 0 instructions: 200000004 cycles: 84010312 heartbeat IPC: 2.746 cumulative IPC: 2.099 (Simulation time: 01 hr 32 min 54 sec)
Heartbeat CPU 0 instructions: 210000001 cycles: 87815975 heartbeat IPC: 2.628 cumulative IPC: 2.125 (Simulation time: 01 hr 37 min 21 sec)
Heartbeat CPU 0 instructions: 220000000 cycles: 91714282 heartbeat IPC: 2.565 cumulative IPC: 2.147 (Simulation time: 01 hr 41 min 47 sec)
Heartbeat CPU 0 instructions: 230000002 cycles: 96238253 heartbeat IPC: 2.21 cumulative IPC: 2.151 (Simulation time: 01 hr 46 min 32 sec)
Heartbeat CPU 0 instructions: 240000000 cycles: 100346240 heartbeat IPC: 2.434 cumulative IPC: 2.164 (Simulation time: 01 hr 51 min 06 sec)
Heartbeat CPU 0 instructions: 250000000 cycles: 104575510 heartbeat IPC: 2.364 cumulative IPC: 2.173 (Simulation time: 01 hr 55 min 44 sec)
Heartbeat CPU 0 instructions: 260000000 cycles: 108690925 heartbeat IPC: 2.43 cumulative IPC: 2.184 (Simulation time: 02 hr 00 min 14 sec)
Heartbeat CPU 0 instructions: 270000002 cycles: 112489749 heartbeat IPC: 2.632 cumulative IPC: 2.201 (Simulation time: 02 hr 04 min 39 sec)
Heartbeat CPU 0 instructions: 280000002 cycles: 116625069 heartbeat IPC: 2.418 cumulative IPC: 2.21 (Simulation time: 02 hr 09 min 14 sec)
Heartbeat CPU 0 instructions: 290000001 cycles: 120495779 heartbeat IPC: 2.584 cumulative IPC: 2.223 (Simulation time: 02 hr 13 min 41 sec)
Heartbeat CPU 0 instructions: 300000003 cycles: 124285306 heartbeat IPC: 2.639 cumulative IPC: 2.237 (Simulation time: 02 hr 18 min 09 sec)
Heartbeat CPU 0 instructions: 310000001 cycles: 128356338 heartbeat IPC: 2.456 cumulative IPC: 2.245 (Simulation time: 02 hr 22 min 41 sec)
Heartbeat CPU 0 instructions: 320000003 cycles: 132415215 heartbeat IPC: 2.464 cumulative IPC: 2.252 (Simulation time: 02 hr 27 min 15 sec)
Heartbeat CPU 0 instructions: 330000003 cycles: 136793626 heartbeat IPC: 2.284 cumulative IPC: 2.253 (Simulation time: 02 hr 31 min 56 sec)
Heartbeat CPU 0 instructions: 340000000 cycles: 144862511 heartbeat IPC: 1.239 cumulative IPC: 2.192 (Simulation time: 02 hr 39 min 01 sec)
Heartbeat CPU 0 instructions: 350000000 cycles: 151910603 heartbeat IPC: 1.419 cumulative IPC: 2.152 (Simulation time: 02 hr 45 min 36 sec)
Heartbeat CPU 0 instructions: 360000004 cycles: 158821144 heartbeat IPC: 1.447 cumulative IPC: 2.119 (Simulation time: 02 hr 52 min 01 sec)
Heartbeat CPU 0 instructions: 370000000 cycles: 162153145 heartbeat IPC: 3.001 cumulative IPC: 2.139 (Simulation time: 02 hr 56 min 08 sec)
Heartbeat CPU 0 instructions: 380000001 cycles: 165474584 heartbeat IPC: 3.011 cumulative IPC: 2.158 (Simulation time: 03 hr 00 min 20 sec)
Heartbeat CPU 0 instructions: 390000004 cycles: 169147223 heartbeat IPC: 2.723 cumulative IPC: 2.171 (Simulation time: 03 hr 04 min 37 sec)
Heartbeat CPU 0 instructions: 400000004 cycles: 172921103 heartbeat IPC: 2.65 cumulative IPC: 2.182 (Simulation time: 03 hr 08 min 58 sec)
Heartbeat CPU 0 instructions: 410000001 cycles: 176492068 heartbeat IPC: 2.8 cumulative IPC: 2.196 (Simulation time: 03 hr 13 min 09 sec)
Heartbeat CPU 0 instructions: 420000003 cycles: 180407895 heartbeat IPC: 2.554 cumulative IPC: 2.204 (Simulation time: 03 hr 17 min 35 sec)
Heartbeat CPU 0 instructions: 430000001 cycles: 184012863 heartbeat IPC: 2.774 cumulative IPC: 2.216 (Simulation time: 03 hr 21 min 57 sec)
Heartbeat CPU 0 instructions: 440000004 cycles: 188031084 heartbeat IPC: 2.489 cumulative IPC: 2.222 (Simulation time: 03 hr 26 min 29 sec)
Heartbeat CPU 0 instructions: 450000002 cycles: 191702388 heartbeat IPC: 2.724 cumulative IPC: 2.233 (Simulation time: 03 hr 30 min 57 sec)
Heartbeat CPU 0 instructions: 460000000 cycles: 195339747 heartbeat IPC: 2.749 cumulative IPC: 2.243 (Simulation time: 03 hr 35 min 17 sec)
Heartbeat CPU 0 instructions: 470000000 cycles: 198764135 heartbeat IPC: 2.92 cumulative IPC: 2.255 (Simulation time: 03 hr 39 min 31 sec)
Heartbeat CPU 0 instructions: 480000003 cycles: 202551465 heartbeat IPC: 2.64 cumulative IPC: 2.263 (Simulation time: 03 hr 43 min 55 sec)
Heartbeat CPU 0 instructions: 490000000 cycles: 206168174 heartbeat IPC: 2.765 cumulative IPC: 2.272 (Simulation time: 03 hr 48 min 10 sec)
Heartbeat CPU 0 instructions: 500000000 cycles: 209852864 heartbeat IPC: 2.714 cumulative IPC: 2.281 (Simulation time: 03 hr 52 min 28 sec)
Heartbeat CPU 0 instructions: 510000003 cycles: 213485635 heartbeat IPC: 2.753 cumulative IPC: 2.289 (Simulation time: 03 hr 56 min 49 sec)
Heartbeat CPU 0 instructions: 520000001 cycles: 216873666 heartbeat IPC: 2.952 cumulative IPC: 2.3 (Simulation time: 04 hr 01 min 05 sec)
Heartbeat CPU 0 instructions: 530000002 cycles: 220519996 heartbeat IPC: 2.742 cumulative IPC: 2.308 (Simulation time: 04 hr 05 min 24 sec)
Heartbeat CPU 0 instructions: 540000000 cycles: 224032424 heartbeat IPC: 2.847 cumulative IPC: 2.317 (Simulation time: 04 hr 09 min 38 sec)
Heartbeat CPU 0 instructions: 550000001 cycles: 227722216 heartbeat IPC: 2.71 cumulative IPC: 2.324 (Simulation time: 04 hr 13 min 59 sec)
Heartbeat CPU 0 instructions: 560000000 cycles: 231683500 heartbeat IPC: 2.524 cumulative IPC: 2.327 (Simulation time: 04 hr 18 min 28 sec)
Heartbeat CPU 0 instructions: 570000004 cycles: 237690509 heartbeat IPC: 1.665 cumulative IPC: 2.31 (Simulation time: 04 hr 24 min 12 sec)
Heartbeat CPU 0 instructions: 580000003 cycles: 245285426 heartbeat IPC: 1.317 cumulative IPC: 2.277 (Simulation time: 04 hr 31 min 02 sec)
Heartbeat CPU 0 instructions: 590000002 cycles: 253452629 heartbeat IPC: 1.224 cumulative IPC: 2.241 (Simulation time: 04 hr 38 min 20 sec)
Heartbeat CPU 0 instructions: 600000000 cycles: 257039757 heartbeat IPC: 2.788 cumulative IPC: 2.249 (Simulation time: 04 hr 42 min 35 sec)
Heartbeat CPU 0 instructions: 610000000 cycles: 260813867 heartbeat IPC: 2.65 cumulative IPC: 2.256 (Simulation time: 04 hr 46 min 54 sec)
Heartbeat CPU 0 instructions: 620000001 cycles: 264192383 heartbeat IPC: 2.96 cumulative IPC: 2.265 (Simulation time: 04 hr 51 min 06 sec)
Heartbeat CPU 0 instructions: 630000002 cycles: 268383169 heartbeat IPC: 2.386 cumulative IPC: 2.267 (Simulation time: 04 hr 55 min 51 sec)
Heartbeat CPU 0 instructions: 640000001 cycles: 272248236 heartbeat IPC: 2.587 cumulative IPC: 2.272 (Simulation time: 05 hr 00 min 24 sec)
Heartbeat CPU 0 instructions: 650000000 cycles: 275974893 heartbeat IPC: 2.683 cumulative IPC: 2.278 (Simulation time: 05 hr 04 min 54 sec)
Simulation finished CPU 0 instructions: 600000001 cycles: 263437758 cumulative IPC: 2.278 (Simulation time: 05 hr 04 min 54 sec)
Simulation complete CPU 0 instructions: 600000001 cycles: 263437758 cumulative IPC: 2.278 (Simulation time: 05 hr 04 min 54 sec)

ChampSim completed all CPUs

=== Simulation ===
CPU 0 runs traces/400.perlbench-41B.champsimtrace.xz
Region of Interest Statistics

CPU 0 cumulative IPC: 2.278 instructions: 600000001 cycles: 263437758
CPU 0 Branch Prediction Accuracy: 96.56% MPKI: 7.112 Average ROB Occupancy at Mispredict: 46.97
Branch type MPKI
BRANCH_DIRECT_JUMP: 0.0123
BRANCH_INDIRECT: 0.323
BRANCH_CONDITIONAL: 6.56
BRANCH_DIRECT_CALL: 0.0043
BRANCH_INDIRECT_CALL: 0.2
BRANCH_RETURN: 0.00828

LLC TOTAL        ACCESS:     540278 HIT:     420796 MISS:     119482
LLC LOAD         ACCESS:     403233 HIT:     306714 MISS:      96519
LLC RFO          ACCESS:      32498 HIT:      24570 MISS:       7928
LLC PREFETCH     ACCESS:          0 HIT:          0 MISS:          0
LLC WRITE        ACCESS:      85318 HIT:      79793 MISS:       5525
LLC TRANSLATION  ACCESS:      19229 HIT:       9719 MISS:       9510
LLC PREFETCH REQUESTED:          0 ISSUED:          0 USEFUL:          0 USELESS:          0
LLC AVERAGE MISS LATENCY: 507 cycles
cpu0_DTLB TOTAL        ACCESS:  141905880 HIT:  141219407 MISS:     686473
cpu0_DTLB LOAD         ACCESS:  141905880 HIT:  141219407 MISS:     686473
cpu0_DTLB RFO          ACCESS:          0 HIT:          0 MISS:          0
cpu0_DTLB PREFETCH     ACCESS:          0 HIT:          0 MISS:          0
cpu0_DTLB WRITE        ACCESS:          0 HIT:          0 MISS:          0
cpu0_DTLB TRANSLATION  ACCESS:          0 HIT:          0 MISS:          0
cpu0_DTLB PREFETCH REQUESTED:          0 ISSUED:          0 USEFUL:          0 USELESS:          0
cpu0_DTLB AVERAGE MISS LATENCY: 13.15 cycles
cpu0_ITLB TOTAL        ACCESS:    4861229 HIT:    4808123 MISS:      53106
cpu0_ITLB LOAD         ACCESS:    4861229 HIT:    4808123 MISS:      53106
cpu0_ITLB RFO          ACCESS:          0 HIT:          0 MISS:          0
cpu0_ITLB PREFETCH     ACCESS:          0 HIT:          0 MISS:          0
cpu0_ITLB WRITE        ACCESS:          0 HIT:          0 MISS:          0
cpu0_ITLB TRANSLATION  ACCESS:          0 HIT:          0 MISS:          0
cpu0_ITLB PREFETCH REQUESTED:          0 ISSUED:          0 USEFUL:          0 USELESS:          0
cpu0_ITLB AVERAGE MISS LATENCY: 6.169 cycles
cpu0_L1D TOTAL        ACCESS:  188575962 HIT:  186882820 MISS:    1693142
cpu0_L1D LOAD         ACCESS:  105208470 HIT:  103886630 MISS:    1321840
cpu0_L1D RFO          ACCESS:          0 HIT:          0 MISS:          0
cpu0_L1D PREFETCH     ACCESS:          0 HIT:          0 MISS:          0
cpu0_L1D WRITE        ACCESS:   83343025 HIT:   82995132 MISS:     347893
cpu0_L1D TRANSLATION  ACCESS:      24467 HIT:       1058 MISS:      23409
cpu0_L1D PREFETCH REQUESTED:          0 ISSUED:          0 USEFUL:          0 USELESS:          0
cpu0_L1D AVERAGE MISS LATENCY: 43.5 cycles
cpu0_L1I TOTAL        ACCESS:    5598982 HIT:    4855417 MISS:     743565
cpu0_L1I LOAD         ACCESS:    5598982 HIT:    4855417 MISS:     743565
cpu0_L1I RFO          ACCESS:          0 HIT:          0 MISS:          0
cpu0_L1I PREFETCH     ACCESS:          0 HIT:          0 MISS:          0
cpu0_L1I WRITE        ACCESS:          0 HIT:          0 MISS:          0
cpu0_L1I TRANSLATION  ACCESS:          0 HIT:          0 MISS:          0
cpu0_L1I PREFETCH REQUESTED:          0 ISSUED:          0 USEFUL:          0 USELESS:          0
cpu0_L1I AVERAGE MISS LATENCY: 9.188 cycles
cpu0_L2C TOTAL        ACCESS:    1665967 HIT:    1209191 MISS:     456776
cpu0_L2C LOAD         ACCESS:    1316006 HIT:     912773 MISS:     403233
cpu0_L2C RFO          ACCESS:      88321 HIT:      55823 MISS:      32498
cpu0_L2C PREFETCH     ACCESS:          0 HIT:          0 MISS:          0
cpu0_L2C WRITE        ACCESS:     238306 HIT:     236490 MISS:       1816
cpu0_L2C TRANSLATION  ACCESS:      23334 HIT:       4105 MISS:      19229
cpu0_L2C PREFETCH REQUESTED:          0 ISSUED:          0 USEFUL:          0 USELESS:          0
cpu0_L2C AVERAGE MISS LATENCY: 152.8 cycles
cpu0_STLB TOTAL        ACCESS:     507101 HIT:     484306 MISS:      22795
cpu0_STLB LOAD         ACCESS:     507101 HIT:     484306 MISS:      22795
cpu0_STLB RFO          ACCESS:          0 HIT:          0 MISS:          0
cpu0_STLB PREFETCH     ACCESS:          0 HIT:          0 MISS:          0
cpu0_STLB WRITE        ACCESS:          0 HIT:          0 MISS:          0
cpu0_STLB TRANSLATION  ACCESS:          0 HIT:          0 MISS:          0
cpu0_STLB PREFETCH REQUESTED:          0 ISSUED:          0 USEFUL:          0 USELESS:          0
cpu0_STLB AVERAGE MISS LATENCY: 271.3 cycles

DRAM Statistics

Channel 0 RQ ROW_BUFFER_HIT:      21264
  ROW_BUFFER_MISS:      92693
 AVG DBUS CONGESTED CYCLE: 3.759
WQ ROW_BUFFER_HIT: Channel 0 
  ROW_BUFFER_MISS:       5220
  FULL:       9436
