WARNING: physical memory size is smaller than virtual memory size.

*** ChampSim Multicore Out-of-Order Simulator ***
Warmup Instructions: 50000000
Simulation Instructions: 600000000
Number of CPUs: 1
Page size: 4096

Off-chip DRAM Size: 4 GiB Channels: 1 Width: 64-bit Data Race: 3200 MT/s
Heartbeat CPU 0 instructions: 10000001 cycles: 2500318 heartbeat IPC: 3.999 cumulative IPC: 3.999 (Simulation time: 00 hr 01 min 01 sec)
Heartbeat CPU 0 instructions: 20000002 cycles: 5037135 heartbeat IPC: 3.942 cumulative IPC: 3.971 (Simulation time: 00 hr 02 min 06 sec)
Heartbeat CPU 0 instructions: 30000002 cycles: 7537135 heartbeat IPC: 4 cumulative IPC: 3.98 (Simulation time: 00 hr 03 min 06 sec)
Heartbeat CPU 0 instructions: 40000002 cycles: 10037135 heartbeat IPC: 4 cumulative IPC: 3.985 (Simulation time: 00 hr 04 min 10 sec)
Heartbeat CPU 0 instructions: 50000002 cycles: 12537135 heartbeat IPC: 4 cumulative IPC: 3.988 (Simulation time: 00 hr 05 min 12 sec)
Warmup finished CPU 0 instructions: 50000002 cycles: 12537136 cumulative IPC: 3.988 (Simulation time: 00 hr 05 min 12 sec)
Warmup complete CPU 0 instructions: 50000002 cycles: 12537136 cumulative IPC: 3.988 (Simulation time: 00 hr 05 min 12 sec)
Heartbeat CPU 0 instructions: 60000000 cycles: 17154609 heartbeat IPC: 2.166 cumulative IPC: 2.166 (Simulation time: 00 hr 06 min 41 sec)
Heartbeat CPU 0 instructions: 70000004 cycles: 21427700 heartbeat IPC: 2.34 cumulative IPC: 2.25 (Simulation time: 00 hr 08 min 06 sec)
Heartbeat CPU 0 instructions: 80000001 cycles: 26022267 heartbeat IPC: 2.176 cumulative IPC: 2.225 (Simulation time: 00 hr 09 min 27 sec)
Heartbeat CPU 0 instructions: 90000001 cycles: 30147462 heartbeat IPC: 2.424 cumulative IPC: 2.271 (Simulation time: 00 hr 10 min 52 sec)
Heartbeat CPU 0 instructions: 100000000 cycles: 34201492 heartbeat IPC: 2.467 cumulative IPC: 2.308 (Simulation time: 00 hr 12 min 12 sec)
Heartbeat CPU 0 instructions: 110000000 cycles: 38444270 heartbeat IPC: 2.357 cumulative IPC: 2.316 (Simulation time: 00 hr 13 min 42 sec)
Heartbeat CPU 0 instructions: 120000001 cycles: 42452983 heartbeat IPC: 2.495 cumulative IPC: 2.34 (Simulation time: 00 hr 15 min 22 sec)
Heartbeat CPU 0 instructions: 130000001 cycles: 46185156 heartbeat IPC: 2.679 cumulative IPC: 2.378 (Simulation time: 00 hr 17 min 05 sec)
Heartbeat CPU 0 instructions: 140000001 cycles: 50349002 heartbeat IPC: 2.402 cumulative IPC: 2.38 (Simulation time: 00 hr 18 min 50 sec)
Heartbeat CPU 0 instructions: 150000001 cycles: 54545828 heartbeat IPC: 2.383 cumulative IPC: 2.38 (Simulation time: 00 hr 20 min 37 sec)
Heartbeat CPU 0 instructions: 160000004 cycles: 58961581 heartbeat IPC: 2.265 cumulative IPC: 2.369 (Simulation time: 00 hr 22 min 29 sec)
Heartbeat CPU 0 instructions: 170000000 cycles: 69571503 heartbeat IPC: 0.9425 cumulative IPC: 2.104 (Simulation time: 00 hr 25 min 12 sec)
Heartbeat CPU 0 instructions: 180000004 cycles: 81189190 heartbeat IPC: 0.8608 cumulative IPC: 1.894 (Simulation time: 00 hr 26 min 50 sec)
Heartbeat CPU 0 instructions: 190000001 cycles: 91943245 heartbeat IPC: 0.9299 cumulative IPC: 1.763 (Simulation time: 00 hr 28 min 24 sec)
Heartbeat CPU 0 instructions: 200000004 cycles: 95715388 heartbeat IPC: 2.651 cumulative IPC: 1.803 (Simulation time: 00 hr 29 min 13 sec)
Heartbeat CPU 0 instructions: 210000001 cycles: 99633615 heartbeat IPC: 2.552 cumulative IPC: 1.837 (Simulation time: 00 hr 30 min 03 sec)
Heartbeat CPU 0 instructions: 220000000 cycles: 103593383 heartbeat IPC: 2.525 cumulative IPC: 1.867 (Simulation time: 00 hr 30 min 54 sec)
Heartbeat CPU 0 instructions: 230000002 cycles: 108264896 heartbeat IPC: 2.141 cumulative IPC: 1.88 (Simulation time: 00 hr 31 min 49 sec)
Heartbeat CPU 0 instructions: 240000000 cycles: 112455255 heartbeat IPC: 2.386 cumulative IPC: 1.902 (Simulation time: 00 hr 32 min 44 sec)
Heartbeat CPU 0 instructions: 250000000 cycles: 116773590 heartbeat IPC: 2.316 cumulative IPC: 1.919 (Simulation time: 00 hr 33 min 40 sec)
Heartbeat CPU 0 instructions: 260000000 cycles: 120956665 heartbeat IPC: 2.391 cumulative IPC: 1.937 (Simulation time: 00 hr 34 min 36 sec)
Heartbeat CPU 0 instructions: 270000002 cycles: 124803982 heartbeat IPC: 2.599 cumulative IPC: 1.96 (Simulation time: 00 hr 35 min 29 sec)
Heartbeat CPU 0 instructions: 280000002 cycles: 128976175 heartbeat IPC: 2.397 cumulative IPC: 1.975 (Simulation time: 00 hr 36 min 21 sec)
Heartbeat CPU 0 instructions: 290000001 cycles: 132868218 heartbeat IPC: 2.569 cumulative IPC: 1.994 (Simulation time: 00 hr 37 min 11 sec)
Heartbeat CPU 0 instructions: 300000003 cycles: 136694822 heartbeat IPC: 2.613 cumulative IPC: 2.014 (Simulation time: 00 hr 38 min 04 sec)
Heartbeat CPU 0 instructions: 310000001 cycles: 140811521 heartbeat IPC: 2.429 cumulative IPC: 2.027 (Simulation time: 00 hr 38 min 56 sec)
Heartbeat CPU 0 instructions: 320000003 cycles: 144876566 heartbeat IPC: 2.46 cumulative IPC: 2.04 (Simulation time: 00 hr 39 min 46 sec)
Heartbeat CPU 0 instructions: 330000003 cycles: 149269203 heartbeat IPC: 2.277 cumulative IPC: 2.048 (Simulation time: 00 hr 40 min 37 sec)
Heartbeat CPU 0 instructions: 340000000 cycles: 159666380 heartbeat IPC: 0.9618 cumulative IPC: 1.971 (Simulation time: 00 hr 42 min 09 sec)
Heartbeat CPU 0 instructions: 350000000 cycles: 171734000 heartbeat IPC: 0.8287 cumulative IPC: 1.884 (Simulation time: 00 hr 43 min 55 sec)
Heartbeat CPU 0 instructions: 360000004 cycles: 182322474 heartbeat IPC: 0.9444 cumulative IPC: 1.826 (Simulation time: 00 hr 45 min 30 sec)
Heartbeat CPU 0 instructions: 370000000 cycles: 185763979 heartbeat IPC: 2.906 cumulative IPC: 1.847 (Simulation time: 00 hr 46 min 20 sec)
Heartbeat CPU 0 instructions: 380000001 cycles: 189179799 heartbeat IPC: 2.928 cumulative IPC: 1.868 (Simulation time: 00 hr 47 min 09 sec)
Heartbeat CPU 0 instructions: 390000004 cycles: 192917858 heartbeat IPC: 2.675 cumulative IPC: 1.885 (Simulation time: 00 hr 47 min 56 sec)
Heartbeat CPU 0 instructions: 400000004 cycles: 196729384 heartbeat IPC: 2.624 cumulative IPC: 1.9 (Simulation time: 00 hr 48 min 46 sec)
Heartbeat CPU 0 instructions: 410000001 cycles: 200377924 heartbeat IPC: 2.741 cumulative IPC: 1.917 (Simulation time: 00 hr 49 min 38 sec)
Heartbeat CPU 0 instructions: 420000003 cycles: 204462920 heartbeat IPC: 2.448 cumulative IPC: 1.928 (Simulation time: 00 hr 50 min 32 sec)
Heartbeat CPU 0 instructions: 430000001 cycles: 208125654 heartbeat IPC: 2.73 cumulative IPC: 1.943 (Simulation time: 00 hr 51 min 23 sec)
Heartbeat CPU 0 instructions: 440000004 cycles: 212208184 heartbeat IPC: 2.449 cumulative IPC: 1.953 (Simulation time: 00 hr 52 min 15 sec)
Heartbeat CPU 0 instructions: 450000002 cycles: 215940393 heartbeat IPC: 2.679 cumulative IPC: 1.967 (Simulation time: 00 hr 53 min 08 sec)
Heartbeat CPU 0 instructions: 460000000 cycles: 219611006 heartbeat IPC: 2.724 cumulative IPC: 1.98 (Simulation time: 00 hr 53 min 59 sec)
Heartbeat CPU 0 instructions: 470000000 cycles: 223073842 heartbeat IPC: 2.888 cumulative IPC: 1.995 (Simulation time: 00 hr 54 min 48 sec)
Heartbeat CPU 0 instructions: 480000003 cycles: 226926125 heartbeat IPC: 2.596 cumulative IPC: 2.006 (Simulation time: 00 hr 55 min 38 sec)
Heartbeat CPU 0 instructions: 490000000 cycles: 230559518 heartbeat IPC: 2.752 cumulative IPC: 2.018 (Simulation time: 00 hr 56 min 29 sec)
Heartbeat CPU 0 instructions: 500000000 cycles: 234255184 heartbeat IPC: 2.706 cumulative IPC: 2.03 (Simulation time: 00 hr 57 min 21 sec)
Heartbeat CPU 0 instructions: 510000003 cycles: 237956450 heartbeat IPC: 2.702 cumulative IPC: 2.041 (Simulation time: 00 hr 58 min 12 sec)
Heartbeat CPU 0 instructions: 520000001 cycles: 241371992 heartbeat IPC: 2.928 cumulative IPC: 2.054 (Simulation time: 00 hr 59 min 00 sec)
Heartbeat CPU 0 instructions: 530000002 cycles: 245061800 heartbeat IPC: 2.71 cumulative IPC: 2.064 (Simulation time: 00 hr 59 min 50 sec)
Heartbeat CPU 0 instructions: 540000000 cycles: 248582846 heartbeat IPC: 2.84 cumulative IPC: 2.076 (Simulation time: 01 hr 00 min 44 sec)
Heartbeat CPU 0 instructions: 550000001 cycles: 252266202 heartbeat IPC: 2.715 cumulative IPC: 2.086 (Simulation time: 01 hr 01 min 38 sec)
Heartbeat CPU 0 instructions: 560000000 cycles: 256302103 heartbeat IPC: 2.478 cumulative IPC: 2.092 (Simulation time: 01 hr 02 min 29 sec)
Heartbeat CPU 0 instructions: 570000004 cycles: 262689705 heartbeat IPC: 1.566 cumulative IPC: 2.079 (Simulation time: 01 hr 03 min 35 sec)
Heartbeat CPU 0 instructions: 580000003 cycles: 275021542 heartbeat IPC: 0.8109 cumulative IPC: 2.019 (Simulation time: 01 hr 05 min 19 sec)
Heartbeat CPU 0 instructions: 590000002 cycles: 289099674 heartbeat IPC: 0.7103 cumulative IPC: 1.953 (Simulation time: 01 hr 07 min 12 sec)
Heartbeat CPU 0 instructions: 600000000 cycles: 292860812 heartbeat IPC: 2.659 cumulative IPC: 1.962 (Simulation time: 01 hr 08 min 00 sec)
Heartbeat CPU 0 instructions: 610000000 cycles: 296714004 heartbeat IPC: 2.595 cumulative IPC: 1.971 (Simulation time: 01 hr 08 min 49 sec)
Heartbeat CPU 0 instructions: 620000001 cycles: 300142786 heartbeat IPC: 2.916 cumulative IPC: 1.982 (Simulation time: 01 hr 09 min 37 sec)
Heartbeat CPU 0 instructions: 630000002 cycles: 304421963 heartbeat IPC: 2.337 cumulative IPC: 1.987 (Simulation time: 01 hr 10 min 30 sec)
Heartbeat CPU 0 instructions: 640000001 cycles: 308318496 heartbeat IPC: 2.566 cumulative IPC: 1.995 (Simulation time: 01 hr 11 min 23 sec)
Heartbeat CPU 0 instructions: 650000000 cycles: 312071988 heartbeat IPC: 2.664 cumulative IPC: 2.003 (Simulation time: 01 hr 12 min 12 sec)
Simulation finished CPU 0 instructions: 600000001 cycles: 299534854 cumulative IPC: 2.003 (Simulation time: 01 hr 12 min 12 sec)
Simulation complete CPU 0 instructions: 600000001 cycles: 299534854 cumulative IPC: 2.003 (Simulation time: 01 hr 12 min 12 sec)

ChampSim completed all CPUs

=== Simulation ===
CPU 0 runs traces/400.perlbench-41B.champsimtrace.xz
Region of Interest Statistics

CPU 0 cumulative IPC: 2.003 instructions: 600000001 cycles: 299534854
CPU 0 Branch Prediction Accuracy: 96.56% MPKI: 7.112 Average ROB Occupancy at Mispredict: 47.33
Branch type MPKI
BRANCH_DIRECT_JUMP: 0.0123
BRANCH_INDIRECT: 0.323
BRANCH_CONDITIONAL: 6.56
BRANCH_DIRECT_CALL: 0.0043
BRANCH_INDIRECT_CALL: 0.2
BRANCH_RETURN: 0.00828

LLC TOTAL        ACCESS:     592659 HIT:     287656 MISS:     305003
LLC LOAD         ACCESS:     401982 HIT:     164217 MISS:     237765
LLC RFO          ACCESS:      32408 HIT:      16030 MISS:      16378
LLC PREFETCH     ACCESS:      53584 HIT:      25330 MISS:      28254
LLC WRITE        ACCESS:      85732 HIT:      73599 MISS:      12133
LLC TRANSLATION  ACCESS:      18953 HIT:       8480 MISS:      10473
LLC PREFETCH REQUESTED:      53584 ISSUED:      53584 USEFUL:      17190 USELESS:       6532
LLC AVERAGE MISS LATENCY: 547.1 cycles
cpu0_DTLB TOTAL        ACCESS:  141904997 HIT:  141218504 MISS:     686493
cpu0_DTLB LOAD         ACCESS:  141904997 HIT:  141218504 MISS:     686493
cpu0_DTLB RFO          ACCESS:          0 HIT:          0 MISS:          0
cpu0_DTLB PREFETCH     ACCESS:          0 HIT:          0 MISS:          0
cpu0_DTLB WRITE        ACCESS:          0 HIT:          0 MISS:          0
cpu0_DTLB TRANSLATION  ACCESS:          0 HIT:          0 MISS:          0
cpu0_DTLB PREFETCH REQUESTED:          0 ISSUED:          0 USEFUL:          0 USELESS:          0
cpu0_DTLB AVERAGE MISS LATENCY: 15.48 cycles
cpu0_ITLB TOTAL        ACCESS:    4860443 HIT:    4807305 MISS:      53138
cpu0_ITLB LOAD         ACCESS:    4860443 HIT:    4807305 MISS:      53138
cpu0_ITLB RFO          ACCESS:          0 HIT:          0 MISS:          0
cpu0_ITLB PREFETCH     ACCESS:          0 HIT:          0 MISS:          0
cpu0_ITLB WRITE        ACCESS:          0 HIT:          0 MISS:          0
cpu0_ITLB TRANSLATION  ACCESS:          0 HIT:          0 MISS:          0
cpu0_ITLB PREFETCH REQUESTED:          0 ISSUED:          0 USEFUL:          0 USELESS:          0
cpu0_ITLB AVERAGE MISS LATENCY: 8.316 cycles
cpu0_L1D TOTAL        ACCESS:  188570976 HIT:  187210273 MISS:    1360703
cpu0_L1D LOAD         ACCESS:  105203008 HIT:  104156143 MISS:    1046865
cpu0_L1D RFO          ACCESS:          0 HIT:          0 MISS:          0
cpu0_L1D PREFETCH     ACCESS:          0 HIT:          0 MISS:          0
cpu0_L1D WRITE        ACCESS:   83343508 HIT:   83052530 MISS:     290978
cpu0_L1D TRANSLATION  ACCESS:      24460 HIT:       1600 MISS:      22860
cpu0_L1D PREFETCH REQUESTED:          0 ISSUED:          0 USEFUL:          0 USELESS:          0
cpu0_L1D AVERAGE MISS LATENCY: 113.5 cycles
cpu0_L1I TOTAL        ACCESS:    5598067 HIT:    4854520 MISS:     743547
cpu0_L1I LOAD         ACCESS:    5598067 HIT:    4854520 MISS:     743547
cpu0_L1I RFO          ACCESS:          0 HIT:          0 MISS:          0
cpu0_L1I PREFETCH     ACCESS:          0 HIT:          0 MISS:          0
cpu0_L1I WRITE        ACCESS:          0 HIT:          0 MISS:          0
cpu0_L1I TRANSLATION  ACCESS:          0 HIT:          0 MISS:          0
cpu0_L1I PREFETCH REQUESTED:          0 ISSUED:          0 USEFUL:          0 USELESS:          0
cpu0_L1I AVERAGE MISS LATENCY: 14.77 cycles
cpu0_L2C TOTAL        ACCESS:    1380706 HIT:     923753 MISS:     456953
cpu0_L2C LOAD         ACCESS:    1124725 HIT:     722743 MISS:     401982
cpu0_L2C RFO          ACCESS:      63796 HIT:      31388 MISS:      32408
cpu0_L2C PREFETCH     ACCESS:          0 HIT:          0 MISS:          0
cpu0_L2C WRITE        ACCESS:     169393 HIT:     165783 MISS:       3610
cpu0_L2C TRANSLATION  ACCESS:      22792 HIT:       3839 MISS:      18953
cpu0_L2C PREFETCH REQUESTED:          0 ISSUED:          0 USEFUL:          0 USELESS:          0
cpu0_L2C AVERAGE MISS LATENCY: 347.4 cycles
cpu0_STLB TOTAL        ACCESS:     507366 HIT:     484572 MISS:      22794
cpu0_STLB LOAD         ACCESS:     507366 HIT:     484572 MISS:      22794
cpu0_STLB RFO          ACCESS:          0 HIT:          0 MISS:          0
cpu0_STLB PREFETCH     ACCESS:          0 HIT:          0 MISS:          0
cpu0_STLB WRITE        ACCESS:          0 HIT:          0 MISS:          0
cpu0_STLB TRANSLATION  ACCESS:          0 HIT:          0 MISS:          0
cpu0_STLB PREFETCH REQUESTED:          0 ISSUED:          0 USEFUL:          0 USELESS:          0
cpu0_STLB AVERAGE MISS LATENCY: 348.4 cycles

DRAM Statistics

Channel 0 RQ ROW_BUFFER_HIT:      52874
  ROW_BUFFER_MISS:     234721
 AVG DBUS CONGESTED CYCLE: 3.814
WQ ROW_BUFFER_HIT: Channel 0 
  ROW_BUFFER_MISS:       8460
  FULL:      32254
