WARNING: physical memory size is smaller than virtual memory size.

*** ChampSim Multicore Out-of-Order Simulator ***
Warmup Instructions: 50000000
Simulation Instructions: 600000000
Number of CPUs: 1
Page size: 4096

Off-chip DRAM Size: 4 GiB Channels: 1 Width: 64-bit Data Race: 3200 MT/s
Heartbeat CPU 0 instructions: 10000000 cycles: 2500061 heartbeat IPC: 4 cumulative IPC: 4 (Simulation time: 00 hr 00 min 54 sec)
Heartbeat CPU 0 instructions: 20000000 cycles: 5000061 heartbeat IPC: 4 cumulative IPC: 4 (Simulation time: 00 hr 01 min 43 sec)
Heartbeat CPU 0 instructions: 30000000 cycles: 7500061 heartbeat IPC: 4 cumulative IPC: 4 (Simulation time: 00 hr 02 min 30 sec)
Heartbeat CPU 0 instructions: 40000000 cycles: 10000061 heartbeat IPC: 4 cumulative IPC: 4 (Simulation time: 00 hr 03 min 17 sec)
Heartbeat CPU 0 instructions: 50000000 cycles: 12500061 heartbeat IPC: 4 cumulative IPC: 4 (Simulation time: 00 hr 04 min 08 sec)
Warmup finished CPU 0 instructions: 50000000 cycles: 12500062 cumulative IPC: 4 (Simulation time: 00 hr 04 min 08 sec)
Warmup complete CPU 0 instructions: 50000000 cycles: 12500062 cumulative IPC: 4 (Simulation time: 00 hr 04 min 08 sec)
Heartbeat CPU 0 instructions: 60000002 cycles: 16435451 heartbeat IPC: 2.541 cumulative IPC: 2.541 (Simulation time: 00 hr 05 min 19 sec)
Heartbeat CPU 0 instructions: 70000003 cycles: 20748814 heartbeat IPC: 2.318 cumulative IPC: 2.425 (Simulation time: 00 hr 06 min 48 sec)
Heartbeat CPU 0 instructions: 80000003 cycles: 25212047 heartbeat IPC: 2.241 cumulative IPC: 2.36 (Simulation time: 00 hr 08 min 17 sec)
Heartbeat CPU 0 instructions: 90000000 cycles: 28901952 heartbeat IPC: 2.71 cumulative IPC: 2.439 (Simulation time: 00 hr 09 min 35 sec)
Heartbeat CPU 0 instructions: 100000003 cycles: 32796051 heartbeat IPC: 2.568 cumulative IPC: 2.464 (Simulation time: 00 hr 10 min 48 sec)
Heartbeat CPU 0 instructions: 110000002 cycles: 36887380 heartbeat IPC: 2.444 cumulative IPC: 2.46 (Simulation time: 00 hr 11 min 58 sec)
Heartbeat CPU 0 instructions: 120000001 cycles: 40600339 heartbeat IPC: 2.693 cumulative IPC: 2.491 (Simulation time: 00 hr 13 min 04 sec)
Heartbeat CPU 0 instructions: 130000003 cycles: 44364917 heartbeat IPC: 2.656 cumulative IPC: 2.511 (Simulation time: 00 hr 14 min 10 sec)
Heartbeat CPU 0 instructions: 140000002 cycles: 48489994 heartbeat IPC: 2.424 cumulative IPC: 2.501 (Simulation time: 00 hr 15 min 20 sec)
Heartbeat CPU 0 instructions: 150000001 cycles: 52534004 heartbeat IPC: 2.473 cumulative IPC: 2.498 (Simulation time: 00 hr 16 min 36 sec)
Heartbeat CPU 0 instructions: 160000000 cycles: 56183103 heartbeat IPC: 2.74 cumulative IPC: 2.518 (Simulation time: 00 hr 18 min 02 sec)
Heartbeat CPU 0 instructions: 170000001 cycles: 60348403 heartbeat IPC: 2.401 cumulative IPC: 2.508 (Simulation time: 00 hr 19 min 31 sec)
Heartbeat CPU 0 instructions: 180000001 cycles: 63804167 heartbeat IPC: 2.894 cumulative IPC: 2.534 (Simulation time: 00 hr 20 min 43 sec)
Heartbeat CPU 0 instructions: 190000002 cycles: 67380677 heartbeat IPC: 2.796 cumulative IPC: 2.551 (Simulation time: 00 hr 21 min 53 sec)
Heartbeat CPU 0 instructions: 200000002 cycles: 71150820 heartbeat IPC: 2.652 cumulative IPC: 2.558 (Simulation time: 00 hr 22 min 58 sec)
Heartbeat CPU 0 instructions: 210000000 cycles: 74785998 heartbeat IPC: 2.751 cumulative IPC: 2.569 (Simulation time: 00 hr 23 min 58 sec)
Heartbeat CPU 0 instructions: 220000001 cycles: 78653484 heartbeat IPC: 2.586 cumulative IPC: 2.57 (Simulation time: 00 hr 25 min 02 sec)
Heartbeat CPU 0 instructions: 230000002 cycles: 82489625 heartbeat IPC: 2.607 cumulative IPC: 2.572 (Simulation time: 00 hr 26 min 06 sec)
Heartbeat CPU 0 instructions: 240000001 cycles: 86691010 heartbeat IPC: 2.38 cumulative IPC: 2.561 (Simulation time: 00 hr 27 min 26 sec)
Heartbeat CPU 0 instructions: 250000003 cycles: 91249149 heartbeat IPC: 2.194 cumulative IPC: 2.54 (Simulation time: 00 hr 29 min 01 sec)
Heartbeat CPU 0 instructions: 260000000 cycles: 95041937 heartbeat IPC: 2.637 cumulative IPC: 2.544 (Simulation time: 00 hr 30 min 21 sec)
Heartbeat CPU 0 instructions: 270000003 cycles: 101764825 heartbeat IPC: 1.487 cumulative IPC: 2.465 (Simulation time: 00 hr 31 min 53 sec)
Heartbeat CPU 0 instructions: 280000000 cycles: 112343236 heartbeat IPC: 0.9453 cumulative IPC: 2.304 (Simulation time: 00 hr 34 min 10 sec)
Heartbeat CPU 0 instructions: 290000000 cycles: 121930552 heartbeat IPC: 1.043 cumulative IPC: 2.193 (Simulation time: 00 hr 36 min 18 sec)
Heartbeat CPU 0 instructions: 300000003 cycles: 129228037 heartbeat IPC: 1.37 cumulative IPC: 2.142 (Simulation time: 00 hr 38 min 02 sec)
Heartbeat CPU 0 instructions: 310000004 cycles: 139955523 heartbeat IPC: 0.9322 cumulative IPC: 2.04 (Simulation time: 00 hr 40 min 18 sec)
Heartbeat CPU 0 instructions: 320000004 cycles: 144959949 heartbeat IPC: 1.998 cumulative IPC: 2.038 (Simulation time: 00 hr 42 min 05 sec)
Heartbeat CPU 0 instructions: 330000000 cycles: 149033886 heartbeat IPC: 2.455 cumulative IPC: 2.051 (Simulation time: 00 hr 43 min 27 sec)
Heartbeat CPU 0 instructions: 340000001 cycles: 153332706 heartbeat IPC: 2.326 cumulative IPC: 2.059 (Simulation time: 00 hr 44 min 44 sec)
Heartbeat CPU 0 instructions: 350000004 cycles: 157757173 heartbeat IPC: 2.26 cumulative IPC: 2.065 (Simulation time: 00 hr 46 min 01 sec)
Heartbeat CPU 0 instructions: 360000003 cycles: 161883444 heartbeat IPC: 2.423 cumulative IPC: 2.075 (Simulation time: 00 hr 47 min 18 sec)
Heartbeat CPU 0 instructions: 370000001 cycles: 165922135 heartbeat IPC: 2.476 cumulative IPC: 2.086 (Simulation time: 00 hr 48 min 33 sec)
Heartbeat CPU 0 instructions: 380000004 cycles: 169818495 heartbeat IPC: 2.566 cumulative IPC: 2.098 (Simulation time: 00 hr 49 min 44 sec)
Heartbeat CPU 0 instructions: 390000002 cycles: 173886355 heartbeat IPC: 2.458 cumulative IPC: 2.107 (Simulation time: 00 hr 50 min 54 sec)
Heartbeat CPU 0 instructions: 400000000 cycles: 178246809 heartbeat IPC: 2.293 cumulative IPC: 2.112 (Simulation time: 00 hr 51 min 58 sec)
Heartbeat CPU 0 instructions: 410000000 cycles: 185701622 heartbeat IPC: 1.341 cumulative IPC: 2.079 (Simulation time: 00 hr 53 min 42 sec)
Heartbeat CPU 0 instructions: 420000003 cycles: 196470970 heartbeat IPC: 0.9286 cumulative IPC: 2.011 (Simulation time: 00 hr 56 min 14 sec)
Heartbeat CPU 0 instructions: 430000000 cycles: 203970683 heartbeat IPC: 1.333 cumulative IPC: 1.985 (Simulation time: 00 hr 58 min 13 sec)
Heartbeat CPU 0 instructions: 440000004 cycles: 210636686 heartbeat IPC: 1.5 cumulative IPC: 1.968 (Simulation time: 00 hr 59 min 58 sec)
Heartbeat CPU 0 instructions: 450000000 cycles: 217302405 heartbeat IPC: 1.5 cumulative IPC: 1.953 (Simulation time: 01 hr 01 min 39 sec)
Heartbeat CPU 0 instructions: 460000002 cycles: 228000874 heartbeat IPC: 0.9347 cumulative IPC: 1.903 (Simulation time: 01 hr 03 min 45 sec)
Heartbeat CPU 0 instructions: 470000003 cycles: 237415080 heartbeat IPC: 1.062 cumulative IPC: 1.867 (Simulation time: 01 hr 05 min 36 sec)
Heartbeat CPU 0 instructions: 480000003 cycles: 241692772 heartbeat IPC: 2.338 cumulative IPC: 1.876 (Simulation time: 01 hr 06 min 56 sec)
Heartbeat CPU 0 instructions: 490000001 cycles: 246390847 heartbeat IPC: 2.129 cumulative IPC: 1.881 (Simulation time: 01 hr 08 min 31 sec)
Heartbeat CPU 0 instructions: 500000002 cycles: 250800861 heartbeat IPC: 2.268 cumulative IPC: 1.888 (Simulation time: 01 hr 10 min 04 sec)
Heartbeat CPU 0 instructions: 510000000 cycles: 255055929 heartbeat IPC: 2.35 cumulative IPC: 1.896 (Simulation time: 01 hr 11 min 28 sec)
Heartbeat CPU 0 instructions: 520000000 cycles: 259489628 heartbeat IPC: 2.255 cumulative IPC: 1.903 (Simulation time: 01 hr 12 min 44 sec)
Heartbeat CPU 0 instructions: 530000001 cycles: 270488793 heartbeat IPC: 0.9092 cumulative IPC: 1.861 (Simulation time: 01 hr 15 min 04 sec)
Heartbeat CPU 0 instructions: 540000000 cycles: 281338800 heartbeat IPC: 0.9217 cumulative IPC: 1.823 (Simulation time: 01 hr 17 min 18 sec)
Heartbeat CPU 0 instructions: 550000004 cycles: 293668218 heartbeat IPC: 0.8111 cumulative IPC: 1.778 (Simulation time: 01 hr 19 min 49 sec)
Heartbeat CPU 0 instructions: 560000004 cycles: 297892576 heartbeat IPC: 2.367 cumulative IPC: 1.787 (Simulation time: 01 hr 21 min 18 sec)
Heartbeat CPU 0 instructions: 570000001 cycles: 301021746 heartbeat IPC: 3.196 cumulative IPC: 1.802 (Simulation time: 01 hr 22 min 40 sec)
Heartbeat CPU 0 instructions: 580000003 cycles: 304565009 heartbeat IPC: 2.822 cumulative IPC: 1.815 (Simulation time: 01 hr 23 min 57 sec)
Heartbeat CPU 0 instructions: 590000002 cycles: 308192393 heartbeat IPC: 2.757 cumulative IPC: 1.826 (Simulation time: 01 hr 25 min 10 sec)
Heartbeat CPU 0 instructions: 600000003 cycles: 311260663 heartbeat IPC: 3.259 cumulative IPC: 1.841 (Simulation time: 01 hr 26 min 25 sec)
Heartbeat CPU 0 instructions: 610000001 cycles: 314771255 heartbeat IPC: 2.849 cumulative IPC: 1.853 (Simulation time: 01 hr 27 min 38 sec)
Heartbeat CPU 0 instructions: 620000000 cycles: 318788485 heartbeat IPC: 2.489 cumulative IPC: 1.861 (Simulation time: 01 hr 28 min 53 sec)
Heartbeat CPU 0 instructions: 630000002 cycles: 322153062 heartbeat IPC: 2.972 cumulative IPC: 1.873 (Simulation time: 01 hr 30 min 02 sec)
Heartbeat CPU 0 instructions: 640000004 cycles: 326160492 heartbeat IPC: 2.495 cumulative IPC: 1.881 (Simulation time: 01 hr 31 min 08 sec)
Heartbeat CPU 0 instructions: 650000001 cycles: 329981011 heartbeat IPC: 2.617 cumulative IPC: 1.89 (Simulation time: 01 hr 32 min 09 sec)
Simulation finished CPU 0 instructions: 600000001 cycles: 317480950 cumulative IPC: 1.89 (Simulation time: 01 hr 32 min 09 sec)
Simulation complete CPU 0 instructions: 600000001 cycles: 317480950 cumulative IPC: 1.89 (Simulation time: 01 hr 32 min 09 sec)

ChampSim completed all CPUs

=== Simulation ===
CPU 0 runs traces/400.perlbench-50B.champsimtrace.xz
Region of Interest Statistics

CPU 0 cumulative IPC: 1.89 instructions: 600000001 cycles: 317480950
CPU 0 Branch Prediction Accuracy: 96.2% MPKI: 7.839 Average ROB Occupancy at Mispredict: 43.29
Branch type MPKI
BRANCH_DIRECT_JUMP: 0.0176
BRANCH_INDIRECT: 0.38
BRANCH_CONDITIONAL: 6.99
BRANCH_DIRECT_CALL: 0.0067
BRANCH_INDIRECT_CALL: 0.431
BRANCH_RETURN: 0.0161

LLC TOTAL        ACCESS:    1350923 HIT:     877537 MISS:     473386
LLC LOAD         ACCESS:     576158 HIT:     364143 MISS:     212015
LLC RFO          ACCESS:      47374 HIT:      28856 MISS:      18518
LLC PREFETCH     ACCESS:     576158 HIT:     347263 MISS:     228895
LLC WRITE        ACCESS:     129222 HIT:     128553 MISS:        669
LLC TRANSLATION  ACCESS:      22011 HIT:       8722 MISS:      13289
LLC PREFETCH REQUESTED:     576158 ISSUED:     576158 USEFUL:      86574 USELESS:      87228
LLC AVERAGE MISS LATENCY: 553 cycles
cpu0_DTLB TOTAL        ACCESS:  146494180 HIT:  145190904 MISS:    1303276
cpu0_DTLB LOAD         ACCESS:  146494180 HIT:  145190904 MISS:    1303276
cpu0_DTLB RFO          ACCESS:          0 HIT:          0 MISS:          0
cpu0_DTLB PREFETCH     ACCESS:          0 HIT:          0 MISS:          0
cpu0_DTLB WRITE        ACCESS:          0 HIT:          0 MISS:          0
cpu0_DTLB TRANSLATION  ACCESS:          0 HIT:          0 MISS:          0
cpu0_DTLB PREFETCH REQUESTED:          0 ISSUED:          0 USEFUL:          0 USELESS:          0
cpu0_DTLB AVERAGE MISS LATENCY: 12.99 cycles
cpu0_ITLB TOTAL        ACCESS:    8986329 HIT:    8801822 MISS:     184507
cpu0_ITLB LOAD         ACCESS:    8986329 HIT:    8801822 MISS:     184507
cpu0_ITLB RFO          ACCESS:          0 HIT:          0 MISS:          0
cpu0_ITLB PREFETCH     ACCESS:          0 HIT:          0 MISS:          0
cpu0_ITLB WRITE        ACCESS:          0 HIT:          0 MISS:          0
cpu0_ITLB TRANSLATION  ACCESS:          0 HIT:          0 MISS:          0
cpu0_ITLB PREFETCH REQUESTED:          0 ISSUED:          0 USEFUL:          0 USELESS:          0
cpu0_ITLB AVERAGE MISS LATENCY: 3.908 cycles
cpu0_L1D TOTAL        ACCESS:  193310882 HIT:  190432617 MISS:    2878265
cpu0_L1D LOAD         ACCESS:  107463212 HIT:  105095980 MISS:    2367232
cpu0_L1D RFO          ACCESS:          0 HIT:          0 MISS:          0
cpu0_L1D PREFETCH     ACCESS:          0 HIT:          0 MISS:          0
cpu0_L1D WRITE        ACCESS:   85819140 HIT:   85334623 MISS:     484517
cpu0_L1D TRANSLATION  ACCESS:      28530 HIT:       2014 MISS:      26516
cpu0_L1D PREFETCH REQUESTED:          0 ISSUED:          0 USEFUL:          0 USELESS:          0
cpu0_L1D AVERAGE MISS LATENCY: 56.47 cycles
cpu0_L1I TOTAL        ACCESS:   10420930 HIT:    8659243 MISS:    1761687
cpu0_L1I LOAD         ACCESS:   10420930 HIT:    8659243 MISS:    1761687
cpu0_L1I RFO          ACCESS:          0 HIT:          0 MISS:          0
cpu0_L1I PREFETCH     ACCESS:          0 HIT:          0 MISS:          0
cpu0_L1I WRITE        ACCESS:          0 HIT:          0 MISS:          0
cpu0_L1I TRANSLATION  ACCESS:          0 HIT:          0 MISS:          0
cpu0_L1I PREFETCH REQUESTED:          0 ISSUED:          0 USEFUL:          0 USELESS:          0
cpu0_L1I AVERAGE MISS LATENCY: 10.75 cycles
cpu0_L2C TOTAL        ACCESS:    3232316 HIT:    2580819 MISS:     651497
cpu0_L2C LOAD         ACCESS:    2710078 HIT:    2133920 MISS:     576158
cpu0_L2C RFO          ACCESS:     133254 HIT:      85880 MISS:      47374
cpu0_L2C PREFETCH     ACCESS:          0 HIT:          0 MISS:          0
cpu0_L2C WRITE        ACCESS:     362537 HIT:     356583 MISS:       5954
cpu0_L2C TRANSLATION  ACCESS:      26447 HIT:       4436 MISS:      22011
cpu0_L2C PREFETCH REQUESTED:          0 ISSUED:          0 USEFUL:          0 USELESS:          0
cpu0_L2C AVERAGE MISS LATENCY: 245 cycles
cpu0_STLB TOTAL        ACCESS:    1008359 HIT:     981665 MISS:      26694
cpu0_STLB LOAD         ACCESS:    1008359 HIT:     981665 MISS:      26694
cpu0_STLB RFO          ACCESS:          0 HIT:          0 MISS:          0
cpu0_STLB PREFETCH     ACCESS:          0 HIT:          0 MISS:          0
cpu0_STLB WRITE        ACCESS:          0 HIT:          0 MISS:          0
cpu0_STLB TRANSLATION  ACCESS:          0 HIT:          0 MISS:          0
cpu0_STLB PREFETCH REQUESTED:          0 ISSUED:          0 USEFUL:          0 USELESS:          0
cpu0_STLB AVERAGE MISS LATENCY: 419 cycles

DRAM Statistics

Channel 0 RQ ROW_BUFFER_HIT:      81837
  ROW_BUFFER_MISS:     322522
 AVG DBUS CONGESTED CYCLE: 3.868
WQ ROW_BUFFER_HIT: Channel 0 
  ROW_BUFFER_MISS:       6359
  FULL:      39292
