WARNING: physical memory size is smaller than virtual memory size.

*** ChampSim Multicore Out-of-Order Simulator ***
Warmup Instructions: 50000000
Simulation Instructions: 600000000
Number of CPUs: 1
Page size: 4096

Off-chip DRAM Size: 4 GiB Channels: 1 Width: 64-bit Data Race: 3200 MT/s
Heartbeat CPU 0 instructions: 10000001 cycles: 2500318 heartbeat IPC: 3.999 cumulative IPC: 3.999 (Simulation time: 00 hr 00 min 51 sec)
Heartbeat CPU 0 instructions: 20000002 cycles: 5037128 heartbeat IPC: 3.942 cumulative IPC: 3.971 (Simulation time: 00 hr 01 min 40 sec)
Heartbeat CPU 0 instructions: 30000002 cycles: 7537128 heartbeat IPC: 4 cumulative IPC: 3.98 (Simulation time: 00 hr 02 min 23 sec)
Heartbeat CPU 0 instructions: 40000002 cycles: 10037128 heartbeat IPC: 4 cumulative IPC: 3.985 (Simulation time: 00 hr 03 min 09 sec)
Heartbeat CPU 0 instructions: 50000002 cycles: 12537128 heartbeat IPC: 4 cumulative IPC: 3.988 (Simulation time: 00 hr 03 min 55 sec)
Warmup finished CPU 0 instructions: 50000002 cycles: 12537129 cumulative IPC: 3.988 (Simulation time: 00 hr 03 min 55 sec)
Warmup complete CPU 0 instructions: 50000002 cycles: 12537129 cumulative IPC: 3.988 (Simulation time: 00 hr 03 min 55 sec)
Heartbeat CPU 0 instructions: 60000000 cycles: 17707803 heartbeat IPC: 1.934 cumulative IPC: 1.934 (Simulation time: 00 hr 05 min 04 sec)
Heartbeat CPU 0 instructions: 70000002 cycles: 22609793 heartbeat IPC: 2.04 cumulative IPC: 1.986 (Simulation time: 00 hr 06 min 12 sec)
Heartbeat CPU 0 instructions: 80000001 cycles: 27981237 heartbeat IPC: 1.862 cumulative IPC: 1.942 (Simulation time: 00 hr 07 min 23 sec)
Heartbeat CPU 0 instructions: 90000001 cycles: 32871139 heartbeat IPC: 2.045 cumulative IPC: 1.967 (Simulation time: 00 hr 08 min 32 sec)
Heartbeat CPU 0 instructions: 100000000 cycles: 37988521 heartbeat IPC: 1.954 cumulative IPC: 1.965 (Simulation time: 00 hr 09 min 38 sec)
Heartbeat CPU 0 instructions: 110000000 cycles: 42887724 heartbeat IPC: 2.041 cumulative IPC: 1.977 (Simulation time: 00 hr 10 min 43 sec)
Heartbeat CPU 0 instructions: 120000001 cycles: 48088922 heartbeat IPC: 1.923 cumulative IPC: 1.969 (Simulation time: 00 hr 11 min 51 sec)
Heartbeat CPU 0 instructions: 130000001 cycles: 53252516 heartbeat IPC: 1.937 cumulative IPC: 1.965 (Simulation time: 00 hr 13 min 02 sec)
Heartbeat CPU 0 instructions: 140000001 cycles: 58576026 heartbeat IPC: 1.878 cumulative IPC: 1.955 (Simulation time: 00 hr 14 min 17 sec)
Heartbeat CPU 0 instructions: 150000001 cycles: 63900964 heartbeat IPC: 1.878 cumulative IPC: 1.947 (Simulation time: 00 hr 15 min 30 sec)
Heartbeat CPU 0 instructions: 160000004 cycles: 69114354 heartbeat IPC: 1.918 cumulative IPC: 1.944 (Simulation time: 00 hr 16 min 40 sec)
Heartbeat CPU 0 instructions: 170000000 cycles: 78898620 heartbeat IPC: 1.022 cumulative IPC: 1.808 (Simulation time: 00 hr 18 min 30 sec)
Heartbeat CPU 0 instructions: 180000004 cycles: 89070587 heartbeat IPC: 0.9831 cumulative IPC: 1.699 (Simulation time: 00 hr 20 min 30 sec)
Heartbeat CPU 0 instructions: 190000001 cycles: 99392181 heartbeat IPC: 0.9688 cumulative IPC: 1.612 (Simulation time: 00 hr 22 min 24 sec)
Heartbeat CPU 0 instructions: 200000003 cycles: 104142661 heartbeat IPC: 2.105 cumulative IPC: 1.637 (Simulation time: 00 hr 23 min 34 sec)
Heartbeat CPU 0 instructions: 210000001 cycles: 109060133 heartbeat IPC: 2.034 cumulative IPC: 1.658 (Simulation time: 00 hr 24 min 42 sec)
Heartbeat CPU 0 instructions: 220000000 cycles: 113882098 heartbeat IPC: 2.074 cumulative IPC: 1.677 (Simulation time: 00 hr 25 min 49 sec)
Heartbeat CPU 0 instructions: 230000002 cycles: 119187180 heartbeat IPC: 1.885 cumulative IPC: 1.688 (Simulation time: 00 hr 27 min 01 sec)
Heartbeat CPU 0 instructions: 240000000 cycles: 124021540 heartbeat IPC: 2.069 cumulative IPC: 1.704 (Simulation time: 00 hr 28 min 08 sec)
Heartbeat CPU 0 instructions: 250000000 cycles: 129168601 heartbeat IPC: 1.943 cumulative IPC: 1.715 (Simulation time: 00 hr 29 min 19 sec)
Heartbeat CPU 0 instructions: 260000000 cycles: 134187872 heartbeat IPC: 1.992 cumulative IPC: 1.726 (Simulation time: 00 hr 30 min 29 sec)
Heartbeat CPU 0 instructions: 270000002 cycles: 139063603 heartbeat IPC: 2.051 cumulative IPC: 1.739 (Simulation time: 00 hr 31 min 36 sec)
Heartbeat CPU 0 instructions: 280000002 cycles: 143974585 heartbeat IPC: 2.036 cumulative IPC: 1.75 (Simulation time: 00 hr 32 min 48 sec)
Heartbeat CPU 0 instructions: 290000001 cycles: 149341783 heartbeat IPC: 1.863 cumulative IPC: 1.754 (Simulation time: 00 hr 34 min 01 sec)
Heartbeat CPU 0 instructions: 300000003 cycles: 154396804 heartbeat IPC: 1.978 cumulative IPC: 1.762 (Simulation time: 00 hr 35 min 11 sec)
Heartbeat CPU 0 instructions: 310000001 cycles: 159685244 heartbeat IPC: 1.891 cumulative IPC: 1.767 (Simulation time: 00 hr 36 min 27 sec)
Heartbeat CPU 0 instructions: 320000003 cycles: 164888550 heartbeat IPC: 1.922 cumulative IPC: 1.772 (Simulation time: 00 hr 37 min 32 sec)
Heartbeat CPU 0 instructions: 330000003 cycles: 170165892 heartbeat IPC: 1.895 cumulative IPC: 1.776 (Simulation time: 00 hr 38 min 41 sec)
Heartbeat CPU 0 instructions: 340000000 cycles: 180037738 heartbeat IPC: 1.013 cumulative IPC: 1.731 (Simulation time: 00 hr 40 min 27 sec)
Heartbeat CPU 0 instructions: 350000000 cycles: 190846491 heartbeat IPC: 0.9252 cumulative IPC: 1.682 (Simulation time: 00 hr 42 min 22 sec)
Heartbeat CPU 0 instructions: 360000004 cycles: 201215356 heartbeat IPC: 0.9644 cumulative IPC: 1.643 (Simulation time: 00 hr 44 min 06 sec)
Heartbeat CPU 0 instructions: 370000000 cycles: 205626129 heartbeat IPC: 2.267 cumulative IPC: 1.657 (Simulation time: 00 hr 45 min 08 sec)
Heartbeat CPU 0 instructions: 380000001 cycles: 210544643 heartbeat IPC: 2.033 cumulative IPC: 1.667 (Simulation time: 00 hr 46 min 12 sec)
Heartbeat CPU 0 instructions: 390000002 cycles: 215366753 heartbeat IPC: 2.074 cumulative IPC: 1.676 (Simulation time: 00 hr 47 min 16 sec)
Heartbeat CPU 0 instructions: 400000004 cycles: 220298970 heartbeat IPC: 2.027 cumulative IPC: 1.685 (Simulation time: 00 hr 48 min 24 sec)
Heartbeat CPU 0 instructions: 410000000 cycles: 225016966 heartbeat IPC: 2.12 cumulative IPC: 1.694 (Simulation time: 00 hr 49 min 31 sec)
Heartbeat CPU 0 instructions: 420000000 cycles: 230100155 heartbeat IPC: 1.967 cumulative IPC: 1.701 (Simulation time: 00 hr 50 min 40 sec)
Heartbeat CPU 0 instructions: 430000001 cycles: 234562163 heartbeat IPC: 2.241 cumulative IPC: 1.712 (Simulation time: 00 hr 51 min 46 sec)
Heartbeat CPU 0 instructions: 440000000 cycles: 239920340 heartbeat IPC: 1.866 cumulative IPC: 1.715 (Simulation time: 00 hr 52 min 57 sec)
Heartbeat CPU 0 instructions: 450000002 cycles: 244589492 heartbeat IPC: 2.142 cumulative IPC: 1.724 (Simulation time: 00 hr 54 min 03 sec)
Heartbeat CPU 0 instructions: 460000000 cycles: 249381947 heartbeat IPC: 2.087 cumulative IPC: 1.731 (Simulation time: 00 hr 55 min 07 sec)
Heartbeat CPU 0 instructions: 470000000 cycles: 254357303 heartbeat IPC: 2.01 cumulative IPC: 1.737 (Simulation time: 00 hr 56 min 10 sec)
Heartbeat CPU 0 instructions: 480000003 cycles: 259135376 heartbeat IPC: 2.093 cumulative IPC: 1.744 (Simulation time: 00 hr 57 min 12 sec)
Heartbeat CPU 0 instructions: 490000000 cycles: 263747515 heartbeat IPC: 2.168 cumulative IPC: 1.752 (Simulation time: 00 hr 58 min 13 sec)
Heartbeat CPU 0 instructions: 500000000 cycles: 268768588 heartbeat IPC: 1.992 cumulative IPC: 1.756 (Simulation time: 00 hr 59 min 17 sec)
Heartbeat CPU 0 instructions: 510000003 cycles: 274387745 heartbeat IPC: 1.78 cumulative IPC: 1.757 (Simulation time: 01 hr 00 min 24 sec)
Heartbeat CPU 0 instructions: 520000001 cycles: 279077778 heartbeat IPC: 2.132 cumulative IPC: 1.763 (Simulation time: 01 hr 01 min 26 sec)
Heartbeat CPU 0 instructions: 530000002 cycles: 284212358 heartbeat IPC: 1.948 cumulative IPC: 1.767 (Simulation time: 01 hr 02 min 30 sec)
Heartbeat CPU 0 instructions: 540000000 cycles: 289329260 heartbeat IPC: 1.954 cumulative IPC: 1.77 (Simulation time: 01 hr 03 min 33 sec)
Heartbeat CPU 0 instructions: 550000001 cycles: 294136348 heartbeat IPC: 2.08 cumulative IPC: 1.776 (Simulation time: 01 hr 04 min 36 sec)
Heartbeat CPU 0 instructions: 560000000 cycles: 299341581 heartbeat IPC: 1.921 cumulative IPC: 1.778 (Simulation time: 01 hr 05 min 41 sec)
Heartbeat CPU 0 instructions: 570000004 cycles: 306244435 heartbeat IPC: 1.449 cumulative IPC: 1.77 (Simulation time: 01 hr 07 min 10 sec)
Heartbeat CPU 0 instructions: 580000003 cycles: 317552885 heartbeat IPC: 0.8843 cumulative IPC: 1.738 (Simulation time: 01 hr 09 min 18 sec)
Heartbeat CPU 0 instructions: 590000002 cycles: 330289917 heartbeat IPC: 0.7851 cumulative IPC: 1.699 (Simulation time: 01 hr 11 min 40 sec)
Heartbeat CPU 0 instructions: 600000000 cycles: 334825254 heartbeat IPC: 2.205 cumulative IPC: 1.707 (Simulation time: 01 hr 12 min 48 sec)
Heartbeat CPU 0 instructions: 610000002 cycles: 339317078 heartbeat IPC: 2.226 cumulative IPC: 1.714 (Simulation time: 01 hr 13 min 54 sec)
Heartbeat CPU 0 instructions: 620000000 cycles: 344117518 heartbeat IPC: 2.083 cumulative IPC: 1.719 (Simulation time: 01 hr 15 min 08 sec)
Heartbeat CPU 0 instructions: 630000002 cycles: 349202099 heartbeat IPC: 1.967 cumulative IPC: 1.723 (Simulation time: 01 hr 16 min 23 sec)
Heartbeat CPU 0 instructions: 640000001 cycles: 354051355 heartbeat IPC: 2.062 cumulative IPC: 1.728 (Simulation time: 01 hr 17 min 38 sec)
Heartbeat CPU 0 instructions: 650000000 cycles: 358604291 heartbeat IPC: 2.196 cumulative IPC: 1.734 (Simulation time: 01 hr 18 min 48 sec)
Simulation finished CPU 0 instructions: 600000001 cycles: 346067164 cumulative IPC: 1.734 (Simulation time: 01 hr 18 min 48 sec)
Simulation complete CPU 0 instructions: 600000001 cycles: 346067164 cumulative IPC: 1.734 (Simulation time: 01 hr 18 min 48 sec)

ChampSim completed all CPUs

=== Simulation ===
CPU 0 runs traces/400.perlbench-41B.champsimtrace.xz
Region of Interest Statistics

CPU 0 cumulative IPC: 1.734 instructions: 600000001 cycles: 346067164
CPU 0 Branch Prediction Accuracy: 93.95% MPKI: 12.5 Average ROB Occupancy at Mispredict: 29.65
Branch type MPKI
BRANCH_DIRECT_JUMP: 0.0123
BRANCH_INDIRECT: 0.323
BRANCH_CONDITIONAL: 12
BRANCH_DIRECT_CALL: 0.0043
BRANCH_INDIRECT_CALL: 0.2
BRANCH_RETURN: 0.00828

LLC TOTAL        ACCESS:     540370 HIT:     301289 MISS:     239081
LLC LOAD         ACCESS:     403218 HIT:     186848 MISS:     216370
LLC RFO          ACCESS:      32573 HIT:      19053 MISS:      13520
LLC PREFETCH     ACCESS:          0 HIT:          0 MISS:          0
LLC WRITE        ACCESS:      85577 HIT:      85434 MISS:        143
LLC TRANSLATION  ACCESS:      19002 HIT:       9954 MISS:       9048
LLC PREFETCH REQUESTED:          0 ISSUED:          0 USEFUL:          0 USELESS:          0
LLC AVERAGE MISS LATENCY: 557.8 cycles
cpu0_DTLB TOTAL        ACCESS:  153677512 HIT:  152999446 MISS:     678066
cpu0_DTLB LOAD         ACCESS:  153677512 HIT:  152999446 MISS:     678066
cpu0_DTLB RFO          ACCESS:          0 HIT:          0 MISS:          0
cpu0_DTLB PREFETCH     ACCESS:          0 HIT:          0 MISS:          0
cpu0_DTLB WRITE        ACCESS:          0 HIT:          0 MISS:          0
cpu0_DTLB TRANSLATION  ACCESS:          0 HIT:          0 MISS:          0
cpu0_DTLB PREFETCH REQUESTED:          0 ISSUED:          0 USEFUL:          0 USELESS:          0
cpu0_DTLB AVERAGE MISS LATENCY: 14.51 cycles
cpu0_ITLB TOTAL        ACCESS:    4835334 HIT:    4777483 MISS:      57851
cpu0_ITLB LOAD         ACCESS:    4835334 HIT:    4777483 MISS:      57851
cpu0_ITLB RFO          ACCESS:          0 HIT:          0 MISS:          0
cpu0_ITLB PREFETCH     ACCESS:          0 HIT:          0 MISS:          0
cpu0_ITLB WRITE        ACCESS:          0 HIT:          0 MISS:          0
cpu0_ITLB TRANSLATION  ACCESS:          0 HIT:          0 MISS:          0
cpu0_ITLB PREFETCH REQUESTED:          0 ISSUED:          0 USEFUL:          0 USELESS:          0
cpu0_ITLB AVERAGE MISS LATENCY: 6.967 cycles
cpu0_L1D TOTAL        ACCESS:  200285064 HIT:  198543864 MISS:    1741200
cpu0_L1D LOAD         ACCESS:  117042795 HIT:  115684667 MISS:    1358128
cpu0_L1D RFO          ACCESS:          0 HIT:          0 MISS:          0
cpu0_L1D PREFETCH     ACCESS:          0 HIT:          0 MISS:          0
cpu0_L1D WRITE        ACCESS:   83217805 HIT:   82858160 MISS:     359645
cpu0_L1D TRANSLATION  ACCESS:      24464 HIT:       1037 MISS:      23427
cpu0_L1D PREFETCH REQUESTED:          0 ISSUED:          0 USEFUL:          0 USELESS:          0
cpu0_L1D AVERAGE MISS LATENCY: 82.26 cycles
cpu0_L1I TOTAL        ACCESS:    5577948 HIT:    4816389 MISS:     761559
cpu0_L1I LOAD         ACCESS:    5577948 HIT:    4816389 MISS:     761559
cpu0_L1I RFO          ACCESS:          0 HIT:          0 MISS:          0
cpu0_L1I PREFETCH     ACCESS:          0 HIT:          0 MISS:          0
cpu0_L1I WRITE        ACCESS:          0 HIT:          0 MISS:          0
cpu0_L1I TRANSLATION  ACCESS:          0 HIT:          0 MISS:          0
cpu0_L1I PREFETCH REQUESTED:          0 ISSUED:          0 USEFUL:          0 USELESS:          0
cpu0_L1I AVERAGE MISS LATENCY: 11.52 cycles
cpu0_L2C TOTAL        ACCESS:    1667941 HIT:    1211364 MISS:     456577
cpu0_L2C LOAD         ACCESS:    1317071 HIT:     913853 MISS:     403218
cpu0_L2C RFO          ACCESS:      88631 HIT:      56058 MISS:      32573
cpu0_L2C PREFETCH     ACCESS:          0 HIT:          0 MISS:          0
cpu0_L2C WRITE        ACCESS:     238893 HIT:     237109 MISS:       1784
cpu0_L2C TRANSLATION  ACCESS:      23346 HIT:       4344 MISS:      19002
cpu0_L2C PREFETCH REQUESTED:          0 ISSUED:          0 USEFUL:          0 USELESS:          0
cpu0_L2C AVERAGE MISS LATENCY: 312.5 cycles
cpu0_STLB TOTAL        ACCESS:     505243 HIT:     482453 MISS:      22790
cpu0_STLB LOAD         ACCESS:     505243 HIT:     482453 MISS:      22790
cpu0_STLB RFO          ACCESS:          0 HIT:          0 MISS:          0
cpu0_STLB PREFETCH     ACCESS:          0 HIT:          0 MISS:          0
cpu0_STLB WRITE        ACCESS:          0 HIT:          0 MISS:          0
cpu0_STLB TRANSLATION  ACCESS:          0 HIT:          0 MISS:          0
cpu0_STLB PREFETCH REQUESTED:          0 ISSUED:          0 USEFUL:          0 USELESS:          0
cpu0_STLB AVERAGE MISS LATENCY: 308.5 cycles

DRAM Statistics

Channel 0 RQ ROW_BUFFER_HIT:      39525
  ROW_BUFFER_MISS:     199390
 AVG DBUS CONGESTED CYCLE: 3.795
WQ ROW_BUFFER_HIT: Channel 0 
  ROW_BUFFER_MISS:       7680
  FULL:      27069
