WARNING: physical memory size is smaller than virtual memory size.

*** ChampSim Multicore Out-of-Order Simulator ***
Warmup Instructions: 50000000
Simulation Instructions: 600000000
Number of CPUs: 1
Page size: 4096

Off-chip DRAM Size: 4 GiB Channels: 1 Width: 64-bit Data Race: 3200 MT/s
Heartbeat CPU 0 instructions: 10000001 cycles: 2500318 heartbeat IPC: 3.999 cumulative IPC: 3.999 (Simulation time: 00 hr 00 min 22 sec)
Heartbeat CPU 0 instructions: 20000002 cycles: 5037114 heartbeat IPC: 3.942 cumulative IPC: 3.971 (Simulation time: 00 hr 00 min 52 sec)
Heartbeat CPU 0 instructions: 30000002 cycles: 7537114 heartbeat IPC: 4 cumulative IPC: 3.98 (Simulation time: 00 hr 01 min 37 sec)
Heartbeat CPU 0 instructions: 40000002 cycles: 10037114 heartbeat IPC: 4 cumulative IPC: 3.985 (Simulation time: 00 hr 02 min 27 sec)
Heartbeat CPU 0 instructions: 50000002 cycles: 12537114 heartbeat IPC: 4 cumulative IPC: 3.988 (Simulation time: 00 hr 03 min 28 sec)
Warmup finished CPU 0 instructions: 50000002 cycles: 12537115 cumulative IPC: 3.988 (Simulation time: 00 hr 03 min 28 sec)
Warmup complete CPU 0 instructions: 50000002 cycles: 12537115 cumulative IPC: 3.988 (Simulation time: 00 hr 03 min 28 sec)
Heartbeat CPU 0 instructions: 60000000 cycles: 17705555 heartbeat IPC: 1.935 cumulative IPC: 1.935 (Simulation time: 00 hr 04 min 39 sec)
Heartbeat CPU 0 instructions: 70000002 cycles: 22596853 heartbeat IPC: 2.044 cumulative IPC: 1.988 (Simulation time: 00 hr 05 min 48 sec)
Heartbeat CPU 0 instructions: 80000001 cycles: 27951839 heartbeat IPC: 1.867 cumulative IPC: 1.946 (Simulation time: 00 hr 06 min 58 sec)
Heartbeat CPU 0 instructions: 90000001 cycles: 32820322 heartbeat IPC: 2.054 cumulative IPC: 1.972 (Simulation time: 00 hr 08 min 05 sec)
Heartbeat CPU 0 instructions: 100000000 cycles: 37929313 heartbeat IPC: 1.957 cumulative IPC: 1.969 (Simulation time: 00 hr 09 min 14 sec)
Heartbeat CPU 0 instructions: 110000000 cycles: 42804469 heartbeat IPC: 2.051 cumulative IPC: 1.982 (Simulation time: 00 hr 10 min 21 sec)
Heartbeat CPU 0 instructions: 120000001 cycles: 47996985 heartbeat IPC: 1.926 cumulative IPC: 1.974 (Simulation time: 00 hr 11 min 31 sec)
Heartbeat CPU 0 instructions: 130000001 cycles: 53144403 heartbeat IPC: 1.943 cumulative IPC: 1.97 (Simulation time: 00 hr 12 min 41 sec)
Heartbeat CPU 0 instructions: 140000001 cycles: 58455923 heartbeat IPC: 1.883 cumulative IPC: 1.96 (Simulation time: 00 hr 13 min 51 sec)
Heartbeat CPU 0 instructions: 150000001 cycles: 63771373 heartbeat IPC: 1.881 cumulative IPC: 1.952 (Simulation time: 00 hr 15 min 01 sec)
Heartbeat CPU 0 instructions: 160000004 cycles: 68975506 heartbeat IPC: 1.922 cumulative IPC: 1.949 (Simulation time: 00 hr 16 min 10 sec)
Heartbeat CPU 0 instructions: 170000000 cycles: 78057441 heartbeat IPC: 1.101 cumulative IPC: 1.831 (Simulation time: 00 hr 17 min 54 sec)
Heartbeat CPU 0 instructions: 180000004 cycles: 87674776 heartbeat IPC: 1.04 cumulative IPC: 1.73 (Simulation time: 00 hr 19 min 46 sec)
Heartbeat CPU 0 instructions: 190000001 cycles: 97506505 heartbeat IPC: 1.017 cumulative IPC: 1.648 (Simulation time: 00 hr 21 min 39 sec)
Heartbeat CPU 0 instructions: 200000003 cycles: 102224927 heartbeat IPC: 2.119 cumulative IPC: 1.672 (Simulation time: 00 hr 22 min 45 sec)
Heartbeat CPU 0 instructions: 210000001 cycles: 107107731 heartbeat IPC: 2.048 cumulative IPC: 1.692 (Simulation time: 00 hr 23 min 54 sec)
Heartbeat CPU 0 instructions: 220000000 cycles: 111911523 heartbeat IPC: 2.082 cumulative IPC: 1.711 (Simulation time: 00 hr 25 min 02 sec)
Heartbeat CPU 0 instructions: 230000002 cycles: 117149391 heartbeat IPC: 1.909 cumulative IPC: 1.721 (Simulation time: 00 hr 26 min 12 sec)
Heartbeat CPU 0 instructions: 240000000 cycles: 121949460 heartbeat IPC: 2.083 cumulative IPC: 1.737 (Simulation time: 00 hr 27 min 20 sec)
Heartbeat CPU 0 instructions: 250000000 cycles: 127046037 heartbeat IPC: 1.962 cumulative IPC: 1.747 (Simulation time: 00 hr 28 min 30 sec)
Heartbeat CPU 0 instructions: 260000000 cycles: 132020277 heartbeat IPC: 2.01 cumulative IPC: 1.758 (Simulation time: 00 hr 29 min 38 sec)
Heartbeat CPU 0 instructions: 270000002 cycles: 136865950 heartbeat IPC: 2.064 cumulative IPC: 1.77 (Simulation time: 00 hr 30 min 47 sec)
Heartbeat CPU 0 instructions: 280000002 cycles: 141725069 heartbeat IPC: 2.058 cumulative IPC: 1.78 (Simulation time: 00 hr 31 min 53 sec)
Heartbeat CPU 0 instructions: 290000001 cycles: 147046078 heartbeat IPC: 1.879 cumulative IPC: 1.784 (Simulation time: 00 hr 33 min 05 sec)
Heartbeat CPU 0 instructions: 300000003 cycles: 152043189 heartbeat IPC: 2.001 cumulative IPC: 1.792 (Simulation time: 00 hr 34 min 13 sec)
Heartbeat CPU 0 instructions: 310000001 cycles: 157265252 heartbeat IPC: 1.915 cumulative IPC: 1.796 (Simulation time: 00 hr 35 min 22 sec)
Heartbeat CPU 0 instructions: 320000003 cycles: 162416903 heartbeat IPC: 1.941 cumulative IPC: 1.801 (Simulation time: 00 hr 36 min 32 sec)
Heartbeat CPU 0 instructions: 330000003 cycles: 167642180 heartbeat IPC: 1.914 cumulative IPC: 1.805 (Simulation time: 00 hr 37 min 42 sec)
Heartbeat CPU 0 instructions: 340000000 cycles: 176790690 heartbeat IPC: 1.093 cumulative IPC: 1.766 (Simulation time: 00 hr 39 min 25 sec)
Heartbeat CPU 0 instructions: 350000000 cycles: 187049956 heartbeat IPC: 0.9747 cumulative IPC: 1.719 (Simulation time: 00 hr 41 min 20 sec)
Heartbeat CPU 0 instructions: 360000004 cycles: 196951620 heartbeat IPC: 1.01 cumulative IPC: 1.681 (Simulation time: 00 hr 43 min 11 sec)
Heartbeat CPU 0 instructions: 370000000 cycles: 201318552 heartbeat IPC: 2.29 cumulative IPC: 1.695 (Simulation time: 00 hr 44 min 14 sec)
Heartbeat CPU 0 instructions: 380000001 cycles: 206207344 heartbeat IPC: 2.045 cumulative IPC: 1.704 (Simulation time: 00 hr 45 min 22 sec)
Heartbeat CPU 0 instructions: 390000002 cycles: 211002983 heartbeat IPC: 2.085 cumulative IPC: 1.713 (Simulation time: 00 hr 46 min 28 sec)
Heartbeat CPU 0 instructions: 400000004 cycles: 215920470 heartbeat IPC: 2.034 cumulative IPC: 1.721 (Simulation time: 00 hr 47 min 35 sec)
Heartbeat CPU 0 instructions: 410000000 cycles: 220597166 heartbeat IPC: 2.138 cumulative IPC: 1.73 (Simulation time: 00 hr 48 min 39 sec)
Heartbeat CPU 0 instructions: 420000000 cycles: 225676771 heartbeat IPC: 1.969 cumulative IPC: 1.736 (Simulation time: 00 hr 49 min 47 sec)
Heartbeat CPU 0 instructions: 430000001 cycles: 230115232 heartbeat IPC: 2.253 cumulative IPC: 1.746 (Simulation time: 00 hr 50 min 51 sec)
Heartbeat CPU 0 instructions: 440000000 cycles: 235416017 heartbeat IPC: 1.887 cumulative IPC: 1.75 (Simulation time: 00 hr 52 min 00 sec)
Heartbeat CPU 0 instructions: 450000002 cycles: 240041272 heartbeat IPC: 2.162 cumulative IPC: 1.758 (Simulation time: 00 hr 53 min 04 sec)
Heartbeat CPU 0 instructions: 460000000 cycles: 244789300 heartbeat IPC: 2.106 cumulative IPC: 1.765 (Simulation time: 00 hr 54 min 09 sec)
Heartbeat CPU 0 instructions: 470000000 cycles: 249736768 heartbeat IPC: 2.021 cumulative IPC: 1.771 (Simulation time: 00 hr 55 min 16 sec)
Heartbeat CPU 0 instructions: 480000003 cycles: 254488695 heartbeat IPC: 2.104 cumulative IPC: 1.777 (Simulation time: 00 hr 56 min 22 sec)
Heartbeat CPU 0 instructions: 490000000 cycles: 259069686 heartbeat IPC: 2.183 cumulative IPC: 1.785 (Simulation time: 00 hr 57 min 26 sec)
Heartbeat CPU 0 instructions: 500000000 cycles: 264068253 heartbeat IPC: 2.001 cumulative IPC: 1.789 (Simulation time: 00 hr 58 min 33 sec)
Heartbeat CPU 0 instructions: 510000003 cycles: 269671820 heartbeat IPC: 1.785 cumulative IPC: 1.789 (Simulation time: 00 hr 59 min 45 sec)
Heartbeat CPU 0 instructions: 520000001 cycles: 274311907 heartbeat IPC: 2.155 cumulative IPC: 1.795 (Simulation time: 01 hr 00 min 51 sec)
Heartbeat CPU 0 instructions: 530000002 cycles: 279420458 heartbeat IPC: 1.958 cumulative IPC: 1.799 (Simulation time: 01 hr 02 min 00 sec)
Heartbeat CPU 0 instructions: 540000000 cycles: 284492591 heartbeat IPC: 1.972 cumulative IPC: 1.802 (Simulation time: 01 hr 03 min 08 sec)
Heartbeat CPU 0 instructions: 550000001 cycles: 289263207 heartbeat IPC: 2.096 cumulative IPC: 1.807 (Simulation time: 01 hr 04 min 14 sec)
Heartbeat CPU 0 instructions: 560000000 cycles: 294442997 heartbeat IPC: 1.931 cumulative IPC: 1.809 (Simulation time: 01 hr 05 min 23 sec)
Heartbeat CPU 0 instructions: 570000004 cycles: 301130852 heartbeat IPC: 1.495 cumulative IPC: 1.802 (Simulation time: 01 hr 06 min 46 sec)
Heartbeat CPU 0 instructions: 580000003 cycles: 311637992 heartbeat IPC: 0.9517 cumulative IPC: 1.772 (Simulation time: 01 hr 08 min 43 sec)
Heartbeat CPU 0 instructions: 590000002 cycles: 323854941 heartbeat IPC: 0.8185 cumulative IPC: 1.735 (Simulation time: 01 hr 10 min 52 sec)
Heartbeat CPU 0 instructions: 600000000 cycles: 328398795 heartbeat IPC: 2.201 cumulative IPC: 1.741 (Simulation time: 01 hr 11 min 56 sec)
Heartbeat CPU 0 instructions: 610000002 cycles: 332860661 heartbeat IPC: 2.241 cumulative IPC: 1.748 (Simulation time: 01 hr 12 min 56 sec)
Heartbeat CPU 0 instructions: 620000000 cycles: 337646837 heartbeat IPC: 2.089 cumulative IPC: 1.753 (Simulation time: 01 hr 13 min 51 sec)
Heartbeat CPU 0 instructions: 630000002 cycles: 342702960 heartbeat IPC: 1.978 cumulative IPC: 1.757 (Simulation time: 01 hr 14 min 40 sec)
Heartbeat CPU 0 instructions: 640000001 cycles: 347541369 heartbeat IPC: 2.067 cumulative IPC: 1.761 (Simulation time: 01 hr 15 min 22 sec)
Heartbeat CPU 0 instructions: 650000000 cycles: 352084278 heartbeat IPC: 2.201 cumulative IPC: 1.767 (Simulation time: 01 hr 15 min 59 sec)
Simulation finished CPU 0 instructions: 600000001 cycles: 339547165 cumulative IPC: 1.767 (Simulation time: 01 hr 15 min 59 sec)
Simulation complete CPU 0 instructions: 600000001 cycles: 339547165 cumulative IPC: 1.767 (Simulation time: 01 hr 15 min 59 sec)

ChampSim completed all CPUs

=== Simulation ===
CPU 0 runs traces/400.perlbench-41B.champsimtrace.xz
Region of Interest Statistics

CPU 0 cumulative IPC: 1.767 instructions: 600000001 cycles: 339547165
CPU 0 Branch Prediction Accuracy: 93.95% MPKI: 12.5 Average ROB Occupancy at Mispredict: 29.53
Branch type MPKI
BRANCH_DIRECT_JUMP: 0.0123
BRANCH_INDIRECT: 0.323
BRANCH_CONDITIONAL: 12
BRANCH_DIRECT_CALL: 0.0043
BRANCH_INDIRECT_CALL: 0.2
BRANCH_RETURN: 0.00828

LLC TOTAL        ACCESS:     940180 HIT:     604582 MISS:     335598
LLC LOAD         ACCESS:     401353 HIT:     251001 MISS:     150352
LLC RFO          ACCESS:      32846 HIT:      19820 MISS:      13026
LLC PREFETCH     ACCESS:     401353 HIT:     242101 MISS:     159252
LLC WRITE        ACCESS:      85532 HIT:      82715 MISS:       2817
LLC TRANSLATION  ACCESS:      19096 HIT:       8945 MISS:      10151
LLC PREFETCH REQUESTED:     401353 ISSUED:     401353 USEFUL:      58727 USELESS:      60682
LLC AVERAGE MISS LATENCY: 532.2 cycles
cpu0_DTLB TOTAL        ACCESS:  153678585 HIT:  153001216 MISS:     677369
cpu0_DTLB LOAD         ACCESS:  153678585 HIT:  153001216 MISS:     677369
cpu0_DTLB RFO          ACCESS:          0 HIT:          0 MISS:          0
cpu0_DTLB PREFETCH     ACCESS:          0 HIT:          0 MISS:          0
cpu0_DTLB WRITE        ACCESS:          0 HIT:          0 MISS:          0
cpu0_DTLB TRANSLATION  ACCESS:          0 HIT:          0 MISS:          0
cpu0_DTLB PREFETCH REQUESTED:          0 ISSUED:          0 USEFUL:          0 USELESS:          0
cpu0_DTLB AVERAGE MISS LATENCY: 15.81 cycles
cpu0_ITLB TOTAL        ACCESS:    4835828 HIT:    4777924 MISS:      57904
cpu0_ITLB LOAD         ACCESS:    4835828 HIT:    4777924 MISS:      57904
cpu0_ITLB RFO          ACCESS:          0 HIT:          0 MISS:          0
cpu0_ITLB PREFETCH     ACCESS:          0 HIT:          0 MISS:          0
cpu0_ITLB WRITE        ACCESS:          0 HIT:          0 MISS:          0
cpu0_ITLB TRANSLATION  ACCESS:          0 HIT:          0 MISS:          0
cpu0_ITLB PREFETCH REQUESTED:          0 ISSUED:          0 USEFUL:          0 USELESS:          0
cpu0_ITLB AVERAGE MISS LATENCY: 7.146 cycles
cpu0_L1D TOTAL        ACCESS:  200297272 HIT:  198576242 MISS:    1721030
cpu0_L1D LOAD         ACCESS:  117054644 HIT:  115713289 MISS:    1341355
cpu0_L1D RFO          ACCESS:          0 HIT:          0 MISS:          0
cpu0_L1D PREFETCH     ACCESS:          0 HIT:          0 MISS:          0
cpu0_L1D WRITE        ACCESS:   83218171 HIT:   82861915 MISS:     356256
cpu0_L1D TRANSLATION  ACCESS:      24457 HIT:       1038 MISS:      23419
cpu0_L1D PREFETCH REQUESTED:          0 ISSUED:          0 USEFUL:          0 USELESS:          0
cpu0_L1D AVERAGE MISS LATENCY: 65.53 cycles
cpu0_L1I TOTAL        ACCESS:    5578192 HIT:    4816767 MISS:     761425
cpu0_L1I LOAD         ACCESS:    5578192 HIT:    4816767 MISS:     761425
cpu0_L1I RFO          ACCESS:          0 HIT:          0 MISS:          0
cpu0_L1I PREFETCH     ACCESS:          0 HIT:          0 MISS:          0
cpu0_L1I WRITE        ACCESS:          0 HIT:          0 MISS:          0
cpu0_L1I TRANSLATION  ACCESS:          0 HIT:          0 MISS:          0
cpu0_L1I PREFETCH REQUESTED:          0 ISSUED:          0 USEFUL:          0 USELESS:          0
cpu0_L1I AVERAGE MISS LATENCY: 12.57 cycles
cpu0_L2C TOTAL        ACCESS:    1667954 HIT:    1212819 MISS:     455135
cpu0_L2C LOAD         ACCESS:    1317101 HIT:     915748 MISS:     401353
cpu0_L2C RFO          ACCESS:      88622 HIT:      55776 MISS:      32846
cpu0_L2C PREFETCH     ACCESS:          0 HIT:          0 MISS:          0
cpu0_L2C WRITE        ACCESS:     238890 HIT:     237050 MISS:       1840
cpu0_L2C TRANSLATION  ACCESS:      23341 HIT:       4245 MISS:      19096
cpu0_L2C PREFETCH REQUESTED:          0 ISSUED:          0 USEFUL:          0 USELESS:          0
cpu0_L2C AVERAGE MISS LATENCY: 246 cycles
cpu0_STLB TOTAL        ACCESS:     505211 HIT:     482422 MISS:      22789
cpu0_STLB LOAD         ACCESS:     505211 HIT:     482422 MISS:      22789
cpu0_STLB RFO          ACCESS:          0 HIT:          0 MISS:          0
cpu0_STLB PREFETCH     ACCESS:          0 HIT:          0 MISS:          0
cpu0_STLB WRITE        ACCESS:          0 HIT:          0 MISS:          0
cpu0_STLB TRANSLATION  ACCESS:          0 HIT:          0 MISS:          0
cpu0_STLB PREFETCH REQUESTED:          0 ISSUED:          0 USEFUL:          0 USELESS:          0
cpu0_STLB AVERAGE MISS LATENCY: 346.9 cycles

DRAM Statistics

Channel 0 RQ ROW_BUFFER_HIT:      45915
  ROW_BUFFER_MISS:     235363
 AVG DBUS CONGESTED CYCLE: 3.856
WQ ROW_BUFFER_HIT: Channel 0 
  ROW_BUFFER_MISS:       6532
  FULL:      30561
