WARNING: physical memory size is smaller than virtual memory size.

*** ChampSim Multicore Out-of-Order Simulator ***
Warmup Instructions: 50000000
Simulation Instructions: 600000000
Number of CPUs: 1
Page size: 4096

Off-chip DRAM Size: 4 GiB Channels: 1 Width: 64-bit Data Race: 3200 MT/s
Heartbeat CPU 0 instructions: 10000000 cycles: 2500061 heartbeat IPC: 4 cumulative IPC: 4 (Simulation time: 00 hr 01 min 01 sec)
Heartbeat CPU 0 instructions: 20000000 cycles: 5000061 heartbeat IPC: 4 cumulative IPC: 4 (Simulation time: 00 hr 01 min 58 sec)
Heartbeat CPU 0 instructions: 30000000 cycles: 7500061 heartbeat IPC: 4 cumulative IPC: 4 (Simulation time: 00 hr 02 min 48 sec)
Heartbeat CPU 0 instructions: 40000000 cycles: 10000061 heartbeat IPC: 4 cumulative IPC: 4 (Simulation time: 00 hr 03 min 40 sec)
Heartbeat CPU 0 instructions: 50000000 cycles: 12500061 heartbeat IPC: 4 cumulative IPC: 4 (Simulation time: 00 hr 04 min 34 sec)
Warmup finished CPU 0 instructions: 50000000 cycles: 12500062 cumulative IPC: 4 (Simulation time: 00 hr 04 min 34 sec)
Warmup complete CPU 0 instructions: 50000000 cycles: 12500062 cumulative IPC: 4 (Simulation time: 00 hr 04 min 34 sec)
Heartbeat CPU 0 instructions: 60000002 cycles: 16435783 heartbeat IPC: 2.541 cumulative IPC: 2.541 (Simulation time: 00 hr 05 min 42 sec)
Heartbeat CPU 0 instructions: 70000003 cycles: 20749204 heartbeat IPC: 2.318 cumulative IPC: 2.424 (Simulation time: 00 hr 06 min 53 sec)
Heartbeat CPU 0 instructions: 80000003 cycles: 25212938 heartbeat IPC: 2.24 cumulative IPC: 2.36 (Simulation time: 00 hr 08 min 06 sec)
Heartbeat CPU 0 instructions: 90000000 cycles: 28902625 heartbeat IPC: 2.71 cumulative IPC: 2.439 (Simulation time: 00 hr 09 min 11 sec)
Heartbeat CPU 0 instructions: 100000003 cycles: 32797283 heartbeat IPC: 2.568 cumulative IPC: 2.463 (Simulation time: 00 hr 10 min 19 sec)
Heartbeat CPU 0 instructions: 110000002 cycles: 36888882 heartbeat IPC: 2.444 cumulative IPC: 2.46 (Simulation time: 00 hr 11 min 27 sec)
Heartbeat CPU 0 instructions: 120000001 cycles: 40602045 heartbeat IPC: 2.693 cumulative IPC: 2.491 (Simulation time: 00 hr 12 min 33 sec)
Heartbeat CPU 0 instructions: 130000003 cycles: 44366187 heartbeat IPC: 2.657 cumulative IPC: 2.511 (Simulation time: 00 hr 13 min 44 sec)
Heartbeat CPU 0 instructions: 140000002 cycles: 48491614 heartbeat IPC: 2.424 cumulative IPC: 2.501 (Simulation time: 00 hr 14 min 53 sec)
Heartbeat CPU 0 instructions: 150000001 cycles: 52535644 heartbeat IPC: 2.473 cumulative IPC: 2.498 (Simulation time: 00 hr 16 min 02 sec)
Heartbeat CPU 0 instructions: 160000000 cycles: 56184366 heartbeat IPC: 2.741 cumulative IPC: 2.518 (Simulation time: 00 hr 17 min 08 sec)
Heartbeat CPU 0 instructions: 170000001 cycles: 60350038 heartbeat IPC: 2.401 cumulative IPC: 2.508 (Simulation time: 00 hr 18 min 18 sec)
Heartbeat CPU 0 instructions: 180000001 cycles: 63805525 heartbeat IPC: 2.894 cumulative IPC: 2.534 (Simulation time: 00 hr 19 min 22 sec)
Heartbeat CPU 0 instructions: 190000002 cycles: 67382191 heartbeat IPC: 2.796 cumulative IPC: 2.551 (Simulation time: 00 hr 20 min 28 sec)
Heartbeat CPU 0 instructions: 200000002 cycles: 71153161 heartbeat IPC: 2.652 cumulative IPC: 2.557 (Simulation time: 00 hr 21 min 45 sec)
Heartbeat CPU 0 instructions: 210000000 cycles: 74788089 heartbeat IPC: 2.751 cumulative IPC: 2.569 (Simulation time: 00 hr 22 min 56 sec)
Heartbeat CPU 0 instructions: 220000001 cycles: 78655984 heartbeat IPC: 2.585 cumulative IPC: 2.57 (Simulation time: 00 hr 24 min 10 sec)
Heartbeat CPU 0 instructions: 230000002 cycles: 82491062 heartbeat IPC: 2.608 cumulative IPC: 2.572 (Simulation time: 00 hr 25 min 17 sec)
Heartbeat CPU 0 instructions: 240000001 cycles: 86693138 heartbeat IPC: 2.38 cumulative IPC: 2.561 (Simulation time: 00 hr 26 min 27 sec)
Heartbeat CPU 0 instructions: 250000003 cycles: 91251932 heartbeat IPC: 2.194 cumulative IPC: 2.54 (Simulation time: 00 hr 27 min 41 sec)
Heartbeat CPU 0 instructions: 260000000 cycles: 95043028 heartbeat IPC: 2.638 cumulative IPC: 2.544 (Simulation time: 00 hr 29 min 01 sec)
Heartbeat CPU 0 instructions: 270000003 cycles: 101668277 heartbeat IPC: 1.509 cumulative IPC: 2.467 (Simulation time: 00 hr 30 min 39 sec)
Heartbeat CPU 0 instructions: 280000000 cycles: 111621128 heartbeat IPC: 1.005 cumulative IPC: 2.32 (Simulation time: 00 hr 32 min 50 sec)
Heartbeat CPU 0 instructions: 290000000 cycles: 120883146 heartbeat IPC: 1.08 cumulative IPC: 2.214 (Simulation time: 00 hr 35 min 02 sec)
Heartbeat CPU 0 instructions: 300000003 cycles: 128215432 heartbeat IPC: 1.364 cumulative IPC: 2.16 (Simulation time: 00 hr 36 min 52 sec)
Heartbeat CPU 0 instructions: 310000004 cycles: 138619298 heartbeat IPC: 0.9612 cumulative IPC: 2.062 (Simulation time: 00 hr 39 min 08 sec)
Heartbeat CPU 0 instructions: 320000004 cycles: 143567277 heartbeat IPC: 2.021 cumulative IPC: 2.06 (Simulation time: 00 hr 40 min 29 sec)
Heartbeat CPU 0 instructions: 330000000 cycles: 147643379 heartbeat IPC: 2.453 cumulative IPC: 2.072 (Simulation time: 00 hr 41 min 44 sec)
Heartbeat CPU 0 instructions: 340000001 cycles: 151959127 heartbeat IPC: 2.317 cumulative IPC: 2.079 (Simulation time: 00 hr 42 min 57 sec)
Heartbeat CPU 0 instructions: 350000004 cycles: 156419139 heartbeat IPC: 2.242 cumulative IPC: 2.085 (Simulation time: 00 hr 44 min 12 sec)
Heartbeat CPU 0 instructions: 360000003 cycles: 160571589 heartbeat IPC: 2.408 cumulative IPC: 2.094 (Simulation time: 00 hr 45 min 25 sec)
Heartbeat CPU 0 instructions: 370000001 cycles: 164610444 heartbeat IPC: 2.476 cumulative IPC: 2.104 (Simulation time: 00 hr 46 min 39 sec)
Heartbeat CPU 0 instructions: 380000004 cycles: 168508989 heartbeat IPC: 2.565 cumulative IPC: 2.115 (Simulation time: 00 hr 47 min 49 sec)
Heartbeat CPU 0 instructions: 390000002 cycles: 172604277 heartbeat IPC: 2.442 cumulative IPC: 2.124 (Simulation time: 00 hr 49 min 01 sec)
Heartbeat CPU 0 instructions: 400000000 cycles: 176981845 heartbeat IPC: 2.284 cumulative IPC: 2.128 (Simulation time: 00 hr 50 min 15 sec)
Heartbeat CPU 0 instructions: 410000000 cycles: 184259571 heartbeat IPC: 1.374 cumulative IPC: 2.096 (Simulation time: 00 hr 51 min 59 sec)
Heartbeat CPU 0 instructions: 420000003 cycles: 194956539 heartbeat IPC: 0.9348 cumulative IPC: 2.028 (Simulation time: 00 hr 54 min 15 sec)
Heartbeat CPU 0 instructions: 430000000 cycles: 202266335 heartbeat IPC: 1.368 cumulative IPC: 2.002 (Simulation time: 00 hr 56 min 10 sec)
Heartbeat CPU 0 instructions: 440000004 cycles: 208872967 heartbeat IPC: 1.514 cumulative IPC: 1.986 (Simulation time: 00 hr 57 min 50 sec)
Heartbeat CPU 0 instructions: 450000001 cycles: 215543700 heartbeat IPC: 1.499 cumulative IPC: 1.97 (Simulation time: 00 hr 59 min 30 sec)
Heartbeat CPU 0 instructions: 460000002 cycles: 225510165 heartbeat IPC: 1.003 cumulative IPC: 1.925 (Simulation time: 01 hr 01 min 41 sec)
Heartbeat CPU 0 instructions: 470000003 cycles: 234567233 heartbeat IPC: 1.104 cumulative IPC: 1.891 (Simulation time: 01 hr 03 min 43 sec)
Heartbeat CPU 0 instructions: 480000003 cycles: 238837334 heartbeat IPC: 2.342 cumulative IPC: 1.9 (Simulation time: 01 hr 04 min 57 sec)
Heartbeat CPU 0 instructions: 490000001 cycles: 243549999 heartbeat IPC: 2.122 cumulative IPC: 1.904 (Simulation time: 01 hr 06 min 14 sec)
Heartbeat CPU 0 instructions: 500000002 cycles: 247973699 heartbeat IPC: 2.261 cumulative IPC: 1.911 (Simulation time: 01 hr 07 min 29 sec)
Heartbeat CPU 0 instructions: 510000000 cycles: 252247935 heartbeat IPC: 2.34 cumulative IPC: 1.919 (Simulation time: 01 hr 08 min 42 sec)
Heartbeat CPU 0 instructions: 520000000 cycles: 256676827 heartbeat IPC: 2.258 cumulative IPC: 1.925 (Simulation time: 01 hr 09 min 57 sec)
Heartbeat CPU 0 instructions: 530000001 cycles: 267620790 heartbeat IPC: 0.9137 cumulative IPC: 1.881 (Simulation time: 01 hr 12 min 15 sec)
Heartbeat CPU 0 instructions: 540000000 cycles: 278172815 heartbeat IPC: 0.9477 cumulative IPC: 1.844 (Simulation time: 01 hr 14 min 31 sec)
Heartbeat CPU 0 instructions: 550000004 cycles: 290245051 heartbeat IPC: 0.8283 cumulative IPC: 1.8 (Simulation time: 01 hr 17 min 02 sec)
Heartbeat CPU 0 instructions: 560000004 cycles: 294406568 heartbeat IPC: 2.403 cumulative IPC: 1.809 (Simulation time: 01 hr 18 min 13 sec)
Heartbeat CPU 0 instructions: 570000001 cycles: 297537203 heartbeat IPC: 3.194 cumulative IPC: 1.824 (Simulation time: 01 hr 19 min 17 sec)
Heartbeat CPU 0 instructions: 580000003 cycles: 301079570 heartbeat IPC: 2.823 cumulative IPC: 1.837 (Simulation time: 01 hr 20 min 22 sec)
Heartbeat CPU 0 instructions: 590000002 cycles: 304706250 heartbeat IPC: 2.757 cumulative IPC: 1.848 (Simulation time: 01 hr 21 min 28 sec)
Heartbeat CPU 0 instructions: 600000003 cycles: 307769671 heartbeat IPC: 3.264 cumulative IPC: 1.863 (Simulation time: 01 hr 22 min 30 sec)
Heartbeat CPU 0 instructions: 610000001 cycles: 311280830 heartbeat IPC: 2.848 cumulative IPC: 1.874 (Simulation time: 01 hr 23 min 36 sec)
Heartbeat CPU 0 instructions: 620000000 cycles: 315298707 heartbeat IPC: 2.489 cumulative IPC: 1.882 (Simulation time: 01 hr 24 min 46 sec)
Heartbeat CPU 0 instructions: 630000002 cycles: 318662388 heartbeat IPC: 2.973 cumulative IPC: 1.894 (Simulation time: 01 hr 25 min 50 sec)
Heartbeat CPU 0 instructions: 640000004 cycles: 322671391 heartbeat IPC: 2.494 cumulative IPC: 1.902 (Simulation time: 01 hr 26 min 59 sec)
Heartbeat CPU 0 instructions: 650000001 cycles: 326495480 heartbeat IPC: 2.615 cumulative IPC: 1.911 (Simulation time: 01 hr 28 min 21 sec)
Simulation finished CPU 0 instructions: 600000001 cycles: 313995419 cumulative IPC: 1.911 (Simulation time: 01 hr 28 min 21 sec)
Simulation complete CPU 0 instructions: 600000001 cycles: 313995419 cumulative IPC: 1.911 (Simulation time: 01 hr 28 min 21 sec)

ChampSim completed all CPUs

=== Simulation ===
CPU 0 runs traces/400.perlbench-50B.champsimtrace.xz
Region of Interest Statistics

CPU 0 cumulative IPC: 1.911 instructions: 600000001 cycles: 313995419
CPU 0 Branch Prediction Accuracy: 96.2% MPKI: 7.839 Average ROB Occupancy at Mispredict: 43.44
Branch type MPKI
BRANCH_DIRECT_JUMP: 0.0176
BRANCH_INDIRECT: 0.38
BRANCH_CONDITIONAL: 6.99
BRANCH_DIRECT_CALL: 0.0067
BRANCH_INDIRECT_CALL: 0.431
BRANCH_RETURN: 0.0161

LLC TOTAL        ACCESS:    1355308 HIT:     918601 MISS:     436707
LLC LOAD         ACCESS:     579281 HIT:     386296 MISS:     192985
LLC RFO          ACCESS:      47317 HIT:      29705 MISS:      17612
LLC PREFETCH     ACCESS:     579281 HIT:     375078 MISS:     204203
LLC WRITE        ACCESS:     127338 HIT:     123712 MISS:       3626
LLC TRANSLATION  ACCESS:      22091 HIT:       3810 MISS:      18281
LLC PREFETCH REQUESTED:     579281 ISSUED:     579281 USEFUL:      83749 USELESS:      58505
LLC AVERAGE MISS LATENCY: 527.2 cycles
cpu0_DTLB TOTAL        ACCESS:  146512966 HIT:  145206407 MISS:    1306559
cpu0_DTLB LOAD         ACCESS:  146512966 HIT:  145206407 MISS:    1306559
cpu0_DTLB RFO          ACCESS:          0 HIT:          0 MISS:          0
cpu0_DTLB PREFETCH     ACCESS:          0 HIT:          0 MISS:          0
cpu0_DTLB WRITE        ACCESS:          0 HIT:          0 MISS:          0
cpu0_DTLB TRANSLATION  ACCESS:          0 HIT:          0 MISS:          0
cpu0_DTLB PREFETCH REQUESTED:          0 ISSUED:          0 USEFUL:          0 USELESS:          0
cpu0_DTLB AVERAGE MISS LATENCY: 14.99 cycles
cpu0_ITLB TOTAL        ACCESS:    8986647 HIT:    8802163 MISS:     184484
cpu0_ITLB LOAD         ACCESS:    8986647 HIT:    8802163 MISS:     184484
cpu0_ITLB RFO          ACCESS:          0 HIT:          0 MISS:          0
cpu0_ITLB PREFETCH     ACCESS:          0 HIT:          0 MISS:          0
cpu0_ITLB WRITE        ACCESS:          0 HIT:          0 MISS:          0
cpu0_ITLB TRANSLATION  ACCESS:          0 HIT:          0 MISS:          0
cpu0_ITLB PREFETCH REQUESTED:          0 ISSUED:          0 USEFUL:          0 USELESS:          0
cpu0_ITLB AVERAGE MISS LATENCY: 3.985 cycles
cpu0_L1D TOTAL        ACCESS:  193299436 HIT:  189638873 MISS:    3660563
cpu0_L1D LOAD         ACCESS:  107453526 HIT:  104444619 MISS:    3008907
cpu0_L1D RFO          ACCESS:          0 HIT:          0 MISS:          0
cpu0_L1D PREFETCH     ACCESS:          0 HIT:          0 MISS:          0
cpu0_L1D WRITE        ACCESS:   85817383 HIT:   85192831 MISS:     624552
cpu0_L1D TRANSLATION  ACCESS:      28527 HIT:       1423 MISS:      27104
cpu0_L1D PREFETCH REQUESTED:          0 ISSUED:          0 USEFUL:          0 USELESS:          0
cpu0_L1D AVERAGE MISS LATENCY: 42.25 cycles
cpu0_L1I TOTAL        ACCESS:   10421366 HIT:    8659545 MISS:    1761821
cpu0_L1I LOAD         ACCESS:   10421366 HIT:    8659545 MISS:    1761821
cpu0_L1I RFO          ACCESS:          0 HIT:          0 MISS:          0
cpu0_L1I PREFETCH     ACCESS:          0 HIT:          0 MISS:          0
cpu0_L1I WRITE        ACCESS:          0 HIT:          0 MISS:          0
cpu0_L1I TRANSLATION  ACCESS:          0 HIT:          0 MISS:          0
cpu0_L1I PREFETCH REQUESTED:          0 ISSUED:          0 USEFUL:          0 USELESS:          0
cpu0_L1I AVERAGE MISS LATENCY: 10.1 cycles
cpu0_L2C TOTAL        ACCESS:    3834617 HIT:    3182847 MISS:     651770
cpu0_L2C LOAD         ACCESS:    3104947 HIT:    2525666 MISS:     579281
cpu0_L2C RFO          ACCESS:     191547 HIT:     144229 MISS:      47318
cpu0_L2C PREFETCH     ACCESS:          0 HIT:          0 MISS:          0
cpu0_L2C WRITE        ACCESS:     511089 HIT:     508009 MISS:       3080
cpu0_L2C TRANSLATION  ACCESS:      27034 HIT:       4943 MISS:      22091
cpu0_L2C PREFETCH REQUESTED:          0 ISSUED:          0 USEFUL:          0 USELESS:          0
cpu0_L2C AVERAGE MISS LATENCY: 224.5 cycles
cpu0_STLB TOTAL        ACCESS:    1008533 HIT:     981840 MISS:      26693
cpu0_STLB LOAD         ACCESS:    1008533 HIT:     981840 MISS:      26693
cpu0_STLB RFO          ACCESS:          0 HIT:          0 MISS:          0
cpu0_STLB PREFETCH     ACCESS:          0 HIT:          0 MISS:          0
cpu0_STLB WRITE        ACCESS:          0 HIT:          0 MISS:          0
cpu0_STLB TRANSLATION  ACCESS:          0 HIT:          0 MISS:          0
cpu0_STLB PREFETCH REQUESTED:          0 ISSUED:          0 USEFUL:          0 USELESS:          0
cpu0_STLB AVERAGE MISS LATENCY: 522.3 cycles

DRAM Statistics

Channel 0 RQ ROW_BUFFER_HIT:      77954
  ROW_BUFFER_MISS:     290765
 AVG DBUS CONGESTED CYCLE: 3.859
WQ ROW_BUFFER_HIT: Channel 0 
  ROW_BUFFER_MISS:       6660
  FULL:      33129
Final OPTGen Hits: 12312
Final OPTGen Access: 10138
Final OPTGEN Hit Rate: 121.445
