WARNING: physical memory size is smaller than virtual memory size.

*** ChampSim Multicore Out-of-Order Simulator ***
Warmup Instructions: 50000000
Simulation Instructions: 600000000
Number of CPUs: 1
Page size: 4096

Off-chip DRAM Size: 4 GiB Channels: 1 Width: 64-bit Data Race: 3200 MT/s
Heartbeat CPU 0 instructions: 10000000 cycles: 2500061 heartbeat IPC: 4 cumulative IPC: 4 (Simulation time: 00 hr 03 min 24 sec)
Heartbeat CPU 0 instructions: 20000000 cycles: 5000061 heartbeat IPC: 4 cumulative IPC: 4 (Simulation time: 00 hr 06 min 41 sec)
Heartbeat CPU 0 instructions: 30000000 cycles: 7500061 heartbeat IPC: 4 cumulative IPC: 4 (Simulation time: 00 hr 09 min 54 sec)
Heartbeat CPU 0 instructions: 40000000 cycles: 10000061 heartbeat IPC: 4 cumulative IPC: 4 (Simulation time: 00 hr 13 min 17 sec)
Heartbeat CPU 0 instructions: 50000000 cycles: 12500061 heartbeat IPC: 4 cumulative IPC: 4 (Simulation time: 00 hr 16 min 36 sec)
Warmup finished CPU 0 instructions: 50000000 cycles: 12500062 cumulative IPC: 4 (Simulation time: 00 hr 16 min 36 sec)
Warmup complete CPU 0 instructions: 50000000 cycles: 12500062 cumulative IPC: 4 (Simulation time: 00 hr 16 min 36 sec)
Heartbeat CPU 0 instructions: 60000002 cycles: 16897168 heartbeat IPC: 2.274 cumulative IPC: 2.274 (Simulation time: 00 hr 21 min 33 sec)
Heartbeat CPU 0 instructions: 70000003 cycles: 21874323 heartbeat IPC: 2.009 cumulative IPC: 2.134 (Simulation time: 00 hr 26 min 44 sec)
Heartbeat CPU 0 instructions: 80000001 cycles: 27217652 heartbeat IPC: 1.871 cumulative IPC: 2.038 (Simulation time: 00 hr 32 min 02 sec)
Heartbeat CPU 0 instructions: 90000000 cycles: 31512174 heartbeat IPC: 2.329 cumulative IPC: 2.104 (Simulation time: 00 hr 36 min 46 sec)
Heartbeat CPU 0 instructions: 100000003 cycles: 36360283 heartbeat IPC: 2.063 cumulative IPC: 2.096 (Simulation time: 00 hr 41 min 46 sec)
Heartbeat CPU 0 instructions: 110000002 cycles: 41223823 heartbeat IPC: 2.056 cumulative IPC: 2.089 (Simulation time: 00 hr 46 min 34 sec)
Heartbeat CPU 0 instructions: 120000001 cycles: 46216185 heartbeat IPC: 2.003 cumulative IPC: 2.076 (Simulation time: 00 hr 51 min 42 sec)
Heartbeat CPU 0 instructions: 130000003 cycles: 50774631 heartbeat IPC: 2.194 cumulative IPC: 2.09 (Simulation time: 00 hr 56 min 24 sec)
Heartbeat CPU 0 instructions: 140000002 cycles: 55657500 heartbeat IPC: 2.048 cumulative IPC: 2.085 (Simulation time: 01 hr 01 min 14 sec)
Heartbeat CPU 0 instructions: 150000001 cycles: 60315882 heartbeat IPC: 2.147 cumulative IPC: 2.091 (Simulation time: 01 hr 05 min 56 sec)
Heartbeat CPU 0 instructions: 160000000 cycles: 64944965 heartbeat IPC: 2.16 cumulative IPC: 2.097 (Simulation time: 01 hr 10 min 39 sec)
Heartbeat CPU 0 instructions: 170000000 cycles: 70269944 heartbeat IPC: 1.878 cumulative IPC: 2.077 (Simulation time: 01 hr 15 min 43 sec)
Heartbeat CPU 0 instructions: 180000001 cycles: 75985244 heartbeat IPC: 1.75 cumulative IPC: 2.048 (Simulation time: 01 hr 21 min 00 sec)
Heartbeat CPU 0 instructions: 190000002 cycles: 80446549 heartbeat IPC: 2.241 cumulative IPC: 2.06 (Simulation time: 01 hr 25 min 41 sec)
Heartbeat CPU 0 instructions: 200000002 cycles: 85337187 heartbeat IPC: 2.045 cumulative IPC: 2.059 (Simulation time: 01 hr 30 min 33 sec)
Heartbeat CPU 0 instructions: 210000000 cycles: 90334775 heartbeat IPC: 2.001 cumulative IPC: 2.056 (Simulation time: 01 hr 35 min 29 sec)
Heartbeat CPU 0 instructions: 220000001 cycles: 95256096 heartbeat IPC: 2.032 cumulative IPC: 2.054 (Simulation time: 01 hr 40 min 18 sec)
Heartbeat CPU 0 instructions: 230000002 cycles: 100493367 heartbeat IPC: 1.909 cumulative IPC: 2.046 (Simulation time: 01 hr 45 min 22 sec)
Heartbeat CPU 0 instructions: 240000001 cycles: 105450230 heartbeat IPC: 2.017 cumulative IPC: 2.044 (Simulation time: 01 hr 50 min 21 sec)
Heartbeat CPU 0 instructions: 250000003 cycles: 110619443 heartbeat IPC: 1.935 cumulative IPC: 2.038 (Simulation time: 01 hr 55 min 20 sec)
Heartbeat CPU 0 instructions: 260000001 cycles: 115478521 heartbeat IPC: 2.058 cumulative IPC: 2.039 (Simulation time: 02 hr 00 min 12 sec)
Heartbeat CPU 0 instructions: 270000000 cycles: 122733355 heartbeat IPC: 1.378 cumulative IPC: 1.996 (Simulation time: 02 hr 06 min 34 sec)
Heartbeat CPU 0 instructions: 280000000 cycles: 133247701 heartbeat IPC: 0.9511 cumulative IPC: 1.905 (Simulation time: 02 hr 15 min 04 sec)
Heartbeat CPU 0 instructions: 290000001 cycles: 143273561 heartbeat IPC: 0.9974 cumulative IPC: 1.835 (Simulation time: 02 hr 23 min 21 sec)
Heartbeat CPU 0 instructions: 300000003 cycles: 150823263 heartbeat IPC: 1.325 cumulative IPC: 1.807 (Simulation time: 02 hr 30 min 20 sec)
Heartbeat CPU 0 instructions: 310000004 cycles: 161534958 heartbeat IPC: 0.9336 cumulative IPC: 1.745 (Simulation time: 02 hr 39 min 08 sec)
Heartbeat CPU 0 instructions: 320000004 cycles: 167225682 heartbeat IPC: 1.757 cumulative IPC: 1.745 (Simulation time: 02 hr 44 min 44 sec)
Heartbeat CPU 0 instructions: 330000000 cycles: 172492133 heartbeat IPC: 1.899 cumulative IPC: 1.75 (Simulation time: 02 hr 49 min 57 sec)
Heartbeat CPU 0 instructions: 340000001 cycles: 177515704 heartbeat IPC: 1.991 cumulative IPC: 1.757 (Simulation time: 02 hr 54 min 56 sec)
Heartbeat CPU 0 instructions: 350000000 cycles: 182800611 heartbeat IPC: 1.892 cumulative IPC: 1.762 (Simulation time: 03 hr 00 min 10 sec)
Heartbeat CPU 0 instructions: 360000003 cycles: 187857670 heartbeat IPC: 1.977 cumulative IPC: 1.768 (Simulation time: 03 hr 05 min 14 sec)
Heartbeat CPU 0 instructions: 370000001 cycles: 192831068 heartbeat IPC: 2.011 cumulative IPC: 1.775 (Simulation time: 03 hr 10 min 13 sec)
Heartbeat CPU 0 instructions: 380000004 cycles: 198069718 heartbeat IPC: 1.909 cumulative IPC: 1.778 (Simulation time: 03 hr 15 min 24 sec)
Heartbeat CPU 0 instructions: 390000002 cycles: 203301768 heartbeat IPC: 1.911 cumulative IPC: 1.782 (Simulation time: 03 hr 20 min 31 sec)
Heartbeat CPU 0 instructions: 400000000 cycles: 208606729 heartbeat IPC: 1.885 cumulative IPC: 1.785 (Simulation time: 03 hr 25 min 39 sec)
Heartbeat CPU 0 instructions: 410000000 cycles: 215405906 heartbeat IPC: 1.471 cumulative IPC: 1.774 (Simulation time: 03 hr 31 min 48 sec)
Heartbeat CPU 0 instructions: 420000001 cycles: 224200383 heartbeat IPC: 1.137 cumulative IPC: 1.748 (Simulation time: 03 hr 39 min 18 sec)
Heartbeat CPU 0 instructions: 430000000 cycles: 231180360 heartbeat IPC: 1.433 cumulative IPC: 1.738 (Simulation time: 03 hr 45 min 58 sec)
Heartbeat CPU 0 instructions: 440000002 cycles: 238217289 heartbeat IPC: 1.421 cumulative IPC: 1.728 (Simulation time: 03 hr 52 min 40 sec)
Heartbeat CPU 0 instructions: 450000000 cycles: 244968876 heartbeat IPC: 1.481 cumulative IPC: 1.721 (Simulation time: 03 hr 59 min 05 sec)
Heartbeat CPU 0 instructions: 460000002 cycles: 254559891 heartbeat IPC: 1.043 cumulative IPC: 1.694 (Simulation time: 04 hr 07 min 07 sec)
Heartbeat CPU 0 instructions: 470000000 cycles: 263693485 heartbeat IPC: 1.095 cumulative IPC: 1.672 (Simulation time: 04 hr 14 min 51 sec)
Heartbeat CPU 0 instructions: 480000000 cycles: 268982629 heartbeat IPC: 1.891 cumulative IPC: 1.677 (Simulation time: 04 hr 19 min 58 sec)
Heartbeat CPU 0 instructions: 490000001 cycles: 274424134 heartbeat IPC: 1.838 cumulative IPC: 1.68 (Simulation time: 04 hr 25 min 15 sec)
Heartbeat CPU 0 instructions: 500000002 cycles: 279801216 heartbeat IPC: 1.86 cumulative IPC: 1.683 (Simulation time: 04 hr 30 min 27 sec)
Heartbeat CPU 0 instructions: 510000000 cycles: 285244837 heartbeat IPC: 1.837 cumulative IPC: 1.687 (Simulation time: 04 hr 35 min 43 sec)
Heartbeat CPU 0 instructions: 520000000 cycles: 290709659 heartbeat IPC: 1.83 cumulative IPC: 1.689 (Simulation time: 04 hr 41 min 00 sec)
Heartbeat CPU 0 instructions: 530000001 cycles: 299064180 heartbeat IPC: 1.197 cumulative IPC: 1.675 (Simulation time: 04 hr 48 min 12 sec)
Heartbeat CPU 0 instructions: 540000000 cycles: 307762260 heartbeat IPC: 1.15 cumulative IPC: 1.66 (Simulation time: 04 hr 55 min 47 sec)
Heartbeat CPU 0 instructions: 550000002 cycles: 318635469 heartbeat IPC: 0.9197 cumulative IPC: 1.633 (Simulation time: 05 hr 04 min 31 sec)
Heartbeat CPU 0 instructions: 560000004 cycles: 323353487 heartbeat IPC: 2.12 cumulative IPC: 1.641 (Simulation time: 05 hr 09 min 19 sec)
Heartbeat CPU 0 instructions: 570000001 cycles: 327755355 heartbeat IPC: 2.272 cumulative IPC: 1.649 (Simulation time: 05 hr 14 min 07 sec)
Heartbeat CPU 0 instructions: 580000003 cycles: 331976165 heartbeat IPC: 2.369 cumulative IPC: 1.659 (Simulation time: 05 hr 18 min 45 sec)
Heartbeat CPU 0 instructions: 590000001 cycles: 336868064 heartbeat IPC: 2.044 cumulative IPC: 1.665 (Simulation time: 05 hr 23 min 50 sec)
Heartbeat CPU 0 instructions: 600000003 cycles: 341498181 heartbeat IPC: 2.16 cumulative IPC: 1.672 (Simulation time: 05 hr 29 min 07 sec)
Heartbeat CPU 0 instructions: 610000001 cycles: 346349948 heartbeat IPC: 2.061 cumulative IPC: 1.677 (Simulation time: 05 hr 34 min 04 sec)
Heartbeat CPU 0 instructions: 620000000 cycles: 351410455 heartbeat IPC: 1.976 cumulative IPC: 1.682 (Simulation time: 05 hr 39 min 13 sec)
Heartbeat CPU 0 instructions: 630000002 cycles: 355643967 heartbeat IPC: 2.362 cumulative IPC: 1.69 (Simulation time: 05 hr 44 min 07 sec)
Heartbeat CPU 0 instructions: 640000004 cycles: 360951328 heartbeat IPC: 1.884 cumulative IPC: 1.693 (Simulation time: 05 hr 49 min 31 sec)
Heartbeat CPU 0 instructions: 650000001 cycles: 365705445 heartbeat IPC: 2.103 cumulative IPC: 1.699 (Simulation time: 05 hr 54 min 36 sec)
Simulation finished CPU 0 instructions: 600000001 cycles: 353205384 cumulative IPC: 1.699 (Simulation time: 05 hr 54 min 36 sec)
Simulation complete CPU 0 instructions: 600000001 cycles: 353205384 cumulative IPC: 1.699 (Simulation time: 05 hr 54 min 36 sec)

ChampSim completed all CPUs

=== Simulation ===
CPU 0 runs traces/400.perlbench-50B.champsimtrace.xz
Region of Interest Statistics

CPU 0 cumulative IPC: 1.699 instructions: 600000001 cycles: 353205384
CPU 0 Branch Prediction Accuracy: 93.83% MPKI: 12.71 Average ROB Occupancy at Mispredict: 29.31
Branch type MPKI
BRANCH_DIRECT_JUMP: 0.0176
BRANCH_INDIRECT: 0.38
BRANCH_CONDITIONAL: 11.9
BRANCH_DIRECT_CALL: 0.0067
BRANCH_INDIRECT_CALL: 0.431
BRANCH_RETURN: 0.0161

LLC TOTAL        ACCESS:    1372980 HIT:    1015037 MISS:     357943
LLC LOAD         ACCESS:     587261 HIT:     432745 MISS:     154516
LLC RFO          ACCESS:      48100 HIT:      31742 MISS:      16358
LLC PREFETCH     ACCESS:     587261 HIT:     425350 MISS:     161911
LLC WRITE        ACCESS:     128281 HIT:     118074 MISS:      10207
LLC TRANSLATION  ACCESS:      22077 HIT:       7126 MISS:      14951
LLC PREFETCH REQUESTED:     587261 ISSUED:     587261 USEFUL:      41958 USELESS:      70045
LLC AVERAGE MISS LATENCY: 485.8 cycles
cpu0_DTLB TOTAL        ACCESS:  156781152 HIT:  155479764 MISS:    1301388
cpu0_DTLB LOAD         ACCESS:  156781152 HIT:  155479764 MISS:    1301388
cpu0_DTLB RFO          ACCESS:          0 HIT:          0 MISS:          0
cpu0_DTLB PREFETCH     ACCESS:          0 HIT:          0 MISS:          0
cpu0_DTLB WRITE        ACCESS:          0 HIT:          0 MISS:          0
cpu0_DTLB TRANSLATION  ACCESS:          0 HIT:          0 MISS:          0
cpu0_DTLB PREFETCH REQUESTED:          0 ISSUED:          0 USEFUL:          0 USELESS:          0
cpu0_DTLB AVERAGE MISS LATENCY: 13.26 cycles
cpu0_ITLB TOTAL        ACCESS:    8932149 HIT:    8733579 MISS:     198570
cpu0_ITLB LOAD         ACCESS:    8932149 HIT:    8733579 MISS:     198570
cpu0_ITLB RFO          ACCESS:          0 HIT:          0 MISS:          0
cpu0_ITLB PREFETCH     ACCESS:          0 HIT:          0 MISS:          0
cpu0_ITLB WRITE        ACCESS:          0 HIT:          0 MISS:          0
cpu0_ITLB TRANSLATION  ACCESS:          0 HIT:          0 MISS:          0
cpu0_ITLB PREFETCH REQUESTED:          0 ISSUED:          0 USEFUL:          0 USELESS:          0
cpu0_ITLB AVERAGE MISS LATENCY: 3.365 cycles
cpu0_L1D TOTAL        ACCESS:  203636658 HIT:  199976309 MISS:    3660349
cpu0_L1D LOAD         ACCESS:  117959644 HIT:  114952091 MISS:    3007553
cpu0_L1D RFO          ACCESS:          0 HIT:          0 MISS:          0
cpu0_L1D PREFETCH     ACCESS:          0 HIT:          0 MISS:          0
cpu0_L1D WRITE        ACCESS:   85648473 HIT:   85022818 MISS:     625655
cpu0_L1D TRANSLATION  ACCESS:      28541 HIT:       1400 MISS:      27141
cpu0_L1D PREFETCH REQUESTED:          0 ISSUED:          0 USEFUL:          0 USELESS:          0
cpu0_L1D AVERAGE MISS LATENCY: 34.29 cycles
cpu0_L1I TOTAL        ACCESS:   10371015 HIT:    8573838 MISS:    1797177
cpu0_L1I LOAD         ACCESS:   10371015 HIT:    8573838 MISS:    1797177
cpu0_L1I RFO          ACCESS:          0 HIT:          0 MISS:          0
cpu0_L1I PREFETCH     ACCESS:          0 HIT:          0 MISS:          0
cpu0_L1I WRITE        ACCESS:          0 HIT:          0 MISS:          0
cpu0_L1I TRANSLATION  ACCESS:          0 HIT:          0 MISS:          0
cpu0_L1I PREFETCH REQUESTED:          0 ISSUED:          0 USEFUL:          0 USELESS:          0
cpu0_L1I AVERAGE MISS LATENCY: 9.537 cycles
cpu0_L2C TOTAL        ACCESS:    3837167 HIT:    3176332 MISS:     660835
cpu0_L2C LOAD         ACCESS:    3106406 HIT:    2519145 MISS:     587261
cpu0_L2C RFO          ACCESS:     191809 HIT:     143709 MISS:      48100
cpu0_L2C PREFETCH     ACCESS:          0 HIT:          0 MISS:          0
cpu0_L2C WRITE        ACCESS:     511896 HIT:     508499 MISS:       3397
cpu0_L2C TRANSLATION  ACCESS:      27056 HIT:       4979 MISS:      22077
cpu0_L2C PREFETCH REQUESTED:          0 ISSUED:          0 USEFUL:          0 USELESS:          0
cpu0_L2C AVERAGE MISS LATENCY: 174.9 cycles
cpu0_STLB TOTAL        ACCESS:    1009229 HIT:     982538 MISS:      26691
cpu0_STLB LOAD         ACCESS:    1009229 HIT:     982538 MISS:      26691
cpu0_STLB RFO          ACCESS:          0 HIT:          0 MISS:          0
cpu0_STLB PREFETCH     ACCESS:          0 HIT:          0 MISS:          0
cpu0_STLB WRITE        ACCESS:          0 HIT:          0 MISS:          0
cpu0_STLB TRANSLATION  ACCESS:          0 HIT:          0 MISS:          0
cpu0_STLB PREFETCH REQUESTED:          0 ISSUED:          0 USEFUL:          0 USELESS:          0
cpu0_STLB AVERAGE MISS LATENCY: 428.4 cycles

DRAM Statistics

Channel 0 RQ ROW_BUFFER_HIT:      61733
  ROW_BUFFER_MISS:     231070
 AVG DBUS CONGESTED CYCLE: 3.838
WQ ROW_BUFFER_HIT: Channel 0 
  ROW_BUFFER_MISS:       6935
  FULL:      19715
