WARNING: physical memory size is smaller than virtual memory size.

*** ChampSim Multicore Out-of-Order Simulator ***
Warmup Instructions: 50000000
Simulation Instructions: 600000000
Number of CPUs: 1
Page size: 4096

Off-chip DRAM Size: 4 GiB Channels: 1 Width: 64-bit Data Race: 3200 MT/s
Heartbeat CPU 0 instructions: 10000000 cycles: 2500061 heartbeat IPC: 4 cumulative IPC: 4 (Simulation time: 00 hr 00 min 52 sec)
Heartbeat CPU 0 instructions: 20000000 cycles: 5000061 heartbeat IPC: 4 cumulative IPC: 4 (Simulation time: 00 hr 01 min 48 sec)
Heartbeat CPU 0 instructions: 30000000 cycles: 7500061 heartbeat IPC: 4 cumulative IPC: 4 (Simulation time: 00 hr 02 min 40 sec)
Heartbeat CPU 0 instructions: 40000000 cycles: 10000061 heartbeat IPC: 4 cumulative IPC: 4 (Simulation time: 00 hr 03 min 32 sec)
Heartbeat CPU 0 instructions: 50000000 cycles: 12500061 heartbeat IPC: 4 cumulative IPC: 4 (Simulation time: 00 hr 04 min 20 sec)
Warmup finished CPU 0 instructions: 50000000 cycles: 12500062 cumulative IPC: 4 (Simulation time: 00 hr 04 min 20 sec)
Warmup complete CPU 0 instructions: 50000000 cycles: 12500062 cumulative IPC: 4 (Simulation time: 00 hr 04 min 20 sec)
Heartbeat CPU 0 instructions: 60000002 cycles: 16910921 heartbeat IPC: 2.267 cumulative IPC: 2.267 (Simulation time: 00 hr 05 min 29 sec)
Heartbeat CPU 0 instructions: 70000003 cycles: 21896816 heartbeat IPC: 2.006 cumulative IPC: 2.128 (Simulation time: 00 hr 06 min 37 sec)
Heartbeat CPU 0 instructions: 80000001 cycles: 27246155 heartbeat IPC: 1.869 cumulative IPC: 2.034 (Simulation time: 00 hr 07 min 50 sec)
Heartbeat CPU 0 instructions: 90000000 cycles: 31544699 heartbeat IPC: 2.326 cumulative IPC: 2.1 (Simulation time: 00 hr 09 min 15 sec)
Heartbeat CPU 0 instructions: 100000003 cycles: 36404102 heartbeat IPC: 2.058 cumulative IPC: 2.092 (Simulation time: 00 hr 10 min 49 sec)
Heartbeat CPU 0 instructions: 110000002 cycles: 41281735 heartbeat IPC: 2.05 cumulative IPC: 2.085 (Simulation time: 00 hr 12 min 16 sec)
Heartbeat CPU 0 instructions: 120000001 cycles: 46278078 heartbeat IPC: 2.001 cumulative IPC: 2.072 (Simulation time: 00 hr 13 min 34 sec)
Heartbeat CPU 0 instructions: 130000003 cycles: 50848441 heartbeat IPC: 2.188 cumulative IPC: 2.086 (Simulation time: 00 hr 14 min 46 sec)
Heartbeat CPU 0 instructions: 140000002 cycles: 55741837 heartbeat IPC: 2.044 cumulative IPC: 2.081 (Simulation time: 00 hr 16 min 05 sec)
Heartbeat CPU 0 instructions: 150000001 cycles: 60413534 heartbeat IPC: 2.141 cumulative IPC: 2.087 (Simulation time: 00 hr 17 min 20 sec)
Heartbeat CPU 0 instructions: 160000000 cycles: 65054061 heartbeat IPC: 2.155 cumulative IPC: 2.093 (Simulation time: 00 hr 18 min 31 sec)
Heartbeat CPU 0 instructions: 170000000 cycles: 70390892 heartbeat IPC: 1.874 cumulative IPC: 2.073 (Simulation time: 00 hr 19 min 44 sec)
Heartbeat CPU 0 instructions: 180000001 cycles: 76112662 heartbeat IPC: 1.748 cumulative IPC: 2.044 (Simulation time: 00 hr 20 min 58 sec)
Heartbeat CPU 0 instructions: 190000002 cycles: 80589282 heartbeat IPC: 2.234 cumulative IPC: 2.056 (Simulation time: 00 hr 22 min 10 sec)
Heartbeat CPU 0 instructions: 200000002 cycles: 85498894 heartbeat IPC: 2.037 cumulative IPC: 2.055 (Simulation time: 00 hr 23 min 43 sec)
Heartbeat CPU 0 instructions: 210000000 cycles: 90504729 heartbeat IPC: 1.998 cumulative IPC: 2.051 (Simulation time: 00 hr 25 min 09 sec)
Heartbeat CPU 0 instructions: 220000001 cycles: 95431335 heartbeat IPC: 2.03 cumulative IPC: 2.05 (Simulation time: 00 hr 26 min 27 sec)
Heartbeat CPU 0 instructions: 230000002 cycles: 100680532 heartbeat IPC: 1.905 cumulative IPC: 2.041 (Simulation time: 00 hr 27 min 43 sec)
Heartbeat CPU 0 instructions: 240000001 cycles: 105647247 heartbeat IPC: 2.013 cumulative IPC: 2.04 (Simulation time: 00 hr 28 min 57 sec)
Heartbeat CPU 0 instructions: 250000003 cycles: 110834790 heartbeat IPC: 1.928 cumulative IPC: 2.034 (Simulation time: 00 hr 30 min 17 sec)
Heartbeat CPU 0 instructions: 260000001 cycles: 115697029 heartbeat IPC: 2.057 cumulative IPC: 2.035 (Simulation time: 00 hr 31 min 30 sec)
Heartbeat CPU 0 instructions: 270000000 cycles: 123592744 heartbeat IPC: 1.267 cumulative IPC: 1.98 (Simulation time: 00 hr 33 min 04 sec)
Heartbeat CPU 0 instructions: 280000000 cycles: 137028735 heartbeat IPC: 0.7443 cumulative IPC: 1.847 (Simulation time: 00 hr 35 min 53 sec)
Heartbeat CPU 0 instructions: 290000001 cycles: 151394267 heartbeat IPC: 0.6961 cumulative IPC: 1.728 (Simulation time: 00 hr 38 min 41 sec)
Heartbeat CPU 0 instructions: 300000003 cycles: 160378605 heartbeat IPC: 1.113 cumulative IPC: 1.691 (Simulation time: 00 hr 40 min 36 sec)
Heartbeat CPU 0 instructions: 310000004 cycles: 173112138 heartbeat IPC: 0.7853 cumulative IPC: 1.619 (Simulation time: 00 hr 43 min 08 sec)
Heartbeat CPU 0 instructions: 320000004 cycles: 179332094 heartbeat IPC: 1.608 cumulative IPC: 1.618 (Simulation time: 00 hr 44 min 37 sec)
Heartbeat CPU 0 instructions: 330000000 cycles: 184639346 heartbeat IPC: 1.884 cumulative IPC: 1.627 (Simulation time: 00 hr 45 min 53 sec)
Heartbeat CPU 0 instructions: 340000001 cycles: 189944140 heartbeat IPC: 1.885 cumulative IPC: 1.634 (Simulation time: 00 hr 47 min 16 sec)
Heartbeat CPU 0 instructions: 350000000 cycles: 195343153 heartbeat IPC: 1.852 cumulative IPC: 1.641 (Simulation time: 00 hr 48 min 56 sec)
Heartbeat CPU 0 instructions: 360000003 cycles: 200378687 heartbeat IPC: 1.986 cumulative IPC: 1.65 (Simulation time: 00 hr 50 min 22 sec)
Heartbeat CPU 0 instructions: 370000001 cycles: 205210680 heartbeat IPC: 2.07 cumulative IPC: 1.661 (Simulation time: 00 hr 51 min 39 sec)
Heartbeat CPU 0 instructions: 380000004 cycles: 210263969 heartbeat IPC: 1.979 cumulative IPC: 1.669 (Simulation time: 00 hr 52 min 55 sec)
Heartbeat CPU 0 instructions: 390000002 cycles: 215306147 heartbeat IPC: 1.983 cumulative IPC: 1.676 (Simulation time: 00 hr 54 min 14 sec)
Heartbeat CPU 0 instructions: 400000000 cycles: 220384210 heartbeat IPC: 1.969 cumulative IPC: 1.684 (Simulation time: 00 hr 55 min 32 sec)
Heartbeat CPU 0 instructions: 410000000 cycles: 228360244 heartbeat IPC: 1.254 cumulative IPC: 1.668 (Simulation time: 00 hr 57 min 14 sec)
Heartbeat CPU 0 instructions: 420000001 cycles: 240531918 heartbeat IPC: 0.8216 cumulative IPC: 1.623 (Simulation time: 00 hr 59 min 28 sec)
Heartbeat CPU 0 instructions: 430000000 cycles: 248717463 heartbeat IPC: 1.222 cumulative IPC: 1.609 (Simulation time: 01 hr 01 min 43 sec)
Heartbeat CPU 0 instructions: 440000002 cycles: 257346384 heartbeat IPC: 1.159 cumulative IPC: 1.593 (Simulation time: 01 hr 03 min 56 sec)
Heartbeat CPU 0 instructions: 450000000 cycles: 265829359 heartbeat IPC: 1.179 cumulative IPC: 1.579 (Simulation time: 01 hr 05 min 54 sec)
Heartbeat CPU 0 instructions: 460000002 cycles: 279687336 heartbeat IPC: 0.7216 cumulative IPC: 1.535 (Simulation time: 01 hr 08 min 39 sec)
Heartbeat CPU 0 instructions: 470000000 cycles: 290687280 heartbeat IPC: 0.9091 cumulative IPC: 1.51 (Simulation time: 01 hr 10 min 50 sec)
Heartbeat CPU 0 instructions: 480000000 cycles: 296187643 heartbeat IPC: 1.818 cumulative IPC: 1.516 (Simulation time: 01 hr 12 min 09 sec)
Heartbeat CPU 0 instructions: 490000001 cycles: 301781466 heartbeat IPC: 1.788 cumulative IPC: 1.521 (Simulation time: 01 hr 13 min 29 sec)
Heartbeat CPU 0 instructions: 500000002 cycles: 307042775 heartbeat IPC: 1.901 cumulative IPC: 1.528 (Simulation time: 01 hr 15 min 01 sec)
Heartbeat CPU 0 instructions: 510000000 cycles: 312135016 heartbeat IPC: 1.964 cumulative IPC: 1.535 (Simulation time: 01 hr 16 min 31 sec)
Heartbeat CPU 0 instructions: 520000000 cycles: 317220558 heartbeat IPC: 1.966 cumulative IPC: 1.542 (Simulation time: 01 hr 17 min 58 sec)
Heartbeat CPU 0 instructions: 530000001 cycles: 328365267 heartbeat IPC: 0.8973 cumulative IPC: 1.52 (Simulation time: 01 hr 20 min 12 sec)
Heartbeat CPU 0 instructions: 540000000 cycles: 340760284 heartbeat IPC: 0.8068 cumulative IPC: 1.493 (Simulation time: 01 hr 22 min 43 sec)
Heartbeat CPU 0 instructions: 550000002 cycles: 355894692 heartbeat IPC: 0.6607 cumulative IPC: 1.456 (Simulation time: 01 hr 25 min 17 sec)
Heartbeat CPU 0 instructions: 560000004 cycles: 360946472 heartbeat IPC: 1.98 cumulative IPC: 1.464 (Simulation time: 01 hr 26 min 42 sec)
Heartbeat CPU 0 instructions: 570000001 cycles: 365362694 heartbeat IPC: 2.264 cumulative IPC: 1.474 (Simulation time: 01 hr 28 min 19 sec)
Heartbeat CPU 0 instructions: 580000003 cycles: 369607942 heartbeat IPC: 2.356 cumulative IPC: 1.484 (Simulation time: 01 hr 29 min 44 sec)
Heartbeat CPU 0 instructions: 590000001 cycles: 374518517 heartbeat IPC: 2.036 cumulative IPC: 1.492 (Simulation time: 01 hr 31 min 05 sec)
Heartbeat CPU 0 instructions: 600000003 cycles: 379163109 heartbeat IPC: 2.153 cumulative IPC: 1.5 (Simulation time: 01 hr 32 min 24 sec)
Heartbeat CPU 0 instructions: 610000001 cycles: 384025353 heartbeat IPC: 2.057 cumulative IPC: 1.507 (Simulation time: 01 hr 33 min 46 sec)
Heartbeat CPU 0 instructions: 620000000 cycles: 389092561 heartbeat IPC: 1.973 cumulative IPC: 1.514 (Simulation time: 01 hr 35 min 09 sec)
Heartbeat CPU 0 instructions: 630000002 cycles: 393340377 heartbeat IPC: 2.354 cumulative IPC: 1.523 (Simulation time: 01 hr 36 min 23 sec)
Heartbeat CPU 0 instructions: 640000004 cycles: 398663710 heartbeat IPC: 1.879 cumulative IPC: 1.528 (Simulation time: 01 hr 37 min 42 sec)
Heartbeat CPU 0 instructions: 650000001 cycles: 403427498 heartbeat IPC: 2.099 cumulative IPC: 1.535 (Simulation time: 01 hr 38 min 53 sec)
Simulation finished CPU 0 instructions: 600000001 cycles: 390927437 cumulative IPC: 1.535 (Simulation time: 01 hr 38 min 53 sec)
Simulation complete CPU 0 instructions: 600000001 cycles: 390927437 cumulative IPC: 1.535 (Simulation time: 01 hr 38 min 53 sec)

ChampSim completed all CPUs

=== Simulation ===
CPU 0 runs traces/400.perlbench-50B.champsimtrace.xz
Region of Interest Statistics

CPU 0 cumulative IPC: 1.535 instructions: 600000001 cycles: 390927437
CPU 0 Branch Prediction Accuracy: 93.83% MPKI: 12.71 Average ROB Occupancy at Mispredict: 29.68
Branch type MPKI
BRANCH_DIRECT_JUMP: 0.0176
BRANCH_INDIRECT: 0.38
BRANCH_CONDITIONAL: 11.9
BRANCH_DIRECT_CALL: 0.0067
BRANCH_INDIRECT_CALL: 0.431
BRANCH_RETURN: 0.0161

LLC TOTAL        ACCESS:     779350 HIT:     400471 MISS:     378879
LLC LOAD         ACCESS:     581236 HIT:     280797 MISS:     300439
LLC RFO          ACCESS:      46993 HIT:      24605 MISS:      22388
LLC PREFETCH     ACCESS:          0 HIT:          0 MISS:          0
LLC WRITE        ACCESS:     129066 HIT:      91207 MISS:      37859
LLC TRANSLATION  ACCESS:      22055 HIT:       3862 MISS:      18193
LLC PREFETCH REQUESTED:          0 ISSUED:          0 USEFUL:          0 USELESS:          0
LLC AVERAGE MISS LATENCY: 483.4 cycles
cpu0_DTLB TOTAL        ACCESS:  156730399 HIT:  155427591 MISS:    1302808
cpu0_DTLB LOAD         ACCESS:  156730399 HIT:  155427591 MISS:    1302808
cpu0_DTLB RFO          ACCESS:          0 HIT:          0 MISS:          0
cpu0_DTLB PREFETCH     ACCESS:          0 HIT:          0 MISS:          0
cpu0_DTLB WRITE        ACCESS:          0 HIT:          0 MISS:          0
cpu0_DTLB TRANSLATION  ACCESS:          0 HIT:          0 MISS:          0
cpu0_DTLB PREFETCH REQUESTED:          0 ISSUED:          0 USEFUL:          0 USELESS:          0
cpu0_DTLB AVERAGE MISS LATENCY: 14.91 cycles
cpu0_ITLB TOTAL        ACCESS:    8931235 HIT:    8732638 MISS:     198597
cpu0_ITLB LOAD         ACCESS:    8931235 HIT:    8732638 MISS:     198597
cpu0_ITLB RFO          ACCESS:          0 HIT:          0 MISS:          0
cpu0_ITLB PREFETCH     ACCESS:          0 HIT:          0 MISS:          0
cpu0_ITLB WRITE        ACCESS:          0 HIT:          0 MISS:          0
cpu0_ITLB TRANSLATION  ACCESS:          0 HIT:          0 MISS:          0
cpu0_ITLB PREFETCH REQUESTED:          0 ISSUED:          0 USEFUL:          0 USELESS:          0
cpu0_ITLB AVERAGE MISS LATENCY: 3.737 cycles
cpu0_L1D TOTAL        ACCESS:  203580340 HIT:  200674437 MISS:    2905903
cpu0_L1D LOAD         ACCESS:  117903328 HIT:  115513550 MISS:    2389778
cpu0_L1D RFO          ACCESS:          0 HIT:          0 MISS:          0
cpu0_L1D PREFETCH     ACCESS:          0 HIT:          0 MISS:          0
cpu0_L1D WRITE        ACCESS:   85648468 HIT:   85158900 MISS:     489568
cpu0_L1D TRANSLATION  ACCESS:      28544 HIT:       1987 MISS:      26557
cpu0_L1D PREFETCH REQUESTED:          0 ISSUED:          0 USEFUL:          0 USELESS:          0
cpu0_L1D AVERAGE MISS LATENCY: 65.86 cycles
cpu0_L1I TOTAL        ACCESS:   10370201 HIT:    8572468 MISS:    1797733
cpu0_L1I LOAD         ACCESS:   10370201 HIT:    8572468 MISS:    1797733
cpu0_L1I RFO          ACCESS:          0 HIT:          0 MISS:          0
cpu0_L1I PREFETCH     ACCESS:          0 HIT:          0 MISS:          0
cpu0_L1I WRITE        ACCESS:          0 HIT:          0 MISS:          0
cpu0_L1I TRANSLATION  ACCESS:          0 HIT:          0 MISS:          0
cpu0_L1I PREFETCH REQUESTED:          0 ISSUED:          0 USEFUL:          0 USELESS:          0
cpu0_L1I AVERAGE MISS LATENCY: 14.83 cycles
cpu0_L2C TOTAL        ACCESS:    3235219 HIT:    2578553 MISS:     656666
cpu0_L2C LOAD         ACCESS:    2711701 HIT:    2130462 MISS:     581239
cpu0_L2C RFO          ACCESS:     133698 HIT:      86705 MISS:      46993
cpu0_L2C PREFETCH     ACCESS:          0 HIT:          0 MISS:          0
cpu0_L2C WRITE        ACCESS:     363350 HIT:     356971 MISS:       6379
cpu0_L2C TRANSLATION  ACCESS:      26470 HIT:       4415 MISS:      22055
cpu0_L2C PREFETCH REQUESTED:          0 ISSUED:          0 USEFUL:          0 USELESS:          0
cpu0_L2C AVERAGE MISS LATENCY: 299.3 cycles
cpu0_STLB TOTAL        ACCESS:    1009328 HIT:     982636 MISS:      26692
cpu0_STLB LOAD         ACCESS:    1009328 HIT:     982636 MISS:      26692
cpu0_STLB RFO          ACCESS:          0 HIT:          0 MISS:          0
cpu0_STLB PREFETCH     ACCESS:          0 HIT:          0 MISS:          0
cpu0_STLB WRITE        ACCESS:          0 HIT:          0 MISS:          0
cpu0_STLB TRANSLATION  ACCESS:          0 HIT:          0 MISS:          0
cpu0_STLB PREFETCH REQUESTED:          0 ISSUED:          0 USEFUL:          0 USELESS:          0
cpu0_STLB AVERAGE MISS LATENCY: 517 cycles

DRAM Statistics

Channel 0 RQ ROW_BUFFER_HIT:      58231
  ROW_BUFFER_MISS:     282547
 AVG DBUS CONGESTED CYCLE: 3.804
WQ ROW_BUFFER_HIT: Channel 0 
  ROW_BUFFER_MISS:      11612
  FULL:      38126
