WARNING: physical memory size is smaller than virtual memory size.

*** ChampSim Multicore Out-of-Order Simulator ***
Warmup Instructions: 50000000
Simulation Instructions: 600000000
Number of CPUs: 1
Page size: 4096

Off-chip DRAM Size: 4 GiB Channels: 1 Width: 64-bit Data Race: 3200 MT/s
Heartbeat CPU 0 instructions: 10000000 cycles: 2500061 heartbeat IPC: 4 cumulative IPC: 4 (Simulation time: 00 hr 03 min 24 sec)
Heartbeat CPU 0 instructions: 20000000 cycles: 5000061 heartbeat IPC: 4 cumulative IPC: 4 (Simulation time: 00 hr 06 min 46 sec)
Heartbeat CPU 0 instructions: 30000000 cycles: 7500061 heartbeat IPC: 4 cumulative IPC: 4 (Simulation time: 00 hr 10 min 06 sec)
Heartbeat CPU 0 instructions: 40000000 cycles: 10000061 heartbeat IPC: 4 cumulative IPC: 4 (Simulation time: 00 hr 13 min 18 sec)
Heartbeat CPU 0 instructions: 50000000 cycles: 12500061 heartbeat IPC: 4 cumulative IPC: 4 (Simulation time: 00 hr 16 min 38 sec)
Warmup finished CPU 0 instructions: 50000000 cycles: 12500062 cumulative IPC: 4 (Simulation time: 00 hr 16 min 38 sec)
Warmup complete CPU 0 instructions: 50000000 cycles: 12500062 cumulative IPC: 4 (Simulation time: 00 hr 16 min 38 sec)
Heartbeat CPU 0 instructions: 60000002 cycles: 16444688 heartbeat IPC: 2.535 cumulative IPC: 2.535 (Simulation time: 00 hr 21 min 01 sec)
Heartbeat CPU 0 instructions: 70000003 cycles: 20760893 heartbeat IPC: 2.317 cumulative IPC: 2.421 (Simulation time: 00 hr 25 min 24 sec)
Heartbeat CPU 0 instructions: 80000003 cycles: 25229157 heartbeat IPC: 2.238 cumulative IPC: 2.357 (Simulation time: 00 hr 29 min 48 sec)
Heartbeat CPU 0 instructions: 90000000 cycles: 28920814 heartbeat IPC: 2.709 cumulative IPC: 2.436 (Simulation time: 00 hr 33 min 35 sec)
Heartbeat CPU 0 instructions: 100000003 cycles: 32818788 heartbeat IPC: 2.565 cumulative IPC: 2.461 (Simulation time: 00 hr 37 min 27 sec)
Heartbeat CPU 0 instructions: 110000002 cycles: 36920325 heartbeat IPC: 2.438 cumulative IPC: 2.457 (Simulation time: 00 hr 41 min 12 sec)
Heartbeat CPU 0 instructions: 120000001 cycles: 40635683 heartbeat IPC: 2.692 cumulative IPC: 2.488 (Simulation time: 00 hr 44 min 46 sec)
Heartbeat CPU 0 instructions: 130000003 cycles: 44404658 heartbeat IPC: 2.653 cumulative IPC: 2.507 (Simulation time: 00 hr 48 min 15 sec)
Heartbeat CPU 0 instructions: 140000002 cycles: 48538024 heartbeat IPC: 2.419 cumulative IPC: 2.497 (Simulation time: 00 hr 51 min 52 sec)
Heartbeat CPU 0 instructions: 150000001 cycles: 52589949 heartbeat IPC: 2.468 cumulative IPC: 2.494 (Simulation time: 00 hr 55 min 25 sec)
Heartbeat CPU 0 instructions: 160000000 cycles: 56247531 heartbeat IPC: 2.734 cumulative IPC: 2.514 (Simulation time: 00 hr 58 min 50 sec)
Heartbeat CPU 0 instructions: 170000001 cycles: 60421737 heartbeat IPC: 2.396 cumulative IPC: 2.504 (Simulation time: 01 hr 02 min 30 sec)
Heartbeat CPU 0 instructions: 180000001 cycles: 63882371 heartbeat IPC: 2.89 cumulative IPC: 2.53 (Simulation time: 01 hr 05 min 51 sec)
Heartbeat CPU 0 instructions: 190000002 cycles: 67465761 heartbeat IPC: 2.791 cumulative IPC: 2.547 (Simulation time: 01 hr 09 min 18 sec)
Heartbeat CPU 0 instructions: 200000002 cycles: 71249161 heartbeat IPC: 2.643 cumulative IPC: 2.553 (Simulation time: 01 hr 12 min 47 sec)
Heartbeat CPU 0 instructions: 210000000 cycles: 74888079 heartbeat IPC: 2.748 cumulative IPC: 2.565 (Simulation time: 01 hr 16 min 11 sec)
Heartbeat CPU 0 instructions: 220000001 cycles: 78754029 heartbeat IPC: 2.587 cumulative IPC: 2.566 (Simulation time: 01 hr 19 min 43 sec)
Heartbeat CPU 0 instructions: 230000002 cycles: 82594747 heartbeat IPC: 2.604 cumulative IPC: 2.568 (Simulation time: 01 hr 23 min 14 sec)
Heartbeat CPU 0 instructions: 240000001 cycles: 86801493 heartbeat IPC: 2.377 cumulative IPC: 2.557 (Simulation time: 01 hr 26 min 59 sec)
Heartbeat CPU 0 instructions: 250000003 cycles: 91366485 heartbeat IPC: 2.191 cumulative IPC: 2.536 (Simulation time: 01 hr 31 min 05 sec)
Heartbeat CPU 0 instructions: 260000000 cycles: 95158973 heartbeat IPC: 2.637 cumulative IPC: 2.541 (Simulation time: 01 hr 34 min 54 sec)
Heartbeat CPU 0 instructions: 270000003 cycles: 102228918 heartbeat IPC: 1.414 cumulative IPC: 2.452 (Simulation time: 01 hr 40 min 26 sec)
Heartbeat CPU 0 instructions: 280000000 cycles: 112631994 heartbeat IPC: 0.9613 cumulative IPC: 2.297 (Simulation time: 01 hr 47 min 51 sec)
Heartbeat CPU 0 instructions: 290000000 cycles: 121824994 heartbeat IPC: 1.088 cumulative IPC: 2.195 (Simulation time: 01 hr 54 min 45 sec)
Heartbeat CPU 0 instructions: 300000003 cycles: 129058496 heartbeat IPC: 1.382 cumulative IPC: 2.145 (Simulation time: 02 hr 00 min 43 sec)
Heartbeat CPU 0 instructions: 310000004 cycles: 139209537 heartbeat IPC: 0.9851 cumulative IPC: 2.052 (Simulation time: 02 hr 08 min 12 sec)
Heartbeat CPU 0 instructions: 320000004 cycles: 144158795 heartbeat IPC: 2.021 cumulative IPC: 2.051 (Simulation time: 02 hr 12 min 49 sec)
Heartbeat CPU 0 instructions: 330000000 cycles: 148199343 heartbeat IPC: 2.475 cumulative IPC: 2.063 (Simulation time: 02 hr 16 min 49 sec)
Heartbeat CPU 0 instructions: 340000001 cycles: 152345767 heartbeat IPC: 2.412 cumulative IPC: 2.074 (Simulation time: 02 hr 20 min 51 sec)
Heartbeat CPU 0 instructions: 350000004 cycles: 156655838 heartbeat IPC: 2.32 cumulative IPC: 2.081 (Simulation time: 02 hr 25 min 01 sec)
Heartbeat CPU 0 instructions: 360000003 cycles: 160667607 heartbeat IPC: 2.493 cumulative IPC: 2.092 (Simulation time: 02 hr 29 min 03 sec)
Heartbeat CPU 0 instructions: 370000001 cycles: 164618760 heartbeat IPC: 2.531 cumulative IPC: 2.104 (Simulation time: 02 hr 32 min 58 sec)
Heartbeat CPU 0 instructions: 380000004 cycles: 168423125 heartbeat IPC: 2.629 cumulative IPC: 2.116 (Simulation time: 02 hr 36 min 48 sec)
Heartbeat CPU 0 instructions: 390000002 cycles: 172363395 heartbeat IPC: 2.538 cumulative IPC: 2.127 (Simulation time: 02 hr 40 min 50 sec)
Heartbeat CPU 0 instructions: 400000000 cycles: 176598468 heartbeat IPC: 2.361 cumulative IPC: 2.133 (Simulation time: 02 hr 44 min 46 sec)
Heartbeat CPU 0 instructions: 410000000 cycles: 183242963 heartbeat IPC: 1.505 cumulative IPC: 2.108 (Simulation time: 02 hr 50 min 04 sec)
Heartbeat CPU 0 instructions: 420000003 cycles: 192341895 heartbeat IPC: 1.099 cumulative IPC: 2.057 (Simulation time: 02 hr 56 min 32 sec)
Heartbeat CPU 0 instructions: 430000000 cycles: 199019910 heartbeat IPC: 1.497 cumulative IPC: 2.037 (Simulation time: 03 hr 01 min 33 sec)
Heartbeat CPU 0 instructions: 440000004 cycles: 205212210 heartbeat IPC: 1.615 cumulative IPC: 2.024 (Simulation time: 03 hr 06 min 11 sec)
Heartbeat CPU 0 instructions: 450000001 cycles: 211651011 heartbeat IPC: 1.553 cumulative IPC: 2.009 (Simulation time: 03 hr 10 min 58 sec)
Heartbeat CPU 0 instructions: 460000002 cycles: 220661746 heartbeat IPC: 1.11 cumulative IPC: 1.97 (Simulation time: 03 hr 16 min 52 sec)
Heartbeat CPU 0 instructions: 470000003 cycles: 229283398 heartbeat IPC: 1.16 cumulative IPC: 1.937 (Simulation time: 03 hr 22 min 33 sec)
Heartbeat CPU 0 instructions: 480000003 cycles: 233416771 heartbeat IPC: 2.419 cumulative IPC: 1.946 (Simulation time: 03 hr 26 min 05 sec)
Heartbeat CPU 0 instructions: 490000001 cycles: 237856916 heartbeat IPC: 2.252 cumulative IPC: 1.952 (Simulation time: 03 hr 29 min 44 sec)
Heartbeat CPU 0 instructions: 500000002 cycles: 242088109 heartbeat IPC: 2.363 cumulative IPC: 1.96 (Simulation time: 03 hr 33 min 20 sec)
Heartbeat CPU 0 instructions: 510000000 cycles: 246151097 heartbeat IPC: 2.461 cumulative IPC: 1.969 (Simulation time: 03 hr 36 min 52 sec)
Heartbeat CPU 0 instructions: 520000000 cycles: 250377862 heartbeat IPC: 2.366 cumulative IPC: 1.976 (Simulation time: 03 hr 40 min 28 sec)
Heartbeat CPU 0 instructions: 530000001 cycles: 259554722 heartbeat IPC: 1.09 cumulative IPC: 1.943 (Simulation time: 03 hr 46 min 26 sec)
Heartbeat CPU 0 instructions: 540000000 cycles: 268304171 heartbeat IPC: 1.143 cumulative IPC: 1.916 (Simulation time: 03 hr 52 min 20 sec)
Heartbeat CPU 0 instructions: 550000004 cycles: 278910058 heartbeat IPC: 0.9429 cumulative IPC: 1.877 (Simulation time: 03 hr 59 min 03 sec)
Heartbeat CPU 0 instructions: 560000004 cycles: 283003448 heartbeat IPC: 2.443 cumulative IPC: 1.885 (Simulation time: 04 hr 02 min 21 sec)
Heartbeat CPU 0 instructions: 570000001 cycles: 286121907 heartbeat IPC: 3.207 cumulative IPC: 1.9 (Simulation time: 04 hr 05 min 15 sec)
Heartbeat CPU 0 instructions: 580000003 cycles: 289645593 heartbeat IPC: 2.838 cumulative IPC: 1.912 (Simulation time: 04 hr 08 min 14 sec)
Heartbeat CPU 0 instructions: 590000002 cycles: 293258745 heartbeat IPC: 2.768 cumulative IPC: 1.923 (Simulation time: 04 hr 11 min 18 sec)
Heartbeat CPU 0 instructions: 600000003 cycles: 296312417 heartbeat IPC: 3.275 cumulative IPC: 1.938 (Simulation time: 04 hr 13 min 57 sec)
Heartbeat CPU 0 instructions: 610000001 cycles: 299808166 heartbeat IPC: 2.861 cumulative IPC: 1.949 (Simulation time: 04 hr 16 min 36 sec)
Heartbeat CPU 0 instructions: 620000000 cycles: 303816799 heartbeat IPC: 2.495 cumulative IPC: 1.957 (Simulation time: 04 hr 19 min 04 sec)
Heartbeat CPU 0 instructions: 630000002 cycles: 307177447 heartbeat IPC: 2.976 cumulative IPC: 1.968 (Simulation time: 04 hr 21 min 14 sec)
Heartbeat CPU 0 instructions: 640000004 cycles: 311174302 heartbeat IPC: 2.502 cumulative IPC: 1.975 (Simulation time: 04 hr 23 min 32 sec)
Heartbeat CPU 0 instructions: 650000001 cycles: 314989940 heartbeat IPC: 2.621 cumulative IPC: 1.984 (Simulation time: 04 hr 25 min 33 sec)
Simulation finished CPU 0 instructions: 600000001 cycles: 302489879 cumulative IPC: 1.984 (Simulation time: 04 hr 25 min 33 sec)
Simulation complete CPU 0 instructions: 600000001 cycles: 302489879 cumulative IPC: 1.984 (Simulation time: 04 hr 25 min 33 sec)

ChampSim completed all CPUs

=== Simulation ===
CPU 0 runs traces/400.perlbench-50B.champsimtrace.xz
Region of Interest Statistics

CPU 0 cumulative IPC: 1.984 instructions: 600000001 cycles: 302489879
CPU 0 Branch Prediction Accuracy: 96.2% MPKI: 7.839 Average ROB Occupancy at Mispredict: 43.4
Branch type MPKI
BRANCH_DIRECT_JUMP: 0.0176
BRANCH_INDIRECT: 0.38
BRANCH_CONDITIONAL: 6.99
BRANCH_DIRECT_CALL: 0.0067
BRANCH_INDIRECT_CALL: 0.431
BRANCH_RETURN: 0.0161

LLC TOTAL        ACCESS:     837601 HIT:     602500 MISS:     235101
LLC LOAD         ACCESS:     576586 HIT:     378400 MISS:     198186
LLC RFO          ACCESS:      47512 HIT:      37909 MISS:       9603
LLC PREFETCH     ACCESS:      64165 HIT:      48541 MISS:      15624
LLC WRITE        ACCESS:     127247 HIT:     126312 MISS:        935
LLC TRANSLATION  ACCESS:      22091 HIT:      11338 MISS:      10753
LLC PREFETCH REQUESTED:      64165 ISSUED:      64165 USEFUL:       7535 USELESS:       4515
LLC AVERAGE MISS LATENCY: 461 cycles
cpu0_DTLB TOTAL        ACCESS:  146533523 HIT:  145227964 MISS:    1305559
cpu0_DTLB LOAD         ACCESS:  146533523 HIT:  145227964 MISS:    1305559
cpu0_DTLB RFO          ACCESS:          0 HIT:          0 MISS:          0
cpu0_DTLB PREFETCH     ACCESS:          0 HIT:          0 MISS:          0
cpu0_DTLB WRITE        ACCESS:          0 HIT:          0 MISS:          0
cpu0_DTLB TRANSLATION  ACCESS:          0 HIT:          0 MISS:          0
cpu0_DTLB PREFETCH REQUESTED:          0 ISSUED:          0 USEFUL:          0 USELESS:          0
cpu0_DTLB AVERAGE MISS LATENCY: 10.68 cycles
cpu0_ITLB TOTAL        ACCESS:    8991394 HIT:    8806902 MISS:     184492
cpu0_ITLB LOAD         ACCESS:    8991394 HIT:    8806902 MISS:     184492
cpu0_ITLB RFO          ACCESS:          0 HIT:          0 MISS:          0
cpu0_ITLB PREFETCH     ACCESS:          0 HIT:          0 MISS:          0
cpu0_ITLB WRITE        ACCESS:          0 HIT:          0 MISS:          0
cpu0_ITLB TRANSLATION  ACCESS:          0 HIT:          0 MISS:          0
cpu0_ITLB PREFETCH REQUESTED:          0 ISSUED:          0 USEFUL:          0 USELESS:          0
cpu0_ITLB AVERAGE MISS LATENCY: 3.189 cycles
cpu0_L1D TOTAL        ACCESS:  193312145 HIT:  189675161 MISS:    3636984
cpu0_L1D LOAD         ACCESS:  107465480 HIT:  104463844 MISS:    3001636
cpu0_L1D RFO          ACCESS:          0 HIT:          0 MISS:          0
cpu0_L1D PREFETCH     ACCESS:          0 HIT:          0 MISS:          0
cpu0_L1D WRITE        ACCESS:   85818144 HIT:   85209895 MISS:     608249
cpu0_L1D TRANSLATION  ACCESS:      28521 HIT:       1422 MISS:      27099
cpu0_L1D PREFETCH REQUESTED:          0 ISSUED:          0 USEFUL:          0 USELESS:          0
cpu0_L1D AVERAGE MISS LATENCY: 34.06 cycles
cpu0_L1I TOTAL        ACCESS:   10425492 HIT:    8662969 MISS:    1762523
cpu0_L1I LOAD         ACCESS:   10425492 HIT:    8662969 MISS:    1762523
cpu0_L1I RFO          ACCESS:          0 HIT:          0 MISS:          0
cpu0_L1I PREFETCH     ACCESS:          0 HIT:          0 MISS:          0
cpu0_L1I WRITE        ACCESS:          0 HIT:          0 MISS:          0
cpu0_L1I TRANSLATION  ACCESS:          0 HIT:          0 MISS:          0
cpu0_L1I PREFETCH REQUESTED:          0 ISSUED:          0 USEFUL:          0 USELESS:          0
cpu0_L1I AVERAGE MISS LATENCY: 9.845 cycles
cpu0_L2C TOTAL        ACCESS:    3834671 HIT:    3185318 MISS:     649353
cpu0_L2C LOAD         ACCESS:    3104991 HIT:    2528405 MISS:     576586
cpu0_L2C RFO          ACCESS:     191530 HIT:     144017 MISS:      47513
cpu0_L2C PREFETCH     ACCESS:          0 HIT:          0 MISS:          0
cpu0_L2C WRITE        ACCESS:     511118 HIT:     507955 MISS:       3163
cpu0_L2C TRANSLATION  ACCESS:      27032 HIT:       4941 MISS:      22091
cpu0_L2C PREFETCH REQUESTED:          0 ISSUED:          0 USEFUL:          0 USELESS:          0
cpu0_L2C AVERAGE MISS LATENCY: 176.1 cycles
cpu0_STLB TOTAL        ACCESS:    1008399 HIT:     981706 MISS:      26693
cpu0_STLB LOAD         ACCESS:    1008399 HIT:     981706 MISS:      26693
cpu0_STLB RFO          ACCESS:          0 HIT:          0 MISS:          0
cpu0_STLB PREFETCH     ACCESS:          0 HIT:          0 MISS:          0
cpu0_STLB WRITE        ACCESS:          0 HIT:          0 MISS:          0
cpu0_STLB TRANSLATION  ACCESS:          0 HIT:          0 MISS:          0
cpu0_STLB PREFETCH REQUESTED:          0 ISSUED:          0 USEFUL:          0 USELESS:          0
cpu0_STLB AVERAGE MISS LATENCY: 298.9 cycles

DRAM Statistics

Channel 0 RQ ROW_BUFFER_HIT:      76926
  ROW_BUFFER_MISS:     153534
 AVG DBUS CONGESTED CYCLE: 3.706
WQ ROW_BUFFER_HIT: Channel 0 
  ROW_BUFFER_MISS:        918
  FULL:        949
