WARNING: physical memory size is smaller than virtual memory size.

*** ChampSim Multicore Out-of-Order Simulator ***
Warmup Instructions: 50000000
Simulation Instructions: 600000000
Number of CPUs: 1
Page size: 4096

CPU 0 Tage branch predictor
Off-chip DRAM Size: 4 GiB Channels: 1 Width: 64-bit Data Race: 3200 MT/s
Heartbeat CPU 0 instructions: 10000001 cycles: 2500318 heartbeat IPC: 3.999 cumulative IPC: 3.999 (Simulation time: 00 hr 01 min 13 sec)
Heartbeat CPU 0 instructions: 20000002 cycles: 5037133 heartbeat IPC: 3.942 cumulative IPC: 3.971 (Simulation time: 00 hr 02 min 31 sec)
Heartbeat CPU 0 instructions: 30000002 cycles: 7537133 heartbeat IPC: 4 cumulative IPC: 3.98 (Simulation time: 00 hr 03 min 33 sec)
Heartbeat CPU 0 instructions: 40000002 cycles: 10037133 heartbeat IPC: 4 cumulative IPC: 3.985 (Simulation time: 00 hr 04 min 31 sec)
Heartbeat CPU 0 instructions: 50000002 cycles: 12537133 heartbeat IPC: 4 cumulative IPC: 3.988 (Simulation time: 00 hr 05 min 29 sec)
Warmup finished CPU 0 instructions: 50000002 cycles: 12537134 cumulative IPC: 3.988 (Simulation time: 00 hr 05 min 29 sec)
Warmup complete CPU 0 instructions: 50000002 cycles: 12537134 cumulative IPC: 3.988 (Simulation time: 00 hr 05 min 29 sec)
Heartbeat CPU 0 instructions: 60000001 cycles: 15512614 heartbeat IPC: 3.361 cumulative IPC: 3.361 (Simulation time: 00 hr 06 min 42 sec)
Heartbeat CPU 0 instructions: 70000004 cycles: 18584571 heartbeat IPC: 3.255 cumulative IPC: 3.307 (Simulation time: 00 hr 08 min 04 sec)
Heartbeat CPU 0 instructions: 80000001 cycles: 21634559 heartbeat IPC: 3.279 cumulative IPC: 3.298 (Simulation time: 00 hr 09 min 29 sec)
Heartbeat CPU 0 instructions: 90000001 cycles: 24582237 heartbeat IPC: 3.393 cumulative IPC: 3.321 (Simulation time: 00 hr 10 min 53 sec)
Heartbeat CPU 0 instructions: 100000000 cycles: 27495667 heartbeat IPC: 3.432 cumulative IPC: 3.343 (Simulation time: 00 hr 12 min 16 sec)
Heartbeat CPU 0 instructions: 110000000 cycles: 30439894 heartbeat IPC: 3.396 cumulative IPC: 3.351 (Simulation time: 00 hr 13 min 26 sec)
Heartbeat CPU 0 instructions: 120000001 cycles: 33414264 heartbeat IPC: 3.362 cumulative IPC: 3.353 (Simulation time: 00 hr 14 min 34 sec)
Heartbeat CPU 0 instructions: 130000001 cycles: 36273279 heartbeat IPC: 3.498 cumulative IPC: 3.37 (Simulation time: 00 hr 15 min 46 sec)
Heartbeat CPU 0 instructions: 140000001 cycles: 39319970 heartbeat IPC: 3.282 cumulative IPC: 3.36 (Simulation time: 00 hr 16 min 52 sec)
Heartbeat CPU 0 instructions: 150000001 cycles: 42331499 heartbeat IPC: 3.321 cumulative IPC: 3.356 (Simulation time: 00 hr 18 min 08 sec)
Heartbeat CPU 0 instructions: 160000004 cycles: 45341478 heartbeat IPC: 3.322 cumulative IPC: 3.353 (Simulation time: 00 hr 19 min 38 sec)
Heartbeat CPU 0 instructions: 170000000 cycles: 53492689 heartbeat IPC: 1.227 cumulative IPC: 2.93 (Simulation time: 00 hr 22 min 05 sec)
Heartbeat CPU 0 instructions: 180000004 cycles: 62044920 heartbeat IPC: 1.169 cumulative IPC: 2.626 (Simulation time: 00 hr 24 min 14 sec)
Heartbeat CPU 0 instructions: 190000001 cycles: 70257880 heartbeat IPC: 1.218 cumulative IPC: 2.425 (Simulation time: 00 hr 26 min 17 sec)
Heartbeat CPU 0 instructions: 200000004 cycles: 73224471 heartbeat IPC: 3.371 cumulative IPC: 2.472 (Simulation time: 00 hr 27 min 26 sec)
Heartbeat CPU 0 instructions: 210000001 cycles: 76188237 heartbeat IPC: 3.374 cumulative IPC: 2.514 (Simulation time: 00 hr 28 min 40 sec)
Heartbeat CPU 0 instructions: 220000000 cycles: 79081538 heartbeat IPC: 3.456 cumulative IPC: 2.555 (Simulation time: 00 hr 30 min 13 sec)
Heartbeat CPU 0 instructions: 230000002 cycles: 82104359 heartbeat IPC: 3.308 cumulative IPC: 2.587 (Simulation time: 00 hr 31 min 47 sec)
Heartbeat CPU 0 instructions: 240000003 cycles: 85141967 heartbeat IPC: 3.292 cumulative IPC: 2.617 (Simulation time: 00 hr 33 min 11 sec)
Heartbeat CPU 0 instructions: 250000000 cycles: 88169950 heartbeat IPC: 3.303 cumulative IPC: 2.644 (Simulation time: 00 hr 34 min 27 sec)
Heartbeat CPU 0 instructions: 260000002 cycles: 91143150 heartbeat IPC: 3.363 cumulative IPC: 2.672 (Simulation time: 00 hr 35 min 42 sec)
Heartbeat CPU 0 instructions: 270000002 cycles: 94054590 heartbeat IPC: 3.435 cumulative IPC: 2.699 (Simulation time: 00 hr 36 min 56 sec)
Heartbeat CPU 0 instructions: 280000002 cycles: 96945015 heartbeat IPC: 3.46 cumulative IPC: 2.725 (Simulation time: 00 hr 38 min 10 sec)
Heartbeat CPU 0 instructions: 290000002 cycles: 99905508 heartbeat IPC: 3.378 cumulative IPC: 2.747 (Simulation time: 00 hr 39 min 22 sec)
Heartbeat CPU 0 instructions: 300000003 cycles: 102807115 heartbeat IPC: 3.446 cumulative IPC: 2.769 (Simulation time: 00 hr 40 min 33 sec)
Heartbeat CPU 0 instructions: 310000001 cycles: 105849766 heartbeat IPC: 3.287 cumulative IPC: 2.786 (Simulation time: 00 hr 41 min 48 sec)
Heartbeat CPU 0 instructions: 320000003 cycles: 108861052 heartbeat IPC: 3.321 cumulative IPC: 2.803 (Simulation time: 00 hr 43 min 20 sec)
Heartbeat CPU 0 instructions: 330000003 cycles: 111849094 heartbeat IPC: 3.347 cumulative IPC: 2.819 (Simulation time: 00 hr 44 min 50 sec)
Heartbeat CPU 0 instructions: 340000000 cycles: 120282290 heartbeat IPC: 1.186 cumulative IPC: 2.692 (Simulation time: 00 hr 47 min 04 sec)
Heartbeat CPU 0 instructions: 350000000 cycles: 129123588 heartbeat IPC: 1.131 cumulative IPC: 2.573 (Simulation time: 00 hr 49 min 21 sec)
Heartbeat CPU 0 instructions: 360000004 cycles: 137449772 heartbeat IPC: 1.201 cumulative IPC: 2.482 (Simulation time: 00 hr 51 min 27 sec)
Heartbeat CPU 0 instructions: 370000000 cycles: 140420827 heartbeat IPC: 3.366 cumulative IPC: 2.502 (Simulation time: 00 hr 52 min 38 sec)
Heartbeat CPU 0 instructions: 380000003 cycles: 143342861 heartbeat IPC: 3.422 cumulative IPC: 2.523 (Simulation time: 00 hr 53 min 42 sec)
Heartbeat CPU 0 instructions: 390000002 cycles: 146324612 heartbeat IPC: 3.354 cumulative IPC: 2.541 (Simulation time: 00 hr 54 min 53 sec)
Heartbeat CPU 0 instructions: 400000004 cycles: 149228463 heartbeat IPC: 3.444 cumulative IPC: 2.561 (Simulation time: 00 hr 56 min 19 sec)
Heartbeat CPU 0 instructions: 410000002 cycles: 152171701 heartbeat IPC: 3.398 cumulative IPC: 2.578 (Simulation time: 00 hr 57 min 50 sec)
Heartbeat CPU 0 instructions: 420000003 cycles: 155279737 heartbeat IPC: 3.217 cumulative IPC: 2.592 (Simulation time: 00 hr 59 min 11 sec)
Heartbeat CPU 0 instructions: 430000001 cycles: 158291301 heartbeat IPC: 3.321 cumulative IPC: 2.607 (Simulation time: 01 hr 00 min 25 sec)
Heartbeat CPU 0 instructions: 440000004 cycles: 161424316 heartbeat IPC: 3.192 cumulative IPC: 2.619 (Simulation time: 01 hr 01 min 41 sec)
Heartbeat CPU 0 instructions: 450000002 cycles: 164351184 heartbeat IPC: 3.417 cumulative IPC: 2.635 (Simulation time: 01 hr 03 min 00 sec)
Heartbeat CPU 0 instructions: 460000000 cycles: 167285254 heartbeat IPC: 3.408 cumulative IPC: 2.649 (Simulation time: 01 hr 04 min 11 sec)
Heartbeat CPU 0 instructions: 470000001 cycles: 170141541 heartbeat IPC: 3.501 cumulative IPC: 2.665 (Simulation time: 01 hr 05 min 18 sec)
Heartbeat CPU 0 instructions: 480000003 cycles: 173190323 heartbeat IPC: 3.28 cumulative IPC: 2.677 (Simulation time: 01 hr 06 min 24 sec)
Heartbeat CPU 0 instructions: 490000004 cycles: 176019652 heartbeat IPC: 3.534 cumulative IPC: 2.691 (Simulation time: 01 hr 07 min 28 sec)
Heartbeat CPU 0 instructions: 500000004 cycles: 179005137 heartbeat IPC: 3.35 cumulative IPC: 2.703 (Simulation time: 01 hr 08 min 41 sec)
Heartbeat CPU 0 instructions: 510000003 cycles: 182018884 heartbeat IPC: 3.318 cumulative IPC: 2.714 (Simulation time: 01 hr 10 min 04 sec)
Heartbeat CPU 0 instructions: 520000001 cycles: 184906461 heartbeat IPC: 3.463 cumulative IPC: 2.727 (Simulation time: 01 hr 11 min 30 sec)
Heartbeat CPU 0 instructions: 530000001 cycles: 187915701 heartbeat IPC: 3.323 cumulative IPC: 2.737 (Simulation time: 01 hr 12 min 57 sec)
Heartbeat CPU 0 instructions: 540000000 cycles: 190877572 heartbeat IPC: 3.376 cumulative IPC: 2.748 (Simulation time: 01 hr 14 min 14 sec)
Heartbeat CPU 0 instructions: 550000001 cycles: 193863562 heartbeat IPC: 3.349 cumulative IPC: 2.757 (Simulation time: 01 hr 15 min 36 sec)
Heartbeat CPU 0 instructions: 560000000 cycles: 196944022 heartbeat IPC: 3.246 cumulative IPC: 2.766 (Simulation time: 01 hr 16 min 55 sec)
Heartbeat CPU 0 instructions: 570000004 cycles: 202524223 heartbeat IPC: 1.792 cumulative IPC: 2.737 (Simulation time: 01 hr 18 min 34 sec)
Heartbeat CPU 0 instructions: 580000003 cycles: 211907354 heartbeat IPC: 1.066 cumulative IPC: 2.658 (Simulation time: 01 hr 20 min 45 sec)
Heartbeat CPU 0 instructions: 590000002 cycles: 222657398 heartbeat IPC: 0.9302 cumulative IPC: 2.57 (Simulation time: 01 hr 23 min 40 sec)
Heartbeat CPU 0 instructions: 600000004 cycles: 225719690 heartbeat IPC: 3.266 cumulative IPC: 2.58 (Simulation time: 01 hr 25 min 01 sec)
Heartbeat CPU 0 instructions: 610000002 cycles: 228689357 heartbeat IPC: 3.367 cumulative IPC: 2.591 (Simulation time: 01 hr 26 min 17 sec)
Heartbeat CPU 0 instructions: 620000001 cycles: 231465808 heartbeat IPC: 3.602 cumulative IPC: 2.604 (Simulation time: 01 hr 27 min 33 sec)
Heartbeat CPU 0 instructions: 630000002 cycles: 234437604 heartbeat IPC: 3.365 cumulative IPC: 2.614 (Simulation time: 01 hr 28 min 52 sec)
Heartbeat CPU 0 instructions: 640000004 cycles: 237388805 heartbeat IPC: 3.388 cumulative IPC: 2.624 (Simulation time: 01 hr 30 min 13 sec)
Heartbeat CPU 0 instructions: 650000000 cycles: 240139291 heartbeat IPC: 3.636 cumulative IPC: 2.636 (Simulation time: 01 hr 31 min 19 sec)
Simulation finished CPU 0 instructions: 600000001 cycles: 227602159 cumulative IPC: 2.636 (Simulation time: 01 hr 31 min 19 sec)
Simulation complete CPU 0 instructions: 600000001 cycles: 227602159 cumulative IPC: 2.636 (Simulation time: 01 hr 31 min 19 sec)

ChampSim completed all CPUs

=== Simulation ===
CPU 0 runs traces/400.perlbench-41B.champsimtrace.xz
Region of Interest Statistics

CPU 0 cumulative IPC: 2.636 instructions: 600000001 cycles: 227602159
CPU 0 Branch Prediction Accuracy: 99.19% MPKI: 1.684 Average ROB Occupancy at Mispredict: 102.3
Branch type MPKI
BRANCH_DIRECT_JUMP: 0.0123
BRANCH_INDIRECT: 0.323
BRANCH_CONDITIONAL: 1.14
BRANCH_DIRECT_CALL: 0.0043
BRANCH_INDIRECT_CALL: 0.2
BRANCH_RETURN: 0.00828

LLC TOTAL        ACCESS:     539455 HIT:     265493 MISS:     273962
LLC LOAD         ACCESS:     402576 HIT:     155648 MISS:     246928
LLC RFO          ACCESS:      32334 HIT:      15803 MISS:      16531
LLC PREFETCH     ACCESS:          0 HIT:          0 MISS:          0
LLC WRITE        ACCESS:      85713 HIT:      85316 MISS:        397
LLC TRANSLATION  ACCESS:      18832 HIT:       8726 MISS:      10106
LLC PREFETCH REQUESTED:          0 ISSUED:          0 USEFUL:          0 USELESS:          0
LLC AVERAGE MISS LATENCY: 639 cycles
cpu0_DTLB TOTAL        ACCESS:  129759144 HIT:  129055470 MISS:     703674
cpu0_DTLB LOAD         ACCESS:  129759144 HIT:  129055470 MISS:     703674
cpu0_DTLB RFO          ACCESS:          0 HIT:          0 MISS:          0
cpu0_DTLB PREFETCH     ACCESS:          0 HIT:          0 MISS:          0
cpu0_DTLB WRITE        ACCESS:          0 HIT:          0 MISS:          0
cpu0_DTLB TRANSLATION  ACCESS:          0 HIT:          0 MISS:          0
cpu0_DTLB PREFETCH REQUESTED:          0 ISSUED:          0 USEFUL:          0 USELESS:          0
cpu0_DTLB AVERAGE MISS LATENCY: 15.77 cycles
cpu0_ITLB TOTAL        ACCESS:    4877074 HIT:    4814900 MISS:      62174
cpu0_ITLB LOAD         ACCESS:    4877074 HIT:    4814900 MISS:      62174
cpu0_ITLB RFO          ACCESS:          0 HIT:          0 MISS:          0
cpu0_ITLB PREFETCH     ACCESS:          0 HIT:          0 MISS:          0
cpu0_ITLB WRITE        ACCESS:          0 HIT:          0 MISS:          0
cpu0_ITLB TRANSLATION  ACCESS:          0 HIT:          0 MISS:          0
cpu0_ITLB PREFETCH REQUESTED:          0 ISSUED:          0 USEFUL:          0 USELESS:          0
cpu0_ITLB AVERAGE MISS LATENCY: 7.032 cycles
cpu0_L1D TOTAL        ACCESS:  174353047 HIT:  172923018 MISS:    1430029
cpu0_L1D LOAD         ACCESS:   91332742 HIT:   90227971 MISS:    1104771
cpu0_L1D RFO          ACCESS:          0 HIT:          0 MISS:          0
cpu0_L1D PREFETCH     ACCESS:          0 HIT:          0 MISS:          0
cpu0_L1D WRITE        ACCESS:   82995845 HIT:   82693445 MISS:     302400
cpu0_L1D TRANSLATION  ACCESS:      24460 HIT:       1602 MISS:      22858
cpu0_L1D PREFETCH REQUESTED:          0 ISSUED:          0 USEFUL:          0 USELESS:          0
cpu0_L1D AVERAGE MISS LATENCY: 119.7 cycles
cpu0_L1I TOTAL        ACCESS:    5655522 HIT:    4850479 MISS:     805043
cpu0_L1I LOAD         ACCESS:    5655522 HIT:    4850479 MISS:     805043
cpu0_L1I RFO          ACCESS:          0 HIT:          0 MISS:          0
cpu0_L1I PREFETCH     ACCESS:          0 HIT:          0 MISS:          0
cpu0_L1I WRITE        ACCESS:          0 HIT:          0 MISS:          0
cpu0_L1I TRANSLATION  ACCESS:          0 HIT:          0 MISS:          0
cpu0_L1I PREFETCH REQUESTED:          0 ISSUED:          0 USEFUL:          0 USELESS:          0
cpu0_L1I AVERAGE MISS LATENCY: 13.47 cycles
cpu0_L2C TOTAL        ACCESS:    1381503 HIT:     924089 MISS:     457414
cpu0_L2C LOAD         ACCESS:    1124027 HIT:     721450 MISS:     402577
cpu0_L2C RFO          ACCESS:      64485 HIT:      32151 MISS:      32334
cpu0_L2C PREFETCH     ACCESS:          0 HIT:          0 MISS:          0
cpu0_L2C WRITE        ACCESS:     170210 HIT:     166539 MISS:       3671
cpu0_L2C TRANSLATION  ACCESS:      22781 HIT:       3949 MISS:      18832
cpu0_L2C PREFETCH REQUESTED:          0 ISSUED:          0 USEFUL:          0 USELESS:          0
cpu0_L2C AVERAGE MISS LATENCY: 403.2 cycles
cpu0_STLB TOTAL        ACCESS:     508996 HIT:     486210 MISS:      22786
cpu0_STLB LOAD         ACCESS:     508996 HIT:     486210 MISS:      22786
cpu0_STLB RFO          ACCESS:          0 HIT:          0 MISS:          0
cpu0_STLB PREFETCH     ACCESS:          0 HIT:          0 MISS:          0
cpu0_STLB WRITE        ACCESS:          0 HIT:          0 MISS:          0
cpu0_STLB TRANSLATION  ACCESS:          0 HIT:          0 MISS:          0
cpu0_STLB PREFETCH REQUESTED:          0 ISSUED:          0 USEFUL:          0 USELESS:          0
cpu0_STLB AVERAGE MISS LATENCY: 384.3 cycles

DRAM Statistics

Channel 0 RQ ROW_BUFFER_HIT:      48554
  ROW_BUFFER_MISS:     224972
 AVG DBUS CONGESTED CYCLE: 3.845
WQ ROW_BUFFER_HIT: Channel 0 
  ROW_BUFFER_MISS:       4818
  FULL:      39409
