WARNING: physical memory size is smaller than virtual memory size.

*** ChampSim Multicore Out-of-Order Simulator ***
Warmup Instructions: 50000000
Simulation Instructions: 600000000
Number of CPUs: 1
Page size: 4096

Off-chip DRAM Size: 4 GiB Channels: 1 Width: 64-bit Data Race: 3200 MT/s
Heartbeat CPU 0 instructions: 10000001 cycles: 2500318 heartbeat IPC: 3.999 cumulative IPC: 3.999 (Simulation time: 00 hr 01 min 05 sec)
Heartbeat CPU 0 instructions: 20000002 cycles: 5037130 heartbeat IPC: 3.942 cumulative IPC: 3.971 (Simulation time: 00 hr 02 min 11 sec)
Heartbeat CPU 0 instructions: 30000002 cycles: 7537130 heartbeat IPC: 4 cumulative IPC: 3.98 (Simulation time: 00 hr 03 min 16 sec)
Heartbeat CPU 0 instructions: 40000002 cycles: 10037130 heartbeat IPC: 4 cumulative IPC: 3.985 (Simulation time: 00 hr 04 min 16 sec)
Heartbeat CPU 0 instructions: 50000002 cycles: 12537130 heartbeat IPC: 4 cumulative IPC: 3.988 (Simulation time: 00 hr 05 min 19 sec)
Warmup finished CPU 0 instructions: 50000002 cycles: 12537131 cumulative IPC: 3.988 (Simulation time: 00 hr 05 min 19 sec)
Warmup complete CPU 0 instructions: 50000002 cycles: 12537131 cumulative IPC: 3.988 (Simulation time: 00 hr 05 min 19 sec)
Heartbeat CPU 0 instructions: 60000000 cycles: 17724588 heartbeat IPC: 1.928 cumulative IPC: 1.928 (Simulation time: 00 hr 06 min 49 sec)
Heartbeat CPU 0 instructions: 70000002 cycles: 22632785 heartbeat IPC: 2.037 cumulative IPC: 1.981 (Simulation time: 00 hr 08 min 13 sec)
Heartbeat CPU 0 instructions: 80000001 cycles: 28014537 heartbeat IPC: 1.858 cumulative IPC: 1.938 (Simulation time: 00 hr 09 min 47 sec)
Heartbeat CPU 0 instructions: 90000001 cycles: 32910548 heartbeat IPC: 2.042 cumulative IPC: 1.963 (Simulation time: 00 hr 11 min 13 sec)
Heartbeat CPU 0 instructions: 100000000 cycles: 38035554 heartbeat IPC: 1.951 cumulative IPC: 1.961 (Simulation time: 00 hr 12 min 52 sec)
Heartbeat CPU 0 instructions: 110000000 cycles: 42937962 heartbeat IPC: 2.04 cumulative IPC: 1.974 (Simulation time: 00 hr 14 min 41 sec)
Heartbeat CPU 0 instructions: 120000001 cycles: 48144442 heartbeat IPC: 1.921 cumulative IPC: 1.966 (Simulation time: 00 hr 16 min 35 sec)
Heartbeat CPU 0 instructions: 130000001 cycles: 53316901 heartbeat IPC: 1.933 cumulative IPC: 1.962 (Simulation time: 00 hr 18 min 34 sec)
Heartbeat CPU 0 instructions: 140000001 cycles: 58649972 heartbeat IPC: 1.875 cumulative IPC: 1.952 (Simulation time: 00 hr 20 min 34 sec)
Heartbeat CPU 0 instructions: 150000001 cycles: 63985327 heartbeat IPC: 1.874 cumulative IPC: 1.944 (Simulation time: 00 hr 22 min 35 sec)
Heartbeat CPU 0 instructions: 160000004 cycles: 69206943 heartbeat IPC: 1.915 cumulative IPC: 1.941 (Simulation time: 00 hr 24 min 04 sec)
Heartbeat CPU 0 instructions: 170000000 cycles: 80212859 heartbeat IPC: 0.9086 cumulative IPC: 1.773 (Simulation time: 00 hr 25 min 36 sec)
Heartbeat CPU 0 instructions: 180000004 cycles: 91696848 heartbeat IPC: 0.8708 cumulative IPC: 1.642 (Simulation time: 00 hr 27 min 14 sec)
Heartbeat CPU 0 instructions: 190000001 cycles: 102975692 heartbeat IPC: 0.8866 cumulative IPC: 1.548 (Simulation time: 00 hr 28 min 48 sec)
Heartbeat CPU 0 instructions: 200000003 cycles: 107746487 heartbeat IPC: 2.096 cumulative IPC: 1.575 (Simulation time: 00 hr 29 min 43 sec)
Heartbeat CPU 0 instructions: 210000001 cycles: 112671090 heartbeat IPC: 2.031 cumulative IPC: 1.598 (Simulation time: 00 hr 30 min 40 sec)
Heartbeat CPU 0 instructions: 220000000 cycles: 117501654 heartbeat IPC: 2.07 cumulative IPC: 1.62 (Simulation time: 00 hr 31 min 39 sec)
Heartbeat CPU 0 instructions: 230000002 cycles: 122822378 heartbeat IPC: 1.879 cumulative IPC: 1.632 (Simulation time: 00 hr 32 min 41 sec)
Heartbeat CPU 0 instructions: 240000000 cycles: 127668191 heartbeat IPC: 2.064 cumulative IPC: 1.65 (Simulation time: 00 hr 33 min 41 sec)
Heartbeat CPU 0 instructions: 250000000 cycles: 132817351 heartbeat IPC: 1.942 cumulative IPC: 1.663 (Simulation time: 00 hr 34 min 39 sec)
Heartbeat CPU 0 instructions: 260000000 cycles: 137848603 heartbeat IPC: 1.988 cumulative IPC: 1.676 (Simulation time: 00 hr 35 min 34 sec)
Heartbeat CPU 0 instructions: 270000002 cycles: 142738136 heartbeat IPC: 2.045 cumulative IPC: 1.69 (Simulation time: 00 hr 36 min 30 sec)
Heartbeat CPU 0 instructions: 280000002 cycles: 147649397 heartbeat IPC: 2.036 cumulative IPC: 1.702 (Simulation time: 00 hr 37 min 27 sec)
Heartbeat CPU 0 instructions: 290000001 cycles: 153022758 heartbeat IPC: 1.861 cumulative IPC: 1.708 (Simulation time: 00 hr 38 min 24 sec)
Heartbeat CPU 0 instructions: 300000003 cycles: 158084365 heartbeat IPC: 1.976 cumulative IPC: 1.718 (Simulation time: 00 hr 39 min 20 sec)
Heartbeat CPU 0 instructions: 310000001 cycles: 163373492 heartbeat IPC: 1.891 cumulative IPC: 1.724 (Simulation time: 00 hr 40 min 15 sec)
Heartbeat CPU 0 instructions: 320000003 cycles: 168576089 heartbeat IPC: 1.922 cumulative IPC: 1.73 (Simulation time: 00 hr 41 min 16 sec)
Heartbeat CPU 0 instructions: 330000003 cycles: 173859076 heartbeat IPC: 1.893 cumulative IPC: 1.736 (Simulation time: 00 hr 42 min 15 sec)
Heartbeat CPU 0 instructions: 340000000 cycles: 184428332 heartbeat IPC: 0.9461 cumulative IPC: 1.687 (Simulation time: 00 hr 43 min 45 sec)
Heartbeat CPU 0 instructions: 350000000 cycles: 196624160 heartbeat IPC: 0.82 cumulative IPC: 1.63 (Simulation time: 00 hr 45 min 32 sec)
Heartbeat CPU 0 instructions: 360000004 cycles: 207796337 heartbeat IPC: 0.8951 cumulative IPC: 1.588 (Simulation time: 00 hr 47 min 06 sec)
Heartbeat CPU 0 instructions: 370000000 cycles: 212213284 heartbeat IPC: 2.264 cumulative IPC: 1.603 (Simulation time: 00 hr 48 min 00 sec)
Heartbeat CPU 0 instructions: 380000001 cycles: 217135499 heartbeat IPC: 2.032 cumulative IPC: 1.613 (Simulation time: 00 hr 49 min 00 sec)
Heartbeat CPU 0 instructions: 390000002 cycles: 221959111 heartbeat IPC: 2.073 cumulative IPC: 1.624 (Simulation time: 00 hr 49 min 57 sec)
Heartbeat CPU 0 instructions: 400000004 cycles: 226890823 heartbeat IPC: 2.028 cumulative IPC: 1.633 (Simulation time: 00 hr 50 min 54 sec)
Heartbeat CPU 0 instructions: 410000000 cycles: 231612648 heartbeat IPC: 2.118 cumulative IPC: 1.643 (Simulation time: 00 hr 51 min 51 sec)
Heartbeat CPU 0 instructions: 420000000 cycles: 236776792 heartbeat IPC: 1.936 cumulative IPC: 1.65 (Simulation time: 00 hr 52 min 50 sec)
Heartbeat CPU 0 instructions: 430000001 cycles: 241251783 heartbeat IPC: 2.235 cumulative IPC: 1.661 (Simulation time: 00 hr 53 min 45 sec)
Heartbeat CPU 0 instructions: 440000000 cycles: 246603774 heartbeat IPC: 1.868 cumulative IPC: 1.666 (Simulation time: 00 hr 54 min 44 sec)
Heartbeat CPU 0 instructions: 450000002 cycles: 251270156 heartbeat IPC: 2.143 cumulative IPC: 1.676 (Simulation time: 00 hr 55 min 41 sec)
Heartbeat CPU 0 instructions: 460000000 cycles: 256063662 heartbeat IPC: 2.086 cumulative IPC: 1.684 (Simulation time: 00 hr 56 min 38 sec)
Heartbeat CPU 0 instructions: 470000000 cycles: 261043568 heartbeat IPC: 2.008 cumulative IPC: 1.69 (Simulation time: 00 hr 57 min 35 sec)
Heartbeat CPU 0 instructions: 480000003 cycles: 265856588 heartbeat IPC: 2.078 cumulative IPC: 1.697 (Simulation time: 00 hr 58 min 30 sec)
Heartbeat CPU 0 instructions: 490000000 cycles: 270466511 heartbeat IPC: 2.169 cumulative IPC: 1.706 (Simulation time: 00 hr 59 min 28 sec)
Heartbeat CPU 0 instructions: 500000000 cycles: 275491009 heartbeat IPC: 1.99 cumulative IPC: 1.711 (Simulation time: 01 hr 00 min 29 sec)
Heartbeat CPU 0 instructions: 510000003 cycles: 281170254 heartbeat IPC: 1.761 cumulative IPC: 1.712 (Simulation time: 01 hr 01 min 30 sec)
Heartbeat CPU 0 instructions: 520000001 cycles: 285863700 heartbeat IPC: 2.131 cumulative IPC: 1.72 (Simulation time: 01 hr 02 min 25 sec)
Heartbeat CPU 0 instructions: 530000002 cycles: 291029305 heartbeat IPC: 1.936 cumulative IPC: 1.724 (Simulation time: 01 hr 03 min 22 sec)
Heartbeat CPU 0 instructions: 540000000 cycles: 296143264 heartbeat IPC: 1.955 cumulative IPC: 1.728 (Simulation time: 01 hr 04 min 19 sec)
Heartbeat CPU 0 instructions: 550000001 cycles: 300944201 heartbeat IPC: 2.083 cumulative IPC: 1.734 (Simulation time: 01 hr 05 min 14 sec)
Heartbeat CPU 0 instructions: 560000000 cycles: 306220640 heartbeat IPC: 1.895 cumulative IPC: 1.737 (Simulation time: 01 hr 06 min 10 sec)
Heartbeat CPU 0 instructions: 570000004 cycles: 313311745 heartbeat IPC: 1.41 cumulative IPC: 1.729 (Simulation time: 01 hr 07 min 19 sec)
Heartbeat CPU 0 instructions: 580000003 cycles: 325720832 heartbeat IPC: 0.8059 cumulative IPC: 1.692 (Simulation time: 01 hr 09 min 03 sec)
Heartbeat CPU 0 instructions: 590000002 cycles: 339847317 heartbeat IPC: 0.7079 cumulative IPC: 1.65 (Simulation time: 01 hr 10 min 59 sec)
Heartbeat CPU 0 instructions: 600000000 cycles: 344431261 heartbeat IPC: 2.182 cumulative IPC: 1.657 (Simulation time: 01 hr 11 min 48 sec)
Heartbeat CPU 0 instructions: 610000002 cycles: 348921895 heartbeat IPC: 2.227 cumulative IPC: 1.665 (Simulation time: 01 hr 12 min 37 sec)
Heartbeat CPU 0 instructions: 620000000 cycles: 353724469 heartbeat IPC: 2.082 cumulative IPC: 1.671 (Simulation time: 01 hr 13 min 23 sec)
Heartbeat CPU 0 instructions: 630000002 cycles: 358804243 heartbeat IPC: 1.969 cumulative IPC: 1.675 (Simulation time: 01 hr 14 min 03 sec)
Heartbeat CPU 0 instructions: 640000001 cycles: 363652390 heartbeat IPC: 2.063 cumulative IPC: 1.68 (Simulation time: 01 hr 14 min 37 sec)
Heartbeat CPU 0 instructions: 650000000 cycles: 368205732 heartbeat IPC: 2.196 cumulative IPC: 1.687 (Simulation time: 01 hr 15 min 02 sec)
Simulation finished CPU 0 instructions: 600000001 cycles: 355668603 cumulative IPC: 1.687 (Simulation time: 01 hr 15 min 02 sec)
Simulation complete CPU 0 instructions: 600000001 cycles: 355668603 cumulative IPC: 1.687 (Simulation time: 01 hr 15 min 02 sec)

ChampSim completed all CPUs

=== Simulation ===
CPU 0 runs traces/400.perlbench-41B.champsimtrace.xz
Region of Interest Statistics

CPU 0 cumulative IPC: 1.687 instructions: 600000001 cycles: 355668603
CPU 0 Branch Prediction Accuracy: 93.95% MPKI: 12.5 Average ROB Occupancy at Mispredict: 29.64
Branch type MPKI
BRANCH_DIRECT_JUMP: 0.0123
BRANCH_INDIRECT: 0.323
BRANCH_CONDITIONAL: 12
BRANCH_DIRECT_CALL: 0.0043
BRANCH_INDIRECT_CALL: 0.2
BRANCH_RETURN: 0.00828

LLC TOTAL        ACCESS:     540204 HIT:     253666 MISS:     286538
LLC LOAD         ACCESS:     402519 HIT:     153705 MISS:     248814
LLC RFO          ACCESS:      32424 HIT:      16381 MISS:      16043
LLC PREFETCH     ACCESS:          0 HIT:          0 MISS:          0
LLC WRITE        ACCESS:      86325 HIT:      74715 MISS:      11610
LLC TRANSLATION  ACCESS:      18936 HIT:       8865 MISS:      10071
LLC PREFETCH REQUESTED:          0 ISSUED:          0 USEFUL:          0 USELESS:          0
LLC AVERAGE MISS LATENCY: 530.6 cycles
cpu0_DTLB TOTAL        ACCESS:  153673036 HIT:  152995006 MISS:     678030
cpu0_DTLB LOAD         ACCESS:  153673036 HIT:  152995006 MISS:     678030
cpu0_DTLB RFO          ACCESS:          0 HIT:          0 MISS:          0
cpu0_DTLB PREFETCH     ACCESS:          0 HIT:          0 MISS:          0
cpu0_DTLB WRITE        ACCESS:          0 HIT:          0 MISS:          0
cpu0_DTLB TRANSLATION  ACCESS:          0 HIT:          0 MISS:          0
cpu0_DTLB PREFETCH REQUESTED:          0 ISSUED:          0 USEFUL:          0 USELESS:          0
cpu0_DTLB AVERAGE MISS LATENCY: 15.69 cycles
cpu0_ITLB TOTAL        ACCESS:    4835419 HIT:    4777554 MISS:      57865
cpu0_ITLB LOAD         ACCESS:    4835419 HIT:    4777554 MISS:      57865
cpu0_ITLB RFO          ACCESS:          0 HIT:          0 MISS:          0
cpu0_ITLB PREFETCH     ACCESS:          0 HIT:          0 MISS:          0
cpu0_ITLB WRITE        ACCESS:          0 HIT:          0 MISS:          0
cpu0_ITLB TRANSLATION  ACCESS:          0 HIT:          0 MISS:          0
cpu0_ITLB PREFETCH REQUESTED:          0 ISSUED:          0 USEFUL:          0 USELESS:          0
cpu0_ITLB AVERAGE MISS LATENCY: 7.308 cycles
cpu0_L1D TOTAL        ACCESS:  200287662 HIT:  198923174 MISS:    1364488
cpu0_L1D LOAD         ACCESS:  117043537 HIT:  115994424 MISS:    1049113
cpu0_L1D RFO          ACCESS:          0 HIT:          0 MISS:          0
cpu0_L1D PREFETCH     ACCESS:          0 HIT:          0 MISS:          0
cpu0_L1D WRITE        ACCESS:   83219666 HIT:   82927178 MISS:     292488
cpu0_L1D TRANSLATION  ACCESS:      24459 HIT:       1572 MISS:      22887
cpu0_L1D PREFETCH REQUESTED:          0 ISSUED:          0 USEFUL:          0 USELESS:          0
cpu0_L1D AVERAGE MISS LATENCY: 115.7 cycles
cpu0_L1I TOTAL        ACCESS:    5577867 HIT:    4816451 MISS:     761416
cpu0_L1I LOAD         ACCESS:    5577867 HIT:    4816451 MISS:     761416
cpu0_L1I RFO          ACCESS:          0 HIT:          0 MISS:          0
cpu0_L1I PREFETCH     ACCESS:          0 HIT:          0 MISS:          0
cpu0_L1I WRITE        ACCESS:          0 HIT:          0 MISS:          0
cpu0_L1I TRANSLATION  ACCESS:          0 HIT:          0 MISS:          0
cpu0_L1I PREFETCH REQUESTED:          0 ISSUED:          0 USEFUL:          0 USELESS:          0
cpu0_L1I AVERAGE MISS LATENCY: 14.1 cycles
cpu0_L2C TOTAL        ACCESS:    1382394 HIT:     924859 MISS:     457535
cpu0_L2C LOAD         ACCESS:    1125660 HIT:     723141 MISS:     402519
cpu0_L2C RFO          ACCESS:      63882 HIT:      31458 MISS:      32424
cpu0_L2C PREFETCH     ACCESS:          0 HIT:          0 MISS:          0
cpu0_L2C WRITE        ACCESS:     170042 HIT:     166386 MISS:       3656
cpu0_L2C TRANSLATION  ACCESS:      22810 HIT:       3874 MISS:      18936
cpu0_L2C PREFETCH REQUESTED:          0 ISSUED:          0 USEFUL:          0 USELESS:          0
cpu0_L2C AVERAGE MISS LATENCY: 352.8 cycles
cpu0_STLB TOTAL        ACCESS:     505178 HIT:     482388 MISS:      22790
cpu0_STLB LOAD         ACCESS:     505178 HIT:     482388 MISS:      22790
cpu0_STLB RFO          ACCESS:          0 HIT:          0 MISS:          0
cpu0_STLB PREFETCH     ACCESS:          0 HIT:          0 MISS:          0
cpu0_STLB WRITE        ACCESS:          0 HIT:          0 MISS:          0
cpu0_STLB TRANSLATION  ACCESS:          0 HIT:          0 MISS:          0
cpu0_STLB PREFETCH REQUESTED:          0 ISSUED:          0 USEFUL:          0 USELESS:          0
cpu0_STLB AVERAGE MISS LATENCY: 345.9 cycles

DRAM Statistics

Channel 0 RQ ROW_BUFFER_HIT:      45474
  ROW_BUFFER_MISS:     229400
 AVG DBUS CONGESTED CYCLE: 3.794
WQ ROW_BUFFER_HIT: Channel 0 
  ROW_BUFFER_MISS:       8720
  FULL:      30979
