WARNING: physical memory size is smaller than virtual memory size.

*** ChampSim Multicore Out-of-Order Simulator ***
Warmup Instructions: 50000000
Simulation Instructions: 600000000
Number of CPUs: 1
Page size: 4096

Off-chip DRAM Size: 4 GiB Channels: 1 Width: 64-bit Data Race: 3200 MT/s
Heartbeat CPU 0 instructions: 10000001 cycles: 2500318 heartbeat IPC: 3.999 cumulative IPC: 3.999 (Simulation time: 00 hr 00 min 51 sec)
Heartbeat CPU 0 instructions: 20000002 cycles: 5037110 heartbeat IPC: 3.942 cumulative IPC: 3.971 (Simulation time: 00 hr 01 min 44 sec)
Heartbeat CPU 0 instructions: 30000002 cycles: 7537110 heartbeat IPC: 4 cumulative IPC: 3.98 (Simulation time: 00 hr 02 min 30 sec)
Heartbeat CPU 0 instructions: 40000002 cycles: 10037110 heartbeat IPC: 4 cumulative IPC: 3.985 (Simulation time: 00 hr 03 min 19 sec)
Heartbeat CPU 0 instructions: 50000002 cycles: 12537110 heartbeat IPC: 4 cumulative IPC: 3.988 (Simulation time: 00 hr 04 min 13 sec)
Warmup finished CPU 0 instructions: 50000002 cycles: 12537111 cumulative IPC: 3.988 (Simulation time: 00 hr 04 min 13 sec)
Warmup complete CPU 0 instructions: 50000002 cycles: 12537111 cumulative IPC: 3.988 (Simulation time: 00 hr 04 min 13 sec)
Heartbeat CPU 0 instructions: 60000000 cycles: 17695066 heartbeat IPC: 1.939 cumulative IPC: 1.939 (Simulation time: 00 hr 05 min 24 sec)
Heartbeat CPU 0 instructions: 70000002 cycles: 22585483 heartbeat IPC: 2.045 cumulative IPC: 1.99 (Simulation time: 00 hr 06 min 30 sec)
Heartbeat CPU 0 instructions: 80000001 cycles: 27948009 heartbeat IPC: 1.865 cumulative IPC: 1.947 (Simulation time: 00 hr 07 min 36 sec)
Heartbeat CPU 0 instructions: 90000001 cycles: 32824020 heartbeat IPC: 2.051 cumulative IPC: 1.972 (Simulation time: 00 hr 08 min 37 sec)
Heartbeat CPU 0 instructions: 100000000 cycles: 37930353 heartbeat IPC: 1.958 cumulative IPC: 1.969 (Simulation time: 00 hr 09 min 38 sec)
Heartbeat CPU 0 instructions: 110000000 cycles: 42815654 heartbeat IPC: 2.047 cumulative IPC: 1.982 (Simulation time: 00 hr 10 min 37 sec)
Heartbeat CPU 0 instructions: 120000001 cycles: 48002555 heartbeat IPC: 1.928 cumulative IPC: 1.974 (Simulation time: 00 hr 11 min 37 sec)
Heartbeat CPU 0 instructions: 130000001 cycles: 53149825 heartbeat IPC: 1.943 cumulative IPC: 1.97 (Simulation time: 00 hr 12 min 39 sec)
Heartbeat CPU 0 instructions: 140000001 cycles: 58454023 heartbeat IPC: 1.885 cumulative IPC: 1.96 (Simulation time: 00 hr 13 min 39 sec)
Heartbeat CPU 0 instructions: 150000001 cycles: 63769391 heartbeat IPC: 1.881 cumulative IPC: 1.952 (Simulation time: 00 hr 14 min 41 sec)
Heartbeat CPU 0 instructions: 160000004 cycles: 68963726 heartbeat IPC: 1.925 cumulative IPC: 1.949 (Simulation time: 00 hr 15 min 41 sec)
Heartbeat CPU 0 instructions: 170000000 cycles: 78495270 heartbeat IPC: 1.049 cumulative IPC: 1.819 (Simulation time: 00 hr 17 min 13 sec)
Heartbeat CPU 0 instructions: 180000004 cycles: 88347781 heartbeat IPC: 1.015 cumulative IPC: 1.715 (Simulation time: 00 hr 18 min 49 sec)
Heartbeat CPU 0 instructions: 190000001 cycles: 98158891 heartbeat IPC: 1.019 cumulative IPC: 1.635 (Simulation time: 00 hr 20 min 24 sec)
Heartbeat CPU 0 instructions: 200000003 cycles: 102866581 heartbeat IPC: 2.124 cumulative IPC: 1.661 (Simulation time: 00 hr 21 min 22 sec)
Heartbeat CPU 0 instructions: 210000001 cycles: 107745785 heartbeat IPC: 2.05 cumulative IPC: 1.681 (Simulation time: 00 hr 22 min 20 sec)
Heartbeat CPU 0 instructions: 220000000 cycles: 112551599 heartbeat IPC: 2.081 cumulative IPC: 1.7 (Simulation time: 00 hr 23 min 19 sec)
Heartbeat CPU 0 instructions: 230000002 cycles: 117770510 heartbeat IPC: 1.916 cumulative IPC: 1.71 (Simulation time: 00 hr 24 min 19 sec)
Heartbeat CPU 0 instructions: 240000000 cycles: 122558243 heartbeat IPC: 2.089 cumulative IPC: 1.727 (Simulation time: 00 hr 25 min 18 sec)
Heartbeat CPU 0 instructions: 250000000 cycles: 127632514 heartbeat IPC: 1.971 cumulative IPC: 1.738 (Simulation time: 00 hr 26 min 18 sec)
Heartbeat CPU 0 instructions: 260000000 cycles: 132575828 heartbeat IPC: 2.023 cumulative IPC: 1.749 (Simulation time: 00 hr 27 min 18 sec)
Heartbeat CPU 0 instructions: 270000002 cycles: 137391071 heartbeat IPC: 2.077 cumulative IPC: 1.762 (Simulation time: 00 hr 28 min 17 sec)
Heartbeat CPU 0 instructions: 280000002 cycles: 142230130 heartbeat IPC: 2.067 cumulative IPC: 1.773 (Simulation time: 00 hr 29 min 15 sec)
Heartbeat CPU 0 instructions: 290000001 cycles: 147531935 heartbeat IPC: 1.886 cumulative IPC: 1.778 (Simulation time: 00 hr 30 min 17 sec)
Heartbeat CPU 0 instructions: 300000003 cycles: 152499534 heartbeat IPC: 2.013 cumulative IPC: 1.786 (Simulation time: 00 hr 31 min 18 sec)
Heartbeat CPU 0 instructions: 310000001 cycles: 157671727 heartbeat IPC: 1.933 cumulative IPC: 1.791 (Simulation time: 00 hr 32 min 18 sec)
Heartbeat CPU 0 instructions: 320000003 cycles: 162792721 heartbeat IPC: 1.953 cumulative IPC: 1.797 (Simulation time: 00 hr 33 min 18 sec)
Heartbeat CPU 0 instructions: 330000003 cycles: 167956719 heartbeat IPC: 1.936 cumulative IPC: 1.802 (Simulation time: 00 hr 34 min 19 sec)
Heartbeat CPU 0 instructions: 340000000 cycles: 176539272 heartbeat IPC: 1.165 cumulative IPC: 1.768 (Simulation time: 00 hr 35 min 45 sec)
Heartbeat CPU 0 instructions: 350000000 cycles: 186429326 heartbeat IPC: 1.011 cumulative IPC: 1.725 (Simulation time: 00 hr 37 min 21 sec)
Heartbeat CPU 0 instructions: 360000004 cycles: 195455416 heartbeat IPC: 1.108 cumulative IPC: 1.695 (Simulation time: 00 hr 38 min 51 sec)
Heartbeat CPU 0 instructions: 370000000 cycles: 199782362 heartbeat IPC: 2.311 cumulative IPC: 1.709 (Simulation time: 00 hr 39 min 47 sec)
Heartbeat CPU 0 instructions: 380000001 cycles: 204626069 heartbeat IPC: 2.065 cumulative IPC: 1.718 (Simulation time: 00 hr 40 min 47 sec)
Heartbeat CPU 0 instructions: 390000002 cycles: 209401709 heartbeat IPC: 2.094 cumulative IPC: 1.727 (Simulation time: 00 hr 41 min 46 sec)
Heartbeat CPU 0 instructions: 400000004 cycles: 214310628 heartbeat IPC: 2.037 cumulative IPC: 1.735 (Simulation time: 00 hr 42 min 46 sec)
Heartbeat CPU 0 instructions: 410000000 cycles: 218967605 heartbeat IPC: 2.147 cumulative IPC: 1.744 (Simulation time: 00 hr 43 min 43 sec)
Heartbeat CPU 0 instructions: 420000000 cycles: 223983600 heartbeat IPC: 1.994 cumulative IPC: 1.75 (Simulation time: 00 hr 44 min 43 sec)
Heartbeat CPU 0 instructions: 430000001 cycles: 228396322 heartbeat IPC: 2.266 cumulative IPC: 1.76 (Simulation time: 00 hr 45 min 41 sec)
Heartbeat CPU 0 instructions: 440000000 cycles: 233674477 heartbeat IPC: 1.895 cumulative IPC: 1.764 (Simulation time: 00 hr 46 min 43 sec)
Heartbeat CPU 0 instructions: 450000002 cycles: 238276332 heartbeat IPC: 2.173 cumulative IPC: 1.772 (Simulation time: 00 hr 47 min 41 sec)
Heartbeat CPU 0 instructions: 460000000 cycles: 243010845 heartbeat IPC: 2.112 cumulative IPC: 1.779 (Simulation time: 00 hr 48 min 39 sec)
Heartbeat CPU 0 instructions: 470000000 cycles: 247924109 heartbeat IPC: 2.035 cumulative IPC: 1.784 (Simulation time: 00 hr 49 min 39 sec)
Heartbeat CPU 0 instructions: 480000003 cycles: 252644925 heartbeat IPC: 2.118 cumulative IPC: 1.791 (Simulation time: 00 hr 50 min 37 sec)
Heartbeat CPU 0 instructions: 490000000 cycles: 257213602 heartbeat IPC: 2.189 cumulative IPC: 1.798 (Simulation time: 00 hr 51 min 34 sec)
Heartbeat CPU 0 instructions: 500000000 cycles: 262189076 heartbeat IPC: 2.01 cumulative IPC: 1.803 (Simulation time: 00 hr 52 min 34 sec)
Heartbeat CPU 0 instructions: 510000003 cycles: 267748886 heartbeat IPC: 1.799 cumulative IPC: 1.802 (Simulation time: 00 hr 53 min 38 sec)
Heartbeat CPU 0 instructions: 520000001 cycles: 272361448 heartbeat IPC: 2.168 cumulative IPC: 1.809 (Simulation time: 00 hr 54 min 36 sec)
Heartbeat CPU 0 instructions: 530000002 cycles: 277418333 heartbeat IPC: 1.978 cumulative IPC: 1.812 (Simulation time: 00 hr 55 min 35 sec)
Heartbeat CPU 0 instructions: 540000000 cycles: 282450771 heartbeat IPC: 1.987 cumulative IPC: 1.815 (Simulation time: 00 hr 56 min 36 sec)
Heartbeat CPU 0 instructions: 550000001 cycles: 287191325 heartbeat IPC: 2.109 cumulative IPC: 1.82 (Simulation time: 00 hr 57 min 34 sec)
Heartbeat CPU 0 instructions: 560000000 cycles: 292290133 heartbeat IPC: 1.961 cumulative IPC: 1.823 (Simulation time: 00 hr 58 min 34 sec)
Heartbeat CPU 0 instructions: 570000004 cycles: 298657443 heartbeat IPC: 1.571 cumulative IPC: 1.817 (Simulation time: 00 hr 59 min 42 sec)
Heartbeat CPU 0 instructions: 580000003 cycles: 308710871 heartbeat IPC: 0.9947 cumulative IPC: 1.789 (Simulation time: 01 hr 01 min 17 sec)
Heartbeat CPU 0 instructions: 590000002 cycles: 319941773 heartbeat IPC: 0.8904 cumulative IPC: 1.757 (Simulation time: 01 hr 02 min 53 sec)
Heartbeat CPU 0 instructions: 600000000 cycles: 324417044 heartbeat IPC: 2.235 cumulative IPC: 1.763 (Simulation time: 01 hr 03 min 43 sec)
Heartbeat CPU 0 instructions: 610000002 cycles: 328833995 heartbeat IPC: 2.264 cumulative IPC: 1.77 (Simulation time: 01 hr 04 min 30 sec)
Heartbeat CPU 0 instructions: 620000000 cycles: 333599389 heartbeat IPC: 2.098 cumulative IPC: 1.775 (Simulation time: 01 hr 05 min 16 sec)
Heartbeat CPU 0 instructions: 630000002 cycles: 338619741 heartbeat IPC: 1.992 cumulative IPC: 1.779 (Simulation time: 01 hr 05 min 59 sec)
Heartbeat CPU 0 instructions: 640000001 cycles: 343449880 heartbeat IPC: 2.07 cumulative IPC: 1.783 (Simulation time: 01 hr 06 min 34 sec)
Heartbeat CPU 0 instructions: 650000000 cycles: 347984673 heartbeat IPC: 2.205 cumulative IPC: 1.789 (Simulation time: 01 hr 07 min 05 sec)
Simulation finished CPU 0 instructions: 600000001 cycles: 335447564 cumulative IPC: 1.789 (Simulation time: 01 hr 07 min 05 sec)
Simulation complete CPU 0 instructions: 600000001 cycles: 335447564 cumulative IPC: 1.789 (Simulation time: 01 hr 07 min 05 sec)

ChampSim completed all CPUs

=== Simulation ===
CPU 0 runs traces/400.perlbench-41B.champsimtrace.xz
Region of Interest Statistics

CPU 0 cumulative IPC: 1.789 instructions: 600000001 cycles: 335447564
CPU 0 Branch Prediction Accuracy: 93.95% MPKI: 12.5 Average ROB Occupancy at Mispredict: 29.58
Branch type MPKI
BRANCH_DIRECT_JUMP: 0.0123
BRANCH_INDIRECT: 0.323
BRANCH_CONDITIONAL: 12
BRANCH_DIRECT_CALL: 0.0043
BRANCH_INDIRECT_CALL: 0.2
BRANCH_RETURN: 0.00828

LLC TOTAL        ACCESS:     594815 HIT:     399318 MISS:     195497
LLC LOAD         ACCESS:     403197 HIT:     251386 MISS:     151811
LLC RFO          ACCESS:      32569 HIT:      21536 MISS:      11033
LLC PREFETCH     ACCESS:      54440 HIT:      34824 MISS:      19616
LLC WRITE        ACCESS:      85604 HIT:      81049 MISS:       4555
LLC TRANSLATION  ACCESS:      19005 HIT:      10523 MISS:       8482
LLC PREFETCH REQUESTED:      54440 ISSUED:      54440 USEFUL:      12839 USELESS:       3318
LLC AVERAGE MISS LATENCY: 521 cycles
cpu0_DTLB TOTAL        ACCESS:  153685863 HIT:  153008692 MISS:     677171
cpu0_DTLB LOAD         ACCESS:  153685863 HIT:  153008692 MISS:     677171
cpu0_DTLB RFO          ACCESS:          0 HIT:          0 MISS:          0
cpu0_DTLB PREFETCH     ACCESS:          0 HIT:          0 MISS:          0
cpu0_DTLB WRITE        ACCESS:          0 HIT:          0 MISS:          0
cpu0_DTLB TRANSLATION  ACCESS:          0 HIT:          0 MISS:          0
cpu0_DTLB PREFETCH REQUESTED:          0 ISSUED:          0 USEFUL:          0 USELESS:          0
cpu0_DTLB AVERAGE MISS LATENCY: 13.36 cycles
cpu0_ITLB TOTAL        ACCESS:    4837206 HIT:    4779360 MISS:      57846
cpu0_ITLB LOAD         ACCESS:    4837206 HIT:    4779360 MISS:      57846
cpu0_ITLB RFO          ACCESS:          0 HIT:          0 MISS:          0
cpu0_ITLB PREFETCH     ACCESS:          0 HIT:          0 MISS:          0
cpu0_ITLB WRITE        ACCESS:          0 HIT:          0 MISS:          0
cpu0_ITLB TRANSLATION  ACCESS:          0 HIT:          0 MISS:          0
cpu0_ITLB PREFETCH REQUESTED:          0 ISSUED:          0 USEFUL:          0 USELESS:          0
cpu0_ITLB AVERAGE MISS LATENCY: 6.439 cycles
cpu0_L1D TOTAL        ACCESS:  200299143 HIT:  198577134 MISS:    1722009
cpu0_L1D LOAD         ACCESS:  117056521 HIT:  115714644 MISS:    1341877
cpu0_L1D RFO          ACCESS:          0 HIT:          0 MISS:          0
cpu0_L1D PREFETCH     ACCESS:          0 HIT:          0 MISS:          0
cpu0_L1D WRITE        ACCESS:   83218158 HIT:   82861451 MISS:     356707
cpu0_L1D TRANSLATION  ACCESS:      24464 HIT:       1039 MISS:      23425
cpu0_L1D PREFETCH REQUESTED:          0 ISSUED:          0 USEFUL:          0 USELESS:          0
cpu0_L1D AVERAGE MISS LATENCY: 59.49 cycles
cpu0_L1I TOTAL        ACCESS:    5579674 HIT:    4818158 MISS:     761516
cpu0_L1I LOAD         ACCESS:    5579674 HIT:    4818158 MISS:     761516
cpu0_L1I RFO          ACCESS:          0 HIT:          0 MISS:          0
cpu0_L1I PREFETCH     ACCESS:          0 HIT:          0 MISS:          0
cpu0_L1I WRITE        ACCESS:          0 HIT:          0 MISS:          0
cpu0_L1I TRANSLATION  ACCESS:          0 HIT:          0 MISS:          0
cpu0_L1I PREFETCH REQUESTED:          0 ISSUED:          0 USEFUL:          0 USELESS:          0
cpu0_L1I AVERAGE MISS LATENCY: 10.91 cycles
cpu0_L2C TOTAL        ACCESS:    1668009 HIT:    1211453 MISS:     456556
cpu0_L2C LOAD         ACCESS:    1317114 HIT:     913917 MISS:     403197
cpu0_L2C RFO          ACCESS:      88617 HIT:      56048 MISS:      32569
cpu0_L2C PREFETCH     ACCESS:          0 HIT:          0 MISS:          0
cpu0_L2C WRITE        ACCESS:     238936 HIT:     237151 MISS:       1785
cpu0_L2C TRANSLATION  ACCESS:      23342 HIT:       4337 MISS:      19005
cpu0_L2C PREFETCH REQUESTED:          0 ISSUED:          0 USEFUL:          0 USELESS:          0
cpu0_L2C AVERAGE MISS LATENCY: 219.7 cycles
cpu0_STLB TOTAL        ACCESS:     505181 HIT:     482391 MISS:      22790
cpu0_STLB LOAD         ACCESS:     505181 HIT:     482391 MISS:      22790
cpu0_STLB RFO          ACCESS:          0 HIT:          0 MISS:          0
cpu0_STLB PREFETCH     ACCESS:          0 HIT:          0 MISS:          0
cpu0_STLB WRITE        ACCESS:          0 HIT:          0 MISS:          0
cpu0_STLB TRANSLATION  ACCESS:          0 HIT:          0 MISS:          0
cpu0_STLB PREFETCH REQUESTED:          0 ISSUED:          0 USEFUL:          0 USELESS:          0
cpu0_STLB AVERAGE MISS LATENCY: 270.1 cycles

DRAM Statistics

Channel 0 RQ ROW_BUFFER_HIT:      34190
  ROW_BUFFER_MISS:     152854
 AVG DBUS CONGESTED CYCLE: 3.791
WQ ROW_BUFFER_HIT: Channel 0 
  ROW_BUFFER_MISS:       7892
  FULL:      19104
