WARNING: physical memory size is smaller than virtual memory size.

*** ChampSim Multicore Out-of-Order Simulator ***
Warmup Instructions: 50000000
Simulation Instructions: 600000000
Number of CPUs: 1
Page size: 4096

CPU 0 Tage branch predictor
Off-chip DRAM Size: 4 GiB Channels: 1 Width: 64-bit Data Race: 3200 MT/s
Heartbeat CPU 0 instructions: 10000001 cycles: 2500318 heartbeat IPC: 3.999 cumulative IPC: 3.999 (Simulation time: 00 hr 01 min 02 sec)
Heartbeat CPU 0 instructions: 20000002 cycles: 5037136 heartbeat IPC: 3.942 cumulative IPC: 3.971 (Simulation time: 00 hr 02 min 04 sec)
Heartbeat CPU 0 instructions: 30000002 cycles: 7537136 heartbeat IPC: 4 cumulative IPC: 3.98 (Simulation time: 00 hr 03 min 06 sec)
Heartbeat CPU 0 instructions: 40000002 cycles: 10037136 heartbeat IPC: 4 cumulative IPC: 3.985 (Simulation time: 00 hr 04 min 19 sec)
Heartbeat CPU 0 instructions: 50000002 cycles: 12537136 heartbeat IPC: 4 cumulative IPC: 3.988 (Simulation time: 00 hr 05 min 40 sec)
Warmup finished CPU 0 instructions: 50000002 cycles: 12537137 cumulative IPC: 3.988 (Simulation time: 00 hr 05 min 40 sec)
Warmup complete CPU 0 instructions: 50000002 cycles: 12537137 cumulative IPC: 3.988 (Simulation time: 00 hr 05 min 40 sec)
Heartbeat CPU 0 instructions: 60000001 cycles: 15513633 heartbeat IPC: 3.36 cumulative IPC: 3.36 (Simulation time: 00 hr 07 min 04 sec)
Heartbeat CPU 0 instructions: 70000004 cycles: 18584721 heartbeat IPC: 3.256 cumulative IPC: 3.307 (Simulation time: 00 hr 08 min 22 sec)
Heartbeat CPU 0 instructions: 80000001 cycles: 21635410 heartbeat IPC: 3.278 cumulative IPC: 3.297 (Simulation time: 00 hr 09 min 39 sec)
Heartbeat CPU 0 instructions: 90000001 cycles: 24586696 heartbeat IPC: 3.388 cumulative IPC: 3.32 (Simulation time: 00 hr 11 min 03 sec)
Heartbeat CPU 0 instructions: 100000000 cycles: 27506283 heartbeat IPC: 3.425 cumulative IPC: 3.34 (Simulation time: 00 hr 12 min 21 sec)
Heartbeat CPU 0 instructions: 110000000 cycles: 30461824 heartbeat IPC: 3.383 cumulative IPC: 3.347 (Simulation time: 00 hr 13 min 34 sec)
Heartbeat CPU 0 instructions: 120000001 cycles: 33441713 heartbeat IPC: 3.356 cumulative IPC: 3.349 (Simulation time: 00 hr 14 min 47 sec)
Heartbeat CPU 0 instructions: 130000001 cycles: 36300851 heartbeat IPC: 3.498 cumulative IPC: 3.366 (Simulation time: 00 hr 16 min 18 sec)
Heartbeat CPU 0 instructions: 140000001 cycles: 39344102 heartbeat IPC: 3.286 cumulative IPC: 3.357 (Simulation time: 00 hr 17 min 47 sec)
Heartbeat CPU 0 instructions: 150000001 cycles: 42355101 heartbeat IPC: 3.321 cumulative IPC: 3.354 (Simulation time: 00 hr 19 min 14 sec)
Heartbeat CPU 0 instructions: 160000004 cycles: 45373773 heartbeat IPC: 3.313 cumulative IPC: 3.35 (Simulation time: 00 hr 20 min 29 sec)
Heartbeat CPU 0 instructions: 170000004 cycles: 52822176 heartbeat IPC: 1.343 cumulative IPC: 2.979 (Simulation time: 00 hr 22 min 29 sec)
Heartbeat CPU 0 instructions: 180000004 cycles: 61294915 heartbeat IPC: 1.18 cumulative IPC: 2.666 (Simulation time: 00 hr 24 min 41 sec)
Heartbeat CPU 0 instructions: 190000001 cycles: 69588065 heartbeat IPC: 1.206 cumulative IPC: 2.454 (Simulation time: 00 hr 26 min 32 sec)
Heartbeat CPU 0 instructions: 200000004 cycles: 72551208 heartbeat IPC: 3.375 cumulative IPC: 2.499 (Simulation time: 00 hr 27 min 43 sec)
Heartbeat CPU 0 instructions: 210000001 cycles: 75508954 heartbeat IPC: 3.381 cumulative IPC: 2.541 (Simulation time: 00 hr 29 min 09 sec)
Heartbeat CPU 0 instructions: 220000000 cycles: 78400870 heartbeat IPC: 3.458 cumulative IPC: 2.581 (Simulation time: 00 hr 30 min 33 sec)
Heartbeat CPU 0 instructions: 230000002 cycles: 81425739 heartbeat IPC: 3.306 cumulative IPC: 2.613 (Simulation time: 00 hr 31 min 58 sec)
Heartbeat CPU 0 instructions: 240000003 cycles: 84461133 heartbeat IPC: 3.294 cumulative IPC: 2.642 (Simulation time: 00 hr 33 min 14 sec)
Heartbeat CPU 0 instructions: 250000000 cycles: 87485530 heartbeat IPC: 3.306 cumulative IPC: 2.669 (Simulation time: 00 hr 34 min 26 sec)
Heartbeat CPU 0 instructions: 260000002 cycles: 90458307 heartbeat IPC: 3.364 cumulative IPC: 2.695 (Simulation time: 00 hr 35 min 42 sec)
Heartbeat CPU 0 instructions: 270000002 cycles: 93368570 heartbeat IPC: 3.436 cumulative IPC: 2.722 (Simulation time: 00 hr 36 min 56 sec)
Heartbeat CPU 0 instructions: 280000002 cycles: 96256470 heartbeat IPC: 3.463 cumulative IPC: 2.747 (Simulation time: 00 hr 38 min 08 sec)
Heartbeat CPU 0 instructions: 290000002 cycles: 99214367 heartbeat IPC: 3.381 cumulative IPC: 2.769 (Simulation time: 00 hr 39 min 20 sec)
Heartbeat CPU 0 instructions: 300000003 cycles: 102116945 heartbeat IPC: 3.445 cumulative IPC: 2.791 (Simulation time: 00 hr 40 min 30 sec)
Heartbeat CPU 0 instructions: 310000001 cycles: 105141535 heartbeat IPC: 3.306 cumulative IPC: 2.808 (Simulation time: 00 hr 41 min 54 sec)
Heartbeat CPU 0 instructions: 320000003 cycles: 108153492 heartbeat IPC: 3.32 cumulative IPC: 2.824 (Simulation time: 00 hr 43 min 24 sec)
Heartbeat CPU 0 instructions: 330000003 cycles: 111141918 heartbeat IPC: 3.346 cumulative IPC: 2.84 (Simulation time: 00 hr 44 min 44 sec)
Heartbeat CPU 0 instructions: 340000000 cycles: 119242005 heartbeat IPC: 1.235 cumulative IPC: 2.718 (Simulation time: 00 hr 46 min 41 sec)
Heartbeat CPU 0 instructions: 350000000 cycles: 128082448 heartbeat IPC: 1.131 cumulative IPC: 2.596 (Simulation time: 00 hr 48 min 52 sec)
Heartbeat CPU 0 instructions: 360000004 cycles: 136252451 heartbeat IPC: 1.224 cumulative IPC: 2.506 (Simulation time: 00 hr 50 min 49 sec)
Heartbeat CPU 0 instructions: 370000000 cycles: 139217157 heartbeat IPC: 3.373 cumulative IPC: 2.526 (Simulation time: 00 hr 51 min 56 sec)
Heartbeat CPU 0 instructions: 380000003 cycles: 142133768 heartbeat IPC: 3.429 cumulative IPC: 2.546 (Simulation time: 00 hr 53 min 03 sec)
Heartbeat CPU 0 instructions: 390000002 cycles: 145109313 heartbeat IPC: 3.361 cumulative IPC: 2.565 (Simulation time: 00 hr 54 min 25 sec)
Heartbeat CPU 0 instructions: 400000004 cycles: 148012748 heartbeat IPC: 3.444 cumulative IPC: 2.583 (Simulation time: 00 hr 55 min 47 sec)
Heartbeat CPU 0 instructions: 410000002 cycles: 150950143 heartbeat IPC: 3.404 cumulative IPC: 2.601 (Simulation time: 00 hr 57 min 04 sec)
Heartbeat CPU 0 instructions: 420000003 cycles: 154062374 heartbeat IPC: 3.213 cumulative IPC: 2.614 (Simulation time: 00 hr 58 min 18 sec)
Heartbeat CPU 0 instructions: 430000001 cycles: 157071909 heartbeat IPC: 3.323 cumulative IPC: 2.629 (Simulation time: 00 hr 59 min 30 sec)
Heartbeat CPU 0 instructions: 440000004 cycles: 160209458 heartbeat IPC: 3.187 cumulative IPC: 2.641 (Simulation time: 01 hr 00 min 44 sec)
Heartbeat CPU 0 instructions: 450000002 cycles: 163137077 heartbeat IPC: 3.416 cumulative IPC: 2.656 (Simulation time: 01 hr 01 min 54 sec)
Heartbeat CPU 0 instructions: 460000000 cycles: 166070579 heartbeat IPC: 3.409 cumulative IPC: 2.67 (Simulation time: 01 hr 03 min 02 sec)
Heartbeat CPU 0 instructions: 470000001 cycles: 168925930 heartbeat IPC: 3.502 cumulative IPC: 2.686 (Simulation time: 01 hr 04 min 08 sec)
Heartbeat CPU 0 instructions: 480000003 cycles: 171981841 heartbeat IPC: 3.272 cumulative IPC: 2.697 (Simulation time: 01 hr 05 min 17 sec)
Heartbeat CPU 0 instructions: 490000004 cycles: 174810697 heartbeat IPC: 3.535 cumulative IPC: 2.711 (Simulation time: 01 hr 06 min 39 sec)
Heartbeat CPU 0 instructions: 500000004 cycles: 177795815 heartbeat IPC: 3.35 cumulative IPC: 2.723 (Simulation time: 01 hr 08 min 03 sec)
Heartbeat CPU 0 instructions: 510000003 cycles: 180820620 heartbeat IPC: 3.306 cumulative IPC: 2.733 (Simulation time: 01 hr 09 min 23 sec)
Heartbeat CPU 0 instructions: 520000001 cycles: 183708281 heartbeat IPC: 3.463 cumulative IPC: 2.746 (Simulation time: 01 hr 10 min 37 sec)
Heartbeat CPU 0 instructions: 530000001 cycles: 186708144 heartbeat IPC: 3.333 cumulative IPC: 2.756 (Simulation time: 01 hr 11 min 52 sec)
Heartbeat CPU 0 instructions: 540000000 cycles: 189667676 heartbeat IPC: 3.379 cumulative IPC: 2.766 (Simulation time: 01 hr 13 min 05 sec)
Heartbeat CPU 0 instructions: 550000001 cycles: 192651030 heartbeat IPC: 3.352 cumulative IPC: 2.776 (Simulation time: 01 hr 14 min 16 sec)
Heartbeat CPU 0 instructions: 560000000 cycles: 195735545 heartbeat IPC: 3.242 cumulative IPC: 2.784 (Simulation time: 01 hr 15 min 24 sec)
Heartbeat CPU 0 instructions: 570000004 cycles: 201004983 heartbeat IPC: 1.898 cumulative IPC: 2.759 (Simulation time: 01 hr 16 min 48 sec)
Heartbeat CPU 0 instructions: 580000003 cycles: 210061632 heartbeat IPC: 1.104 cumulative IPC: 2.683 (Simulation time: 01 hr 18 min 50 sec)
Heartbeat CPU 0 instructions: 590000002 cycles: 220611813 heartbeat IPC: 0.9479 cumulative IPC: 2.595 (Simulation time: 01 hr 21 min 35 sec)
Heartbeat CPU 0 instructions: 600000004 cycles: 223680501 heartbeat IPC: 3.259 cumulative IPC: 2.605 (Simulation time: 01 hr 22 min 53 sec)
Heartbeat CPU 0 instructions: 610000002 cycles: 226648745 heartbeat IPC: 3.369 cumulative IPC: 2.615 (Simulation time: 01 hr 24 min 04 sec)
Heartbeat CPU 0 instructions: 620000001 cycles: 229421600 heartbeat IPC: 3.606 cumulative IPC: 2.628 (Simulation time: 01 hr 25 min 26 sec)
Heartbeat CPU 0 instructions: 630000002 cycles: 232393464 heartbeat IPC: 3.365 cumulative IPC: 2.638 (Simulation time: 01 hr 26 min 44 sec)
Heartbeat CPU 0 instructions: 640000004 cycles: 235343771 heartbeat IPC: 3.389 cumulative IPC: 2.648 (Simulation time: 01 hr 27 min 58 sec)
Heartbeat CPU 0 instructions: 650000000 cycles: 238094274 heartbeat IPC: 3.636 cumulative IPC: 2.66 (Simulation time: 01 hr 29 min 08 sec)
Simulation finished CPU 0 instructions: 600000001 cycles: 225557139 cumulative IPC: 2.66 (Simulation time: 01 hr 29 min 08 sec)
Simulation complete CPU 0 instructions: 600000001 cycles: 225557139 cumulative IPC: 2.66 (Simulation time: 01 hr 29 min 08 sec)

ChampSim completed all CPUs

=== Simulation ===
CPU 0 runs traces/400.perlbench-41B.champsimtrace.xz
Region of Interest Statistics

CPU 0 cumulative IPC: 2.66 instructions: 600000001 cycles: 225557139
CPU 0 Branch Prediction Accuracy: 99.19% MPKI: 1.684 Average ROB Occupancy at Mispredict: 102.3
Branch type MPKI
BRANCH_DIRECT_JUMP: 0.0123
BRANCH_INDIRECT: 0.323
BRANCH_CONDITIONAL: 1.14
BRANCH_DIRECT_CALL: 0.0043
BRANCH_INDIRECT_CALL: 0.2
BRANCH_RETURN: 0.00828

LLC TOTAL        ACCESS:     592677 HIT:     312974 MISS:     279703
LLC LOAD         ACCESS:     402558 HIT:     179166 MISS:     223392
LLC RFO          ACCESS:      32326 HIT:      15990 MISS:      16336
LLC PREFETCH     ACCESS:      53282 HIT:      26976 MISS:      26306
LLC WRITE        ACCESS:      85703 HIT:      82483 MISS:       3220
LLC TRANSLATION  ACCESS:      18808 HIT:       8359 MISS:      10449
LLC PREFETCH REQUESTED:      53282 ISSUED:      53282 USEFUL:      15403 USELESS:       7410
LLC AVERAGE MISS LATENCY: 636.3 cycles
cpu0_DTLB TOTAL        ACCESS:  129765811 HIT:  129061703 MISS:     704108
cpu0_DTLB LOAD         ACCESS:  129765811 HIT:  129061703 MISS:     704108
cpu0_DTLB RFO          ACCESS:          0 HIT:          0 MISS:          0
cpu0_DTLB PREFETCH     ACCESS:          0 HIT:          0 MISS:          0
cpu0_DTLB WRITE        ACCESS:          0 HIT:          0 MISS:          0
cpu0_DTLB TRANSLATION  ACCESS:          0 HIT:          0 MISS:          0
cpu0_DTLB PREFETCH REQUESTED:          0 ISSUED:          0 USEFUL:          0 USELESS:          0
cpu0_DTLB AVERAGE MISS LATENCY: 15.78 cycles
cpu0_ITLB TOTAL        ACCESS:    4879096 HIT:    4816876 MISS:      62220
cpu0_ITLB LOAD         ACCESS:    4879096 HIT:    4816876 MISS:      62220
cpu0_ITLB RFO          ACCESS:          0 HIT:          0 MISS:          0
cpu0_ITLB PREFETCH     ACCESS:          0 HIT:          0 MISS:          0
cpu0_ITLB WRITE        ACCESS:          0 HIT:          0 MISS:          0
cpu0_ITLB TRANSLATION  ACCESS:          0 HIT:          0 MISS:          0
cpu0_ITLB PREFETCH REQUESTED:          0 ISSUED:          0 USEFUL:          0 USELESS:          0
cpu0_ITLB AVERAGE MISS LATENCY: 6.926 cycles
cpu0_L1D TOTAL        ACCESS:  174357749 HIT:  172946373 MISS:    1411376
cpu0_L1D LOAD         ACCESS:   91334628 HIT:   90248084 MISS:    1086544
cpu0_L1D RFO          ACCESS:          0 HIT:          0 MISS:          0
cpu0_L1D PREFETCH     ACCESS:          0 HIT:          0 MISS:          0
cpu0_L1D WRITE        ACCESS:   82998660 HIT:   82696688 MISS:     301972
cpu0_L1D TRANSLATION  ACCESS:      24461 HIT:       1601 MISS:      22860
cpu0_L1D PREFETCH REQUESTED:          0 ISSUED:          0 USEFUL:          0 USELESS:          0
cpu0_L1D AVERAGE MISS LATENCY: 113.6 cycles
cpu0_L1I TOTAL        ACCESS:    5657913 HIT:    4852933 MISS:     804980
cpu0_L1I LOAD         ACCESS:    5657913 HIT:    4852933 MISS:     804980
cpu0_L1I RFO          ACCESS:          0 HIT:          0 MISS:          0
cpu0_L1I PREFETCH     ACCESS:          0 HIT:          0 MISS:          0
cpu0_L1I WRITE        ACCESS:          0 HIT:          0 MISS:          0
cpu0_L1I TRANSLATION  ACCESS:          0 HIT:          0 MISS:          0
cpu0_L1I PREFETCH REQUESTED:          0 ISSUED:          0 USEFUL:          0 USELESS:          0
cpu0_L1I AVERAGE MISS LATENCY: 12.41 cycles
cpu0_L2C TOTAL        ACCESS:    1381451 HIT:     924115 MISS:     457336
cpu0_L2C LOAD         ACCESS:    1123981 HIT:     721422 MISS:     402559
cpu0_L2C RFO          ACCESS:      64475 HIT:      32149 MISS:      32326
cpu0_L2C PREFETCH     ACCESS:          0 HIT:          0 MISS:          0
cpu0_L2C WRITE        ACCESS:     170212 HIT:     166569 MISS:       3643
cpu0_L2C TRANSLATION  ACCESS:      22783 HIT:       3975 MISS:      18808
cpu0_L2C PREFETCH REQUESTED:          0 ISSUED:          0 USEFUL:          0 USELESS:          0
cpu0_L2C AVERAGE MISS LATENCY: 371.5 cycles
cpu0_STLB TOTAL        ACCESS:     508970 HIT:     486183 MISS:      22787
cpu0_STLB LOAD         ACCESS:     508970 HIT:     486183 MISS:      22787
cpu0_STLB RFO          ACCESS:          0 HIT:          0 MISS:          0
cpu0_STLB PREFETCH     ACCESS:          0 HIT:          0 MISS:          0
cpu0_STLB WRITE        ACCESS:          0 HIT:          0 MISS:          0
cpu0_STLB TRANSLATION  ACCESS:          0 HIT:          0 MISS:          0
cpu0_STLB PREFETCH REQUESTED:          0 ISSUED:          0 USEFUL:          0 USELESS:          0
cpu0_STLB AVERAGE MISS LATENCY: 384.4 cycles

DRAM Statistics

Channel 0 RQ ROW_BUFFER_HIT:      52366
  ROW_BUFFER_MISS:     218475
 AVG DBUS CONGESTED CYCLE: 3.853
WQ ROW_BUFFER_HIT: Channel 0 
  ROW_BUFFER_MISS:       5026
  FULL:      36641
