WARNING: physical memory size is smaller than virtual memory size.

*** ChampSim Multicore Out-of-Order Simulator ***
Warmup Instructions: 50000000
Simulation Instructions: 600000000
Number of CPUs: 1
Page size: 4096

Off-chip DRAM Size: 4 GiB Channels: 1 Width: 64-bit Data Race: 3200 MT/s
Heartbeat CPU 0 instructions: 10000001 cycles: 2500318 heartbeat IPC: 3.999 cumulative IPC: 3.999 (Simulation time: 00 hr 00 min 51 sec)
Heartbeat CPU 0 instructions: 20000002 cycles: 5037136 heartbeat IPC: 3.942 cumulative IPC: 3.971 (Simulation time: 00 hr 01 min 53 sec)
Heartbeat CPU 0 instructions: 30000002 cycles: 7537136 heartbeat IPC: 4 cumulative IPC: 3.98 (Simulation time: 00 hr 02 min 58 sec)
Heartbeat CPU 0 instructions: 40000002 cycles: 10037136 heartbeat IPC: 4 cumulative IPC: 3.985 (Simulation time: 00 hr 03 min 59 sec)
Heartbeat CPU 0 instructions: 50000002 cycles: 12537136 heartbeat IPC: 4 cumulative IPC: 3.988 (Simulation time: 00 hr 05 min 00 sec)
Warmup finished CPU 0 instructions: 50000002 cycles: 12537137 cumulative IPC: 3.988 (Simulation time: 00 hr 05 min 00 sec)
Warmup complete CPU 0 instructions: 50000002 cycles: 12537137 cumulative IPC: 3.988 (Simulation time: 00 hr 05 min 00 sec)
Heartbeat CPU 0 instructions: 60000000 cycles: 17706950 heartbeat IPC: 1.934 cumulative IPC: 1.934 (Simulation time: 00 hr 06 min 20 sec)
Heartbeat CPU 0 instructions: 70000002 cycles: 22602776 heartbeat IPC: 2.043 cumulative IPC: 1.987 (Simulation time: 00 hr 07 min 35 sec)
Heartbeat CPU 0 instructions: 80000001 cycles: 27969862 heartbeat IPC: 1.863 cumulative IPC: 1.944 (Simulation time: 00 hr 08 min 56 sec)
Heartbeat CPU 0 instructions: 90000001 cycles: 32848670 heartbeat IPC: 2.05 cumulative IPC: 1.969 (Simulation time: 00 hr 10 min 14 sec)
Heartbeat CPU 0 instructions: 100000000 cycles: 37966215 heartbeat IPC: 1.954 cumulative IPC: 1.966 (Simulation time: 00 hr 11 min 34 sec)
Heartbeat CPU 0 instructions: 110000000 cycles: 42857951 heartbeat IPC: 2.044 cumulative IPC: 1.979 (Simulation time: 00 hr 12 min 42 sec)
Heartbeat CPU 0 instructions: 120000001 cycles: 48054404 heartbeat IPC: 1.924 cumulative IPC: 1.971 (Simulation time: 00 hr 13 min 54 sec)
Heartbeat CPU 0 instructions: 130000001 cycles: 53210568 heartbeat IPC: 1.939 cumulative IPC: 1.967 (Simulation time: 00 hr 15 min 23 sec)
Heartbeat CPU 0 instructions: 140000001 cycles: 58521676 heartbeat IPC: 1.883 cumulative IPC: 1.957 (Simulation time: 00 hr 17 min 07 sec)
Heartbeat CPU 0 instructions: 150000001 cycles: 63849704 heartbeat IPC: 1.877 cumulative IPC: 1.949 (Simulation time: 00 hr 18 min 41 sec)
Heartbeat CPU 0 instructions: 160000004 cycles: 69057416 heartbeat IPC: 1.92 cumulative IPC: 1.946 (Simulation time: 00 hr 20 min 06 sec)
Heartbeat CPU 0 instructions: 170000000 cycles: 78945253 heartbeat IPC: 1.011 cumulative IPC: 1.807 (Simulation time: 00 hr 22 min 16 sec)
Heartbeat CPU 0 instructions: 180000004 cycles: 89577564 heartbeat IPC: 0.9405 cumulative IPC: 1.687 (Simulation time: 00 hr 24 min 29 sec)
Heartbeat CPU 0 instructions: 190000001 cycles: 100412806 heartbeat IPC: 0.9229 cumulative IPC: 1.593 (Simulation time: 00 hr 26 min 41 sec)
Heartbeat CPU 0 instructions: 200000003 cycles: 105180392 heartbeat IPC: 2.097 cumulative IPC: 1.619 (Simulation time: 00 hr 28 min 20 sec)
Heartbeat CPU 0 instructions: 210000001 cycles: 110098213 heartbeat IPC: 2.033 cumulative IPC: 1.64 (Simulation time: 00 hr 29 min 50 sec)
Heartbeat CPU 0 instructions: 220000000 cycles: 114928266 heartbeat IPC: 2.07 cumulative IPC: 1.66 (Simulation time: 00 hr 31 min 07 sec)
Heartbeat CPU 0 instructions: 230000002 cycles: 120241230 heartbeat IPC: 1.882 cumulative IPC: 1.671 (Simulation time: 00 hr 32 min 19 sec)
Heartbeat CPU 0 instructions: 240000000 cycles: 125084345 heartbeat IPC: 2.065 cumulative IPC: 1.688 (Simulation time: 00 hr 33 min 36 sec)
Heartbeat CPU 0 instructions: 250000000 cycles: 130233640 heartbeat IPC: 1.942 cumulative IPC: 1.699 (Simulation time: 00 hr 34 min 53 sec)
Heartbeat CPU 0 instructions: 260000000 cycles: 135257076 heartbeat IPC: 1.991 cumulative IPC: 1.711 (Simulation time: 00 hr 36 min 05 sec)
Heartbeat CPU 0 instructions: 270000002 cycles: 140147229 heartbeat IPC: 2.045 cumulative IPC: 1.724 (Simulation time: 00 hr 37 min 12 sec)
Heartbeat CPU 0 instructions: 280000002 cycles: 145056169 heartbeat IPC: 2.037 cumulative IPC: 1.736 (Simulation time: 00 hr 38 min 18 sec)
Heartbeat CPU 0 instructions: 290000001 cycles: 150417922 heartbeat IPC: 1.865 cumulative IPC: 1.741 (Simulation time: 00 hr 39 min 42 sec)
Heartbeat CPU 0 instructions: 300000003 cycles: 155473617 heartbeat IPC: 1.978 cumulative IPC: 1.749 (Simulation time: 00 hr 41 min 21 sec)
Heartbeat CPU 0 instructions: 310000001 cycles: 160771267 heartbeat IPC: 1.888 cumulative IPC: 1.754 (Simulation time: 00 hr 42 min 47 sec)
Heartbeat CPU 0 instructions: 320000003 cycles: 165979590 heartbeat IPC: 1.92 cumulative IPC: 1.76 (Simulation time: 00 hr 44 min 11 sec)
Heartbeat CPU 0 instructions: 330000003 cycles: 171273166 heartbeat IPC: 1.889 cumulative IPC: 1.764 (Simulation time: 00 hr 45 min 31 sec)
Heartbeat CPU 0 instructions: 340000000 cycles: 181949873 heartbeat IPC: 0.9366 cumulative IPC: 1.712 (Simulation time: 00 hr 47 min 38 sec)
Heartbeat CPU 0 instructions: 350000000 cycles: 193346319 heartbeat IPC: 0.8775 cumulative IPC: 1.659 (Simulation time: 00 hr 49 min 48 sec)
Heartbeat CPU 0 instructions: 360000004 cycles: 204100789 heartbeat IPC: 0.9298 cumulative IPC: 1.618 (Simulation time: 00 hr 51 min 47 sec)
Heartbeat CPU 0 instructions: 370000000 cycles: 208511949 heartbeat IPC: 2.267 cumulative IPC: 1.633 (Simulation time: 00 hr 53 min 04 sec)
Heartbeat CPU 0 instructions: 380000001 cycles: 213430580 heartbeat IPC: 2.033 cumulative IPC: 1.643 (Simulation time: 00 hr 54 min 37 sec)
Heartbeat CPU 0 instructions: 390000002 cycles: 218255968 heartbeat IPC: 2.072 cumulative IPC: 1.653 (Simulation time: 00 hr 56 min 02 sec)
Heartbeat CPU 0 instructions: 400000004 cycles: 223194033 heartbeat IPC: 2.025 cumulative IPC: 1.661 (Simulation time: 00 hr 57 min 21 sec)
Heartbeat CPU 0 instructions: 410000000 cycles: 227912703 heartbeat IPC: 2.119 cumulative IPC: 1.671 (Simulation time: 00 hr 58 min 39 sec)
Heartbeat CPU 0 instructions: 420000000 cycles: 233035170 heartbeat IPC: 1.952 cumulative IPC: 1.678 (Simulation time: 00 hr 59 min 59 sec)
Heartbeat CPU 0 instructions: 430000001 cycles: 237497784 heartbeat IPC: 2.241 cumulative IPC: 1.689 (Simulation time: 01 hr 01 min 12 sec)
Heartbeat CPU 0 instructions: 440000000 cycles: 242847891 heartbeat IPC: 1.869 cumulative IPC: 1.693 (Simulation time: 01 hr 02 min 27 sec)
Heartbeat CPU 0 instructions: 450000002 cycles: 247514796 heartbeat IPC: 2.143 cumulative IPC: 1.702 (Simulation time: 01 hr 03 min 35 sec)
Heartbeat CPU 0 instructions: 460000000 cycles: 252305394 heartbeat IPC: 2.087 cumulative IPC: 1.71 (Simulation time: 01 hr 04 min 51 sec)
Heartbeat CPU 0 instructions: 470000000 cycles: 257282860 heartbeat IPC: 2.009 cumulative IPC: 1.716 (Simulation time: 01 hr 06 min 21 sec)
Heartbeat CPU 0 instructions: 480000003 cycles: 262064702 heartbeat IPC: 2.091 cumulative IPC: 1.723 (Simulation time: 01 hr 07 min 44 sec)
Heartbeat CPU 0 instructions: 490000000 cycles: 266673989 heartbeat IPC: 2.17 cumulative IPC: 1.731 (Simulation time: 01 hr 09 min 01 sec)
Heartbeat CPU 0 instructions: 500000000 cycles: 271692520 heartbeat IPC: 1.993 cumulative IPC: 1.736 (Simulation time: 01 hr 10 min 15 sec)
Heartbeat CPU 0 instructions: 510000003 cycles: 277311984 heartbeat IPC: 1.78 cumulative IPC: 1.737 (Simulation time: 01 hr 11 min 36 sec)
Heartbeat CPU 0 instructions: 520000001 cycles: 281999680 heartbeat IPC: 2.133 cumulative IPC: 1.744 (Simulation time: 01 hr 12 min 49 sec)
Heartbeat CPU 0 instructions: 530000002 cycles: 287136393 heartbeat IPC: 1.947 cumulative IPC: 1.748 (Simulation time: 01 hr 14 min 01 sec)
Heartbeat CPU 0 instructions: 540000000 cycles: 292250465 heartbeat IPC: 1.955 cumulative IPC: 1.752 (Simulation time: 01 hr 15 min 11 sec)
Heartbeat CPU 0 instructions: 550000001 cycles: 297054776 heartbeat IPC: 2.081 cumulative IPC: 1.757 (Simulation time: 01 hr 16 min 24 sec)
Heartbeat CPU 0 instructions: 560000000 cycles: 302272267 heartbeat IPC: 1.917 cumulative IPC: 1.76 (Simulation time: 01 hr 17 min 58 sec)
Heartbeat CPU 0 instructions: 570000004 cycles: 309474265 heartbeat IPC: 1.389 cumulative IPC: 1.751 (Simulation time: 01 hr 19 min 58 sec)
Heartbeat CPU 0 instructions: 580000003 cycles: 321184379 heartbeat IPC: 0.854 cumulative IPC: 1.717 (Simulation time: 01 hr 22 min 25 sec)
Heartbeat CPU 0 instructions: 590000002 cycles: 334512315 heartbeat IPC: 0.7503 cumulative IPC: 1.677 (Simulation time: 01 hr 24 min 55 sec)
Heartbeat CPU 0 instructions: 600000000 cycles: 339084905 heartbeat IPC: 2.187 cumulative IPC: 1.684 (Simulation time: 01 hr 26 min 03 sec)
Heartbeat CPU 0 instructions: 610000002 cycles: 343571093 heartbeat IPC: 2.229 cumulative IPC: 1.692 (Simulation time: 01 hr 27 min 08 sec)
Heartbeat CPU 0 instructions: 620000000 cycles: 348376786 heartbeat IPC: 2.081 cumulative IPC: 1.697 (Simulation time: 01 hr 28 min 14 sec)
Heartbeat CPU 0 instructions: 630000002 cycles: 353463240 heartbeat IPC: 1.966 cumulative IPC: 1.701 (Simulation time: 01 hr 29 min 25 sec)
Heartbeat CPU 0 instructions: 640000001 cycles: 358314117 heartbeat IPC: 2.061 cumulative IPC: 1.706 (Simulation time: 01 hr 30 min 56 sec)
Heartbeat CPU 0 instructions: 650000000 cycles: 362871354 heartbeat IPC: 2.194 cumulative IPC: 1.713 (Simulation time: 01 hr 32 min 33 sec)
Simulation finished CPU 0 instructions: 600000001 cycles: 350334219 cumulative IPC: 1.713 (Simulation time: 01 hr 32 min 33 sec)
Simulation complete CPU 0 instructions: 600000001 cycles: 350334219 cumulative IPC: 1.713 (Simulation time: 01 hr 32 min 33 sec)

ChampSim completed all CPUs

=== Simulation ===
CPU 0 runs traces/400.perlbench-41B.champsimtrace.xz
Region of Interest Statistics

CPU 0 cumulative IPC: 1.713 instructions: 600000001 cycles: 350334219
CPU 0 Branch Prediction Accuracy: 93.95% MPKI: 12.5 Average ROB Occupancy at Mispredict: 29.64
Branch type MPKI
BRANCH_DIRECT_JUMP: 0.0123
BRANCH_INDIRECT: 0.323
BRANCH_CONDITIONAL: 12
BRANCH_DIRECT_CALL: 0.0043
BRANCH_INDIRECT_CALL: 0.2
BRANCH_RETURN: 0.00828

LLC TOTAL        ACCESS:     595129 HIT:     316111 MISS:     279018
LLC LOAD         ACCESS:     402451 HIT:     179665 MISS:     222786
LLC RFO          ACCESS:      32404 HIT:      16217 MISS:      16187
LLC PREFETCH     ACCESS:      55000 HIT:      28657 MISS:      26343
LLC WRITE        ACCESS:      86332 HIT:      83098 MISS:       3234
LLC TRANSLATION  ACCESS:      18942 HIT:       8474 MISS:      10468
LLC PREFETCH REQUESTED:      55000 ISSUED:      55000 USEFUL:      15388 USELESS:       7249
LLC AVERAGE MISS LATENCY: 561.6 cycles
cpu0_DTLB TOTAL        ACCESS:  153674241 HIT:  152996911 MISS:     677330
cpu0_DTLB LOAD         ACCESS:  153674241 HIT:  152996911 MISS:     677330
cpu0_DTLB RFO          ACCESS:          0 HIT:          0 MISS:          0
cpu0_DTLB PREFETCH     ACCESS:          0 HIT:          0 MISS:          0
cpu0_DTLB WRITE        ACCESS:          0 HIT:          0 MISS:          0
cpu0_DTLB TRANSLATION  ACCESS:          0 HIT:          0 MISS:          0
cpu0_DTLB PREFETCH REQUESTED:          0 ISSUED:          0 USEFUL:          0 USELESS:          0
cpu0_DTLB AVERAGE MISS LATENCY: 16.07 cycles
cpu0_ITLB TOTAL        ACCESS:    4836641 HIT:    4778776 MISS:      57865
cpu0_ITLB LOAD         ACCESS:    4836641 HIT:    4778776 MISS:      57865
cpu0_ITLB RFO          ACCESS:          0 HIT:          0 MISS:          0
cpu0_ITLB PREFETCH     ACCESS:          0 HIT:          0 MISS:          0
cpu0_ITLB WRITE        ACCESS:          0 HIT:          0 MISS:          0
cpu0_ITLB TRANSLATION  ACCESS:          0 HIT:          0 MISS:          0
cpu0_ITLB PREFETCH REQUESTED:          0 ISSUED:          0 USEFUL:          0 USELESS:          0
cpu0_ITLB AVERAGE MISS LATENCY: 7.41 cycles
cpu0_L1D TOTAL        ACCESS:  200292046 HIT:  198938772 MISS:    1353274
cpu0_L1D LOAD         ACCESS:  117047964 HIT:  116010233 MISS:    1037731
cpu0_L1D RFO          ACCESS:          0 HIT:          0 MISS:          0
cpu0_L1D PREFETCH     ACCESS:          0 HIT:          0 MISS:          0
cpu0_L1D WRITE        ACCESS:   83219623 HIT:   82926960 MISS:     292663
cpu0_L1D TRANSLATION  ACCESS:      24459 HIT:       1579 MISS:      22880
cpu0_L1D PREFETCH REQUESTED:          0 ISSUED:          0 USEFUL:          0 USELESS:          0
cpu0_L1D AVERAGE MISS LATENCY: 109.1 cycles
cpu0_L1I TOTAL        ACCESS:    5578994 HIT:    4817489 MISS:     761505
cpu0_L1I LOAD         ACCESS:    5578994 HIT:    4817489 MISS:     761505
cpu0_L1I RFO          ACCESS:          0 HIT:          0 MISS:          0
cpu0_L1I PREFETCH     ACCESS:          0 HIT:          0 MISS:          0
cpu0_L1I WRITE        ACCESS:          0 HIT:          0 MISS:          0
cpu0_L1I TRANSLATION  ACCESS:          0 HIT:          0 MISS:          0
cpu0_L1I PREFETCH REQUESTED:          0 ISSUED:          0 USEFUL:          0 USELESS:          0
cpu0_L1I AVERAGE MISS LATENCY: 13.25 cycles
cpu0_L2C TOTAL        ACCESS:    1382461 HIT:     925005 MISS:     457456
cpu0_L2C LOAD         ACCESS:    1125631 HIT:     723180 MISS:     402451
cpu0_L2C RFO          ACCESS:      63907 HIT:      31503 MISS:      32404
cpu0_L2C PREFETCH     ACCESS:          0 HIT:          0 MISS:          0
cpu0_L2C WRITE        ACCESS:     170119 HIT:     166460 MISS:       3659
cpu0_L2C TRANSLATION  ACCESS:      22804 HIT:       3862 MISS:      18942
cpu0_L2C PREFETCH REQUESTED:          0 ISSUED:          0 USEFUL:          0 USELESS:          0
cpu0_L2C AVERAGE MISS LATENCY: 327.9 cycles
cpu0_STLB TOTAL        ACCESS:     505102 HIT:     482312 MISS:      22790
cpu0_STLB LOAD         ACCESS:     505102 HIT:     482312 MISS:      22790
cpu0_STLB RFO          ACCESS:          0 HIT:          0 MISS:          0
cpu0_STLB PREFETCH     ACCESS:          0 HIT:          0 MISS:          0
cpu0_STLB WRITE        ACCESS:          0 HIT:          0 MISS:          0
cpu0_STLB TRANSLATION  ACCESS:          0 HIT:          0 MISS:          0
cpu0_STLB PREFETCH REQUESTED:          0 ISSUED:          0 USEFUL:          0 USELESS:          0
cpu0_STLB AVERAGE MISS LATENCY: 356.9 cycles

DRAM Statistics

Channel 0 RQ ROW_BUFFER_HIT:      46251
  ROW_BUFFER_MISS:     224446
 AVG DBUS CONGESTED CYCLE: 3.819
WQ ROW_BUFFER_HIT: Channel 0 
  ROW_BUFFER_MISS:       7900
  FULL:      34272
