WARNING: physical memory size is smaller than virtual memory size.

*** ChampSim Multicore Out-of-Order Simulator ***
Warmup Instructions: 50000000
Simulation Instructions: 600000000
Number of CPUs: 1
Page size: 4096

Off-chip DRAM Size: 4 GiB Channels: 1 Width: 64-bit Data Race: 3200 MT/s
Heartbeat CPU 0 instructions: 10000000 cycles: 2500061 heartbeat IPC: 4 cumulative IPC: 4 (Simulation time: 00 hr 00 min 52 sec)
Heartbeat CPU 0 instructions: 20000000 cycles: 5000061 heartbeat IPC: 4 cumulative IPC: 4 (Simulation time: 00 hr 01 min 42 sec)
Heartbeat CPU 0 instructions: 30000000 cycles: 7500061 heartbeat IPC: 4 cumulative IPC: 4 (Simulation time: 00 hr 02 min 40 sec)
Heartbeat CPU 0 instructions: 40000000 cycles: 10000061 heartbeat IPC: 4 cumulative IPC: 4 (Simulation time: 00 hr 03 min 46 sec)
Heartbeat CPU 0 instructions: 50000000 cycles: 12500061 heartbeat IPC: 4 cumulative IPC: 4 (Simulation time: 00 hr 04 min 51 sec)
Warmup finished CPU 0 instructions: 50000000 cycles: 12500062 cumulative IPC: 4 (Simulation time: 00 hr 04 min 51 sec)
Warmup complete CPU 0 instructions: 50000000 cycles: 12500062 cumulative IPC: 4 (Simulation time: 00 hr 04 min 51 sec)
Heartbeat CPU 0 instructions: 60000002 cycles: 16446270 heartbeat IPC: 2.534 cumulative IPC: 2.534 (Simulation time: 00 hr 06 min 12 sec)
Heartbeat CPU 0 instructions: 70000003 cycles: 20769583 heartbeat IPC: 2.313 cumulative IPC: 2.419 (Simulation time: 00 hr 07 min 27 sec)
Heartbeat CPU 0 instructions: 80000003 cycles: 25245871 heartbeat IPC: 2.234 cumulative IPC: 2.354 (Simulation time: 00 hr 08 min 42 sec)
Heartbeat CPU 0 instructions: 90000000 cycles: 28938083 heartbeat IPC: 2.708 cumulative IPC: 2.433 (Simulation time: 00 hr 09 min 54 sec)
Heartbeat CPU 0 instructions: 100000003 cycles: 32841676 heartbeat IPC: 2.562 cumulative IPC: 2.458 (Simulation time: 00 hr 11 min 02 sec)
Heartbeat CPU 0 instructions: 110000002 cycles: 36947590 heartbeat IPC: 2.436 cumulative IPC: 2.454 (Simulation time: 00 hr 12 min 11 sec)
Heartbeat CPU 0 instructions: 120000001 cycles: 40666269 heartbeat IPC: 2.689 cumulative IPC: 2.485 (Simulation time: 00 hr 13 min 15 sec)
Heartbeat CPU 0 instructions: 130000003 cycles: 44442573 heartbeat IPC: 2.648 cumulative IPC: 2.504 (Simulation time: 00 hr 14 min 15 sec)
Heartbeat CPU 0 instructions: 140000002 cycles: 48577225 heartbeat IPC: 2.419 cumulative IPC: 2.495 (Simulation time: 00 hr 15 min 18 sec)
Heartbeat CPU 0 instructions: 150000001 cycles: 52630564 heartbeat IPC: 2.467 cumulative IPC: 2.492 (Simulation time: 00 hr 16 min 39 sec)
Heartbeat CPU 0 instructions: 160000000 cycles: 56289638 heartbeat IPC: 2.733 cumulative IPC: 2.512 (Simulation time: 00 hr 18 min 02 sec)
Heartbeat CPU 0 instructions: 170000001 cycles: 60469935 heartbeat IPC: 2.392 cumulative IPC: 2.502 (Simulation time: 00 hr 19 min 18 sec)
Heartbeat CPU 0 instructions: 180000001 cycles: 63934708 heartbeat IPC: 2.886 cumulative IPC: 2.527 (Simulation time: 00 hr 20 min 25 sec)
Heartbeat CPU 0 instructions: 190000002 cycles: 67525581 heartbeat IPC: 2.785 cumulative IPC: 2.544 (Simulation time: 00 hr 21 min 30 sec)
Heartbeat CPU 0 instructions: 200000002 cycles: 71310535 heartbeat IPC: 2.642 cumulative IPC: 2.551 (Simulation time: 00 hr 22 min 40 sec)
Heartbeat CPU 0 instructions: 210000000 cycles: 74952388 heartbeat IPC: 2.746 cumulative IPC: 2.562 (Simulation time: 00 hr 23 min 50 sec)
Heartbeat CPU 0 instructions: 220000001 cycles: 78825416 heartbeat IPC: 2.582 cumulative IPC: 2.563 (Simulation time: 00 hr 25 min 00 sec)
Heartbeat CPU 0 instructions: 230000002 cycles: 82669327 heartbeat IPC: 2.602 cumulative IPC: 2.565 (Simulation time: 00 hr 26 min 07 sec)
Heartbeat CPU 0 instructions: 240000001 cycles: 86880534 heartbeat IPC: 2.375 cumulative IPC: 2.554 (Simulation time: 00 hr 27 min 13 sec)
Heartbeat CPU 0 instructions: 250000003 cycles: 91453255 heartbeat IPC: 2.187 cumulative IPC: 2.533 (Simulation time: 00 hr 28 min 26 sec)
Heartbeat CPU 0 instructions: 260000000 cycles: 95249867 heartbeat IPC: 2.634 cumulative IPC: 2.538 (Simulation time: 00 hr 29 min 53 sec)
Heartbeat CPU 0 instructions: 270000003 cycles: 102613075 heartbeat IPC: 1.358 cumulative IPC: 2.441 (Simulation time: 00 hr 31 min 50 sec)
Heartbeat CPU 0 instructions: 280000000 cycles: 116653547 heartbeat IPC: 0.7122 cumulative IPC: 2.208 (Simulation time: 00 hr 34 min 20 sec)
Heartbeat CPU 0 instructions: 290000000 cycles: 133220433 heartbeat IPC: 0.6036 cumulative IPC: 1.988 (Simulation time: 00 hr 37 min 10 sec)
Heartbeat CPU 0 instructions: 300000003 cycles: 143823256 heartbeat IPC: 0.9431 cumulative IPC: 1.904 (Simulation time: 00 hr 39 min 19 sec)
Heartbeat CPU 0 instructions: 310000004 cycles: 159094643 heartbeat IPC: 0.6548 cumulative IPC: 1.774 (Simulation time: 00 hr 42 min 20 sec)
Heartbeat CPU 0 instructions: 320000004 cycles: 165744059 heartbeat IPC: 1.504 cumulative IPC: 1.762 (Simulation time: 00 hr 44 min 13 sec)
Heartbeat CPU 0 instructions: 330000000 cycles: 169813836 heartbeat IPC: 2.457 cumulative IPC: 1.78 (Simulation time: 00 hr 45 min 27 sec)
Heartbeat CPU 0 instructions: 340000001 cycles: 174072500 heartbeat IPC: 2.348 cumulative IPC: 1.795 (Simulation time: 00 hr 46 min 36 sec)
Heartbeat CPU 0 instructions: 350000004 cycles: 178214156 heartbeat IPC: 2.414 cumulative IPC: 1.81 (Simulation time: 00 hr 47 min 43 sec)
Heartbeat CPU 0 instructions: 360000003 cycles: 181997108 heartbeat IPC: 2.643 cumulative IPC: 1.829 (Simulation time: 00 hr 48 min 51 sec)
Heartbeat CPU 0 instructions: 370000001 cycles: 185650849 heartbeat IPC: 2.737 cumulative IPC: 1.848 (Simulation time: 00 hr 49 min 56 sec)
Heartbeat CPU 0 instructions: 380000004 cycles: 189185907 heartbeat IPC: 2.829 cumulative IPC: 1.868 (Simulation time: 00 hr 51 min 00 sec)
Heartbeat CPU 0 instructions: 390000002 cycles: 192929648 heartbeat IPC: 2.671 cumulative IPC: 1.884 (Simulation time: 00 hr 52 min 04 sec)
Heartbeat CPU 0 instructions: 400000000 cycles: 196957293 heartbeat IPC: 2.483 cumulative IPC: 1.897 (Simulation time: 00 hr 53 min 08 sec)
Heartbeat CPU 0 instructions: 410000000 cycles: 205868717 heartbeat IPC: 1.122 cumulative IPC: 1.862 (Simulation time: 00 hr 55 min 15 sec)
Heartbeat CPU 0 instructions: 420000003 cycles: 220590682 heartbeat IPC: 0.6793 cumulative IPC: 1.778 (Simulation time: 00 hr 58 min 28 sec)
Heartbeat CPU 0 instructions: 430000000 cycles: 231582437 heartbeat IPC: 0.9098 cumulative IPC: 1.735 (Simulation time: 01 hr 00 min 48 sec)
Heartbeat CPU 0 instructions: 440000004 cycles: 242493039 heartbeat IPC: 0.9165 cumulative IPC: 1.696 (Simulation time: 01 hr 02 min 59 sec)
Heartbeat CPU 0 instructions: 450000000 cycles: 253497881 heartbeat IPC: 0.9087 cumulative IPC: 1.66 (Simulation time: 01 hr 05 min 05 sec)
Heartbeat CPU 0 instructions: 460000002 cycles: 271781292 heartbeat IPC: 0.5469 cumulative IPC: 1.581 (Simulation time: 01 hr 08 min 27 sec)
Heartbeat CPU 0 instructions: 470000003 cycles: 284327063 heartbeat IPC: 0.7971 cumulative IPC: 1.545 (Simulation time: 01 hr 11 min 21 sec)
Heartbeat CPU 0 instructions: 480000003 cycles: 288753439 heartbeat IPC: 2.259 cumulative IPC: 1.557 (Simulation time: 01 hr 12 min 37 sec)
Heartbeat CPU 0 instructions: 490000001 cycles: 292714415 heartbeat IPC: 2.525 cumulative IPC: 1.57 (Simulation time: 01 hr 13 min 50 sec)
Heartbeat CPU 0 instructions: 500000002 cycles: 296511265 heartbeat IPC: 2.634 cumulative IPC: 1.584 (Simulation time: 01 hr 15 min 03 sec)
Heartbeat CPU 0 instructions: 510000000 cycles: 300028793 heartbeat IPC: 2.843 cumulative IPC: 1.6 (Simulation time: 01 hr 16 min 11 sec)
Heartbeat CPU 0 instructions: 520000000 cycles: 303716415 heartbeat IPC: 2.712 cumulative IPC: 1.614 (Simulation time: 01 hr 17 min 19 sec)
Heartbeat CPU 0 instructions: 530000001 cycles: 318140231 heartbeat IPC: 0.6933 cumulative IPC: 1.57 (Simulation time: 01 hr 19 min 46 sec)
Heartbeat CPU 0 instructions: 540000000 cycles: 334710298 heartbeat IPC: 0.6035 cumulative IPC: 1.521 (Simulation time: 01 hr 23 min 16 sec)
Heartbeat CPU 0 instructions: 550000004 cycles: 353355380 heartbeat IPC: 0.5363 cumulative IPC: 1.467 (Simulation time: 01 hr 26 min 43 sec)
Heartbeat CPU 0 instructions: 560000004 cycles: 358109022 heartbeat IPC: 2.104 cumulative IPC: 1.476 (Simulation time: 01 hr 28 min 05 sec)
Heartbeat CPU 0 instructions: 570000001 cycles: 361250782 heartbeat IPC: 3.183 cumulative IPC: 1.491 (Simulation time: 01 hr 29 min 08 sec)
Heartbeat CPU 0 instructions: 580000003 cycles: 364806046 heartbeat IPC: 2.813 cumulative IPC: 1.504 (Simulation time: 01 hr 30 min 15 sec)
Heartbeat CPU 0 instructions: 590000002 cycles: 368439484 heartbeat IPC: 2.752 cumulative IPC: 1.517 (Simulation time: 01 hr 31 min 18 sec)
Heartbeat CPU 0 instructions: 600000003 cycles: 371507989 heartbeat IPC: 3.259 cumulative IPC: 1.532 (Simulation time: 01 hr 32 min 18 sec)
Heartbeat CPU 0 instructions: 610000001 cycles: 375021399 heartbeat IPC: 2.846 cumulative IPC: 1.545 (Simulation time: 01 hr 33 min 23 sec)
Heartbeat CPU 0 instructions: 620000000 cycles: 379041468 heartbeat IPC: 2.488 cumulative IPC: 1.555 (Simulation time: 01 hr 34 min 49 sec)
Heartbeat CPU 0 instructions: 630000002 cycles: 382411496 heartbeat IPC: 2.967 cumulative IPC: 1.568 (Simulation time: 01 hr 36 min 12 sec)
Heartbeat CPU 0 instructions: 640000004 cycles: 386412362 heartbeat IPC: 2.499 cumulative IPC: 1.578 (Simulation time: 01 hr 37 min 34 sec)
Heartbeat CPU 0 instructions: 650000001 cycles: 390230606 heartbeat IPC: 2.619 cumulative IPC: 1.588 (Simulation time: 01 hr 38 min 42 sec)
Simulation finished CPU 0 instructions: 600000001 cycles: 377730545 cumulative IPC: 1.588 (Simulation time: 01 hr 38 min 42 sec)
Simulation complete CPU 0 instructions: 600000001 cycles: 377730545 cumulative IPC: 1.588 (Simulation time: 01 hr 38 min 42 sec)

ChampSim completed all CPUs

=== Simulation ===
CPU 0 runs traces/400.perlbench-50B.champsimtrace.xz
Region of Interest Statistics

CPU 0 cumulative IPC: 1.588 instructions: 600000001 cycles: 377730545
CPU 0 Branch Prediction Accuracy: 96.2% MPKI: 7.839 Average ROB Occupancy at Mispredict: 44.41
Branch type MPKI
BRANCH_DIRECT_JUMP: 0.0176
BRANCH_INDIRECT: 0.38
BRANCH_CONDITIONAL: 6.99
BRANCH_DIRECT_CALL: 0.0067
BRANCH_INDIRECT_CALL: 0.431
BRANCH_RETURN: 0.0161

LLC TOTAL        ACCESS:     781758 HIT:     262886 MISS:     518872
LLC LOAD         ACCESS:     582943 HIT:     189514 MISS:     393429
LLC RFO          ACCESS:      47285 HIT:      17004 MISS:      30281
LLC PREFETCH     ACCESS:          0 HIT:          0 MISS:          0
LLC WRITE        ACCESS:     129663 HIT:      53836 MISS:      75827
LLC TRANSLATION  ACCESS:      21867 HIT:       2532 MISS:      19335
LLC PREFETCH REQUESTED:          0 ISSUED:          0 USEFUL:          0 USELESS:          0
LLC AVERAGE MISS LATENCY: 483.7 cycles
cpu0_DTLB TOTAL        ACCESS:  146432645 HIT:  145127091 MISS:    1305554
cpu0_DTLB LOAD         ACCESS:  146432645 HIT:  145127091 MISS:    1305554
cpu0_DTLB RFO          ACCESS:          0 HIT:          0 MISS:          0
cpu0_DTLB PREFETCH     ACCESS:          0 HIT:          0 MISS:          0
cpu0_DTLB WRITE        ACCESS:          0 HIT:          0 MISS:          0
cpu0_DTLB TRANSLATION  ACCESS:          0 HIT:          0 MISS:          0
cpu0_DTLB PREFETCH REQUESTED:          0 ISSUED:          0 USEFUL:          0 USELESS:          0
cpu0_DTLB AVERAGE MISS LATENCY: 15.74 cycles
cpu0_ITLB TOTAL        ACCESS:    8986408 HIT:    8801807 MISS:     184601
cpu0_ITLB LOAD         ACCESS:    8986408 HIT:    8801807 MISS:     184601
cpu0_ITLB RFO          ACCESS:          0 HIT:          0 MISS:          0
cpu0_ITLB PREFETCH     ACCESS:          0 HIT:          0 MISS:          0
cpu0_ITLB WRITE        ACCESS:          0 HIT:          0 MISS:          0
cpu0_ITLB TRANSLATION  ACCESS:          0 HIT:          0 MISS:          0
cpu0_ITLB PREFETCH REQUESTED:          0 ISSUED:          0 USEFUL:          0 USELESS:          0
cpu0_ITLB AVERAGE MISS LATENCY: 4.439 cycles
cpu0_L1D TOTAL        ACCESS:  193203539 HIT:  190280539 MISS:    2923000
cpu0_L1D LOAD         ACCESS:  107357976 HIT:  104948222 MISS:    2409754
cpu0_L1D RFO          ACCESS:          0 HIT:          0 MISS:          0
cpu0_L1D PREFETCH     ACCESS:          0 HIT:          0 MISS:          0
cpu0_L1D WRITE        ACCESS:   85817046 HIT:   85330306 MISS:     486740
cpu0_L1D TRANSLATION  ACCESS:      28517 HIT:       2011 MISS:      26506
cpu0_L1D PREFETCH REQUESTED:          0 ISSUED:          0 USEFUL:          0 USELESS:          0
cpu0_L1D AVERAGE MISS LATENCY: 81.5 cycles
cpu0_L1I TOTAL        ACCESS:   10420562 HIT:    8659006 MISS:    1761556
cpu0_L1I LOAD         ACCESS:   10420562 HIT:    8659006 MISS:    1761556
cpu0_L1I RFO          ACCESS:          0 HIT:          0 MISS:          0
cpu0_L1I PREFETCH     ACCESS:          0 HIT:          0 MISS:          0
cpu0_L1I WRITE        ACCESS:          0 HIT:          0 MISS:          0
cpu0_L1I TRANSLATION  ACCESS:          0 HIT:          0 MISS:          0
cpu0_L1I PREFETCH REQUESTED:          0 ISSUED:          0 USEFUL:          0 USELESS:          0
cpu0_L1I AVERAGE MISS LATENCY: 26.16 cycles
cpu0_L2C TOTAL        ACCESS:    3231941 HIT:    2573633 MISS:     658308
cpu0_L2C LOAD         ACCESS:    2710030 HIT:    2127086 MISS:     582944
cpu0_L2C RFO          ACCESS:     133257 HIT:      85972 MISS:      47285
cpu0_L2C PREFETCH     ACCESS:          0 HIT:          0 MISS:          0
cpu0_L2C WRITE        ACCESS:     362220 HIT:     356008 MISS:       6212
cpu0_L2C TRANSLATION  ACCESS:      26434 HIT:       4567 MISS:      21867
cpu0_L2C PREFETCH REQUESTED:          0 ISSUED:          0 USEFUL:          0 USELESS:          0
cpu0_L2C AVERAGE MISS LATENCY: 401.7 cycles
cpu0_STLB TOTAL        ACCESS:    1008647 HIT:     981956 MISS:      26691
cpu0_STLB LOAD         ACCESS:    1008647 HIT:     981956 MISS:      26691
cpu0_STLB RFO          ACCESS:          0 HIT:          0 MISS:          0
cpu0_STLB PREFETCH     ACCESS:          0 HIT:          0 MISS:          0
cpu0_STLB WRITE        ACCESS:          0 HIT:          0 MISS:          0
cpu0_STLB TRANSLATION  ACCESS:          0 HIT:          0 MISS:          0
cpu0_STLB PREFETCH REQUESTED:          0 ISSUED:          0 USEFUL:          0 USELESS:          0
cpu0_STLB AVERAGE MISS LATENCY: 563.1 cycles

DRAM Statistics

Channel 0 RQ ROW_BUFFER_HIT:      56194
  ROW_BUFFER_MISS:     385890
 AVG DBUS CONGESTED CYCLE: 3.847
WQ ROW_BUFFER_HIT: Channel 0 
  ROW_BUFFER_MISS:      15816
  FULL:      73439
