WARNING: physical memory size is smaller than virtual memory size.

*** ChampSim Multicore Out-of-Order Simulator ***
Warmup Instructions: 50000000
Simulation Instructions: 600000000
Number of CPUs: 1
Page size: 4096

Off-chip DRAM Size: 4 GiB Channels: 1 Width: 64-bit Data Race: 3200 MT/s
Heartbeat CPU 0 instructions: 10000001 cycles: 2500319 heartbeat IPC: 3.999 cumulative IPC: 3.999 (Simulation time: 00 hr 01 min 07 sec)
Heartbeat CPU 0 instructions: 20000002 cycles: 5037134 heartbeat IPC: 3.942 cumulative IPC: 3.971 (Simulation time: 00 hr 02 min 00 sec)
Heartbeat CPU 0 instructions: 30000002 cycles: 7537134 heartbeat IPC: 4 cumulative IPC: 3.98 (Simulation time: 00 hr 02 min 48 sec)
Heartbeat CPU 0 instructions: 40000002 cycles: 10037134 heartbeat IPC: 4 cumulative IPC: 3.985 (Simulation time: 00 hr 03 min 36 sec)
Heartbeat CPU 0 instructions: 50000002 cycles: 12537134 heartbeat IPC: 4 cumulative IPC: 3.988 (Simulation time: 00 hr 04 min 24 sec)
Warmup finished CPU 0 instructions: 50000002 cycles: 12537135 cumulative IPC: 3.988 (Simulation time: 00 hr 04 min 24 sec)
Warmup complete CPU 0 instructions: 50000002 cycles: 12537135 cumulative IPC: 3.988 (Simulation time: 00 hr 04 min 24 sec)
Heartbeat CPU 0 instructions: 60000000 cycles: 17153996 heartbeat IPC: 2.166 cumulative IPC: 2.166 (Simulation time: 00 hr 05 min 35 sec)
Heartbeat CPU 0 instructions: 70000004 cycles: 21433346 heartbeat IPC: 2.337 cumulative IPC: 2.248 (Simulation time: 00 hr 06 min 44 sec)
Heartbeat CPU 0 instructions: 80000001 cycles: 26027015 heartbeat IPC: 2.177 cumulative IPC: 2.224 (Simulation time: 00 hr 07 min 54 sec)
Heartbeat CPU 0 instructions: 90000001 cycles: 30145540 heartbeat IPC: 2.428 cumulative IPC: 2.272 (Simulation time: 00 hr 09 min 01 sec)
Heartbeat CPU 0 instructions: 100000000 cycles: 34197172 heartbeat IPC: 2.468 cumulative IPC: 2.308 (Simulation time: 00 hr 10 min 09 sec)
Heartbeat CPU 0 instructions: 110000000 cycles: 38424136 heartbeat IPC: 2.366 cumulative IPC: 2.318 (Simulation time: 00 hr 11 min 16 sec)
Heartbeat CPU 0 instructions: 120000001 cycles: 42430260 heartbeat IPC: 2.496 cumulative IPC: 2.342 (Simulation time: 00 hr 12 min 23 sec)
Heartbeat CPU 0 instructions: 130000001 cycles: 46158490 heartbeat IPC: 2.682 cumulative IPC: 2.379 (Simulation time: 00 hr 13 min 27 sec)
Heartbeat CPU 0 instructions: 140000001 cycles: 50321020 heartbeat IPC: 2.402 cumulative IPC: 2.382 (Simulation time: 00 hr 14 min 34 sec)
Heartbeat CPU 0 instructions: 150000001 cycles: 54514438 heartbeat IPC: 2.385 cumulative IPC: 2.382 (Simulation time: 00 hr 15 min 43 sec)
Heartbeat CPU 0 instructions: 160000004 cycles: 58935428 heartbeat IPC: 2.262 cumulative IPC: 2.371 (Simulation time: 00 hr 16 min 52 sec)
Heartbeat CPU 0 instructions: 170000004 cycles: 69059067 heartbeat IPC: 0.9878 cumulative IPC: 2.123 (Simulation time: 00 hr 18 min 55 sec)
Heartbeat CPU 0 instructions: 180000004 cycles: 80126714 heartbeat IPC: 0.9035 cumulative IPC: 1.923 (Simulation time: 00 hr 21 min 08 sec)
Heartbeat CPU 0 instructions: 190000001 cycles: 90797580 heartbeat IPC: 0.9371 cumulative IPC: 1.789 (Simulation time: 00 hr 23 min 18 sec)
Heartbeat CPU 0 instructions: 200000004 cycles: 94599640 heartbeat IPC: 2.63 cumulative IPC: 1.828 (Simulation time: 00 hr 24 min 22 sec)
Heartbeat CPU 0 instructions: 210000001 cycles: 98524371 heartbeat IPC: 2.548 cumulative IPC: 1.861 (Simulation time: 00 hr 25 min 28 sec)
Heartbeat CPU 0 instructions: 220000000 cycles: 102486029 heartbeat IPC: 2.524 cumulative IPC: 1.89 (Simulation time: 00 hr 26 min 33 sec)
Heartbeat CPU 0 instructions: 230000002 cycles: 107169502 heartbeat IPC: 2.135 cumulative IPC: 1.902 (Simulation time: 00 hr 27 min 45 sec)
Heartbeat CPU 0 instructions: 240000000 cycles: 111377295 heartbeat IPC: 2.377 cumulative IPC: 1.922 (Simulation time: 00 hr 28 min 53 sec)
Heartbeat CPU 0 instructions: 250000000 cycles: 115702253 heartbeat IPC: 2.312 cumulative IPC: 1.939 (Simulation time: 00 hr 30 min 01 sec)
Heartbeat CPU 0 instructions: 260000000 cycles: 119883226 heartbeat IPC: 2.392 cumulative IPC: 1.956 (Simulation time: 00 hr 31 min 09 sec)
Heartbeat CPU 0 instructions: 270000002 cycles: 123739265 heartbeat IPC: 2.593 cumulative IPC: 1.978 (Simulation time: 00 hr 32 min 14 sec)
Heartbeat CPU 0 instructions: 280000002 cycles: 127904675 heartbeat IPC: 2.401 cumulative IPC: 1.994 (Simulation time: 00 hr 33 min 21 sec)
Heartbeat CPU 0 instructions: 290000001 cycles: 131810101 heartbeat IPC: 2.561 cumulative IPC: 2.012 (Simulation time: 00 hr 34 min 27 sec)
Heartbeat CPU 0 instructions: 300000003 cycles: 135641507 heartbeat IPC: 2.61 cumulative IPC: 2.031 (Simulation time: 00 hr 35 min 33 sec)
Heartbeat CPU 0 instructions: 310000001 cycles: 139785412 heartbeat IPC: 2.413 cumulative IPC: 2.043 (Simulation time: 00 hr 36 min 40 sec)
Heartbeat CPU 0 instructions: 320000003 cycles: 143873952 heartbeat IPC: 2.446 cumulative IPC: 2.056 (Simulation time: 00 hr 37 min 47 sec)
Heartbeat CPU 0 instructions: 330000003 cycles: 148295785 heartbeat IPC: 2.262 cumulative IPC: 2.062 (Simulation time: 00 hr 38 min 57 sec)
Heartbeat CPU 0 instructions: 340000000 cycles: 158577548 heartbeat IPC: 0.9726 cumulative IPC: 1.986 (Simulation time: 00 hr 41 min 01 sec)
Heartbeat CPU 0 instructions: 350000000 cycles: 169955670 heartbeat IPC: 0.8789 cumulative IPC: 1.906 (Simulation time: 00 hr 43 min 17 sec)
Heartbeat CPU 0 instructions: 360000004 cycles: 180711996 heartbeat IPC: 0.9297 cumulative IPC: 1.843 (Simulation time: 00 hr 45 min 26 sec)
Heartbeat CPU 0 instructions: 370000000 cycles: 184154111 heartbeat IPC: 2.905 cumulative IPC: 1.865 (Simulation time: 00 hr 46 min 41 sec)
Heartbeat CPU 0 instructions: 380000001 cycles: 187586740 heartbeat IPC: 2.913 cumulative IPC: 1.885 (Simulation time: 00 hr 47 min 43 sec)
Heartbeat CPU 0 instructions: 390000004 cycles: 191331330 heartbeat IPC: 2.671 cumulative IPC: 1.902 (Simulation time: 00 hr 48 min 48 sec)
Heartbeat CPU 0 instructions: 400000004 cycles: 195141799 heartbeat IPC: 2.624 cumulative IPC: 1.917 (Simulation time: 00 hr 49 min 53 sec)
Heartbeat CPU 0 instructions: 410000001 cycles: 198806538 heartbeat IPC: 2.729 cumulative IPC: 1.933 (Simulation time: 00 hr 50 min 56 sec)
Heartbeat CPU 0 instructions: 420000003 cycles: 202895626 heartbeat IPC: 2.446 cumulative IPC: 1.944 (Simulation time: 00 hr 52 min 03 sec)
Heartbeat CPU 0 instructions: 430000001 cycles: 206569029 heartbeat IPC: 2.722 cumulative IPC: 1.958 (Simulation time: 00 hr 53 min 07 sec)
Heartbeat CPU 0 instructions: 440000004 cycles: 210661047 heartbeat IPC: 2.444 cumulative IPC: 1.968 (Simulation time: 00 hr 54 min 15 sec)
Heartbeat CPU 0 instructions: 450000002 cycles: 214396911 heartbeat IPC: 2.677 cumulative IPC: 1.982 (Simulation time: 00 hr 55 min 20 sec)
Heartbeat CPU 0 instructions: 460000000 cycles: 218067140 heartbeat IPC: 2.725 cumulative IPC: 1.995 (Simulation time: 00 hr 56 min 24 sec)
Heartbeat CPU 0 instructions: 470000000 cycles: 221536202 heartbeat IPC: 2.883 cumulative IPC: 2.01 (Simulation time: 00 hr 57 min 26 sec)
Heartbeat CPU 0 instructions: 480000003 cycles: 225390704 heartbeat IPC: 2.594 cumulative IPC: 2.02 (Simulation time: 00 hr 58 min 31 sec)
Heartbeat CPU 0 instructions: 490000000 cycles: 229017276 heartbeat IPC: 2.757 cumulative IPC: 2.033 (Simulation time: 00 hr 59 min 35 sec)
Heartbeat CPU 0 instructions: 500000000 cycles: 232723143 heartbeat IPC: 2.698 cumulative IPC: 2.044 (Simulation time: 01 hr 00 min 39 sec)
Heartbeat CPU 0 instructions: 510000003 cycles: 236429078 heartbeat IPC: 2.698 cumulative IPC: 2.055 (Simulation time: 01 hr 01 min 44 sec)
Heartbeat CPU 0 instructions: 520000001 cycles: 239841293 heartbeat IPC: 2.931 cumulative IPC: 2.068 (Simulation time: 01 hr 02 min 47 sec)
Heartbeat CPU 0 instructions: 530000002 cycles: 243558406 heartbeat IPC: 2.69 cumulative IPC: 2.078 (Simulation time: 01 hr 03 min 51 sec)
Heartbeat CPU 0 instructions: 540000000 cycles: 247090114 heartbeat IPC: 2.831 cumulative IPC: 2.089 (Simulation time: 01 hr 04 min 54 sec)
Heartbeat CPU 0 instructions: 550000001 cycles: 250785471 heartbeat IPC: 2.706 cumulative IPC: 2.099 (Simulation time: 01 hr 05 min 59 sec)
Heartbeat CPU 0 instructions: 560000000 cycles: 254841623 heartbeat IPC: 2.465 cumulative IPC: 2.105 (Simulation time: 01 hr 07 min 06 sec)
Heartbeat CPU 0 instructions: 570000004 cycles: 261275672 heartbeat IPC: 1.554 cumulative IPC: 2.091 (Simulation time: 01 hr 08 min 36 sec)
Heartbeat CPU 0 instructions: 580000003 cycles: 273345742 heartbeat IPC: 0.8285 cumulative IPC: 2.032 (Simulation time: 01 hr 10 min 59 sec)
Heartbeat CPU 0 instructions: 590000002 cycles: 287071022 heartbeat IPC: 0.7286 cumulative IPC: 1.967 (Simulation time: 01 hr 13 min 37 sec)
Heartbeat CPU 0 instructions: 600000000 cycles: 290823814 heartbeat IPC: 2.665 cumulative IPC: 1.976 (Simulation time: 01 hr 14 min 41 sec)
Heartbeat CPU 0 instructions: 610000000 cycles: 294686845 heartbeat IPC: 2.589 cumulative IPC: 1.985 (Simulation time: 01 hr 15 min 46 sec)
Heartbeat CPU 0 instructions: 620000001 cycles: 298126082 heartbeat IPC: 2.908 cumulative IPC: 1.996 (Simulation time: 01 hr 16 min 48 sec)
Heartbeat CPU 0 instructions: 630000002 cycles: 302408670 heartbeat IPC: 2.335 cumulative IPC: 2.001 (Simulation time: 01 hr 17 min 57 sec)
Heartbeat CPU 0 instructions: 640000001 cycles: 306307192 heartbeat IPC: 2.565 cumulative IPC: 2.008 (Simulation time: 01 hr 19 min 03 sec)
Heartbeat CPU 0 instructions: 650000000 cycles: 310063427 heartbeat IPC: 2.662 cumulative IPC: 2.017 (Simulation time: 01 hr 20 min 08 sec)
Simulation finished CPU 0 instructions: 600000001 cycles: 297526294 cumulative IPC: 2.017 (Simulation time: 01 hr 20 min 08 sec)
Simulation complete CPU 0 instructions: 600000001 cycles: 297526294 cumulative IPC: 2.017 (Simulation time: 01 hr 20 min 08 sec)

ChampSim completed all CPUs

=== Simulation ===
CPU 0 runs traces/400.perlbench-41B.champsimtrace.xz
Region of Interest Statistics

CPU 0 cumulative IPC: 2.017 instructions: 600000001 cycles: 297526294
CPU 0 Branch Prediction Accuracy: 96.56% MPKI: 7.112 Average ROB Occupancy at Mispredict: 47.23
Branch type MPKI
BRANCH_DIRECT_JUMP: 0.0123
BRANCH_INDIRECT: 0.323
BRANCH_CONDITIONAL: 6.56
BRANCH_DIRECT_CALL: 0.0043
BRANCH_INDIRECT_CALL: 0.2
BRANCH_RETURN: 0.00828

LLC TOTAL        ACCESS:     935446 HIT:     481689 MISS:     453757
LLC LOAD         ACCESS:     399396 HIT:     203371 MISS:     196025
LLC RFO          ACCESS:      32319 HIT:      15714 MISS:      16605
LLC PREFETCH     ACCESS:     399396 HIT:     191163 MISS:     208233
LLC WRITE        ACCESS:      85394 HIT:      70946 MISS:      14448
LLC TRANSLATION  ACCESS:      18941 HIT:        495 MISS:      18446
LLC PREFETCH REQUESTED:     399396 ISSUED:     399396 USEFUL:      82897 USELESS:      74804
LLC AVERAGE MISS LATENCY: 571 cycles
cpu0_DTLB TOTAL        ACCESS:  141893962 HIT:  141206855 MISS:     687107
cpu0_DTLB LOAD         ACCESS:  141893962 HIT:  141206855 MISS:     687107
cpu0_DTLB RFO          ACCESS:          0 HIT:          0 MISS:          0
cpu0_DTLB PREFETCH     ACCESS:          0 HIT:          0 MISS:          0
cpu0_DTLB WRITE        ACCESS:          0 HIT:          0 MISS:          0
cpu0_DTLB TRANSLATION  ACCESS:          0 HIT:          0 MISS:          0
cpu0_DTLB PREFETCH REQUESTED:          0 ISSUED:          0 USEFUL:          0 USELESS:          0
cpu0_DTLB AVERAGE MISS LATENCY: 24.09 cycles
cpu0_ITLB TOTAL        ACCESS:    4856790 HIT:    4803625 MISS:      53165
cpu0_ITLB LOAD         ACCESS:    4856790 HIT:    4803625 MISS:      53165
cpu0_ITLB RFO          ACCESS:          0 HIT:          0 MISS:          0
cpu0_ITLB PREFETCH     ACCESS:          0 HIT:          0 MISS:          0
cpu0_ITLB WRITE        ACCESS:          0 HIT:          0 MISS:          0
cpu0_ITLB TRANSLATION  ACCESS:          0 HIT:          0 MISS:          0
cpu0_ITLB PREFETCH REQUESTED:          0 ISSUED:          0 USEFUL:          0 USELESS:          0
cpu0_ITLB AVERAGE MISS LATENCY: 9.558 cycles
cpu0_L1D TOTAL        ACCESS:  188568886 HIT:  187203542 MISS:    1365344
cpu0_L1D LOAD         ACCESS:  105201739 HIT:  104150865 MISS:    1050874
cpu0_L1D RFO          ACCESS:          0 HIT:          0 MISS:          0
cpu0_L1D PREFETCH     ACCESS:          0 HIT:          0 MISS:          0
cpu0_L1D WRITE        ACCESS:   83342676 HIT:   83051074 MISS:     291602
cpu0_L1D TRANSLATION  ACCESS:      24471 HIT:       1603 MISS:      22868
cpu0_L1D PREFETCH REQUESTED:          0 ISSUED:          0 USEFUL:          0 USELESS:          0
cpu0_L1D AVERAGE MISS LATENCY: 113.2 cycles
cpu0_L1I TOTAL        ACCESS:    5594794 HIT:    4851421 MISS:     743373
cpu0_L1I LOAD         ACCESS:    5594794 HIT:    4851421 MISS:     743373
cpu0_L1I RFO          ACCESS:          0 HIT:          0 MISS:          0
cpu0_L1I PREFETCH     ACCESS:          0 HIT:          0 MISS:          0
cpu0_L1I WRITE        ACCESS:          0 HIT:          0 MISS:          0
cpu0_L1I TRANSLATION  ACCESS:          0 HIT:          0 MISS:          0
cpu0_L1I PREFETCH REQUESTED:          0 ISSUED:          0 USEFUL:          0 USELESS:          0
cpu0_L1I AVERAGE MISS LATENCY: 13.56 cycles
cpu0_L2C TOTAL        ACCESS:    1380760 HIT:     926738 MISS:     454022
cpu0_L2C LOAD         ACCESS:    1124737 HIT:     725341 MISS:     399396
cpu0_L2C RFO          ACCESS:      63782 HIT:      31463 MISS:      32319
cpu0_L2C PREFETCH     ACCESS:          0 HIT:          0 MISS:          0
cpu0_L2C WRITE        ACCESS:     169451 HIT:     166085 MISS:       3366
cpu0_L2C TRANSLATION  ACCESS:      22790 HIT:       3849 MISS:      18941
cpu0_L2C PREFETCH REQUESTED:          0 ISSUED:          0 USEFUL:          0 USELESS:          0
cpu0_L2C AVERAGE MISS LATENCY: 347.3 cycles
cpu0_STLB TOTAL        ACCESS:     507286 HIT:     484492 MISS:      22794
cpu0_STLB LOAD         ACCESS:     507286 HIT:     484492 MISS:      22794
cpu0_STLB RFO          ACCESS:          0 HIT:          0 MISS:          0
cpu0_STLB PREFETCH     ACCESS:          0 HIT:          0 MISS:          0
cpu0_STLB WRITE        ACCESS:          0 HIT:          0 MISS:          0
cpu0_STLB TRANSLATION  ACCESS:          0 HIT:          0 MISS:          0
cpu0_STLB PREFETCH REQUESTED:          0 ISSUED:          0 USEFUL:          0 USELESS:          0
cpu0_STLB AVERAGE MISS LATENCY: 622.4 cycles

DRAM Statistics

Channel 0 RQ ROW_BUFFER_HIT:      62695
  ROW_BUFFER_MISS:     311541
 AVG DBUS CONGESTED CYCLE: 3.88
WQ ROW_BUFFER_HIT: Channel 0 
  ROW_BUFFER_MISS:       6699
  FULL:      40784
Final OPTGen Hits: 8467
Final OPTGen Access: 9231
Final OPTGEN Hit Rate: 91.7236
