WARNING: physical memory size is smaller than virtual memory size.

*** ChampSim Multicore Out-of-Order Simulator ***
Warmup Instructions: 50000000
Simulation Instructions: 600000000
Number of CPUs: 1
Page size: 4096

Off-chip DRAM Size: 4 GiB Channels: 1 Width: 64-bit Data Race: 3200 MT/s
Heartbeat CPU 0 instructions: 10000001 cycles: 2500318 heartbeat IPC: 3.999 cumulative IPC: 3.999 (Simulation time: 00 hr 00 min 51 sec)
Heartbeat CPU 0 instructions: 20000002 cycles: 5037130 heartbeat IPC: 3.942 cumulative IPC: 3.971 (Simulation time: 00 hr 01 min 51 sec)
Heartbeat CPU 0 instructions: 30000002 cycles: 7537130 heartbeat IPC: 4 cumulative IPC: 3.98 (Simulation time: 00 hr 02 min 53 sec)
Heartbeat CPU 0 instructions: 40000002 cycles: 10037130 heartbeat IPC: 4 cumulative IPC: 3.985 (Simulation time: 00 hr 03 min 59 sec)
Heartbeat CPU 0 instructions: 50000002 cycles: 12537130 heartbeat IPC: 4 cumulative IPC: 3.988 (Simulation time: 00 hr 05 min 02 sec)
Warmup finished CPU 0 instructions: 50000002 cycles: 12537131 cumulative IPC: 3.988 (Simulation time: 00 hr 05 min 02 sec)
Warmup complete CPU 0 instructions: 50000002 cycles: 12537131 cumulative IPC: 3.988 (Simulation time: 00 hr 05 min 02 sec)
Heartbeat CPU 0 instructions: 60000000 cycles: 17720573 heartbeat IPC: 1.929 cumulative IPC: 1.929 (Simulation time: 00 hr 06 min 31 sec)
Heartbeat CPU 0 instructions: 70000002 cycles: 22629095 heartbeat IPC: 2.037 cumulative IPC: 1.982 (Simulation time: 00 hr 07 min 52 sec)
Heartbeat CPU 0 instructions: 80000001 cycles: 28006612 heartbeat IPC: 1.86 cumulative IPC: 1.939 (Simulation time: 00 hr 09 min 10 sec)
Heartbeat CPU 0 instructions: 90000001 cycles: 32903879 heartbeat IPC: 2.042 cumulative IPC: 1.964 (Simulation time: 00 hr 10 min 27 sec)
Heartbeat CPU 0 instructions: 100000000 cycles: 38030728 heartbeat IPC: 1.951 cumulative IPC: 1.961 (Simulation time: 00 hr 11 min 44 sec)
Heartbeat CPU 0 instructions: 110000000 cycles: 42932592 heartbeat IPC: 2.04 cumulative IPC: 1.974 (Simulation time: 00 hr 13 min 19 sec)
Heartbeat CPU 0 instructions: 120000001 cycles: 48138500 heartbeat IPC: 1.921 cumulative IPC: 1.966 (Simulation time: 00 hr 14 min 53 sec)
Heartbeat CPU 0 instructions: 130000001 cycles: 53308496 heartbeat IPC: 1.934 cumulative IPC: 1.962 (Simulation time: 00 hr 16 min 23 sec)
Heartbeat CPU 0 instructions: 140000001 cycles: 58642687 heartbeat IPC: 1.875 cumulative IPC: 1.952 (Simulation time: 00 hr 17 min 44 sec)
Heartbeat CPU 0 instructions: 150000001 cycles: 63974666 heartbeat IPC: 1.875 cumulative IPC: 1.944 (Simulation time: 00 hr 19 min 02 sec)
Heartbeat CPU 0 instructions: 160000004 cycles: 69189656 heartbeat IPC: 1.918 cumulative IPC: 1.942 (Simulation time: 00 hr 20 min 19 sec)
Heartbeat CPU 0 instructions: 170000000 cycles: 79916263 heartbeat IPC: 0.9323 cumulative IPC: 1.781 (Simulation time: 00 hr 22 min 26 sec)
Heartbeat CPU 0 instructions: 180000004 cycles: 90723583 heartbeat IPC: 0.9253 cumulative IPC: 1.663 (Simulation time: 00 hr 24 min 55 sec)
Heartbeat CPU 0 instructions: 190000001 cycles: 101572431 heartbeat IPC: 0.9218 cumulative IPC: 1.572 (Simulation time: 00 hr 27 min 19 sec)
Heartbeat CPU 0 instructions: 200000003 cycles: 106353020 heartbeat IPC: 2.092 cumulative IPC: 1.599 (Simulation time: 00 hr 28 min 36 sec)
Heartbeat CPU 0 instructions: 210000001 cycles: 111284771 heartbeat IPC: 2.028 cumulative IPC: 1.62 (Simulation time: 00 hr 29 min 52 sec)
Heartbeat CPU 0 instructions: 220000000 cycles: 116115469 heartbeat IPC: 2.07 cumulative IPC: 1.641 (Simulation time: 00 hr 31 min 04 sec)
Heartbeat CPU 0 instructions: 230000002 cycles: 121454518 heartbeat IPC: 1.873 cumulative IPC: 1.653 (Simulation time: 00 hr 32 min 17 sec)
Heartbeat CPU 0 instructions: 240000000 cycles: 126314215 heartbeat IPC: 2.058 cumulative IPC: 1.67 (Simulation time: 00 hr 33 min 35 sec)
Heartbeat CPU 0 instructions: 250000000 cycles: 131479699 heartbeat IPC: 1.936 cumulative IPC: 1.681 (Simulation time: 00 hr 35 min 06 sec)
Heartbeat CPU 0 instructions: 260000000 cycles: 136519081 heartbeat IPC: 1.984 cumulative IPC: 1.694 (Simulation time: 00 hr 36 min 36 sec)
Heartbeat CPU 0 instructions: 270000002 cycles: 141417341 heartbeat IPC: 2.042 cumulative IPC: 1.707 (Simulation time: 00 hr 37 min 53 sec)
Heartbeat CPU 0 instructions: 280000002 cycles: 146340392 heartbeat IPC: 2.031 cumulative IPC: 1.719 (Simulation time: 00 hr 39 min 09 sec)
Heartbeat CPU 0 instructions: 290000001 cycles: 151719953 heartbeat IPC: 1.859 cumulative IPC: 1.724 (Simulation time: 00 hr 40 min 34 sec)
Heartbeat CPU 0 instructions: 300000003 cycles: 156793738 heartbeat IPC: 1.971 cumulative IPC: 1.733 (Simulation time: 00 hr 41 min 50 sec)
Heartbeat CPU 0 instructions: 310000001 cycles: 162108816 heartbeat IPC: 1.881 cumulative IPC: 1.738 (Simulation time: 00 hr 43 min 05 sec)
Heartbeat CPU 0 instructions: 320000003 cycles: 167327500 heartbeat IPC: 1.916 cumulative IPC: 1.744 (Simulation time: 00 hr 44 min 19 sec)
Heartbeat CPU 0 instructions: 330000003 cycles: 172636476 heartbeat IPC: 1.884 cumulative IPC: 1.749 (Simulation time: 00 hr 45 min 27 sec)
Heartbeat CPU 0 instructions: 340000000 cycles: 183608851 heartbeat IPC: 0.9114 cumulative IPC: 1.695 (Simulation time: 00 hr 47 min 57 sec)
Heartbeat CPU 0 instructions: 350000000 cycles: 195089943 heartbeat IPC: 0.871 cumulative IPC: 1.643 (Simulation time: 00 hr 50 min 32 sec)
Heartbeat CPU 0 instructions: 360000004 cycles: 206013704 heartbeat IPC: 0.9154 cumulative IPC: 1.602 (Simulation time: 00 hr 52 min 41 sec)
Heartbeat CPU 0 instructions: 370000000 cycles: 210433932 heartbeat IPC: 2.262 cumulative IPC: 1.617 (Simulation time: 00 hr 53 min 53 sec)
Heartbeat CPU 0 instructions: 380000001 cycles: 215367438 heartbeat IPC: 2.027 cumulative IPC: 1.627 (Simulation time: 00 hr 55 min 09 sec)
Heartbeat CPU 0 instructions: 390000002 cycles: 220198984 heartbeat IPC: 2.07 cumulative IPC: 1.637 (Simulation time: 00 hr 56 min 19 sec)
Heartbeat CPU 0 instructions: 400000004 cycles: 225135678 heartbeat IPC: 2.026 cumulative IPC: 1.646 (Simulation time: 00 hr 57 min 32 sec)
Heartbeat CPU 0 instructions: 410000000 cycles: 229865928 heartbeat IPC: 2.114 cumulative IPC: 1.656 (Simulation time: 00 hr 58 min 42 sec)
Heartbeat CPU 0 instructions: 420000000 cycles: 235001458 heartbeat IPC: 1.947 cumulative IPC: 1.663 (Simulation time: 01 hr 00 min 05 sec)
Heartbeat CPU 0 instructions: 430000001 cycles: 239475630 heartbeat IPC: 2.235 cumulative IPC: 1.674 (Simulation time: 01 hr 01 min 38 sec)
Heartbeat CPU 0 instructions: 440000000 cycles: 244838267 heartbeat IPC: 1.865 cumulative IPC: 1.679 (Simulation time: 01 hr 03 min 13 sec)
Heartbeat CPU 0 instructions: 450000002 cycles: 249518623 heartbeat IPC: 2.137 cumulative IPC: 1.688 (Simulation time: 01 hr 04 min 32 sec)
Heartbeat CPU 0 instructions: 460000000 cycles: 254322039 heartbeat IPC: 2.082 cumulative IPC: 1.696 (Simulation time: 01 hr 05 min 50 sec)
Heartbeat CPU 0 instructions: 470000000 cycles: 259308384 heartbeat IPC: 2.005 cumulative IPC: 1.702 (Simulation time: 01 hr 07 min 15 sec)
Heartbeat CPU 0 instructions: 480000003 cycles: 264099783 heartbeat IPC: 2.087 cumulative IPC: 1.709 (Simulation time: 01 hr 08 min 34 sec)
Heartbeat CPU 0 instructions: 490000000 cycles: 268712815 heartbeat IPC: 2.168 cumulative IPC: 1.718 (Simulation time: 01 hr 09 min 48 sec)
Heartbeat CPU 0 instructions: 500000000 cycles: 273741532 heartbeat IPC: 1.989 cumulative IPC: 1.723 (Simulation time: 01 hr 11 min 03 sec)
Heartbeat CPU 0 instructions: 510000003 cycles: 279369815 heartbeat IPC: 1.777 cumulative IPC: 1.724 (Simulation time: 01 hr 12 min 24 sec)
Heartbeat CPU 0 instructions: 520000001 cycles: 284072263 heartbeat IPC: 2.127 cumulative IPC: 1.731 (Simulation time: 01 hr 13 min 44 sec)
Heartbeat CPU 0 instructions: 530000002 cycles: 289224952 heartbeat IPC: 1.941 cumulative IPC: 1.735 (Simulation time: 01 hr 15 min 20 sec)
Heartbeat CPU 0 instructions: 540000000 cycles: 294351140 heartbeat IPC: 1.951 cumulative IPC: 1.739 (Simulation time: 01 hr 16 min 54 sec)
Heartbeat CPU 0 instructions: 550000001 cycles: 299163790 heartbeat IPC: 2.078 cumulative IPC: 1.744 (Simulation time: 01 hr 18 min 16 sec)
Heartbeat CPU 0 instructions: 560000000 cycles: 304387162 heartbeat IPC: 1.914 cumulative IPC: 1.747 (Simulation time: 01 hr 19 min 41 sec)
Heartbeat CPU 0 instructions: 570000004 cycles: 311922232 heartbeat IPC: 1.327 cumulative IPC: 1.737 (Simulation time: 01 hr 21 min 29 sec)
Heartbeat CPU 0 instructions: 580000003 cycles: 324077630 heartbeat IPC: 0.8227 cumulative IPC: 1.701 (Simulation time: 01 hr 23 min 51 sec)
Heartbeat CPU 0 instructions: 590000002 cycles: 337597377 heartbeat IPC: 0.7397 cumulative IPC: 1.661 (Simulation time: 01 hr 26 min 30 sec)
Heartbeat CPU 0 instructions: 600000000 cycles: 342181195 heartbeat IPC: 2.182 cumulative IPC: 1.668 (Simulation time: 01 hr 28 min 06 sec)
Heartbeat CPU 0 instructions: 610000002 cycles: 346681295 heartbeat IPC: 2.222 cumulative IPC: 1.676 (Simulation time: 01 hr 29 min 35 sec)
Heartbeat CPU 0 instructions: 620000000 cycles: 351492881 heartbeat IPC: 2.078 cumulative IPC: 1.682 (Simulation time: 01 hr 31 min 01 sec)
Heartbeat CPU 0 instructions: 630000002 cycles: 356583784 heartbeat IPC: 1.964 cumulative IPC: 1.686 (Simulation time: 01 hr 32 min 28 sec)
Heartbeat CPU 0 instructions: 640000001 cycles: 361438062 heartbeat IPC: 2.06 cumulative IPC: 1.691 (Simulation time: 01 hr 33 min 56 sec)
Heartbeat CPU 0 instructions: 650000000 cycles: 365994314 heartbeat IPC: 2.195 cumulative IPC: 1.698 (Simulation time: 01 hr 35 min 13 sec)
Simulation finished CPU 0 instructions: 600000001 cycles: 353457185 cumulative IPC: 1.698 (Simulation time: 01 hr 35 min 13 sec)
Simulation complete CPU 0 instructions: 600000001 cycles: 353457185 cumulative IPC: 1.698 (Simulation time: 01 hr 35 min 13 sec)

ChampSim completed all CPUs

=== Simulation ===
CPU 0 runs traces/400.perlbench-41B.champsimtrace.xz
Region of Interest Statistics

CPU 0 cumulative IPC: 1.698 instructions: 600000001 cycles: 353457185
CPU 0 Branch Prediction Accuracy: 93.95% MPKI: 12.5 Average ROB Occupancy at Mispredict: 29.67
Branch type MPKI
BRANCH_DIRECT_JUMP: 0.0123
BRANCH_INDIRECT: 0.323
BRANCH_CONDITIONAL: 12
BRANCH_DIRECT_CALL: 0.0043
BRANCH_INDIRECT_CALL: 0.2
BRANCH_RETURN: 0.00828

LLC TOTAL        ACCESS:     540181 HIT:     266361 MISS:     273820
LLC LOAD         ACCESS:     402475 HIT:     155734 MISS:     246741
LLC RFO          ACCESS:      32424 HIT:      15883 MISS:      16541
LLC PREFETCH     ACCESS:          0 HIT:          0 MISS:          0
LLC WRITE        ACCESS:      86345 HIT:      85969 MISS:        376
LLC TRANSLATION  ACCESS:      18937 HIT:       8775 MISS:      10162
LLC PREFETCH REQUESTED:          0 ISSUED:          0 USEFUL:          0 USELESS:          0
LLC AVERAGE MISS LATENCY: 569.2 cycles
cpu0_DTLB TOTAL        ACCESS:  153669841 HIT:  152991832 MISS:     678009
cpu0_DTLB LOAD         ACCESS:  153669841 HIT:  152991832 MISS:     678009
cpu0_DTLB RFO          ACCESS:          0 HIT:          0 MISS:          0
cpu0_DTLB PREFETCH     ACCESS:          0 HIT:          0 MISS:          0
cpu0_DTLB WRITE        ACCESS:          0 HIT:          0 MISS:          0
cpu0_DTLB TRANSLATION  ACCESS:          0 HIT:          0 MISS:          0
cpu0_DTLB PREFETCH REQUESTED:          0 ISSUED:          0 USEFUL:          0 USELESS:          0
cpu0_DTLB AVERAGE MISS LATENCY: 15.97 cycles
cpu0_ITLB TOTAL        ACCESS:    4835116 HIT:    4777253 MISS:      57863
cpu0_ITLB LOAD         ACCESS:    4835116 HIT:    4777253 MISS:      57863
cpu0_ITLB RFO          ACCESS:          0 HIT:          0 MISS:          0
cpu0_ITLB PREFETCH     ACCESS:          0 HIT:          0 MISS:          0
cpu0_ITLB WRITE        ACCESS:          0 HIT:          0 MISS:          0
cpu0_ITLB TRANSLATION  ACCESS:          0 HIT:          0 MISS:          0
cpu0_ITLB PREFETCH REQUESTED:          0 ISSUED:          0 USEFUL:          0 USELESS:          0
cpu0_ITLB AVERAGE MISS LATENCY: 7.428 cycles
cpu0_L1D TOTAL        ACCESS:  200281706 HIT:  198916585 MISS:    1365121
cpu0_L1D LOAD         ACCESS:  117037725 HIT:  115988346 MISS:    1049379
cpu0_L1D RFO          ACCESS:          0 HIT:          0 MISS:          0
cpu0_L1D PREFETCH     ACCESS:          0 HIT:          0 MISS:          0
cpu0_L1D WRITE        ACCESS:   83219522 HIT:   82926670 MISS:     292852
cpu0_L1D TRANSLATION  ACCESS:      24459 HIT:       1569 MISS:      22890
cpu0_L1D PREFETCH REQUESTED:          0 ISSUED:          0 USEFUL:          0 USELESS:          0
cpu0_L1D AVERAGE MISS LATENCY: 118.1 cycles
cpu0_L1I TOTAL        ACCESS:    5577364 HIT:    4815807 MISS:     761557
cpu0_L1I LOAD         ACCESS:    5577364 HIT:    4815807 MISS:     761557
cpu0_L1I RFO          ACCESS:          0 HIT:          0 MISS:          0
cpu0_L1I PREFETCH     ACCESS:          0 HIT:          0 MISS:          0
cpu0_L1I WRITE        ACCESS:          0 HIT:          0 MISS:          0
cpu0_L1I TRANSLATION  ACCESS:          0 HIT:          0 MISS:          0
cpu0_L1I PREFETCH REQUESTED:          0 ISSUED:          0 USEFUL:          0 USELESS:          0
cpu0_L1I AVERAGE MISS LATENCY: 14.35 cycles
cpu0_L2C TOTAL        ACCESS:    1382437 HIT:     924946 MISS:     457491
cpu0_L2C LOAD         ACCESS:    1125633 HIT:     723158 MISS:     402475
cpu0_L2C RFO          ACCESS:      63904 HIT:      31480 MISS:      32424
cpu0_L2C PREFETCH     ACCESS:          0 HIT:          0 MISS:          0
cpu0_L2C WRITE        ACCESS:     170090 HIT:     166435 MISS:       3655
cpu0_L2C TRANSLATION  ACCESS:      22810 HIT:       3873 MISS:      18937
cpu0_L2C PREFETCH REQUESTED:          0 ISSUED:          0 USEFUL:          0 USELESS:          0
cpu0_L2C AVERAGE MISS LATENCY: 361.1 cycles
cpu0_STLB TOTAL        ACCESS:     505189 HIT:     482399 MISS:      22790
cpu0_STLB LOAD         ACCESS:     505189 HIT:     482399 MISS:      22790
cpu0_STLB RFO          ACCESS:          0 HIT:          0 MISS:          0
cpu0_STLB PREFETCH     ACCESS:          0 HIT:          0 MISS:          0
cpu0_STLB WRITE        ACCESS:          0 HIT:          0 MISS:          0
cpu0_STLB TRANSLATION  ACCESS:          0 HIT:          0 MISS:          0
cpu0_STLB PREFETCH REQUESTED:          0 ISSUED:          0 USEFUL:          0 USELESS:          0
cpu0_STLB AVERAGE MISS LATENCY: 355.2 cycles

DRAM Statistics

Channel 0 RQ ROW_BUFFER_HIT:      41397
  ROW_BUFFER_MISS:     232020
 AVG DBUS CONGESTED CYCLE: 3.813
WQ ROW_BUFFER_HIT: Channel 0 
  ROW_BUFFER_MISS:       7654
  FULL:      37036
