WARNING: physical memory size is smaller than virtual memory size.

*** ChampSim Multicore Out-of-Order Simulator ***
Warmup Instructions: 50000000
Simulation Instructions: 600000000
Number of CPUs: 1
Page size: 4096

Off-chip DRAM Size: 4 GiB Channels: 1 Width: 64-bit Data Race: 3200 MT/s
Heartbeat CPU 0 instructions: 10000001 cycles: 2500318 heartbeat IPC: 3.999 cumulative IPC: 3.999 (Simulation time: 00 hr 01 min 02 sec)
Heartbeat CPU 0 instructions: 20000002 cycles: 5037125 heartbeat IPC: 3.942 cumulative IPC: 3.971 (Simulation time: 00 hr 02 min 16 sec)
Heartbeat CPU 0 instructions: 30000002 cycles: 7537125 heartbeat IPC: 4 cumulative IPC: 3.98 (Simulation time: 00 hr 03 min 16 sec)
Heartbeat CPU 0 instructions: 40000002 cycles: 10037125 heartbeat IPC: 4 cumulative IPC: 3.985 (Simulation time: 00 hr 04 min 18 sec)
Heartbeat CPU 0 instructions: 50000002 cycles: 12537125 heartbeat IPC: 4 cumulative IPC: 3.988 (Simulation time: 00 hr 05 min 14 sec)
Warmup finished CPU 0 instructions: 50000002 cycles: 12537126 cumulative IPC: 3.988 (Simulation time: 00 hr 05 min 14 sec)
Warmup complete CPU 0 instructions: 50000002 cycles: 12537126 cumulative IPC: 3.988 (Simulation time: 00 hr 05 min 14 sec)
Heartbeat CPU 0 instructions: 60000000 cycles: 17148294 heartbeat IPC: 2.169 cumulative IPC: 2.169 (Simulation time: 00 hr 06 min 32 sec)
Heartbeat CPU 0 instructions: 70000004 cycles: 21424919 heartbeat IPC: 2.338 cumulative IPC: 2.25 (Simulation time: 00 hr 07 min 58 sec)
Heartbeat CPU 0 instructions: 80000001 cycles: 26022993 heartbeat IPC: 2.175 cumulative IPC: 2.225 (Simulation time: 00 hr 09 min 15 sec)
Heartbeat CPU 0 instructions: 90000001 cycles: 30156957 heartbeat IPC: 2.419 cumulative IPC: 2.27 (Simulation time: 00 hr 10 min 26 sec)
Heartbeat CPU 0 instructions: 100000000 cycles: 34213362 heartbeat IPC: 2.465 cumulative IPC: 2.307 (Simulation time: 00 hr 11 min 34 sec)
Heartbeat CPU 0 instructions: 110000000 cycles: 38449350 heartbeat IPC: 2.361 cumulative IPC: 2.316 (Simulation time: 00 hr 12 min 39 sec)
Heartbeat CPU 0 instructions: 120000001 cycles: 42459964 heartbeat IPC: 2.493 cumulative IPC: 2.339 (Simulation time: 00 hr 13 min 43 sec)
Heartbeat CPU 0 instructions: 130000001 cycles: 46198711 heartbeat IPC: 2.675 cumulative IPC: 2.377 (Simulation time: 00 hr 15 min 04 sec)
Heartbeat CPU 0 instructions: 140000001 cycles: 50370565 heartbeat IPC: 2.397 cumulative IPC: 2.379 (Simulation time: 00 hr 16 min 37 sec)
Heartbeat CPU 0 instructions: 150000001 cycles: 54576080 heartbeat IPC: 2.378 cumulative IPC: 2.379 (Simulation time: 00 hr 18 min 00 sec)
Heartbeat CPU 0 instructions: 160000004 cycles: 58999430 heartbeat IPC: 2.261 cumulative IPC: 2.368 (Simulation time: 00 hr 19 min 20 sec)
Heartbeat CPU 0 instructions: 170000000 cycles: 68563984 heartbeat IPC: 1.046 cumulative IPC: 2.142 (Simulation time: 00 hr 21 min 32 sec)
Heartbeat CPU 0 instructions: 180000004 cycles: 79178581 heartbeat IPC: 0.9421 cumulative IPC: 1.951 (Simulation time: 00 hr 23 min 44 sec)
Heartbeat CPU 0 instructions: 190000001 cycles: 89383890 heartbeat IPC: 0.9799 cumulative IPC: 1.822 (Simulation time: 00 hr 25 min 45 sec)
Heartbeat CPU 0 instructions: 200000004 cycles: 93169250 heartbeat IPC: 2.642 cumulative IPC: 1.86 (Simulation time: 00 hr 26 min 48 sec)
Heartbeat CPU 0 instructions: 210000001 cycles: 97090611 heartbeat IPC: 2.55 cumulative IPC: 1.892 (Simulation time: 00 hr 28 min 03 sec)
Heartbeat CPU 0 instructions: 220000000 cycles: 101053108 heartbeat IPC: 2.524 cumulative IPC: 1.921 (Simulation time: 00 hr 29 min 34 sec)
Heartbeat CPU 0 instructions: 230000002 cycles: 105732653 heartbeat IPC: 2.137 cumulative IPC: 1.931 (Simulation time: 00 hr 31 min 02 sec)
Heartbeat CPU 0 instructions: 240000000 cycles: 109928356 heartbeat IPC: 2.383 cumulative IPC: 1.951 (Simulation time: 00 hr 32 min 19 sec)
Heartbeat CPU 0 instructions: 250000000 cycles: 114255505 heartbeat IPC: 2.311 cumulative IPC: 1.966 (Simulation time: 00 hr 33 min 30 sec)
Heartbeat CPU 0 instructions: 260000000 cycles: 118444835 heartbeat IPC: 2.387 cumulative IPC: 1.983 (Simulation time: 00 hr 34 min 44 sec)
Heartbeat CPU 0 instructions: 270000002 cycles: 122302676 heartbeat IPC: 2.592 cumulative IPC: 2.004 (Simulation time: 00 hr 35 min 55 sec)
Heartbeat CPU 0 instructions: 280000002 cycles: 126476415 heartbeat IPC: 2.396 cumulative IPC: 2.019 (Simulation time: 00 hr 37 min 04 sec)
Heartbeat CPU 0 instructions: 290000001 cycles: 130380501 heartbeat IPC: 2.561 cumulative IPC: 2.037 (Simulation time: 00 hr 38 min 08 sec)
Heartbeat CPU 0 instructions: 300000003 cycles: 134213424 heartbeat IPC: 2.609 cumulative IPC: 2.055 (Simulation time: 00 hr 39 min 10 sec)
Heartbeat CPU 0 instructions: 310000001 cycles: 138349337 heartbeat IPC: 2.418 cumulative IPC: 2.067 (Simulation time: 00 hr 40 min 12 sec)
Heartbeat CPU 0 instructions: 320000003 cycles: 142429718 heartbeat IPC: 2.451 cumulative IPC: 2.079 (Simulation time: 00 hr 41 min 10 sec)
Heartbeat CPU 0 instructions: 330000003 cycles: 146847695 heartbeat IPC: 2.263 cumulative IPC: 2.085 (Simulation time: 00 hr 42 min 10 sec)
Heartbeat CPU 0 instructions: 340000000 cycles: 156644568 heartbeat IPC: 1.021 cumulative IPC: 2.012 (Simulation time: 00 hr 43 min 52 sec)
Heartbeat CPU 0 instructions: 350000000 cycles: 167674246 heartbeat IPC: 0.9066 cumulative IPC: 1.934 (Simulation time: 00 hr 45 min 44 sec)
Heartbeat CPU 0 instructions: 360000004 cycles: 177826025 heartbeat IPC: 0.985 cumulative IPC: 1.876 (Simulation time: 00 hr 47 min 31 sec)
Heartbeat CPU 0 instructions: 370000000 cycles: 181277288 heartbeat IPC: 2.897 cumulative IPC: 1.896 (Simulation time: 00 hr 48 min 30 sec)
Heartbeat CPU 0 instructions: 380000001 cycles: 184700569 heartbeat IPC: 2.921 cumulative IPC: 1.917 (Simulation time: 00 hr 49 min 28 sec)
Heartbeat CPU 0 instructions: 390000004 cycles: 188445591 heartbeat IPC: 2.67 cumulative IPC: 1.933 (Simulation time: 00 hr 50 min 29 sec)
Heartbeat CPU 0 instructions: 400000004 cycles: 192258442 heartbeat IPC: 2.623 cumulative IPC: 1.947 (Simulation time: 00 hr 51 min 28 sec)
Heartbeat CPU 0 instructions: 410000001 cycles: 195917374 heartbeat IPC: 2.733 cumulative IPC: 1.963 (Simulation time: 00 hr 52 min 27 sec)
Heartbeat CPU 0 instructions: 420000003 cycles: 199953693 heartbeat IPC: 2.478 cumulative IPC: 1.974 (Simulation time: 00 hr 53 min 28 sec)
Heartbeat CPU 0 instructions: 430000001 cycles: 203611619 heartbeat IPC: 2.734 cumulative IPC: 1.989 (Simulation time: 00 hr 54 min 27 sec)
Heartbeat CPU 0 instructions: 440000004 cycles: 207701844 heartbeat IPC: 2.445 cumulative IPC: 1.998 (Simulation time: 00 hr 55 min 29 sec)
Heartbeat CPU 0 instructions: 450000002 cycles: 211441351 heartbeat IPC: 2.674 cumulative IPC: 2.011 (Simulation time: 00 hr 56 min 29 sec)
Heartbeat CPU 0 instructions: 460000000 cycles: 215115595 heartbeat IPC: 2.722 cumulative IPC: 2.024 (Simulation time: 00 hr 57 min 31 sec)
Heartbeat CPU 0 instructions: 470000000 cycles: 218585438 heartbeat IPC: 2.882 cumulative IPC: 2.038 (Simulation time: 00 hr 58 min 23 sec)
Heartbeat CPU 0 instructions: 480000003 cycles: 222403985 heartbeat IPC: 2.619 cumulative IPC: 2.049 (Simulation time: 00 hr 59 min 08 sec)
Heartbeat CPU 0 instructions: 490000000 cycles: 226037646 heartbeat IPC: 2.752 cumulative IPC: 2.061 (Simulation time: 00 hr 59 min 52 sec)
Heartbeat CPU 0 instructions: 500000000 cycles: 229739760 heartbeat IPC: 2.701 cumulative IPC: 2.072 (Simulation time: 01 hr 00 min 38 sec)
Heartbeat CPU 0 instructions: 510000003 cycles: 233389905 heartbeat IPC: 2.74 cumulative IPC: 2.083 (Simulation time: 01 hr 01 min 23 sec)
Heartbeat CPU 0 instructions: 520000001 cycles: 236809907 heartbeat IPC: 2.924 cumulative IPC: 2.096 (Simulation time: 01 hr 02 min 07 sec)
Heartbeat CPU 0 instructions: 530000002 cycles: 240483312 heartbeat IPC: 2.722 cumulative IPC: 2.106 (Simulation time: 01 hr 02 min 52 sec)
Heartbeat CPU 0 instructions: 540000000 cycles: 244018239 heartbeat IPC: 2.829 cumulative IPC: 2.117 (Simulation time: 01 hr 03 min 36 sec)
Heartbeat CPU 0 instructions: 550000001 cycles: 247719662 heartbeat IPC: 2.702 cumulative IPC: 2.126 (Simulation time: 01 hr 04 min 23 sec)
Heartbeat CPU 0 instructions: 560000000 cycles: 251699208 heartbeat IPC: 2.513 cumulative IPC: 2.132 (Simulation time: 01 hr 05 min 09 sec)
Heartbeat CPU 0 instructions: 570000004 cycles: 258030720 heartbeat IPC: 1.579 cumulative IPC: 2.118 (Simulation time: 01 hr 06 min 10 sec)
Heartbeat CPU 0 instructions: 580000003 cycles: 269389866 heartbeat IPC: 0.8803 cumulative IPC: 2.063 (Simulation time: 01 hr 07 min 42 sec)
Heartbeat CPU 0 instructions: 590000002 cycles: 282460913 heartbeat IPC: 0.765 cumulative IPC: 2.001 (Simulation time: 01 hr 09 min 24 sec)
Heartbeat CPU 0 instructions: 600000000 cycles: 286211367 heartbeat IPC: 2.666 cumulative IPC: 2.01 (Simulation time: 01 hr 10 min 09 sec)
Heartbeat CPU 0 instructions: 610000000 cycles: 290079069 heartbeat IPC: 2.586 cumulative IPC: 2.018 (Simulation time: 01 hr 10 min 53 sec)
Heartbeat CPU 0 instructions: 620000001 cycles: 293513171 heartbeat IPC: 2.912 cumulative IPC: 2.029 (Simulation time: 01 hr 11 min 35 sec)
Heartbeat CPU 0 instructions: 630000002 cycles: 297792709 heartbeat IPC: 2.337 cumulative IPC: 2.033 (Simulation time: 01 hr 12 min 19 sec)
Heartbeat CPU 0 instructions: 640000001 cycles: 301692028 heartbeat IPC: 2.565 cumulative IPC: 2.04 (Simulation time: 01 hr 13 min 02 sec)
Heartbeat CPU 0 instructions: 650000000 cycles: 305448664 heartbeat IPC: 2.662 cumulative IPC: 2.048 (Simulation time: 01 hr 13 min 41 sec)
Simulation finished CPU 0 instructions: 600000001 cycles: 292911540 cumulative IPC: 2.048 (Simulation time: 01 hr 13 min 41 sec)
Simulation complete CPU 0 instructions: 600000001 cycles: 292911540 cumulative IPC: 2.048 (Simulation time: 01 hr 13 min 41 sec)

ChampSim completed all CPUs

=== Simulation ===
CPU 0 runs traces/400.perlbench-41B.champsimtrace.xz
Region of Interest Statistics

CPU 0 cumulative IPC: 2.048 instructions: 600000001 cycles: 292911540
CPU 0 Branch Prediction Accuracy: 96.56% MPKI: 7.112 Average ROB Occupancy at Mispredict: 47.34
Branch type MPKI
BRANCH_DIRECT_JUMP: 0.0123
BRANCH_INDIRECT: 0.323
BRANCH_CONDITIONAL: 6.56
BRANCH_DIRECT_CALL: 0.0043
BRANCH_INDIRECT_CALL: 0.2
BRANCH_RETURN: 0.00828

LLC TOTAL        ACCESS:     538990 HIT:     282688 MISS:     256302
LLC LOAD         ACCESS:     401867 HIT:     170828 MISS:     231039
LLC RFO          ACCESS:      32414 HIT:      17330 MISS:      15084
LLC PREFETCH     ACCESS:          0 HIT:          0 MISS:          0
LLC WRITE        ACCESS:      85759 HIT:      85407 MISS:        352
LLC TRANSLATION  ACCESS:      18950 HIT:       9123 MISS:       9827
LLC PREFETCH REQUESTED:          0 ISSUED:          0 USEFUL:          0 USELESS:          0
LLC AVERAGE MISS LATENCY: 572.7 cycles
cpu0_DTLB TOTAL        ACCESS:  141897519 HIT:  141211120 MISS:     686399
cpu0_DTLB LOAD         ACCESS:  141897519 HIT:  141211120 MISS:     686399
cpu0_DTLB RFO          ACCESS:          0 HIT:          0 MISS:          0
cpu0_DTLB PREFETCH     ACCESS:          0 HIT:          0 MISS:          0
cpu0_DTLB WRITE        ACCESS:          0 HIT:          0 MISS:          0
cpu0_DTLB TRANSLATION  ACCESS:          0 HIT:          0 MISS:          0
cpu0_DTLB PREFETCH REQUESTED:          0 ISSUED:          0 USEFUL:          0 USELESS:          0
cpu0_DTLB AVERAGE MISS LATENCY: 14.78 cycles
cpu0_ITLB TOTAL        ACCESS:    4859952 HIT:    4806812 MISS:      53140
cpu0_ITLB LOAD         ACCESS:    4859952 HIT:    4806812 MISS:      53140
cpu0_ITLB RFO          ACCESS:          0 HIT:          0 MISS:          0
cpu0_ITLB PREFETCH     ACCESS:          0 HIT:          0 MISS:          0
cpu0_ITLB WRITE        ACCESS:          0 HIT:          0 MISS:          0
cpu0_ITLB TRANSLATION  ACCESS:          0 HIT:          0 MISS:          0
cpu0_ITLB PREFETCH REQUESTED:          0 ISSUED:          0 USEFUL:          0 USELESS:          0
cpu0_ITLB AVERAGE MISS LATENCY: 8.111 cycles
cpu0_L1D TOTAL        ACCESS:  188560447 HIT:  187191605 MISS:    1368842
cpu0_L1D LOAD         ACCESS:  105192436 HIT:  104137229 MISS:    1055207
cpu0_L1D RFO          ACCESS:          0 HIT:          0 MISS:          0
cpu0_L1D PREFETCH     ACCESS:          0 HIT:          0 MISS:          0
cpu0_L1D WRITE        ACCESS:   83343551 HIT:   83052776 MISS:     290775
cpu0_L1D TRANSLATION  ACCESS:      24460 HIT:       1600 MISS:      22860
cpu0_L1D PREFETCH REQUESTED:          0 ISSUED:          0 USEFUL:          0 USELESS:          0
cpu0_L1D AVERAGE MISS LATENCY: 111.9 cycles
cpu0_L1I TOTAL        ACCESS:    5597913 HIT:    4854255 MISS:     743658
cpu0_L1I LOAD         ACCESS:    5597913 HIT:    4854255 MISS:     743658
cpu0_L1I RFO          ACCESS:          0 HIT:          0 MISS:          0
cpu0_L1I PREFETCH     ACCESS:          0 HIT:          0 MISS:          0
cpu0_L1I WRITE        ACCESS:          0 HIT:          0 MISS:          0
cpu0_L1I TRANSLATION  ACCESS:          0 HIT:          0 MISS:          0
cpu0_L1I PREFETCH REQUESTED:          0 ISSUED:          0 USEFUL:          0 USELESS:          0
cpu0_L1I AVERAGE MISS LATENCY: 12.16 cycles
cpu0_L2C TOTAL        ACCESS:    1380724 HIT:     923875 MISS:     456849
cpu0_L2C LOAD         ACCESS:    1124724 HIT:     722857 MISS:     401867
cpu0_L2C RFO          ACCESS:      63785 HIT:      31371 MISS:      32414
cpu0_L2C PREFETCH     ACCESS:          0 HIT:          0 MISS:          0
cpu0_L2C WRITE        ACCESS:     169423 HIT:     165805 MISS:       3618
cpu0_L2C TRANSLATION  ACCESS:      22792 HIT:       3842 MISS:      18950
cpu0_L2C PREFETCH REQUESTED:          0 ISSUED:          0 USEFUL:          0 USELESS:          0
cpu0_L2C AVERAGE MISS LATENCY: 341.7 cycles
cpu0_STLB TOTAL        ACCESS:     507372 HIT:     484578 MISS:      22794
cpu0_STLB LOAD         ACCESS:     507372 HIT:     484578 MISS:      22794
cpu0_STLB RFO          ACCESS:          0 HIT:          0 MISS:          0
cpu0_STLB PREFETCH     ACCESS:          0 HIT:          0 MISS:          0
cpu0_STLB WRITE        ACCESS:          0 HIT:          0 MISS:          0
cpu0_STLB TRANSLATION  ACCESS:          0 HIT:          0 MISS:          0
cpu0_STLB PREFETCH REQUESTED:          0 ISSUED:          0 USEFUL:          0 USELESS:          0
cpu0_STLB AVERAGE MISS LATENCY: 327 cycles

DRAM Statistics

Channel 0 RQ ROW_BUFFER_HIT:      42624
  ROW_BUFFER_MISS:     213310
 AVG DBUS CONGESTED CYCLE: 3.805
WQ ROW_BUFFER_HIT: Channel 0 
  ROW_BUFFER_MISS:       7569
  FULL:      30565
