WARNING: physical memory size is smaller than virtual memory size.

*** ChampSim Multicore Out-of-Order Simulator ***
Warmup Instructions: 50000000
Simulation Instructions: 600000000
Number of CPUs: 1
Page size: 4096

Off-chip DRAM Size: 4 GiB Channels: 1 Width: 64-bit Data Race: 3200 MT/s
Heartbeat CPU 0 instructions: 10000001 cycles: 2500318 heartbeat IPC: 3.999 cumulative IPC: 3.999 (Simulation time: 00 hr 01 min 09 sec)
Heartbeat CPU 0 instructions: 20000002 cycles: 5037121 heartbeat IPC: 3.942 cumulative IPC: 3.971 (Simulation time: 00 hr 02 min 07 sec)
Heartbeat CPU 0 instructions: 30000002 cycles: 7537121 heartbeat IPC: 4 cumulative IPC: 3.98 (Simulation time: 00 hr 02 min 58 sec)
Heartbeat CPU 0 instructions: 40000002 cycles: 10037121 heartbeat IPC: 4 cumulative IPC: 3.985 (Simulation time: 00 hr 03 min 55 sec)
Heartbeat CPU 0 instructions: 50000002 cycles: 12537121 heartbeat IPC: 4 cumulative IPC: 3.988 (Simulation time: 00 hr 04 min 48 sec)
Warmup finished CPU 0 instructions: 50000002 cycles: 12537122 cumulative IPC: 3.988 (Simulation time: 00 hr 04 min 48 sec)
Warmup complete CPU 0 instructions: 50000002 cycles: 12537122 cumulative IPC: 3.988 (Simulation time: 00 hr 04 min 48 sec)
Heartbeat CPU 0 instructions: 60000000 cycles: 17137732 heartbeat IPC: 2.174 cumulative IPC: 2.174 (Simulation time: 00 hr 06 min 01 sec)
Heartbeat CPU 0 instructions: 70000004 cycles: 21405941 heartbeat IPC: 2.343 cumulative IPC: 2.255 (Simulation time: 00 hr 07 min 13 sec)
Heartbeat CPU 0 instructions: 80000001 cycles: 25998284 heartbeat IPC: 2.178 cumulative IPC: 2.229 (Simulation time: 00 hr 08 min 28 sec)
Heartbeat CPU 0 instructions: 90000001 cycles: 30113951 heartbeat IPC: 2.43 cumulative IPC: 2.276 (Simulation time: 00 hr 09 min 38 sec)
Heartbeat CPU 0 instructions: 100000000 cycles: 34152790 heartbeat IPC: 2.476 cumulative IPC: 2.313 (Simulation time: 00 hr 10 min 47 sec)
Heartbeat CPU 0 instructions: 110000000 cycles: 38374665 heartbeat IPC: 2.369 cumulative IPC: 2.322 (Simulation time: 00 hr 11 min 57 sec)
Heartbeat CPU 0 instructions: 120000001 cycles: 42380867 heartbeat IPC: 2.496 cumulative IPC: 2.346 (Simulation time: 00 hr 13 min 10 sec)
Heartbeat CPU 0 instructions: 130000001 cycles: 46106887 heartbeat IPC: 2.684 cumulative IPC: 2.383 (Simulation time: 00 hr 14 min 18 sec)
Heartbeat CPU 0 instructions: 140000001 cycles: 50264605 heartbeat IPC: 2.405 cumulative IPC: 2.386 (Simulation time: 00 hr 15 min 29 sec)
Heartbeat CPU 0 instructions: 150000001 cycles: 54451005 heartbeat IPC: 2.389 cumulative IPC: 2.386 (Simulation time: 00 hr 16 min 40 sec)
Heartbeat CPU 0 instructions: 160000004 cycles: 58864773 heartbeat IPC: 2.266 cumulative IPC: 2.374 (Simulation time: 00 hr 17 min 52 sec)
Heartbeat CPU 0 instructions: 170000004 cycles: 67973331 heartbeat IPC: 1.098 cumulative IPC: 2.165 (Simulation time: 00 hr 19 min 51 sec)
Heartbeat CPU 0 instructions: 180000004 cycles: 77864615 heartbeat IPC: 1.011 cumulative IPC: 1.99 (Simulation time: 00 hr 22 min 12 sec)
Heartbeat CPU 0 instructions: 190000001 cycles: 87612351 heartbeat IPC: 1.026 cumulative IPC: 1.865 (Simulation time: 00 hr 24 min 26 sec)
Heartbeat CPU 0 instructions: 200000004 cycles: 91384903 heartbeat IPC: 2.651 cumulative IPC: 1.902 (Simulation time: 00 hr 25 min 35 sec)
Heartbeat CPU 0 instructions: 210000001 cycles: 95294491 heartbeat IPC: 2.558 cumulative IPC: 1.933 (Simulation time: 00 hr 26 min 43 sec)
Heartbeat CPU 0 instructions: 220000000 cycles: 99249600 heartbeat IPC: 2.528 cumulative IPC: 1.961 (Simulation time: 00 hr 27 min 56 sec)
Heartbeat CPU 0 instructions: 230000002 cycles: 103902277 heartbeat IPC: 2.149 cumulative IPC: 1.97 (Simulation time: 00 hr 29 min 20 sec)
Heartbeat CPU 0 instructions: 240000000 cycles: 108087277 heartbeat IPC: 2.389 cumulative IPC: 1.988 (Simulation time: 00 hr 30 min 34 sec)
Heartbeat CPU 0 instructions: 250000000 cycles: 112395457 heartbeat IPC: 2.321 cumulative IPC: 2.003 (Simulation time: 00 hr 31 min 47 sec)
Heartbeat CPU 0 instructions: 260000000 cycles: 116567639 heartbeat IPC: 2.397 cumulative IPC: 2.019 (Simulation time: 00 hr 32 min 59 sec)
Heartbeat CPU 0 instructions: 270000002 cycles: 120414790 heartbeat IPC: 2.599 cumulative IPC: 2.039 (Simulation time: 00 hr 34 min 16 sec)
Heartbeat CPU 0 instructions: 280000002 cycles: 124572685 heartbeat IPC: 2.405 cumulative IPC: 2.053 (Simulation time: 00 hr 35 min 27 sec)
Heartbeat CPU 0 instructions: 290000001 cycles: 128470218 heartbeat IPC: 2.566 cumulative IPC: 2.07 (Simulation time: 00 hr 36 min 43 sec)
Heartbeat CPU 0 instructions: 300000003 cycles: 132288714 heartbeat IPC: 2.619 cumulative IPC: 2.088 (Simulation time: 00 hr 37 min 53 sec)
Heartbeat CPU 0 instructions: 310000001 cycles: 136417169 heartbeat IPC: 2.422 cumulative IPC: 2.099 (Simulation time: 00 hr 39 min 03 sec)
Heartbeat CPU 0 instructions: 320000003 cycles: 140497936 heartbeat IPC: 2.451 cumulative IPC: 2.11 (Simulation time: 00 hr 40 min 14 sec)
Heartbeat CPU 0 instructions: 330000003 cycles: 144900260 heartbeat IPC: 2.272 cumulative IPC: 2.115 (Simulation time: 00 hr 41 min 29 sec)
Heartbeat CPU 0 instructions: 340000000 cycles: 154290268 heartbeat IPC: 1.065 cumulative IPC: 2.046 (Simulation time: 00 hr 43 min 34 sec)
Heartbeat CPU 0 instructions: 350000000 cycles: 164687038 heartbeat IPC: 0.9618 cumulative IPC: 1.972 (Simulation time: 00 hr 45 min 50 sec)
Heartbeat CPU 0 instructions: 360000004 cycles: 174543150 heartbeat IPC: 1.015 cumulative IPC: 1.914 (Simulation time: 00 hr 48 min 01 sec)
Heartbeat CPU 0 instructions: 370000000 cycles: 177969881 heartbeat IPC: 2.918 cumulative IPC: 1.934 (Simulation time: 00 hr 49 min 06 sec)
Heartbeat CPU 0 instructions: 380000001 cycles: 181387061 heartbeat IPC: 2.926 cumulative IPC: 1.954 (Simulation time: 00 hr 50 min 12 sec)
Heartbeat CPU 0 instructions: 390000004 cycles: 185125040 heartbeat IPC: 2.675 cumulative IPC: 1.97 (Simulation time: 00 hr 51 min 21 sec)
Heartbeat CPU 0 instructions: 400000004 cycles: 188934064 heartbeat IPC: 2.625 cumulative IPC: 1.984 (Simulation time: 00 hr 52 min 29 sec)
Heartbeat CPU 0 instructions: 410000001 cycles: 192588113 heartbeat IPC: 2.737 cumulative IPC: 1.999 (Simulation time: 00 hr 53 min 35 sec)
Heartbeat CPU 0 instructions: 420000003 cycles: 196599339 heartbeat IPC: 2.493 cumulative IPC: 2.01 (Simulation time: 00 hr 54 min 46 sec)
Heartbeat CPU 0 instructions: 430000001 cycles: 200261260 heartbeat IPC: 2.731 cumulative IPC: 2.024 (Simulation time: 00 hr 56 min 00 sec)
Heartbeat CPU 0 instructions: 440000004 cycles: 204344002 heartbeat IPC: 2.449 cumulative IPC: 2.033 (Simulation time: 00 hr 57 min 10 sec)
Heartbeat CPU 0 instructions: 450000002 cycles: 208069849 heartbeat IPC: 2.684 cumulative IPC: 2.046 (Simulation time: 00 hr 58 min 19 sec)
Heartbeat CPU 0 instructions: 460000000 cycles: 211729346 heartbeat IPC: 2.733 cumulative IPC: 2.058 (Simulation time: 00 hr 59 min 26 sec)
Heartbeat CPU 0 instructions: 470000000 cycles: 215186115 heartbeat IPC: 2.893 cumulative IPC: 2.073 (Simulation time: 01 hr 00 min 32 sec)
Heartbeat CPU 0 instructions: 480000003 cycles: 218998579 heartbeat IPC: 2.623 cumulative IPC: 2.083 (Simulation time: 01 hr 01 min 41 sec)
Heartbeat CPU 0 instructions: 490000000 cycles: 222620364 heartbeat IPC: 2.761 cumulative IPC: 2.094 (Simulation time: 01 hr 02 min 48 sec)
Heartbeat CPU 0 instructions: 500000000 cycles: 226318650 heartbeat IPC: 2.704 cumulative IPC: 2.105 (Simulation time: 01 hr 03 min 55 sec)
Heartbeat CPU 0 instructions: 510000003 cycles: 229973969 heartbeat IPC: 2.736 cumulative IPC: 2.116 (Simulation time: 01 hr 05 min 04 sec)
Heartbeat CPU 0 instructions: 520000001 cycles: 233380256 heartbeat IPC: 2.936 cumulative IPC: 2.128 (Simulation time: 01 hr 06 min 11 sec)
Heartbeat CPU 0 instructions: 530000002 cycles: 237064500 heartbeat IPC: 2.714 cumulative IPC: 2.138 (Simulation time: 01 hr 07 min 18 sec)
Heartbeat CPU 0 instructions: 540000000 cycles: 240595495 heartbeat IPC: 2.832 cumulative IPC: 2.149 (Simulation time: 01 hr 08 min 24 sec)
Heartbeat CPU 0 instructions: 550000001 cycles: 244288735 heartbeat IPC: 2.708 cumulative IPC: 2.157 (Simulation time: 01 hr 09 min 31 sec)
Heartbeat CPU 0 instructions: 560000000 cycles: 248274192 heartbeat IPC: 2.509 cumulative IPC: 2.163 (Simulation time: 01 hr 10 min 41 sec)
Heartbeat CPU 0 instructions: 570000004 cycles: 254359816 heartbeat IPC: 1.643 cumulative IPC: 2.15 (Simulation time: 01 hr 12 min 12 sec)
Heartbeat CPU 0 instructions: 580000003 cycles: 265307679 heartbeat IPC: 0.9134 cumulative IPC: 2.097 (Simulation time: 01 hr 14 min 31 sec)
Heartbeat CPU 0 instructions: 590000002 cycles: 277829964 heartbeat IPC: 0.7986 cumulative IPC: 2.035 (Simulation time: 01 hr 17 min 06 sec)
Heartbeat CPU 0 instructions: 600000000 cycles: 281548635 heartbeat IPC: 2.689 cumulative IPC: 2.045 (Simulation time: 01 hr 18 min 13 sec)
Heartbeat CPU 0 instructions: 610000000 cycles: 285402532 heartbeat IPC: 2.595 cumulative IPC: 2.052 (Simulation time: 01 hr 19 min 20 sec)
Heartbeat CPU 0 instructions: 620000001 cycles: 288835397 heartbeat IPC: 2.913 cumulative IPC: 2.063 (Simulation time: 01 hr 20 min 26 sec)
Heartbeat CPU 0 instructions: 630000002 cycles: 293111372 heartbeat IPC: 2.339 cumulative IPC: 2.067 (Simulation time: 01 hr 21 min 37 sec)
Heartbeat CPU 0 instructions: 640000001 cycles: 297005492 heartbeat IPC: 2.568 cumulative IPC: 2.074 (Simulation time: 01 hr 22 min 46 sec)
Heartbeat CPU 0 instructions: 650000000 cycles: 300760394 heartbeat IPC: 2.663 cumulative IPC: 2.082 (Simulation time: 01 hr 23 min 54 sec)
Simulation finished CPU 0 instructions: 600000001 cycles: 288223274 cumulative IPC: 2.082 (Simulation time: 01 hr 23 min 54 sec)
Simulation complete CPU 0 instructions: 600000001 cycles: 288223274 cumulative IPC: 2.082 (Simulation time: 01 hr 23 min 54 sec)

ChampSim completed all CPUs

=== Simulation ===
CPU 0 runs traces/400.perlbench-41B.champsimtrace.xz
Region of Interest Statistics

CPU 0 cumulative IPC: 2.082 instructions: 600000001 cycles: 288223274
CPU 0 Branch Prediction Accuracy: 96.56% MPKI: 7.112 Average ROB Occupancy at Mispredict: 47.23
Branch type MPKI
BRANCH_DIRECT_JUMP: 0.0123
BRANCH_INDIRECT: 0.323
BRANCH_CONDITIONAL: 6.56
BRANCH_DIRECT_CALL: 0.0043
BRANCH_INDIRECT_CALL: 0.2
BRANCH_RETURN: 0.00828

LLC TOTAL        ACCESS:     937678 HIT:     555158 MISS:     382520
LLC LOAD         ACCESS:     400711 HIT:     232441 MISS:     168270
LLC RFO          ACCESS:      32449 HIT:      18834 MISS:      13615
LLC PREFETCH     ACCESS:     400711 HIT:     222232 MISS:     178479
LLC WRITE        ACCESS:      84726 HIT:      79695 MISS:       5031
LLC TRANSLATION  ACCESS:      19081 HIT:       1956 MISS:      17125
LLC PREFETCH REQUESTED:     400711 ISSUED:     400711 USEFUL:      71067 USELESS:      62567
LLC AVERAGE MISS LATENCY: 562.3 cycles
cpu0_DTLB TOTAL        ACCESS:  141904535 HIT:  141216886 MISS:     687649
cpu0_DTLB LOAD         ACCESS:  141904535 HIT:  141216886 MISS:     687649
cpu0_DTLB RFO          ACCESS:          0 HIT:          0 MISS:          0
cpu0_DTLB PREFETCH     ACCESS:          0 HIT:          0 MISS:          0
cpu0_DTLB WRITE        ACCESS:          0 HIT:          0 MISS:          0
cpu0_DTLB TRANSLATION  ACCESS:          0 HIT:          0 MISS:          0
cpu0_DTLB PREFETCH REQUESTED:          0 ISSUED:          0 USEFUL:          0 USELESS:          0
cpu0_DTLB AVERAGE MISS LATENCY: 21.77 cycles
cpu0_ITLB TOTAL        ACCESS:    4857421 HIT:    4804273 MISS:      53148
cpu0_ITLB LOAD         ACCESS:    4857421 HIT:    4804273 MISS:      53148
cpu0_ITLB RFO          ACCESS:          0 HIT:          0 MISS:          0
cpu0_ITLB PREFETCH     ACCESS:          0 HIT:          0 MISS:          0
cpu0_ITLB WRITE        ACCESS:          0 HIT:          0 MISS:          0
cpu0_ITLB TRANSLATION  ACCESS:          0 HIT:          0 MISS:          0
cpu0_ITLB PREFETCH REQUESTED:          0 ISSUED:          0 USEFUL:          0 USELESS:          0
cpu0_ITLB AVERAGE MISS LATENCY: 8.85 cycles
cpu0_L1D TOTAL        ACCESS:  188569054 HIT:  186835566 MISS:    1733488
cpu0_L1D LOAD         ACCESS:  105202615 HIT:  103849654 MISS:    1352961
cpu0_L1D RFO          ACCESS:          0 HIT:          0 MISS:          0
cpu0_L1D PREFETCH     ACCESS:          0 HIT:          0 MISS:          0
cpu0_L1D WRITE        ACCESS:   83341972 HIT:   82984852 MISS:     357120
cpu0_L1D TRANSLATION  ACCESS:      24467 HIT:       1060 MISS:      23407
cpu0_L1D PREFETCH REQUESTED:          0 ISSUED:          0 USEFUL:          0 USELESS:          0
cpu0_L1D AVERAGE MISS LATENCY: 77.81 cycles
cpu0_L1I TOTAL        ACCESS:    5595514 HIT:    4852068 MISS:     743446
cpu0_L1I LOAD         ACCESS:    5595514 HIT:    4852068 MISS:     743446
cpu0_L1I RFO          ACCESS:          0 HIT:          0 MISS:          0
cpu0_L1I PREFETCH     ACCESS:          0 HIT:          0 MISS:          0
cpu0_L1I WRITE        ACCESS:          0 HIT:          0 MISS:          0
cpu0_L1I TRANSLATION  ACCESS:          0 HIT:          0 MISS:          0
cpu0_L1I PREFETCH REQUESTED:          0 ISSUED:          0 USEFUL:          0 USELESS:          0
cpu0_L1I AVERAGE MISS LATENCY: 11.2 cycles
cpu0_L2C TOTAL        ACCESS:    1665658 HIT:    1211622 MISS:     454036
cpu0_L2C LOAD         ACCESS:    1315988 HIT:     915277 MISS:     400711
cpu0_L2C RFO          ACCESS:      88328 HIT:      55879 MISS:      32449
cpu0_L2C PREFETCH     ACCESS:          0 HIT:          0 MISS:          0
cpu0_L2C WRITE        ACCESS:     238012 HIT:     236217 MISS:       1795
cpu0_L2C TRANSLATION  ACCESS:      23330 HIT:       4249 MISS:      19081
cpu0_L2C PREFETCH REQUESTED:          0 ISSUED:          0 USEFUL:          0 USELESS:          0
cpu0_L2C AVERAGE MISS LATENCY: 295.1 cycles
cpu0_STLB TOTAL        ACCESS:     507339 HIT:     484547 MISS:      22792
cpu0_STLB LOAD         ACCESS:     507339 HIT:     484547 MISS:      22792
cpu0_STLB RFO          ACCESS:          0 HIT:          0 MISS:          0
cpu0_STLB PREFETCH     ACCESS:          0 HIT:          0 MISS:          0
cpu0_STLB WRITE        ACCESS:          0 HIT:          0 MISS:          0
cpu0_STLB TRANSLATION  ACCESS:          0 HIT:          0 MISS:          0
cpu0_STLB PREFETCH REQUESTED:          0 ISSUED:          0 USEFUL:          0 USELESS:          0
cpu0_STLB AVERAGE MISS LATENCY: 548.2 cycles

DRAM Statistics

Channel 0 RQ ROW_BUFFER_HIT:      57638
  ROW_BUFFER_MISS:     262022
 AVG DBUS CONGESTED CYCLE: 3.87
WQ ROW_BUFFER_HIT: Channel 0 
  ROW_BUFFER_MISS:       6290
  FULL:      31279
Final OPTGen Hits: 9972
Final OPTGen Access: 8500
Final OPTGEN Hit Rate: 117.318
