WARNING: physical memory size is smaller than virtual memory size.

*** ChampSim Multicore Out-of-Order Simulator ***
Warmup Instructions: 50000000
Simulation Instructions: 600000000
Number of CPUs: 1
Page size: 4096

Off-chip DRAM Size: 4 GiB Channels: 1 Width: 64-bit Data Race: 3200 MT/s
Heartbeat CPU 0 instructions: 10000000 cycles: 2500061 heartbeat IPC: 4 cumulative IPC: 4 (Simulation time: 00 hr 03 min 25 sec)
Heartbeat CPU 0 instructions: 20000000 cycles: 5000061 heartbeat IPC: 4 cumulative IPC: 4 (Simulation time: 00 hr 06 min 41 sec)
Heartbeat CPU 0 instructions: 30000000 cycles: 7500061 heartbeat IPC: 4 cumulative IPC: 4 (Simulation time: 00 hr 10 min 11 sec)
Heartbeat CPU 0 instructions: 40000000 cycles: 10000061 heartbeat IPC: 4 cumulative IPC: 4 (Simulation time: 00 hr 13 min 34 sec)
Heartbeat CPU 0 instructions: 50000000 cycles: 12500061 heartbeat IPC: 4 cumulative IPC: 4 (Simulation time: 00 hr 16 min 58 sec)
Warmup finished CPU 0 instructions: 50000000 cycles: 12500062 cumulative IPC: 4 (Simulation time: 00 hr 16 min 58 sec)
Warmup complete CPU 0 instructions: 50000000 cycles: 12500062 cumulative IPC: 4 (Simulation time: 00 hr 16 min 58 sec)
Heartbeat CPU 0 instructions: 60000002 cycles: 16435783 heartbeat IPC: 2.541 cumulative IPC: 2.541 (Simulation time: 00 hr 21 min 48 sec)
Heartbeat CPU 0 instructions: 70000003 cycles: 20749204 heartbeat IPC: 2.318 cumulative IPC: 2.424 (Simulation time: 00 hr 26 min 31 sec)
Heartbeat CPU 0 instructions: 80000003 cycles: 25212938 heartbeat IPC: 2.24 cumulative IPC: 2.36 (Simulation time: 00 hr 31 min 31 sec)
Heartbeat CPU 0 instructions: 90000000 cycles: 28902625 heartbeat IPC: 2.71 cumulative IPC: 2.439 (Simulation time: 00 hr 35 min 47 sec)
Heartbeat CPU 0 instructions: 100000003 cycles: 32797283 heartbeat IPC: 2.568 cumulative IPC: 2.463 (Simulation time: 00 hr 40 min 23 sec)
Heartbeat CPU 0 instructions: 110000002 cycles: 36888882 heartbeat IPC: 2.444 cumulative IPC: 2.46 (Simulation time: 00 hr 44 min 50 sec)
Heartbeat CPU 0 instructions: 120000001 cycles: 40602045 heartbeat IPC: 2.693 cumulative IPC: 2.491 (Simulation time: 00 hr 49 min 20 sec)
Heartbeat CPU 0 instructions: 130000003 cycles: 44366187 heartbeat IPC: 2.657 cumulative IPC: 2.511 (Simulation time: 00 hr 53 min 40 sec)
Heartbeat CPU 0 instructions: 140000002 cycles: 48491614 heartbeat IPC: 2.424 cumulative IPC: 2.501 (Simulation time: 00 hr 58 min 08 sec)
Heartbeat CPU 0 instructions: 150000001 cycles: 52535644 heartbeat IPC: 2.473 cumulative IPC: 2.498 (Simulation time: 01 hr 02 min 35 sec)
Heartbeat CPU 0 instructions: 160000000 cycles: 56184366 heartbeat IPC: 2.741 cumulative IPC: 2.518 (Simulation time: 01 hr 06 min 51 sec)
Heartbeat CPU 0 instructions: 170000001 cycles: 60350038 heartbeat IPC: 2.401 cumulative IPC: 2.508 (Simulation time: 01 hr 11 min 21 sec)
Heartbeat CPU 0 instructions: 180000001 cycles: 63805525 heartbeat IPC: 2.894 cumulative IPC: 2.534 (Simulation time: 01 hr 15 min 33 sec)
Heartbeat CPU 0 instructions: 190000002 cycles: 67382191 heartbeat IPC: 2.796 cumulative IPC: 2.551 (Simulation time: 01 hr 19 min 50 sec)
Heartbeat CPU 0 instructions: 200000002 cycles: 71153161 heartbeat IPC: 2.652 cumulative IPC: 2.557 (Simulation time: 01 hr 24 min 11 sec)
Heartbeat CPU 0 instructions: 210000000 cycles: 74788089 heartbeat IPC: 2.751 cumulative IPC: 2.569 (Simulation time: 01 hr 28 min 26 sec)
Heartbeat CPU 0 instructions: 220000001 cycles: 78655984 heartbeat IPC: 2.585 cumulative IPC: 2.57 (Simulation time: 01 hr 32 min 49 sec)
Heartbeat CPU 0 instructions: 230000002 cycles: 82491062 heartbeat IPC: 2.608 cumulative IPC: 2.572 (Simulation time: 01 hr 37 min 12 sec)
Heartbeat CPU 0 instructions: 240000001 cycles: 86693138 heartbeat IPC: 2.38 cumulative IPC: 2.561 (Simulation time: 01 hr 41 min 47 sec)
Heartbeat CPU 0 instructions: 250000003 cycles: 91251932 heartbeat IPC: 2.194 cumulative IPC: 2.54 (Simulation time: 01 hr 46 min 31 sec)
Heartbeat CPU 0 instructions: 260000000 cycles: 95043028 heartbeat IPC: 2.638 cumulative IPC: 2.544 (Simulation time: 01 hr 50 min 52 sec)
Heartbeat CPU 0 instructions: 270000003 cycles: 101668152 heartbeat IPC: 1.509 cumulative IPC: 2.467 (Simulation time: 01 hr 56 min 58 sec)
Heartbeat CPU 0 instructions: 280000000 cycles: 111772753 heartbeat IPC: 0.9896 cumulative IPC: 2.317 (Simulation time: 02 hr 05 min 18 sec)
Heartbeat CPU 0 instructions: 290000000 cycles: 121606251 heartbeat IPC: 1.017 cumulative IPC: 2.2 (Simulation time: 02 hr 13 min 33 sec)
Heartbeat CPU 0 instructions: 300000003 cycles: 129041832 heartbeat IPC: 1.345 cumulative IPC: 2.145 (Simulation time: 02 hr 20 min 28 sec)
Heartbeat CPU 0 instructions: 310000004 cycles: 139655240 heartbeat IPC: 0.9422 cumulative IPC: 2.045 (Simulation time: 02 hr 29 min 16 sec)
Heartbeat CPU 0 instructions: 320000004 cycles: 144688516 heartbeat IPC: 1.987 cumulative IPC: 2.043 (Simulation time: 02 hr 34 min 33 sec)
Heartbeat CPU 0 instructions: 330000000 cycles: 148740877 heartbeat IPC: 2.468 cumulative IPC: 2.055 (Simulation time: 02 hr 39 min 09 sec)
Heartbeat CPU 0 instructions: 340000001 cycles: 152871778 heartbeat IPC: 2.421 cumulative IPC: 2.066 (Simulation time: 02 hr 43 min 45 sec)
Heartbeat CPU 0 instructions: 350000004 cycles: 157181322 heartbeat IPC: 2.32 cumulative IPC: 2.074 (Simulation time: 02 hr 48 min 31 sec)
Heartbeat CPU 0 instructions: 360000003 cycles: 161200114 heartbeat IPC: 2.488 cumulative IPC: 2.085 (Simulation time: 02 hr 53 min 06 sec)
Heartbeat CPU 0 instructions: 370000001 cycles: 165129905 heartbeat IPC: 2.545 cumulative IPC: 2.097 (Simulation time: 02 hr 57 min 38 sec)
Heartbeat CPU 0 instructions: 380000004 cycles: 168909980 heartbeat IPC: 2.645 cumulative IPC: 2.11 (Simulation time: 03 hr 02 min 04 sec)
Heartbeat CPU 0 instructions: 390000002 cycles: 172820923 heartbeat IPC: 2.557 cumulative IPC: 2.121 (Simulation time: 03 hr 06 min 37 sec)
Heartbeat CPU 0 instructions: 400000000 cycles: 176995590 heartbeat IPC: 2.395 cumulative IPC: 2.128 (Simulation time: 03 hr 11 min 17 sec)
Heartbeat CPU 0 instructions: 410000000 cycles: 183280054 heartbeat IPC: 1.591 cumulative IPC: 2.108 (Simulation time: 03 hr 17 min 13 sec)
Heartbeat CPU 0 instructions: 420000003 cycles: 191803572 heartbeat IPC: 1.173 cumulative IPC: 2.064 (Simulation time: 03 hr 24 min 35 sec)
Heartbeat CPU 0 instructions: 430000000 cycles: 198691598 heartbeat IPC: 1.452 cumulative IPC: 2.041 (Simulation time: 03 hr 31 min 13 sec)
Heartbeat CPU 0 instructions: 440000004 cycles: 205251079 heartbeat IPC: 1.525 cumulative IPC: 2.023 (Simulation time: 03 hr 37 min 33 sec)
Heartbeat CPU 0 instructions: 450000001 cycles: 211868075 heartbeat IPC: 1.511 cumulative IPC: 2.006 (Simulation time: 03 hr 43 min 59 sec)
Heartbeat CPU 0 instructions: 460000002 cycles: 221416055 heartbeat IPC: 1.047 cumulative IPC: 1.963 (Simulation time: 03 hr 52 min 15 sec)
Heartbeat CPU 0 instructions: 470000003 cycles: 230112057 heartbeat IPC: 1.15 cumulative IPC: 1.93 (Simulation time: 03 hr 59 min 51 sec)
Heartbeat CPU 0 instructions: 480000003 cycles: 234220194 heartbeat IPC: 2.434 cumulative IPC: 1.939 (Simulation time: 04 hr 04 min 30 sec)
Heartbeat CPU 0 instructions: 490000001 cycles: 238634936 heartbeat IPC: 2.265 cumulative IPC: 1.946 (Simulation time: 04 hr 09 min 16 sec)
Heartbeat CPU 0 instructions: 500000002 cycles: 242838846 heartbeat IPC: 2.379 cumulative IPC: 1.954 (Simulation time: 04 hr 13 min 56 sec)
Heartbeat CPU 0 instructions: 510000000 cycles: 246864662 heartbeat IPC: 2.484 cumulative IPC: 1.963 (Simulation time: 04 hr 18 min 32 sec)
Heartbeat CPU 0 instructions: 520000000 cycles: 251002304 heartbeat IPC: 2.417 cumulative IPC: 1.971 (Simulation time: 04 hr 23 min 08 sec)
Heartbeat CPU 0 instructions: 530000001 cycles: 259318335 heartbeat IPC: 1.202 cumulative IPC: 1.945 (Simulation time: 04 hr 30 min 26 sec)
Heartbeat CPU 0 instructions: 540000000 cycles: 268157380 heartbeat IPC: 1.131 cumulative IPC: 1.917 (Simulation time: 04 hr 38 min 08 sec)
Heartbeat CPU 0 instructions: 550000004 cycles: 278842617 heartbeat IPC: 0.9359 cumulative IPC: 1.877 (Simulation time: 04 hr 46 min 47 sec)
Heartbeat CPU 0 instructions: 560000004 cycles: 282952709 heartbeat IPC: 2.433 cumulative IPC: 1.886 (Simulation time: 04 hr 51 min 23 sec)
Heartbeat CPU 0 instructions: 570000001 cycles: 286075998 heartbeat IPC: 3.202 cumulative IPC: 1.901 (Simulation time: 04 hr 55 min 29 sec)
Heartbeat CPU 0 instructions: 580000003 cycles: 289601046 heartbeat IPC: 2.837 cumulative IPC: 1.913 (Simulation time: 04 hr 59 min 42 sec)
Heartbeat CPU 0 instructions: 590000002 cycles: 293208135 heartbeat IPC: 2.772 cumulative IPC: 1.924 (Simulation time: 05 hr 04 min 00 sec)
Heartbeat CPU 0 instructions: 600000003 cycles: 296262203 heartbeat IPC: 3.274 cumulative IPC: 1.938 (Simulation time: 05 hr 08 min 04 sec)
Heartbeat CPU 0 instructions: 610000001 cycles: 299761933 heartbeat IPC: 2.857 cumulative IPC: 1.949 (Simulation time: 05 hr 12 min 30 sec)
Heartbeat CPU 0 instructions: 620000000 cycles: 303769031 heartbeat IPC: 2.496 cumulative IPC: 1.957 (Simulation time: 05 hr 17 min 03 sec)
Heartbeat CPU 0 instructions: 630000002 cycles: 307125262 heartbeat IPC: 2.98 cumulative IPC: 1.969 (Simulation time: 05 hr 21 min 28 sec)
Heartbeat CPU 0 instructions: 640000004 cycles: 311119275 heartbeat IPC: 2.504 cumulative IPC: 1.976 (Simulation time: 05 hr 26 min 20 sec)
Heartbeat CPU 0 instructions: 650000001 cycles: 314932874 heartbeat IPC: 2.622 cumulative IPC: 1.984 (Simulation time: 05 hr 30 min 45 sec)
Simulation finished CPU 0 instructions: 600000001 cycles: 302432813 cumulative IPC: 1.984 (Simulation time: 05 hr 30 min 45 sec)
Simulation complete CPU 0 instructions: 600000001 cycles: 302432813 cumulative IPC: 1.984 (Simulation time: 05 hr 30 min 45 sec)

ChampSim completed all CPUs

=== Simulation ===
CPU 0 runs traces/400.perlbench-50B.champsimtrace.xz
Region of Interest Statistics

CPU 0 cumulative IPC: 1.984 instructions: 600000001 cycles: 302432813
CPU 0 Branch Prediction Accuracy: 96.2% MPKI: 7.839 Average ROB Occupancy at Mispredict: 43.36
Branch type MPKI
BRANCH_DIRECT_JUMP: 0.0176
BRANCH_INDIRECT: 0.38
BRANCH_CONDITIONAL: 6.99
BRANCH_DIRECT_CALL: 0.0067
BRANCH_INDIRECT_CALL: 0.431
BRANCH_RETURN: 0.0161

LLC TOTAL        ACCESS:    1355391 HIT:     998349 MISS:     357042
LLC LOAD         ACCESS:     579344 HIT:     425653 MISS:     153691
LLC RFO          ACCESS:      47370 HIT:      31119 MISS:      16251
LLC PREFETCH     ACCESS:     579344 HIT:     417415 MISS:     161929
LLC WRITE        ACCESS:     127242 HIT:     116936 MISS:      10306
LLC TRANSLATION  ACCESS:      22091 HIT:       7226 MISS:      14865
LLC PREFETCH REQUESTED:     579344 ISSUED:     579344 USEFUL:      44117 USELESS:      70269
LLC AVERAGE MISS LATENCY: 490.9 cycles
cpu0_DTLB TOTAL        ACCESS:  146512693 HIT:  145206841 MISS:    1305852
cpu0_DTLB LOAD         ACCESS:  146512693 HIT:  145206841 MISS:    1305852
cpu0_DTLB RFO          ACCESS:          0 HIT:          0 MISS:          0
cpu0_DTLB PREFETCH     ACCESS:          0 HIT:          0 MISS:          0
cpu0_DTLB WRITE        ACCESS:          0 HIT:          0 MISS:          0
cpu0_DTLB TRANSLATION  ACCESS:          0 HIT:          0 MISS:          0
cpu0_DTLB PREFETCH REQUESTED:          0 ISSUED:          0 USEFUL:          0 USELESS:          0
cpu0_DTLB AVERAGE MISS LATENCY: 13.04 cycles
cpu0_ITLB TOTAL        ACCESS:    8986329 HIT:    8801832 MISS:     184497
cpu0_ITLB LOAD         ACCESS:    8986329 HIT:    8801832 MISS:     184497
cpu0_ITLB RFO          ACCESS:          0 HIT:          0 MISS:          0
cpu0_ITLB PREFETCH     ACCESS:          0 HIT:          0 MISS:          0
cpu0_ITLB WRITE        ACCESS:          0 HIT:          0 MISS:          0
cpu0_ITLB TRANSLATION  ACCESS:          0 HIT:          0 MISS:          0
cpu0_ITLB PREFETCH REQUESTED:          0 ISSUED:          0 USEFUL:          0 USELESS:          0
cpu0_ITLB AVERAGE MISS LATENCY: 3.664 cycles
cpu0_L1D TOTAL        ACCESS:  193303488 HIT:  189651785 MISS:    3651703
cpu0_L1D LOAD         ACCESS:  107457261 HIT:  104453988 MISS:    3003273
cpu0_L1D RFO          ACCESS:          0 HIT:          0 MISS:          0
cpu0_L1D PREFETCH     ACCESS:          0 HIT:          0 MISS:          0
cpu0_L1D WRITE        ACCESS:   85817704 HIT:   85196374 MISS:     621330
cpu0_L1D TRANSLATION  ACCESS:      28523 HIT:       1423 MISS:      27100
cpu0_L1D PREFETCH REQUESTED:          0 ISSUED:          0 USEFUL:          0 USELESS:          0
cpu0_L1D AVERAGE MISS LATENCY: 34.63 cycles
cpu0_L1I TOTAL        ACCESS:   10421160 HIT:    8659350 MISS:    1761810
cpu0_L1I LOAD         ACCESS:   10421160 HIT:    8659350 MISS:    1761810
cpu0_L1I RFO          ACCESS:          0 HIT:          0 MISS:          0
cpu0_L1I PREFETCH     ACCESS:          0 HIT:          0 MISS:          0
cpu0_L1I WRITE        ACCESS:          0 HIT:          0 MISS:          0
cpu0_L1I TRANSLATION  ACCESS:          0 HIT:          0 MISS:          0
cpu0_L1I PREFETCH REQUESTED:          0 ISSUED:          0 USEFUL:          0 USELESS:          0
cpu0_L1I AVERAGE MISS LATENCY: 9.673 cycles
cpu0_L2C TOTAL        ACCESS:    3834546 HIT:    3182641 MISS:     651905
cpu0_L2C LOAD         ACCESS:    3104955 HIT:    2525611 MISS:     579344
cpu0_L2C RFO          ACCESS:     191540 HIT:     144169 MISS:      47371
cpu0_L2C PREFETCH     ACCESS:          0 HIT:          0 MISS:          0
cpu0_L2C WRITE        ACCESS:     511020 HIT:     507921 MISS:       3099
cpu0_L2C TRANSLATION  ACCESS:      27031 HIT:       4940 MISS:      22091
cpu0_L2C PREFETCH REQUESTED:          0 ISSUED:          0 USEFUL:          0 USELESS:          0
cpu0_L2C AVERAGE MISS LATENCY: 179 cycles
cpu0_STLB TOTAL        ACCESS:    1008490 HIT:     981797 MISS:      26693
cpu0_STLB LOAD         ACCESS:    1008490 HIT:     981797 MISS:      26693
cpu0_STLB RFO          ACCESS:          0 HIT:          0 MISS:          0
cpu0_STLB PREFETCH     ACCESS:          0 HIT:          0 MISS:          0
cpu0_STLB WRITE        ACCESS:          0 HIT:          0 MISS:          0
cpu0_STLB TRANSLATION  ACCESS:          0 HIT:          0 MISS:          0
cpu0_STLB PREFETCH REQUESTED:          0 ISSUED:          0 USEFUL:          0 USELESS:          0
cpu0_STLB AVERAGE MISS LATENCY: 420.4 cycles

DRAM Statistics

Channel 0 RQ ROW_BUFFER_HIT:      62308
  ROW_BUFFER_MISS:     230314
 AVG DBUS CONGESTED CYCLE: 3.845
WQ ROW_BUFFER_HIT: Channel 0 
  ROW_BUFFER_MISS:       7043
  FULL:      19375
