WARNING: physical memory size is smaller than virtual memory size.

*** ChampSim Multicore Out-of-Order Simulator ***
Warmup Instructions: 50000000
Simulation Instructions: 600000000
Number of CPUs: 1
Page size: 4096

Off-chip DRAM Size: 4 GiB Channels: 1 Width: 64-bit Data Race: 3200 MT/s
Heartbeat CPU 0 instructions: 10000001 cycles: 2500318 heartbeat IPC: 3.999 cumulative IPC: 3.999 (Simulation time: 00 hr 01 min 01 sec)
Heartbeat CPU 0 instructions: 20000002 cycles: 5037135 heartbeat IPC: 3.942 cumulative IPC: 3.971 (Simulation time: 00 hr 02 min 03 sec)
Heartbeat CPU 0 instructions: 30000002 cycles: 7537135 heartbeat IPC: 4 cumulative IPC: 3.98 (Simulation time: 00 hr 02 min 55 sec)
Heartbeat CPU 0 instructions: 40000002 cycles: 10037135 heartbeat IPC: 4 cumulative IPC: 3.985 (Simulation time: 00 hr 03 min 48 sec)
Heartbeat CPU 0 instructions: 50000002 cycles: 12537135 heartbeat IPC: 4 cumulative IPC: 3.988 (Simulation time: 00 hr 04 min 37 sec)
Warmup finished CPU 0 instructions: 50000002 cycles: 12537136 cumulative IPC: 3.988 (Simulation time: 00 hr 04 min 37 sec)
Warmup complete CPU 0 instructions: 50000002 cycles: 12537136 cumulative IPC: 3.988 (Simulation time: 00 hr 04 min 37 sec)
Heartbeat CPU 0 instructions: 60000000 cycles: 17704633 heartbeat IPC: 1.935 cumulative IPC: 1.935 (Simulation time: 00 hr 05 min 49 sec)
Heartbeat CPU 0 instructions: 70000002 cycles: 22600153 heartbeat IPC: 2.043 cumulative IPC: 1.987 (Simulation time: 00 hr 07 min 06 sec)
Heartbeat CPU 0 instructions: 80000001 cycles: 27961795 heartbeat IPC: 1.865 cumulative IPC: 1.945 (Simulation time: 00 hr 08 min 38 sec)
Heartbeat CPU 0 instructions: 90000001 cycles: 32841065 heartbeat IPC: 2.049 cumulative IPC: 1.97 (Simulation time: 00 hr 10 min 13 sec)
Heartbeat CPU 0 instructions: 100000000 cycles: 37958605 heartbeat IPC: 1.954 cumulative IPC: 1.967 (Simulation time: 00 hr 11 min 44 sec)
Heartbeat CPU 0 instructions: 110000000 cycles: 42847782 heartbeat IPC: 2.045 cumulative IPC: 1.98 (Simulation time: 00 hr 12 min 58 sec)
Heartbeat CPU 0 instructions: 120000001 cycles: 48036085 heartbeat IPC: 1.927 cumulative IPC: 1.972 (Simulation time: 00 hr 14 min 25 sec)
Heartbeat CPU 0 instructions: 130000001 cycles: 53189943 heartbeat IPC: 1.94 cumulative IPC: 1.968 (Simulation time: 00 hr 15 min 47 sec)
Heartbeat CPU 0 instructions: 140000001 cycles: 58505798 heartbeat IPC: 1.881 cumulative IPC: 1.958 (Simulation time: 00 hr 17 min 05 sec)
Heartbeat CPU 0 instructions: 150000001 cycles: 63829497 heartbeat IPC: 1.878 cumulative IPC: 1.95 (Simulation time: 00 hr 18 min 22 sec)
Heartbeat CPU 0 instructions: 160000004 cycles: 69033793 heartbeat IPC: 1.921 cumulative IPC: 1.947 (Simulation time: 00 hr 19 min 36 sec)
Heartbeat CPU 0 instructions: 170000000 cycles: 79085223 heartbeat IPC: 0.9949 cumulative IPC: 1.803 (Simulation time: 00 hr 21 min 47 sec)
Heartbeat CPU 0 instructions: 180000004 cycles: 89516069 heartbeat IPC: 0.9587 cumulative IPC: 1.689 (Simulation time: 00 hr 24 min 30 sec)
Heartbeat CPU 0 instructions: 190000001 cycles: 100141086 heartbeat IPC: 0.9412 cumulative IPC: 1.598 (Simulation time: 00 hr 26 min 43 sec)
Heartbeat CPU 0 instructions: 200000003 cycles: 104910390 heartbeat IPC: 2.097 cumulative IPC: 1.624 (Simulation time: 00 hr 28 min 05 sec)
Heartbeat CPU 0 instructions: 210000001 cycles: 109829653 heartbeat IPC: 2.033 cumulative IPC: 1.645 (Simulation time: 00 hr 29 min 24 sec)
Heartbeat CPU 0 instructions: 220000000 cycles: 114660683 heartbeat IPC: 2.07 cumulative IPC: 1.665 (Simulation time: 00 hr 30 min 37 sec)
Heartbeat CPU 0 instructions: 230000002 cycles: 119978161 heartbeat IPC: 1.881 cumulative IPC: 1.675 (Simulation time: 00 hr 31 min 51 sec)
Heartbeat CPU 0 instructions: 240000000 cycles: 124819063 heartbeat IPC: 2.066 cumulative IPC: 1.692 (Simulation time: 00 hr 33 min 03 sec)
Heartbeat CPU 0 instructions: 250000000 cycles: 129970714 heartbeat IPC: 1.941 cumulative IPC: 1.703 (Simulation time: 00 hr 34 min 18 sec)
Heartbeat CPU 0 instructions: 260000000 cycles: 134995516 heartbeat IPC: 1.99 cumulative IPC: 1.715 (Simulation time: 00 hr 35 min 50 sec)
Heartbeat CPU 0 instructions: 270000002 cycles: 139885909 heartbeat IPC: 2.045 cumulative IPC: 1.728 (Simulation time: 00 hr 37 min 22 sec)
Heartbeat CPU 0 instructions: 280000002 cycles: 144799582 heartbeat IPC: 2.035 cumulative IPC: 1.739 (Simulation time: 00 hr 38 min 46 sec)
Heartbeat CPU 0 instructions: 290000001 cycles: 150162243 heartbeat IPC: 1.865 cumulative IPC: 1.744 (Simulation time: 00 hr 40 min 09 sec)
Heartbeat CPU 0 instructions: 300000003 cycles: 155216855 heartbeat IPC: 1.978 cumulative IPC: 1.752 (Simulation time: 00 hr 41 min 29 sec)
Heartbeat CPU 0 instructions: 310000001 cycles: 160513154 heartbeat IPC: 1.888 cumulative IPC: 1.757 (Simulation time: 00 hr 42 min 48 sec)
Heartbeat CPU 0 instructions: 320000003 cycles: 165718190 heartbeat IPC: 1.921 cumulative IPC: 1.763 (Simulation time: 00 hr 44 min 08 sec)
Heartbeat CPU 0 instructions: 330000003 cycles: 171019250 heartbeat IPC: 1.886 cumulative IPC: 1.767 (Simulation time: 00 hr 45 min 25 sec)
Heartbeat CPU 0 instructions: 340000000 cycles: 181210032 heartbeat IPC: 0.9813 cumulative IPC: 1.719 (Simulation time: 00 hr 47 min 22 sec)
Heartbeat CPU 0 instructions: 350000000 cycles: 192195736 heartbeat IPC: 0.9103 cumulative IPC: 1.67 (Simulation time: 00 hr 49 min 22 sec)
Heartbeat CPU 0 instructions: 360000004 cycles: 202842589 heartbeat IPC: 0.9392 cumulative IPC: 1.629 (Simulation time: 00 hr 51 min 15 sec)
Heartbeat CPU 0 instructions: 370000000 cycles: 207254487 heartbeat IPC: 2.267 cumulative IPC: 1.643 (Simulation time: 00 hr 52 min 20 sec)
Heartbeat CPU 0 instructions: 380000001 cycles: 212174283 heartbeat IPC: 2.033 cumulative IPC: 1.653 (Simulation time: 00 hr 53 min 27 sec)
Heartbeat CPU 0 instructions: 390000002 cycles: 216995644 heartbeat IPC: 2.074 cumulative IPC: 1.663 (Simulation time: 00 hr 54 min 33 sec)
Heartbeat CPU 0 instructions: 400000004 cycles: 221931523 heartbeat IPC: 2.026 cumulative IPC: 1.671 (Simulation time: 00 hr 55 min 39 sec)
Heartbeat CPU 0 instructions: 410000000 cycles: 226656398 heartbeat IPC: 2.116 cumulative IPC: 1.681 (Simulation time: 00 hr 56 min 44 sec)
Heartbeat CPU 0 instructions: 420000000 cycles: 231763180 heartbeat IPC: 1.958 cumulative IPC: 1.688 (Simulation time: 00 hr 57 min 52 sec)
Heartbeat CPU 0 instructions: 430000001 cycles: 236228815 heartbeat IPC: 2.239 cumulative IPC: 1.699 (Simulation time: 00 hr 58 min 57 sec)
Heartbeat CPU 0 instructions: 440000000 cycles: 241577569 heartbeat IPC: 1.87 cumulative IPC: 1.703 (Simulation time: 01 hr 00 min 07 sec)
Heartbeat CPU 0 instructions: 450000002 cycles: 246245267 heartbeat IPC: 2.142 cumulative IPC: 1.712 (Simulation time: 01 hr 01 min 13 sec)
Heartbeat CPU 0 instructions: 460000000 cycles: 251036767 heartbeat IPC: 2.087 cumulative IPC: 1.719 (Simulation time: 01 hr 02 min 20 sec)
Heartbeat CPU 0 instructions: 470000000 cycles: 256013705 heartbeat IPC: 2.009 cumulative IPC: 1.725 (Simulation time: 01 hr 03 min 28 sec)
Heartbeat CPU 0 instructions: 480000003 cycles: 260795857 heartbeat IPC: 2.091 cumulative IPC: 1.732 (Simulation time: 01 hr 04 min 37 sec)
Heartbeat CPU 0 instructions: 490000000 cycles: 265406565 heartbeat IPC: 2.169 cumulative IPC: 1.74 (Simulation time: 01 hr 05 min 31 sec)
Heartbeat CPU 0 instructions: 500000000 cycles: 270422437 heartbeat IPC: 1.994 cumulative IPC: 1.745 (Simulation time: 01 hr 06 min 23 sec)
Heartbeat CPU 0 instructions: 510000003 cycles: 276033934 heartbeat IPC: 1.782 cumulative IPC: 1.746 (Simulation time: 01 hr 07 min 18 sec)
Heartbeat CPU 0 instructions: 520000001 cycles: 280721083 heartbeat IPC: 2.133 cumulative IPC: 1.753 (Simulation time: 01 hr 08 min 09 sec)
Heartbeat CPU 0 instructions: 530000002 cycles: 285852435 heartbeat IPC: 1.949 cumulative IPC: 1.756 (Simulation time: 01 hr 09 min 01 sec)
Heartbeat CPU 0 instructions: 540000000 cycles: 290968745 heartbeat IPC: 1.955 cumulative IPC: 1.76 (Simulation time: 01 hr 09 min 53 sec)
Heartbeat CPU 0 instructions: 550000001 cycles: 295773126 heartbeat IPC: 2.081 cumulative IPC: 1.765 (Simulation time: 01 hr 10 min 44 sec)
Heartbeat CPU 0 instructions: 560000000 cycles: 300982617 heartbeat IPC: 1.92 cumulative IPC: 1.768 (Simulation time: 01 hr 11 min 35 sec)
Heartbeat CPU 0 instructions: 570000004 cycles: 308053847 heartbeat IPC: 1.414 cumulative IPC: 1.76 (Simulation time: 01 hr 12 min 35 sec)
Heartbeat CPU 0 instructions: 580000003 cycles: 319521386 heartbeat IPC: 0.872 cumulative IPC: 1.726 (Simulation time: 01 hr 14 min 02 sec)
Heartbeat CPU 0 instructions: 590000002 cycles: 332601506 heartbeat IPC: 0.7645 cumulative IPC: 1.687 (Simulation time: 01 hr 15 min 37 sec)
Heartbeat CPU 0 instructions: 600000000 cycles: 337173335 heartbeat IPC: 2.187 cumulative IPC: 1.694 (Simulation time: 01 hr 16 min 26 sec)
Heartbeat CPU 0 instructions: 610000002 cycles: 341663808 heartbeat IPC: 2.227 cumulative IPC: 1.701 (Simulation time: 01 hr 17 min 13 sec)
Heartbeat CPU 0 instructions: 620000000 cycles: 346469296 heartbeat IPC: 2.081 cumulative IPC: 1.707 (Simulation time: 01 hr 18 min 00 sec)
Heartbeat CPU 0 instructions: 630000002 cycles: 351552180 heartbeat IPC: 1.967 cumulative IPC: 1.711 (Simulation time: 01 hr 18 min 48 sec)
Heartbeat CPU 0 instructions: 640000001 cycles: 356404848 heartbeat IPC: 2.061 cumulative IPC: 1.716 (Simulation time: 01 hr 19 min 34 sec)
Heartbeat CPU 0 instructions: 650000000 cycles: 360961283 heartbeat IPC: 2.195 cumulative IPC: 1.722 (Simulation time: 01 hr 20 min 19 sec)
Simulation finished CPU 0 instructions: 600000001 cycles: 348424149 cumulative IPC: 1.722 (Simulation time: 01 hr 20 min 19 sec)
Simulation complete CPU 0 instructions: 600000001 cycles: 348424149 cumulative IPC: 1.722 (Simulation time: 01 hr 20 min 19 sec)

ChampSim completed all CPUs

=== Simulation ===
CPU 0 runs traces/400.perlbench-41B.champsimtrace.xz
Region of Interest Statistics

CPU 0 cumulative IPC: 1.722 instructions: 600000001 cycles: 348424149
CPU 0 Branch Prediction Accuracy: 93.95% MPKI: 12.5 Average ROB Occupancy at Mispredict: 29.6
Branch type MPKI
BRANCH_DIRECT_JUMP: 0.0123
BRANCH_INDIRECT: 0.323
BRANCH_CONDITIONAL: 12
BRANCH_DIRECT_CALL: 0.0043
BRANCH_INDIRECT_CALL: 0.2
BRANCH_RETURN: 0.00828

LLC TOTAL        ACCESS:     595268 HIT:     321800 MISS:     273468
LLC LOAD         ACCESS:     402534 HIT:     182999 MISS:     219535
LLC RFO          ACCESS:      32413 HIT:      16427 MISS:      15986
LLC PREFETCH     ACCESS:      55030 HIT:      27527 MISS:      27503
LLC WRITE        ACCESS:      86347 HIT:      85994 MISS:        353
LLC TRANSLATION  ACCESS:      18944 HIT:       8853 MISS:      10091
LLC PREFETCH REQUESTED:      55030 ISSUED:      55030 USEFUL:      17190 USELESS:       6872
LLC AVERAGE MISS LATENCY: 570.3 cycles
cpu0_DTLB TOTAL        ACCESS:  153677554 HIT:  153000272 MISS:     677282
cpu0_DTLB LOAD         ACCESS:  153677554 HIT:  153000272 MISS:     677282
cpu0_DTLB RFO          ACCESS:          0 HIT:          0 MISS:          0
cpu0_DTLB PREFETCH     ACCESS:          0 HIT:          0 MISS:          0
cpu0_DTLB WRITE        ACCESS:          0 HIT:          0 MISS:          0
cpu0_DTLB TRANSLATION  ACCESS:          0 HIT:          0 MISS:          0
cpu0_DTLB PREFETCH REQUESTED:          0 ISSUED:          0 USEFUL:          0 USELESS:          0
cpu0_DTLB AVERAGE MISS LATENCY: 15.69 cycles
cpu0_ITLB TOTAL        ACCESS:    4836839 HIT:    4778962 MISS:      57877
cpu0_ITLB LOAD         ACCESS:    4836839 HIT:    4778962 MISS:      57877
cpu0_ITLB RFO          ACCESS:          0 HIT:          0 MISS:          0
cpu0_ITLB PREFETCH     ACCESS:          0 HIT:          0 MISS:          0
cpu0_ITLB WRITE        ACCESS:          0 HIT:          0 MISS:          0
cpu0_ITLB TRANSLATION  ACCESS:          0 HIT:          0 MISS:          0
cpu0_ITLB PREFETCH REQUESTED:          0 ISSUED:          0 USEFUL:          0 USELESS:          0
cpu0_ITLB AVERAGE MISS LATENCY: 7.309 cycles
cpu0_L1D TOTAL        ACCESS:  200296445 HIT:  198943256 MISS:    1353189
cpu0_L1D LOAD         ACCESS:  117052498 HIT:  116015589 MISS:    1036909
cpu0_L1D RFO          ACCESS:          0 HIT:          0 MISS:          0
cpu0_L1D PREFETCH     ACCESS:          0 HIT:          0 MISS:          0
cpu0_L1D WRITE        ACCESS:   83219488 HIT:   82926091 MISS:     293397
cpu0_L1D TRANSLATION  ACCESS:      24459 HIT:       1576 MISS:      22883
cpu0_L1D PREFETCH REQUESTED:          0 ISSUED:          0 USEFUL:          0 USELESS:          0
cpu0_L1D AVERAGE MISS LATENCY: 108.1 cycles
cpu0_L1I TOTAL        ACCESS:    5579231 HIT:    4817675 MISS:     761556
cpu0_L1I LOAD         ACCESS:    5579231 HIT:    4817675 MISS:     761556
cpu0_L1I RFO          ACCESS:          0 HIT:          0 MISS:          0
cpu0_L1I PREFETCH     ACCESS:          0 HIT:          0 MISS:          0
cpu0_L1I WRITE        ACCESS:          0 HIT:          0 MISS:          0
cpu0_L1I TRANSLATION  ACCESS:          0 HIT:          0 MISS:          0
cpu0_L1I PREFETCH REQUESTED:          0 ISSUED:          0 USEFUL:          0 USELESS:          0
cpu0_L1I AVERAGE MISS LATENCY: 12.36 cycles
cpu0_L2C TOTAL        ACCESS:    1382453 HIT:     924908 MISS:     457545
cpu0_L2C LOAD         ACCESS:    1125639 HIT:     723105 MISS:     402534
cpu0_L2C RFO          ACCESS:      63904 HIT:      31491 MISS:      32413
cpu0_L2C PREFETCH     ACCESS:          0 HIT:          0 MISS:          0
cpu0_L2C WRITE        ACCESS:     170104 HIT:     166450 MISS:       3654
cpu0_L2C TRANSLATION  ACCESS:      22806 HIT:       3862 MISS:      18944
cpu0_L2C PREFETCH REQUESTED:          0 ISSUED:          0 USEFUL:          0 USELESS:          0
cpu0_L2C AVERAGE MISS LATENCY: 323.6 cycles
cpu0_STLB TOTAL        ACCESS:     505087 HIT:     482297 MISS:      22790
cpu0_STLB LOAD         ACCESS:     505087 HIT:     482297 MISS:      22790
cpu0_STLB RFO          ACCESS:          0 HIT:          0 MISS:          0
cpu0_STLB PREFETCH     ACCESS:          0 HIT:          0 MISS:          0
cpu0_STLB WRITE        ACCESS:          0 HIT:          0 MISS:          0
cpu0_STLB TRANSLATION  ACCESS:          0 HIT:          0 MISS:          0
cpu0_STLB PREFETCH REQUESTED:          0 ISSUED:          0 USEFUL:          0 USELESS:          0
cpu0_STLB AVERAGE MISS LATENCY: 345 cycles

DRAM Statistics

Channel 0 RQ ROW_BUFFER_HIT:      47252
  ROW_BUFFER_MISS:     220802
 AVG DBUS CONGESTED CYCLE: 3.82
WQ ROW_BUFFER_HIT: Channel 0 
  ROW_BUFFER_MISS:       7355
  FULL:      33332
