WARNING: physical memory size is smaller than virtual memory size.

*** ChampSim Multicore Out-of-Order Simulator ***
Warmup Instructions: 50000000
Simulation Instructions: 600000000
Number of CPUs: 1
Page size: 4096

Off-chip DRAM Size: 4 GiB Channels: 1 Width: 64-bit Data Race: 3200 MT/s
Heartbeat CPU 0 instructions: 10000000 cycles: 2500061 heartbeat IPC: 4 cumulative IPC: 4 (Simulation time: 00 hr 01 min 02 sec)
Heartbeat CPU 0 instructions: 20000000 cycles: 5000061 heartbeat IPC: 4 cumulative IPC: 4 (Simulation time: 00 hr 02 min 07 sec)
Heartbeat CPU 0 instructions: 30000000 cycles: 7500061 heartbeat IPC: 4 cumulative IPC: 4 (Simulation time: 00 hr 03 min 08 sec)
Heartbeat CPU 0 instructions: 40000000 cycles: 10000061 heartbeat IPC: 4 cumulative IPC: 4 (Simulation time: 00 hr 04 min 04 sec)
Heartbeat CPU 0 instructions: 50000000 cycles: 12500061 heartbeat IPC: 4 cumulative IPC: 4 (Simulation time: 00 hr 05 min 01 sec)
Warmup finished CPU 0 instructions: 50000000 cycles: 12500062 cumulative IPC: 4 (Simulation time: 00 hr 05 min 01 sec)
Warmup complete CPU 0 instructions: 50000000 cycles: 12500062 cumulative IPC: 4 (Simulation time: 00 hr 05 min 01 sec)
Heartbeat CPU 0 instructions: 60000002 cycles: 16906981 heartbeat IPC: 2.269 cumulative IPC: 2.269 (Simulation time: 00 hr 06 min 16 sec)
Heartbeat CPU 0 instructions: 70000003 cycles: 21887535 heartbeat IPC: 2.008 cumulative IPC: 2.13 (Simulation time: 00 hr 07 min 33 sec)
Heartbeat CPU 0 instructions: 80000001 cycles: 27229088 heartbeat IPC: 1.872 cumulative IPC: 2.037 (Simulation time: 00 hr 08 min 50 sec)
Heartbeat CPU 0 instructions: 90000000 cycles: 31525396 heartbeat IPC: 2.328 cumulative IPC: 2.102 (Simulation time: 00 hr 09 min 59 sec)
Heartbeat CPU 0 instructions: 100000003 cycles: 36377115 heartbeat IPC: 2.061 cumulative IPC: 2.094 (Simulation time: 00 hr 11 min 21 sec)
Heartbeat CPU 0 instructions: 110000002 cycles: 41244754 heartbeat IPC: 2.054 cumulative IPC: 2.087 (Simulation time: 00 hr 12 min 46 sec)
Heartbeat CPU 0 instructions: 120000001 cycles: 46238023 heartbeat IPC: 2.003 cumulative IPC: 2.075 (Simulation time: 00 hr 14 min 11 sec)
Heartbeat CPU 0 instructions: 130000003 cycles: 50804474 heartbeat IPC: 2.19 cumulative IPC: 2.089 (Simulation time: 00 hr 15 min 37 sec)
Heartbeat CPU 0 instructions: 140000002 cycles: 55692287 heartbeat IPC: 2.046 cumulative IPC: 2.084 (Simulation time: 00 hr 16 min 55 sec)
Heartbeat CPU 0 instructions: 150000001 cycles: 60357159 heartbeat IPC: 2.144 cumulative IPC: 2.09 (Simulation time: 00 hr 18 min 08 sec)
Heartbeat CPU 0 instructions: 160000000 cycles: 64993046 heartbeat IPC: 2.157 cumulative IPC: 2.096 (Simulation time: 00 hr 19 min 21 sec)
Heartbeat CPU 0 instructions: 170000000 cycles: 70321999 heartbeat IPC: 1.877 cumulative IPC: 2.075 (Simulation time: 00 hr 20 min 35 sec)
Heartbeat CPU 0 instructions: 180000001 cycles: 76039062 heartbeat IPC: 1.749 cumulative IPC: 2.046 (Simulation time: 00 hr 22 min 04 sec)
Heartbeat CPU 0 instructions: 190000002 cycles: 80507077 heartbeat IPC: 2.238 cumulative IPC: 2.059 (Simulation time: 00 hr 23 min 41 sec)
Heartbeat CPU 0 instructions: 200000002 cycles: 85405744 heartbeat IPC: 2.041 cumulative IPC: 2.057 (Simulation time: 00 hr 25 min 13 sec)
Heartbeat CPU 0 instructions: 210000000 cycles: 90406939 heartbeat IPC: 2 cumulative IPC: 2.054 (Simulation time: 00 hr 26 min 37 sec)
Heartbeat CPU 0 instructions: 220000001 cycles: 95328347 heartbeat IPC: 2.032 cumulative IPC: 2.052 (Simulation time: 00 hr 27 min 55 sec)
Heartbeat CPU 0 instructions: 230000002 cycles: 100572050 heartbeat IPC: 1.907 cumulative IPC: 2.044 (Simulation time: 00 hr 29 min 24 sec)
Heartbeat CPU 0 instructions: 240000001 cycles: 105534322 heartbeat IPC: 2.015 cumulative IPC: 2.042 (Simulation time: 00 hr 30 min 40 sec)
Heartbeat CPU 0 instructions: 250000003 cycles: 110709391 heartbeat IPC: 1.932 cumulative IPC: 2.036 (Simulation time: 00 hr 31 min 54 sec)
Heartbeat CPU 0 instructions: 260000001 cycles: 115565124 heartbeat IPC: 2.059 cumulative IPC: 2.038 (Simulation time: 00 hr 33 min 05 sec)
Heartbeat CPU 0 instructions: 270000000 cycles: 123249925 heartbeat IPC: 1.301 cumulative IPC: 1.986 (Simulation time: 00 hr 34 min 37 sec)
Heartbeat CPU 0 instructions: 280000000 cycles: 134285997 heartbeat IPC: 0.9061 cumulative IPC: 1.889 (Simulation time: 00 hr 37 min 05 sec)
Heartbeat CPU 0 instructions: 290000001 cycles: 144395972 heartbeat IPC: 0.9891 cumulative IPC: 1.82 (Simulation time: 00 hr 39 min 16 sec)
Heartbeat CPU 0 instructions: 300000003 cycles: 151955059 heartbeat IPC: 1.323 cumulative IPC: 1.793 (Simulation time: 00 hr 41 min 03 sec)
Heartbeat CPU 0 instructions: 310000004 cycles: 162936562 heartbeat IPC: 0.9106 cumulative IPC: 1.728 (Simulation time: 00 hr 43 min 27 sec)
Heartbeat CPU 0 instructions: 320000004 cycles: 168626122 heartbeat IPC: 1.758 cumulative IPC: 1.729 (Simulation time: 00 hr 44 min 55 sec)
Heartbeat CPU 0 instructions: 330000000 cycles: 173927186 heartbeat IPC: 1.886 cumulative IPC: 1.735 (Simulation time: 00 hr 46 min 13 sec)
Heartbeat CPU 0 instructions: 340000001 cycles: 179148574 heartbeat IPC: 1.915 cumulative IPC: 1.74 (Simulation time: 00 hr 47 min 31 sec)
Heartbeat CPU 0 instructions: 350000000 cycles: 184571665 heartbeat IPC: 1.844 cumulative IPC: 1.743 (Simulation time: 00 hr 49 min 09 sec)
Heartbeat CPU 0 instructions: 360000003 cycles: 189753528 heartbeat IPC: 1.93 cumulative IPC: 1.749 (Simulation time: 00 hr 50 min 53 sec)
Heartbeat CPU 0 instructions: 370000001 cycles: 194849918 heartbeat IPC: 1.962 cumulative IPC: 1.755 (Simulation time: 00 hr 52 min 18 sec)
Heartbeat CPU 0 instructions: 380000004 cycles: 200215805 heartbeat IPC: 1.864 cumulative IPC: 1.758 (Simulation time: 00 hr 53 min 38 sec)
Heartbeat CPU 0 instructions: 390000002 cycles: 205629209 heartbeat IPC: 1.847 cumulative IPC: 1.76 (Simulation time: 00 hr 54 min 59 sec)
Heartbeat CPU 0 instructions: 400000000 cycles: 211136885 heartbeat IPC: 1.816 cumulative IPC: 1.762 (Simulation time: 00 hr 56 min 20 sec)
Heartbeat CPU 0 instructions: 410000000 cycles: 219199398 heartbeat IPC: 1.24 cumulative IPC: 1.742 (Simulation time: 00 hr 57 min 59 sec)
Heartbeat CPU 0 instructions: 420000001 cycles: 230408387 heartbeat IPC: 0.8921 cumulative IPC: 1.698 (Simulation time: 00 hr 59 min 58 sec)
Heartbeat CPU 0 instructions: 430000000 cycles: 238137487 heartbeat IPC: 1.294 cumulative IPC: 1.684 (Simulation time: 01 hr 01 min 46 sec)
Heartbeat CPU 0 instructions: 440000002 cycles: 245241824 heartbeat IPC: 1.408 cumulative IPC: 1.676 (Simulation time: 01 hr 03 min 40 sec)
Heartbeat CPU 0 instructions: 450000000 cycles: 252071787 heartbeat IPC: 1.464 cumulative IPC: 1.67 (Simulation time: 01 hr 05 min 41 sec)
Heartbeat CPU 0 instructions: 460000002 cycles: 262981103 heartbeat IPC: 0.9166 cumulative IPC: 1.637 (Simulation time: 01 hr 07 min 58 sec)
Heartbeat CPU 0 instructions: 470000000 cycles: 272733329 heartbeat IPC: 1.025 cumulative IPC: 1.614 (Simulation time: 01 hr 10 min 03 sec)
Heartbeat CPU 0 instructions: 480000000 cycles: 278221409 heartbeat IPC: 1.822 cumulative IPC: 1.618 (Simulation time: 01 hr 11 min 24 sec)
Heartbeat CPU 0 instructions: 490000001 cycles: 283992272 heartbeat IPC: 1.733 cumulative IPC: 1.621 (Simulation time: 01 hr 12 min 45 sec)
Heartbeat CPU 0 instructions: 500000002 cycles: 289630465 heartbeat IPC: 1.774 cumulative IPC: 1.624 (Simulation time: 01 hr 14 min 07 sec)
Heartbeat CPU 0 instructions: 510000000 cycles: 295354059 heartbeat IPC: 1.747 cumulative IPC: 1.626 (Simulation time: 01 hr 15 min 43 sec)
Heartbeat CPU 0 instructions: 520000000 cycles: 301138291 heartbeat IPC: 1.729 cumulative IPC: 1.628 (Simulation time: 01 hr 17 min 25 sec)
Heartbeat CPU 0 instructions: 530000001 cycles: 312488882 heartbeat IPC: 0.881 cumulative IPC: 1.6 (Simulation time: 01 hr 19 min 51 sec)
Heartbeat CPU 0 instructions: 540000000 cycles: 323265279 heartbeat IPC: 0.928 cumulative IPC: 1.577 (Simulation time: 01 hr 22 min 20 sec)
Heartbeat CPU 0 instructions: 550000002 cycles: 336176865 heartbeat IPC: 0.7745 cumulative IPC: 1.545 (Simulation time: 01 hr 24 min 55 sec)
Heartbeat CPU 0 instructions: 560000004 cycles: 340971087 heartbeat IPC: 2.086 cumulative IPC: 1.553 (Simulation time: 01 hr 26 min 08 sec)
Heartbeat CPU 0 instructions: 570000001 cycles: 345381940 heartbeat IPC: 2.267 cumulative IPC: 1.562 (Simulation time: 01 hr 27 min 17 sec)
Heartbeat CPU 0 instructions: 580000003 cycles: 349627124 heartbeat IPC: 2.356 cumulative IPC: 1.572 (Simulation time: 01 hr 28 min 31 sec)
Heartbeat CPU 0 instructions: 590000001 cycles: 354530866 heartbeat IPC: 2.039 cumulative IPC: 1.579 (Simulation time: 01 hr 30 min 08 sec)
Heartbeat CPU 0 instructions: 600000003 cycles: 359173276 heartbeat IPC: 2.154 cumulative IPC: 1.587 (Simulation time: 01 hr 31 min 42 sec)
Heartbeat CPU 0 instructions: 610000001 cycles: 364034615 heartbeat IPC: 2.057 cumulative IPC: 1.593 (Simulation time: 01 hr 33 min 07 sec)
Heartbeat CPU 0 instructions: 620000000 cycles: 369102171 heartbeat IPC: 1.973 cumulative IPC: 1.598 (Simulation time: 01 hr 34 min 31 sec)
Heartbeat CPU 0 instructions: 630000002 cycles: 373348085 heartbeat IPC: 2.355 cumulative IPC: 1.607 (Simulation time: 01 hr 35 min 51 sec)
Heartbeat CPU 0 instructions: 640000004 cycles: 378670527 heartbeat IPC: 1.879 cumulative IPC: 1.611 (Simulation time: 01 hr 37 min 07 sec)
Heartbeat CPU 0 instructions: 650000001 cycles: 383435209 heartbeat IPC: 2.099 cumulative IPC: 1.618 (Simulation time: 01 hr 38 min 20 sec)
Simulation finished CPU 0 instructions: 600000001 cycles: 370935148 cumulative IPC: 1.618 (Simulation time: 01 hr 38 min 20 sec)
Simulation complete CPU 0 instructions: 600000001 cycles: 370935148 cumulative IPC: 1.618 (Simulation time: 01 hr 38 min 20 sec)

ChampSim completed all CPUs

=== Simulation ===
CPU 0 runs traces/400.perlbench-50B.champsimtrace.xz
Region of Interest Statistics

CPU 0 cumulative IPC: 1.618 instructions: 600000001 cycles: 370935148
CPU 0 Branch Prediction Accuracy: 93.83% MPKI: 12.71 Average ROB Occupancy at Mispredict: 29.4
Branch type MPKI
BRANCH_DIRECT_JUMP: 0.0176
BRANCH_INDIRECT: 0.38
BRANCH_CONDITIONAL: 11.9
BRANCH_DIRECT_CALL: 0.0067
BRANCH_INDIRECT_CALL: 0.431
BRANCH_RETURN: 0.0161

LLC TOTAL        ACCESS:     855778 HIT:     543596 MISS:     312182
LLC LOAD         ACCESS:     587377 HIT:     335125 MISS:     252252
LLC RFO          ACCESS:      48172 HIT:      29382 MISS:      18790
LLC PREFETCH     ACCESS:      66566 HIT:      37815 MISS:      28751
LLC WRITE        ACCESS:     131647 HIT:     131386 MISS:        261
LLC TRANSLATION  ACCESS:      22016 HIT:       9888 MISS:      12128
LLC PREFETCH REQUESTED:      66566 ISSUED:      66566 USEFUL:      17860 USELESS:       6819
LLC AVERAGE MISS LATENCY: 539.8 cycles
cpu0_DTLB TOTAL        ACCESS:  156770289 HIT:  155469173 MISS:    1301116
cpu0_DTLB LOAD         ACCESS:  156770289 HIT:  155469173 MISS:    1301116
cpu0_DTLB RFO          ACCESS:          0 HIT:          0 MISS:          0
cpu0_DTLB PREFETCH     ACCESS:          0 HIT:          0 MISS:          0
cpu0_DTLB WRITE        ACCESS:          0 HIT:          0 MISS:          0
cpu0_DTLB TRANSLATION  ACCESS:          0 HIT:          0 MISS:          0
cpu0_DTLB PREFETCH REQUESTED:          0 ISSUED:          0 USEFUL:          0 USELESS:          0
cpu0_DTLB AVERAGE MISS LATENCY: 12.07 cycles
cpu0_ITLB TOTAL        ACCESS:    8933229 HIT:    8734657 MISS:     198572
cpu0_ITLB LOAD         ACCESS:    8933229 HIT:    8734657 MISS:     198572
cpu0_ITLB RFO          ACCESS:          0 HIT:          0 MISS:          0
cpu0_ITLB PREFETCH     ACCESS:          0 HIT:          0 MISS:          0
cpu0_ITLB WRITE        ACCESS:          0 HIT:          0 MISS:          0
cpu0_ITLB TRANSLATION  ACCESS:          0 HIT:          0 MISS:          0
cpu0_ITLB PREFETCH REQUESTED:          0 ISSUED:          0 USEFUL:          0 USELESS:          0
cpu0_ITLB AVERAGE MISS LATENCY: 3.229 cycles
cpu0_L1D TOTAL        ACCESS:  203630370 HIT:  200747530 MISS:    2882840
cpu0_L1D LOAD         ACCESS:  117953661 HIT:  115584932 MISS:    2368729
cpu0_L1D RFO          ACCESS:          0 HIT:          0 MISS:          0
cpu0_L1D PREFETCH     ACCESS:          0 HIT:          0 MISS:          0
cpu0_L1D WRITE        ACCESS:   85648168 HIT:   85160607 MISS:     487561
cpu0_L1D TRANSLATION  ACCESS:      28541 HIT:       1991 MISS:      26550
cpu0_L1D PREFETCH REQUESTED:          0 ISSUED:          0 USEFUL:          0 USELESS:          0
cpu0_L1D AVERAGE MISS LATENCY: 58.11 cycles
cpu0_L1I TOTAL        ACCESS:   10371778 HIT:    8574703 MISS:    1797075
cpu0_L1I LOAD         ACCESS:   10371778 HIT:    8574703 MISS:    1797075
cpu0_L1I RFO          ACCESS:          0 HIT:          0 MISS:          0
cpu0_L1I PREFETCH     ACCESS:          0 HIT:          0 MISS:          0
cpu0_L1I WRITE        ACCESS:          0 HIT:          0 MISS:          0
cpu0_L1I TRANSLATION  ACCESS:          0 HIT:          0 MISS:          0
cpu0_L1I PREFETCH REQUESTED:          0 ISSUED:          0 USEFUL:          0 USELESS:          0
cpu0_L1I AVERAGE MISS LATENCY: 10.84 cycles
cpu0_L2C TOTAL        ACCESS:    3235343 HIT:    2570907 MISS:     664436
cpu0_L2C LOAD         ACCESS:    2711709 HIT:    2124332 MISS:     587377
cpu0_L2C RFO          ACCESS:     133693 HIT:      85521 MISS:      48172
cpu0_L2C PREFETCH     ACCESS:          0 HIT:          0 MISS:          0
cpu0_L2C WRITE        ACCESS:     363475 HIT:     356604 MISS:       6871
cpu0_L2C TRANSLATION  ACCESS:      26466 HIT:       4450 MISS:      22016
cpu0_L2C PREFETCH REQUESTED:          0 ISSUED:          0 USEFUL:          0 USELESS:          0
cpu0_L2C AVERAGE MISS LATENCY: 248 cycles
cpu0_STLB TOTAL        ACCESS:    1009174 HIT:     982482 MISS:      26692
cpu0_STLB LOAD         ACCESS:    1009174 HIT:     982482 MISS:      26692
cpu0_STLB RFO          ACCESS:          0 HIT:          0 MISS:          0
cpu0_STLB PREFETCH     ACCESS:          0 HIT:          0 MISS:          0
cpu0_STLB WRITE        ACCESS:          0 HIT:          0 MISS:          0
cpu0_STLB TRANSLATION  ACCESS:          0 HIT:          0 MISS:          0
cpu0_STLB PREFETCH REQUESTED:          0 ISSUED:          0 USEFUL:          0 USELESS:          0
cpu0_STLB AVERAGE MISS LATENCY: 368.9 cycles

DRAM Statistics

Channel 0 RQ ROW_BUFFER_HIT:      63994
  ROW_BUFFER_MISS:     242983
 AVG DBUS CONGESTED CYCLE: 3.805
WQ ROW_BUFFER_HIT: Channel 0 
  ROW_BUFFER_MISS:       7506
  FULL:      31994
