WARNING: physical memory size is smaller than virtual memory size.

*** ChampSim Multicore Out-of-Order Simulator ***
Warmup Instructions: 50000000
Simulation Instructions: 600000000
Number of CPUs: 1
Page size: 4096

CPU 0 Tage branch predictor
Off-chip DRAM Size: 4 GiB Channels: 1 Width: 64-bit Data Race: 3200 MT/s
Heartbeat CPU 0 instructions: 10000001 cycles: 2500318 heartbeat IPC: 3.999 cumulative IPC: 3.999 (Simulation time: 00 hr 04 min 20 sec)
Heartbeat CPU 0 instructions: 20000002 cycles: 5037122 heartbeat IPC: 3.942 cumulative IPC: 3.971 (Simulation time: 00 hr 08 min 48 sec)
Heartbeat CPU 0 instructions: 30000002 cycles: 7537122 heartbeat IPC: 4 cumulative IPC: 3.98 (Simulation time: 00 hr 12 min 44 sec)
Heartbeat CPU 0 instructions: 40000002 cycles: 10037122 heartbeat IPC: 4 cumulative IPC: 3.985 (Simulation time: 00 hr 16 min 56 sec)
Heartbeat CPU 0 instructions: 50000002 cycles: 12537122 heartbeat IPC: 4 cumulative IPC: 3.988 (Simulation time: 00 hr 20 min 55 sec)
Warmup finished CPU 0 instructions: 50000002 cycles: 12537123 cumulative IPC: 3.988 (Simulation time: 00 hr 20 min 55 sec)
Warmup complete CPU 0 instructions: 50000002 cycles: 12537123 cumulative IPC: 3.988 (Simulation time: 00 hr 20 min 55 sec)
Heartbeat CPU 0 instructions: 60000001 cycles: 15556588 heartbeat IPC: 3.312 cumulative IPC: 3.312 (Simulation time: 00 hr 25 min 40 sec)
Heartbeat CPU 0 instructions: 70000004 cycles: 18663605 heartbeat IPC: 3.219 cumulative IPC: 3.265 (Simulation time: 00 hr 30 min 30 sec)
Heartbeat CPU 0 instructions: 80000001 cycles: 21744892 heartbeat IPC: 3.245 cumulative IPC: 3.258 (Simulation time: 00 hr 35 min 19 sec)
Heartbeat CPU 0 instructions: 90000001 cycles: 24713973 heartbeat IPC: 3.368 cumulative IPC: 3.285 (Simulation time: 00 hr 40 min 01 sec)
Heartbeat CPU 0 instructions: 100000000 cycles: 27653833 heartbeat IPC: 3.402 cumulative IPC: 3.308 (Simulation time: 00 hr 44 min 44 sec)
Heartbeat CPU 0 instructions: 110000000 cycles: 30614681 heartbeat IPC: 3.377 cumulative IPC: 3.319 (Simulation time: 00 hr 49 min 26 sec)
Heartbeat CPU 0 instructions: 120000001 cycles: 33612691 heartbeat IPC: 3.336 cumulative IPC: 3.321 (Simulation time: 00 hr 54 min 08 sec)
Heartbeat CPU 0 instructions: 130000001 cycles: 36504237 heartbeat IPC: 3.458 cumulative IPC: 3.338 (Simulation time: 00 hr 58 min 52 sec)
Heartbeat CPU 0 instructions: 140000001 cycles: 39610018 heartbeat IPC: 3.22 cumulative IPC: 3.324 (Simulation time: 01 hr 03 min 41 sec)
Heartbeat CPU 0 instructions: 150000001 cycles: 42659768 heartbeat IPC: 3.279 cumulative IPC: 3.32 (Simulation time: 01 hr 08 min 29 sec)
Heartbeat CPU 0 instructions: 160000004 cycles: 45726733 heartbeat IPC: 3.261 cumulative IPC: 3.314 (Simulation time: 01 hr 13 min 18 sec)
Heartbeat CPU 0 instructions: 170000000 cycles: 51890600 heartbeat IPC: 1.622 cumulative IPC: 3.049 (Simulation time: 01 hr 20 min 13 sec)
Heartbeat CPU 0 instructions: 180000004 cycles: 56961329 heartbeat IPC: 1.972 cumulative IPC: 2.926 (Simulation time: 01 hr 26 min 34 sec)
Heartbeat CPU 0 instructions: 190000001 cycles: 63530552 heartbeat IPC: 1.522 cumulative IPC: 2.745 (Simulation time: 01 hr 33 min 45 sec)
Heartbeat CPU 0 instructions: 200000004 cycles: 66491011 heartbeat IPC: 3.378 cumulative IPC: 2.78 (Simulation time: 01 hr 38 min 31 sec)
Heartbeat CPU 0 instructions: 210000001 cycles: 69443277 heartbeat IPC: 3.387 cumulative IPC: 2.812 (Simulation time: 01 hr 43 min 16 sec)
Heartbeat CPU 0 instructions: 220000000 cycles: 72333367 heartbeat IPC: 3.46 cumulative IPC: 2.843 (Simulation time: 01 hr 47 min 55 sec)
Heartbeat CPU 0 instructions: 230000002 cycles: 75379268 heartbeat IPC: 3.283 cumulative IPC: 2.864 (Simulation time: 01 hr 52 min 45 sec)
Heartbeat CPU 0 instructions: 240000003 cycles: 78436539 heartbeat IPC: 3.271 cumulative IPC: 2.883 (Simulation time: 01 hr 57 min 32 sec)
Heartbeat CPU 0 instructions: 250000000 cycles: 81487229 heartbeat IPC: 3.278 cumulative IPC: 2.901 (Simulation time: 02 hr 02 min 17 sec)
Heartbeat CPU 0 instructions: 260000002 cycles: 84478347 heartbeat IPC: 3.343 cumulative IPC: 2.919 (Simulation time: 02 hr 07 min 01 sec)
Heartbeat CPU 0 instructions: 270000002 cycles: 87407190 heartbeat IPC: 3.414 cumulative IPC: 2.938 (Simulation time: 02 hr 11 min 43 sec)
Heartbeat CPU 0 instructions: 280000002 cycles: 90316431 heartbeat IPC: 3.437 cumulative IPC: 2.957 (Simulation time: 02 hr 16 min 22 sec)
Heartbeat CPU 0 instructions: 290000002 cycles: 93301064 heartbeat IPC: 3.35 cumulative IPC: 2.972 (Simulation time: 02 hr 21 min 07 sec)
Heartbeat CPU 0 instructions: 300000003 cycles: 96238002 heartbeat IPC: 3.405 cumulative IPC: 2.987 (Simulation time: 02 hr 25 min 54 sec)
Heartbeat CPU 0 instructions: 310000001 cycles: 99332076 heartbeat IPC: 3.232 cumulative IPC: 2.996 (Simulation time: 02 hr 30 min 43 sec)
Heartbeat CPU 0 instructions: 320000003 cycles: 102380013 heartbeat IPC: 3.281 cumulative IPC: 3.005 (Simulation time: 02 hr 35 min 28 sec)
Heartbeat CPU 0 instructions: 330000003 cycles: 105428249 heartbeat IPC: 3.281 cumulative IPC: 3.014 (Simulation time: 02 hr 40 min 15 sec)
Heartbeat CPU 0 instructions: 340000000 cycles: 111873103 heartbeat IPC: 1.552 cumulative IPC: 2.919 (Simulation time: 02 hr 47 min 16 sec)
Heartbeat CPU 0 instructions: 350000000 cycles: 117147959 heartbeat IPC: 1.896 cumulative IPC: 2.868 (Simulation time: 02 hr 53 min 41 sec)
Heartbeat CPU 0 instructions: 360000004 cycles: 123972906 heartbeat IPC: 1.465 cumulative IPC: 2.782 (Simulation time: 03 hr 00 min 58 sec)
Heartbeat CPU 0 instructions: 370000000 cycles: 126930047 heartbeat IPC: 3.382 cumulative IPC: 2.797 (Simulation time: 03 hr 05 min 39 sec)
Heartbeat CPU 0 instructions: 380000003 cycles: 129842382 heartbeat IPC: 3.434 cumulative IPC: 2.813 (Simulation time: 03 hr 10 min 21 sec)
Heartbeat CPU 0 instructions: 390000002 cycles: 132819541 heartbeat IPC: 3.359 cumulative IPC: 2.827 (Simulation time: 03 hr 15 min 06 sec)
Heartbeat CPU 0 instructions: 400000004 cycles: 135719732 heartbeat IPC: 3.448 cumulative IPC: 2.841 (Simulation time: 03 hr 20 min 00 sec)
Heartbeat CPU 0 instructions: 410000002 cycles: 138670361 heartbeat IPC: 3.389 cumulative IPC: 2.854 (Simulation time: 03 hr 24 min 42 sec)
Heartbeat CPU 0 instructions: 420000003 cycles: 141795832 heartbeat IPC: 3.2 cumulative IPC: 2.862 (Simulation time: 03 hr 29 min 31 sec)
Heartbeat CPU 0 instructions: 430000001 cycles: 144829789 heartbeat IPC: 3.296 cumulative IPC: 2.872 (Simulation time: 03 hr 34 min 17 sec)
Heartbeat CPU 0 instructions: 440000004 cycles: 147988186 heartbeat IPC: 3.166 cumulative IPC: 2.879 (Simulation time: 03 hr 39 min 06 sec)
Heartbeat CPU 0 instructions: 450000002 cycles: 150931027 heartbeat IPC: 3.398 cumulative IPC: 2.89 (Simulation time: 03 hr 43 min 49 sec)
Heartbeat CPU 0 instructions: 460000000 cycles: 153886028 heartbeat IPC: 3.384 cumulative IPC: 2.901 (Simulation time: 03 hr 48 min 30 sec)
Heartbeat CPU 0 instructions: 470000001 cycles: 156763501 heartbeat IPC: 3.475 cumulative IPC: 2.912 (Simulation time: 03 hr 53 min 09 sec)
Heartbeat CPU 0 instructions: 480000003 cycles: 159849229 heartbeat IPC: 3.241 cumulative IPC: 2.919 (Simulation time: 03 hr 57 min 54 sec)
Heartbeat CPU 0 instructions: 490000004 cycles: 162691258 heartbeat IPC: 3.519 cumulative IPC: 2.93 (Simulation time: 04 hr 02 min 30 sec)
Heartbeat CPU 0 instructions: 500000004 cycles: 165689252 heartbeat IPC: 3.336 cumulative IPC: 2.938 (Simulation time: 04 hr 07 min 12 sec)
Heartbeat CPU 0 instructions: 510000003 cycles: 168776515 heartbeat IPC: 3.239 cumulative IPC: 2.944 (Simulation time: 04 hr 12 min 02 sec)
Heartbeat CPU 0 instructions: 520000001 cycles: 171690733 heartbeat IPC: 3.431 cumulative IPC: 2.953 (Simulation time: 04 hr 16 min 45 sec)
Heartbeat CPU 0 instructions: 530000001 cycles: 174755278 heartbeat IPC: 3.263 cumulative IPC: 2.959 (Simulation time: 04 hr 21 min 29 sec)
Heartbeat CPU 0 instructions: 540000000 cycles: 177742035 heartbeat IPC: 3.348 cumulative IPC: 2.966 (Simulation time: 04 hr 26 min 13 sec)
Heartbeat CPU 0 instructions: 550000001 cycles: 180744357 heartbeat IPC: 3.331 cumulative IPC: 2.973 (Simulation time: 04 hr 30 min 57 sec)
Heartbeat CPU 0 instructions: 560000000 cycles: 183913745 heartbeat IPC: 3.155 cumulative IPC: 2.976 (Simulation time: 04 hr 35 min 46 sec)
Heartbeat CPU 0 instructions: 570000004 cycles: 189071777 heartbeat IPC: 1.939 cumulative IPC: 2.946 (Simulation time: 04 hr 42 min 09 sec)
Heartbeat CPU 0 instructions: 580000003 cycles: 194584251 heartbeat IPC: 1.814 cumulative IPC: 2.911 (Simulation time: 04 hr 48 min 50 sec)
Heartbeat CPU 0 instructions: 590000002 cycles: 202336691 heartbeat IPC: 1.29 cumulative IPC: 2.845 (Simulation time: 04 hr 57 min 20 sec)
Heartbeat CPU 0 instructions: 600000004 cycles: 205395417 heartbeat IPC: 3.269 cumulative IPC: 2.852 (Simulation time: 05 hr 02 min 02 sec)
Heartbeat CPU 0 instructions: 610000002 cycles: 208354263 heartbeat IPC: 3.38 cumulative IPC: 2.86 (Simulation time: 05 hr 06 min 57 sec)
Heartbeat CPU 0 instructions: 620000001 cycles: 211123667 heartbeat IPC: 3.611 cumulative IPC: 2.87 (Simulation time: 05 hr 11 min 51 sec)
Heartbeat CPU 0 instructions: 630000002 cycles: 214092887 heartbeat IPC: 3.368 cumulative IPC: 2.878 (Simulation time: 05 hr 16 min 42 sec)
Heartbeat CPU 0 instructions: 640000004 cycles: 217041178 heartbeat IPC: 3.392 cumulative IPC: 2.885 (Simulation time: 05 hr 21 min 44 sec)
Heartbeat CPU 0 instructions: 650000000 cycles: 219784739 heartbeat IPC: 3.645 cumulative IPC: 2.895 (Simulation time: 05 hr 26 min 17 sec)
Simulation finished CPU 0 instructions: 600000001 cycles: 207247618 cumulative IPC: 2.895 (Simulation time: 05 hr 26 min 17 sec)
Simulation complete CPU 0 instructions: 600000001 cycles: 207247618 cumulative IPC: 2.895 (Simulation time: 05 hr 26 min 17 sec)

ChampSim completed all CPUs

=== Simulation ===
CPU 0 runs traces/400.perlbench-41B.champsimtrace.xz
Region of Interest Statistics

CPU 0 cumulative IPC: 2.895 instructions: 600000001 cycles: 207247618
CPU 0 Branch Prediction Accuracy: 99.19% MPKI: 1.684 Average ROB Occupancy at Mispredict: 101.3
Branch type MPKI
BRANCH_DIRECT_JUMP: 0.0123
BRANCH_INDIRECT: 0.323
BRANCH_CONDITIONAL: 1.14
BRANCH_DIRECT_CALL: 0.0043
BRANCH_INDIRECT_CALL: 0.2
BRANCH_RETURN: 0.00828

LLC TOTAL        ACCESS:     939445 HIT:     672434 MISS:     267011
LLC LOAD         ACCESS:     401547 HIT:     287947 MISS:     113600
LLC RFO          ACCESS:      32470 HIT:      22556 MISS:       9914
LLC PREFETCH     ACCESS:     401547 HIT:     283598 MISS:     117949
LLC WRITE        ACCESS:      84846 HIT:      71641 MISS:      13205
LLC TRANSLATION  ACCESS:      19035 HIT:       6692 MISS:      12343
LLC PREFETCH REQUESTED:     401547 ISSUED:     401547 USEFUL:      38859 USELESS:      48527
LLC AVERAGE MISS LATENCY: 600.5 cycles
cpu0_DTLB TOTAL        ACCESS:  129764754 HIT:  129060812 MISS:     703942
cpu0_DTLB LOAD         ACCESS:  129764754 HIT:  129060812 MISS:     703942
cpu0_DTLB RFO          ACCESS:          0 HIT:          0 MISS:          0
cpu0_DTLB PREFETCH     ACCESS:          0 HIT:          0 MISS:          0
cpu0_DTLB WRITE        ACCESS:          0 HIT:          0 MISS:          0
cpu0_DTLB TRANSLATION  ACCESS:          0 HIT:          0 MISS:          0
cpu0_DTLB PREFETCH REQUESTED:          0 ISSUED:          0 USEFUL:          0 USELESS:          0
cpu0_DTLB AVERAGE MISS LATENCY: 16.61 cycles
cpu0_ITLB TOTAL        ACCESS:    4869189 HIT:    4807047 MISS:      62142
cpu0_ITLB LOAD         ACCESS:    4869189 HIT:    4807047 MISS:      62142
cpu0_ITLB RFO          ACCESS:          0 HIT:          0 MISS:          0
cpu0_ITLB PREFETCH     ACCESS:          0 HIT:          0 MISS:          0
cpu0_ITLB WRITE        ACCESS:          0 HIT:          0 MISS:          0
cpu0_ITLB TRANSLATION  ACCESS:          0 HIT:          0 MISS:          0
cpu0_ITLB PREFETCH REQUESTED:          0 ISSUED:          0 USEFUL:          0 USELESS:          0
cpu0_ITLB AVERAGE MISS LATENCY: 5.525 cycles
cpu0_L1D TOTAL        ACCESS:  174373428 HIT:  172616761 MISS:    1756667
cpu0_L1D LOAD         ACCESS:   91351163 HIT:   89981734 MISS:    1369429
cpu0_L1D RFO          ACCESS:          0 HIT:          0 MISS:          0
cpu0_L1D PREFETCH     ACCESS:          0 HIT:          0 MISS:          0
cpu0_L1D WRITE        ACCESS:   82997798 HIT:   82633972 MISS:     363826
cpu0_L1D TRANSLATION  ACCESS:      24467 HIT:       1055 MISS:      23412
cpu0_L1D PREFETCH REQUESTED:          0 ISSUED:          0 USEFUL:          0 USELESS:          0
cpu0_L1D AVERAGE MISS LATENCY: 57.5 cycles
cpu0_L1I TOTAL        ACCESS:    5648989 HIT:    4845175 MISS:     803814
cpu0_L1I LOAD         ACCESS:    5648989 HIT:    4845175 MISS:     803814
cpu0_L1I RFO          ACCESS:          0 HIT:          0 MISS:          0
cpu0_L1I PREFETCH     ACCESS:          0 HIT:          0 MISS:          0
cpu0_L1I WRITE        ACCESS:          0 HIT:          0 MISS:          0
cpu0_L1I TRANSLATION  ACCESS:          0 HIT:          0 MISS:          0
cpu0_L1I PREFETCH REQUESTED:          0 ISSUED:          0 USEFUL:          0 USELESS:          0
cpu0_L1I AVERAGE MISS LATENCY: 13.05 cycles
cpu0_L2C TOTAL        ACCESS:    1668029 HIT:    1213199 MISS:     454830
cpu0_L2C LOAD         ACCESS:    1315268 HIT:     913721 MISS:     401547
cpu0_L2C RFO          ACCESS:      89571 HIT:      57101 MISS:      32470
cpu0_L2C PREFETCH     ACCESS:          0 HIT:          0 MISS:          0
cpu0_L2C WRITE        ACCESS:     239869 HIT:     238091 MISS:       1778
cpu0_L2C TRANSLATION  ACCESS:      23321 HIT:       4286 MISS:      19035
cpu0_L2C PREFETCH REQUESTED:          0 ISSUED:          0 USEFUL:          0 USELESS:          0
cpu0_L2C AVERAGE MISS LATENCY: 231.3 cycles
cpu0_STLB TOTAL        ACCESS:     508576 HIT:     485791 MISS:      22785
cpu0_STLB LOAD         ACCESS:     508576 HIT:     485791 MISS:      22785
cpu0_STLB RFO          ACCESS:          0 HIT:          0 MISS:          0
cpu0_STLB PREFETCH     ACCESS:          0 HIT:          0 MISS:          0
cpu0_STLB WRITE        ACCESS:          0 HIT:          0 MISS:          0
cpu0_STLB TRANSLATION  ACCESS:          0 HIT:          0 MISS:          0
cpu0_STLB PREFETCH REQUESTED:          0 ISSUED:          0 USEFUL:          0 USELESS:          0
cpu0_STLB AVERAGE MISS LATENCY: 409.3 cycles

DRAM Statistics

Channel 0 RQ ROW_BUFFER_HIT:      35640
  ROW_BUFFER_MISS:     173650
 AVG DBUS CONGESTED CYCLE: 3.878
WQ ROW_BUFFER_HIT: Channel 0 
  ROW_BUFFER_MISS:       5271
  FULL:      18839
