WARNING: physical memory size is smaller than virtual memory size.

*** ChampSim Multicore Out-of-Order Simulator ***
Warmup Instructions: 50000000
Simulation Instructions: 600000000
Number of CPUs: 1
Page size: 4096

Off-chip DRAM Size: 4 GiB Channels: 1 Width: 64-bit Data Race: 3200 MT/s
Heartbeat CPU 0 instructions: 10000001 cycles: 2500318 heartbeat IPC: 3.999 cumulative IPC: 3.999 (Simulation time: 00 hr 00 min 35 sec)
Heartbeat CPU 0 instructions: 20000002 cycles: 5037130 heartbeat IPC: 3.942 cumulative IPC: 3.971 (Simulation time: 00 hr 01 min 15 sec)
Heartbeat CPU 0 instructions: 30000002 cycles: 7537130 heartbeat IPC: 4 cumulative IPC: 3.98 (Simulation time: 00 hr 01 min 55 sec)
Heartbeat CPU 0 instructions: 40000002 cycles: 10037130 heartbeat IPC: 4 cumulative IPC: 3.985 (Simulation time: 00 hr 02 min 37 sec)
Heartbeat CPU 0 instructions: 50000002 cycles: 12537130 heartbeat IPC: 4 cumulative IPC: 3.988 (Simulation time: 00 hr 03 min 29 sec)
Warmup finished CPU 0 instructions: 50000002 cycles: 12537131 cumulative IPC: 3.988 (Simulation time: 00 hr 03 min 29 sec)
Warmup complete CPU 0 instructions: 50000002 cycles: 12537131 cumulative IPC: 3.988 (Simulation time: 00 hr 03 min 29 sec)
Heartbeat CPU 0 instructions: 60000000 cycles: 17722352 heartbeat IPC: 1.929 cumulative IPC: 1.929 (Simulation time: 00 hr 04 min 50 sec)
Heartbeat CPU 0 instructions: 70000002 cycles: 22636561 heartbeat IPC: 2.035 cumulative IPC: 1.98 (Simulation time: 00 hr 06 min 07 sec)
Heartbeat CPU 0 instructions: 80000001 cycles: 28017136 heartbeat IPC: 1.859 cumulative IPC: 1.938 (Simulation time: 00 hr 07 min 23 sec)
Heartbeat CPU 0 instructions: 90000001 cycles: 32916889 heartbeat IPC: 2.041 cumulative IPC: 1.963 (Simulation time: 00 hr 08 min 33 sec)
Heartbeat CPU 0 instructions: 100000000 cycles: 38044788 heartbeat IPC: 1.95 cumulative IPC: 1.96 (Simulation time: 00 hr 09 min 42 sec)
Heartbeat CPU 0 instructions: 110000000 cycles: 42947967 heartbeat IPC: 2.039 cumulative IPC: 1.973 (Simulation time: 00 hr 10 min 48 sec)
Heartbeat CPU 0 instructions: 120000001 cycles: 48157857 heartbeat IPC: 1.919 cumulative IPC: 1.965 (Simulation time: 00 hr 11 min 59 sec)
Heartbeat CPU 0 instructions: 130000001 cycles: 53332603 heartbeat IPC: 1.932 cumulative IPC: 1.961 (Simulation time: 00 hr 13 min 10 sec)
Heartbeat CPU 0 instructions: 140000001 cycles: 58668342 heartbeat IPC: 1.874 cumulative IPC: 1.951 (Simulation time: 00 hr 14 min 30 sec)
Heartbeat CPU 0 instructions: 150000001 cycles: 64000802 heartbeat IPC: 1.875 cumulative IPC: 1.943 (Simulation time: 00 hr 15 min 48 sec)
Heartbeat CPU 0 instructions: 160000004 cycles: 69216556 heartbeat IPC: 1.917 cumulative IPC: 1.941 (Simulation time: 00 hr 17 min 02 sec)
Heartbeat CPU 0 instructions: 170000000 cycles: 79995358 heartbeat IPC: 0.9277 cumulative IPC: 1.779 (Simulation time: 00 hr 19 min 00 sec)
Heartbeat CPU 0 instructions: 180000004 cycles: 90903833 heartbeat IPC: 0.9167 cumulative IPC: 1.659 (Simulation time: 00 hr 21 min 06 sec)
Heartbeat CPU 0 instructions: 190000001 cycles: 101918617 heartbeat IPC: 0.9079 cumulative IPC: 1.566 (Simulation time: 00 hr 23 min 09 sec)
Heartbeat CPU 0 instructions: 200000003 cycles: 106700750 heartbeat IPC: 2.091 cumulative IPC: 1.593 (Simulation time: 00 hr 24 min 17 sec)
Heartbeat CPU 0 instructions: 210000001 cycles: 111633038 heartbeat IPC: 2.027 cumulative IPC: 1.615 (Simulation time: 00 hr 25 min 22 sec)
Heartbeat CPU 0 instructions: 220000000 cycles: 116464355 heartbeat IPC: 2.07 cumulative IPC: 1.636 (Simulation time: 00 hr 26 min 28 sec)
Heartbeat CPU 0 instructions: 230000002 cycles: 121804658 heartbeat IPC: 1.873 cumulative IPC: 1.647 (Simulation time: 00 hr 27 min 36 sec)
Heartbeat CPU 0 instructions: 240000000 cycles: 126662738 heartbeat IPC: 2.058 cumulative IPC: 1.665 (Simulation time: 00 hr 28 min 43 sec)
Heartbeat CPU 0 instructions: 250000000 cycles: 131828220 heartbeat IPC: 1.936 cumulative IPC: 1.677 (Simulation time: 00 hr 29 min 49 sec)
Heartbeat CPU 0 instructions: 260000000 cycles: 136865043 heartbeat IPC: 1.985 cumulative IPC: 1.689 (Simulation time: 00 hr 30 min 55 sec)
Heartbeat CPU 0 instructions: 270000002 cycles: 141763966 heartbeat IPC: 2.041 cumulative IPC: 1.702 (Simulation time: 00 hr 32 min 05 sec)
Heartbeat CPU 0 instructions: 280000002 cycles: 146683205 heartbeat IPC: 2.033 cumulative IPC: 1.715 (Simulation time: 00 hr 33 min 31 sec)
Heartbeat CPU 0 instructions: 290000001 cycles: 152065688 heartbeat IPC: 1.858 cumulative IPC: 1.72 (Simulation time: 00 hr 35 min 03 sec)
Heartbeat CPU 0 instructions: 300000003 cycles: 157143477 heartbeat IPC: 1.969 cumulative IPC: 1.729 (Simulation time: 00 hr 36 min 25 sec)
Heartbeat CPU 0 instructions: 310000001 cycles: 162456964 heartbeat IPC: 1.882 cumulative IPC: 1.734 (Simulation time: 00 hr 37 min 46 sec)
Heartbeat CPU 0 instructions: 320000003 cycles: 167674025 heartbeat IPC: 1.917 cumulative IPC: 1.74 (Simulation time: 00 hr 39 min 04 sec)
Heartbeat CPU 0 instructions: 330000003 cycles: 172985325 heartbeat IPC: 1.883 cumulative IPC: 1.745 (Simulation time: 00 hr 40 min 18 sec)
Heartbeat CPU 0 instructions: 340000000 cycles: 183857811 heartbeat IPC: 0.9198 cumulative IPC: 1.693 (Simulation time: 00 hr 42 min 16 sec)
Heartbeat CPU 0 instructions: 350000000 cycles: 195414881 heartbeat IPC: 0.8653 cumulative IPC: 1.64 (Simulation time: 00 hr 44 min 26 sec)
Heartbeat CPU 0 instructions: 360000004 cycles: 206494802 heartbeat IPC: 0.9025 cumulative IPC: 1.598 (Simulation time: 00 hr 47 min 02 sec)
Heartbeat CPU 0 instructions: 370000000 cycles: 210915444 heartbeat IPC: 2.262 cumulative IPC: 1.613 (Simulation time: 00 hr 48 min 25 sec)
Heartbeat CPU 0 instructions: 380000001 cycles: 215846763 heartbeat IPC: 2.028 cumulative IPC: 1.623 (Simulation time: 00 hr 49 min 47 sec)
Heartbeat CPU 0 instructions: 390000002 cycles: 220677209 heartbeat IPC: 2.07 cumulative IPC: 1.634 (Simulation time: 00 hr 51 min 04 sec)
Heartbeat CPU 0 instructions: 400000004 cycles: 225613534 heartbeat IPC: 2.026 cumulative IPC: 1.643 (Simulation time: 00 hr 52 min 19 sec)
Heartbeat CPU 0 instructions: 410000000 cycles: 230345073 heartbeat IPC: 2.113 cumulative IPC: 1.653 (Simulation time: 00 hr 53 min 32 sec)
Heartbeat CPU 0 instructions: 420000000 cycles: 235487072 heartbeat IPC: 1.945 cumulative IPC: 1.66 (Simulation time: 00 hr 54 min 49 sec)
Heartbeat CPU 0 instructions: 430000001 cycles: 239962129 heartbeat IPC: 2.235 cumulative IPC: 1.671 (Simulation time: 00 hr 56 min 01 sec)
Heartbeat CPU 0 instructions: 440000000 cycles: 245324777 heartbeat IPC: 1.865 cumulative IPC: 1.675 (Simulation time: 00 hr 57 min 16 sec)
Heartbeat CPU 0 instructions: 450000002 cycles: 250004056 heartbeat IPC: 2.137 cumulative IPC: 1.684 (Simulation time: 00 hr 58 min 32 sec)
Heartbeat CPU 0 instructions: 460000000 cycles: 254809802 heartbeat IPC: 2.081 cumulative IPC: 1.692 (Simulation time: 01 hr 00 min 11 sec)
Heartbeat CPU 0 instructions: 470000000 cycles: 259796004 heartbeat IPC: 2.006 cumulative IPC: 1.699 (Simulation time: 01 hr 01 min 43 sec)
Heartbeat CPU 0 instructions: 480000003 cycles: 264592803 heartbeat IPC: 2.085 cumulative IPC: 1.706 (Simulation time: 01 hr 03 min 04 sec)
Heartbeat CPU 0 instructions: 490000000 cycles: 269206363 heartbeat IPC: 2.168 cumulative IPC: 1.714 (Simulation time: 01 hr 04 min 20 sec)
Heartbeat CPU 0 instructions: 500000000 cycles: 274238528 heartbeat IPC: 1.987 cumulative IPC: 1.72 (Simulation time: 01 hr 05 min 36 sec)
Heartbeat CPU 0 instructions: 510000003 cycles: 279879925 heartbeat IPC: 1.773 cumulative IPC: 1.721 (Simulation time: 01 hr 06 min 57 sec)
Heartbeat CPU 0 instructions: 520000001 cycles: 284582298 heartbeat IPC: 2.127 cumulative IPC: 1.728 (Simulation time: 01 hr 08 min 11 sec)
Heartbeat CPU 0 instructions: 530000002 cycles: 289735045 heartbeat IPC: 1.941 cumulative IPC: 1.732 (Simulation time: 01 hr 09 min 25 sec)
Heartbeat CPU 0 instructions: 540000000 cycles: 294859008 heartbeat IPC: 1.952 cumulative IPC: 1.736 (Simulation time: 01 hr 10 min 35 sec)
Heartbeat CPU 0 instructions: 550000001 cycles: 299671091 heartbeat IPC: 2.078 cumulative IPC: 1.741 (Simulation time: 01 hr 11 min 54 sec)
Heartbeat CPU 0 instructions: 560000000 cycles: 304902547 heartbeat IPC: 1.912 cumulative IPC: 1.744 (Simulation time: 01 hr 13 min 24 sec)
Heartbeat CPU 0 instructions: 570000004 cycles: 312352257 heartbeat IPC: 1.342 cumulative IPC: 1.734 (Simulation time: 01 hr 15 min 10 sec)
Heartbeat CPU 0 instructions: 580000003 cycles: 324548859 heartbeat IPC: 0.8199 cumulative IPC: 1.699 (Simulation time: 01 hr 17 min 28 sec)
Heartbeat CPU 0 instructions: 590000002 cycles: 338202663 heartbeat IPC: 0.7324 cumulative IPC: 1.658 (Simulation time: 01 hr 19 min 56 sec)
Heartbeat CPU 0 instructions: 600000000 cycles: 342805260 heartbeat IPC: 2.173 cumulative IPC: 1.665 (Simulation time: 01 hr 21 min 10 sec)
Heartbeat CPU 0 instructions: 610000002 cycles: 347305390 heartbeat IPC: 2.222 cumulative IPC: 1.673 (Simulation time: 01 hr 22 min 24 sec)
Heartbeat CPU 0 instructions: 620000000 cycles: 352116319 heartbeat IPC: 2.079 cumulative IPC: 1.679 (Simulation time: 01 hr 23 min 44 sec)
Heartbeat CPU 0 instructions: 630000002 cycles: 357206109 heartbeat IPC: 1.965 cumulative IPC: 1.683 (Simulation time: 01 hr 25 min 25 sec)
Heartbeat CPU 0 instructions: 640000001 cycles: 362060233 heartbeat IPC: 2.06 cumulative IPC: 1.688 (Simulation time: 01 hr 26 min 57 sec)
Heartbeat CPU 0 instructions: 650000000 cycles: 366617249 heartbeat IPC: 2.194 cumulative IPC: 1.695 (Simulation time: 01 hr 28 min 16 sec)
Simulation finished CPU 0 instructions: 600000001 cycles: 354080120 cumulative IPC: 1.695 (Simulation time: 01 hr 28 min 16 sec)
Simulation complete CPU 0 instructions: 600000001 cycles: 354080120 cumulative IPC: 1.695 (Simulation time: 01 hr 28 min 16 sec)

ChampSim completed all CPUs

=== Simulation ===
CPU 0 runs traces/400.perlbench-41B.champsimtrace.xz
Region of Interest Statistics

CPU 0 cumulative IPC: 1.695 instructions: 600000001 cycles: 354080120
CPU 0 Branch Prediction Accuracy: 93.95% MPKI: 12.5 Average ROB Occupancy at Mispredict: 29.68
Branch type MPKI
BRANCH_DIRECT_JUMP: 0.0123
BRANCH_INDIRECT: 0.323
BRANCH_CONDITIONAL: 12
BRANCH_DIRECT_CALL: 0.0043
BRANCH_INDIRECT_CALL: 0.2
BRANCH_RETURN: 0.00828

LLC TOTAL        ACCESS:     540186 HIT:     264869 MISS:     275317
LLC LOAD         ACCESS:     402502 HIT:     154791 MISS:     247711
LLC RFO          ACCESS:      32414 HIT:      15629 MISS:      16785
LLC PREFETCH     ACCESS:          0 HIT:          0 MISS:          0
LLC WRITE        ACCESS:      86337 HIT:      85834 MISS:        503
LLC TRANSLATION  ACCESS:      18933 HIT:       8615 MISS:      10318
LLC PREFETCH REQUESTED:          0 ISSUED:          0 USEFUL:          0 USELESS:          0
LLC AVERAGE MISS LATENCY: 568.6 cycles
cpu0_DTLB TOTAL        ACCESS:  153668124 HIT:  152990141 MISS:     677983
cpu0_DTLB LOAD         ACCESS:  153668124 HIT:  152990141 MISS:     677983
cpu0_DTLB RFO          ACCESS:          0 HIT:          0 MISS:          0
cpu0_DTLB PREFETCH     ACCESS:          0 HIT:          0 MISS:          0
cpu0_DTLB WRITE        ACCESS:          0 HIT:          0 MISS:          0
cpu0_DTLB TRANSLATION  ACCESS:          0 HIT:          0 MISS:          0
cpu0_DTLB PREFETCH REQUESTED:          0 ISSUED:          0 USEFUL:          0 USELESS:          0
cpu0_DTLB AVERAGE MISS LATENCY: 16.13 cycles
cpu0_ITLB TOTAL        ACCESS:    4835041 HIT:    4777173 MISS:      57868
cpu0_ITLB LOAD         ACCESS:    4835041 HIT:    4777173 MISS:      57868
cpu0_ITLB RFO          ACCESS:          0 HIT:          0 MISS:          0
cpu0_ITLB PREFETCH     ACCESS:          0 HIT:          0 MISS:          0
cpu0_ITLB WRITE        ACCESS:          0 HIT:          0 MISS:          0
cpu0_ITLB TRANSLATION  ACCESS:          0 HIT:          0 MISS:          0
cpu0_ITLB PREFETCH REQUESTED:          0 ISSUED:          0 USEFUL:          0 USELESS:          0
cpu0_ITLB AVERAGE MISS LATENCY: 7.527 cycles
cpu0_L1D TOTAL        ACCESS:  200280638 HIT:  198915505 MISS:    1365133
cpu0_L1D LOAD         ACCESS:  117036716 HIT:  115987457 MISS:    1049259
cpu0_L1D RFO          ACCESS:          0 HIT:          0 MISS:          0
cpu0_L1D PREFETCH     ACCESS:          0 HIT:          0 MISS:          0
cpu0_L1D WRITE        ACCESS:   83219463 HIT:   82926476 MISS:     292987
cpu0_L1D TRANSLATION  ACCESS:      24459 HIT:       1572 MISS:      22887
cpu0_L1D PREFETCH REQUESTED:          0 ISSUED:          0 USEFUL:          0 USELESS:          0
cpu0_L1D AVERAGE MISS LATENCY: 118.4 cycles
cpu0_L1I TOTAL        ACCESS:    5577339 HIT:    4815796 MISS:     761543
cpu0_L1I LOAD         ACCESS:    5577339 HIT:    4815796 MISS:     761543
cpu0_L1I RFO          ACCESS:          0 HIT:          0 MISS:          0
cpu0_L1I PREFETCH     ACCESS:          0 HIT:          0 MISS:          0
cpu0_L1I WRITE        ACCESS:          0 HIT:          0 MISS:          0
cpu0_L1I TRANSLATION  ACCESS:          0 HIT:          0 MISS:          0
cpu0_L1I PREFETCH REQUESTED:          0 ISSUED:          0 USEFUL:          0 USELESS:          0
cpu0_L1I AVERAGE MISS LATENCY: 14.78 cycles
cpu0_L2C TOTAL        ACCESS:    1382435 HIT:     924933 MISS:     457502
cpu0_L2C LOAD         ACCESS:    1125637 HIT:     723135 MISS:     402502
cpu0_L2C RFO          ACCESS:      63902 HIT:      31488 MISS:      32414
cpu0_L2C PREFETCH     ACCESS:          0 HIT:          0 MISS:          0
cpu0_L2C WRITE        ACCESS:     170088 HIT:     166435 MISS:       3653
cpu0_L2C TRANSLATION  ACCESS:      22808 HIT:       3875 MISS:      18933
cpu0_L2C PREFETCH REQUESTED:          0 ISSUED:          0 USEFUL:          0 USELESS:          0
cpu0_L2C AVERAGE MISS LATENCY: 362.6 cycles
cpu0_STLB TOTAL        ACCESS:     505184 HIT:     482394 MISS:      22790
cpu0_STLB LOAD         ACCESS:     505184 HIT:     482394 MISS:      22790
cpu0_STLB RFO          ACCESS:          0 HIT:          0 MISS:          0
cpu0_STLB PREFETCH     ACCESS:          0 HIT:          0 MISS:          0
cpu0_STLB WRITE        ACCESS:          0 HIT:          0 MISS:          0
cpu0_STLB TRANSLATION  ACCESS:          0 HIT:          0 MISS:          0
cpu0_STLB PREFETCH REQUESTED:          0 ISSUED:          0 USEFUL:          0 USELESS:          0
cpu0_STLB AVERAGE MISS LATENCY: 360.2 cycles

DRAM Statistics

Channel 0 RQ ROW_BUFFER_HIT:      41508
  ROW_BUFFER_MISS:     233271
 AVG DBUS CONGESTED CYCLE: 3.814
WQ ROW_BUFFER_HIT: Channel 0 
  ROW_BUFFER_MISS:       7765
  FULL:      37121
