WARNING: physical memory size is smaller than virtual memory size.

*** ChampSim Multicore Out-of-Order Simulator ***
Warmup Instructions: 50000000
Simulation Instructions: 600000000
Number of CPUs: 1
Page size: 4096

Off-chip DRAM Size: 4 GiB Channels: 1 Width: 64-bit Data Race: 3200 MT/s
Heartbeat CPU 0 instructions: 10000000 cycles: 2500061 heartbeat IPC: 4 cumulative IPC: 4 (Simulation time: 00 hr 00 min 58 sec)
Heartbeat CPU 0 instructions: 20000000 cycles: 5000061 heartbeat IPC: 4 cumulative IPC: 4 (Simulation time: 00 hr 01 min 50 sec)
Heartbeat CPU 0 instructions: 30000000 cycles: 7500061 heartbeat IPC: 4 cumulative IPC: 4 (Simulation time: 00 hr 02 min 41 sec)
Heartbeat CPU 0 instructions: 40000000 cycles: 10000061 heartbeat IPC: 4 cumulative IPC: 4 (Simulation time: 00 hr 03 min 30 sec)
Heartbeat CPU 0 instructions: 50000000 cycles: 12500061 heartbeat IPC: 4 cumulative IPC: 4 (Simulation time: 00 hr 04 min 17 sec)
Warmup finished CPU 0 instructions: 50000000 cycles: 12500062 cumulative IPC: 4 (Simulation time: 00 hr 04 min 17 sec)
Warmup complete CPU 0 instructions: 50000000 cycles: 12500062 cumulative IPC: 4 (Simulation time: 00 hr 04 min 17 sec)
Heartbeat CPU 0 instructions: 60000002 cycles: 16435451 heartbeat IPC: 2.541 cumulative IPC: 2.541 (Simulation time: 00 hr 05 min 20 sec)
Heartbeat CPU 0 instructions: 70000003 cycles: 20748814 heartbeat IPC: 2.318 cumulative IPC: 2.425 (Simulation time: 00 hr 06 min 22 sec)
Heartbeat CPU 0 instructions: 80000003 cycles: 25212047 heartbeat IPC: 2.241 cumulative IPC: 2.36 (Simulation time: 00 hr 07 min 36 sec)
Heartbeat CPU 0 instructions: 90000000 cycles: 28901952 heartbeat IPC: 2.71 cumulative IPC: 2.439 (Simulation time: 00 hr 08 min 59 sec)
Heartbeat CPU 0 instructions: 100000003 cycles: 32796051 heartbeat IPC: 2.568 cumulative IPC: 2.464 (Simulation time: 00 hr 10 min 24 sec)
Heartbeat CPU 0 instructions: 110000002 cycles: 36887380 heartbeat IPC: 2.444 cumulative IPC: 2.46 (Simulation time: 00 hr 11 min 37 sec)
Heartbeat CPU 0 instructions: 120000001 cycles: 40600339 heartbeat IPC: 2.693 cumulative IPC: 2.491 (Simulation time: 00 hr 12 min 44 sec)
Heartbeat CPU 0 instructions: 130000003 cycles: 44364917 heartbeat IPC: 2.656 cumulative IPC: 2.511 (Simulation time: 00 hr 13 min 51 sec)
Heartbeat CPU 0 instructions: 140000002 cycles: 48489994 heartbeat IPC: 2.424 cumulative IPC: 2.501 (Simulation time: 00 hr 15 min 05 sec)
Heartbeat CPU 0 instructions: 150000001 cycles: 52534004 heartbeat IPC: 2.473 cumulative IPC: 2.498 (Simulation time: 00 hr 16 min 13 sec)
Heartbeat CPU 0 instructions: 160000000 cycles: 56183103 heartbeat IPC: 2.74 cumulative IPC: 2.518 (Simulation time: 00 hr 17 min 23 sec)
Heartbeat CPU 0 instructions: 170000001 cycles: 60348403 heartbeat IPC: 2.401 cumulative IPC: 2.508 (Simulation time: 00 hr 18 min 51 sec)
Heartbeat CPU 0 instructions: 180000001 cycles: 63804167 heartbeat IPC: 2.894 cumulative IPC: 2.534 (Simulation time: 00 hr 20 min 15 sec)
Heartbeat CPU 0 instructions: 190000002 cycles: 67381937 heartbeat IPC: 2.795 cumulative IPC: 2.551 (Simulation time: 00 hr 21 min 32 sec)
Heartbeat CPU 0 instructions: 200000002 cycles: 71152080 heartbeat IPC: 2.652 cumulative IPC: 2.557 (Simulation time: 00 hr 22 min 51 sec)
Heartbeat CPU 0 instructions: 210000000 cycles: 74788078 heartbeat IPC: 2.75 cumulative IPC: 2.569 (Simulation time: 00 hr 23 min 59 sec)
Heartbeat CPU 0 instructions: 220000001 cycles: 78656427 heartbeat IPC: 2.585 cumulative IPC: 2.57 (Simulation time: 00 hr 25 min 07 sec)
Heartbeat CPU 0 instructions: 230000002 cycles: 82493955 heartbeat IPC: 2.606 cumulative IPC: 2.572 (Simulation time: 00 hr 26 min 17 sec)
Heartbeat CPU 0 instructions: 240000001 cycles: 86696820 heartbeat IPC: 2.379 cumulative IPC: 2.561 (Simulation time: 00 hr 27 min 30 sec)
Heartbeat CPU 0 instructions: 250000003 cycles: 91262440 heartbeat IPC: 2.19 cumulative IPC: 2.539 (Simulation time: 00 hr 29 min 02 sec)
Heartbeat CPU 0 instructions: 260000000 cycles: 95060635 heartbeat IPC: 2.633 cumulative IPC: 2.544 (Simulation time: 00 hr 30 min 24 sec)
Heartbeat CPU 0 instructions: 270000003 cycles: 101858383 heartbeat IPC: 1.471 cumulative IPC: 2.462 (Simulation time: 00 hr 32 min 09 sec)
Heartbeat CPU 0 instructions: 280000000 cycles: 112477868 heartbeat IPC: 0.9417 cumulative IPC: 2.301 (Simulation time: 00 hr 34 min 13 sec)
Heartbeat CPU 0 instructions: 290000000 cycles: 121925261 heartbeat IPC: 1.058 cumulative IPC: 2.193 (Simulation time: 00 hr 36 min 06 sec)
Heartbeat CPU 0 instructions: 300000003 cycles: 129244131 heartbeat IPC: 1.366 cumulative IPC: 2.141 (Simulation time: 00 hr 37 min 53 sec)
Heartbeat CPU 0 instructions: 310000004 cycles: 140428336 heartbeat IPC: 0.8941 cumulative IPC: 2.032 (Simulation time: 00 hr 40 min 26 sec)
Heartbeat CPU 0 instructions: 320000004 cycles: 145492213 heartbeat IPC: 1.975 cumulative IPC: 2.03 (Simulation time: 00 hr 42 min 01 sec)
Heartbeat CPU 0 instructions: 330000000 cycles: 149562723 heartbeat IPC: 2.457 cumulative IPC: 2.043 (Simulation time: 00 hr 43 min 19 sec)
Heartbeat CPU 0 instructions: 340000001 cycles: 153862582 heartbeat IPC: 2.326 cumulative IPC: 2.051 (Simulation time: 00 hr 44 min 34 sec)
Heartbeat CPU 0 instructions: 350000004 cycles: 158280960 heartbeat IPC: 2.263 cumulative IPC: 2.058 (Simulation time: 00 hr 45 min 48 sec)
Heartbeat CPU 0 instructions: 360000003 cycles: 162406736 heartbeat IPC: 2.424 cumulative IPC: 2.068 (Simulation time: 00 hr 46 min 56 sec)
Heartbeat CPU 0 instructions: 370000001 cycles: 166437715 heartbeat IPC: 2.481 cumulative IPC: 2.079 (Simulation time: 00 hr 48 min 02 sec)
Heartbeat CPU 0 instructions: 380000004 cycles: 170325787 heartbeat IPC: 2.572 cumulative IPC: 2.091 (Simulation time: 00 hr 49 min 21 sec)
Heartbeat CPU 0 instructions: 390000002 cycles: 174395916 heartbeat IPC: 2.457 cumulative IPC: 2.1 (Simulation time: 00 hr 50 min 55 sec)
Heartbeat CPU 0 instructions: 400000000 cycles: 178759454 heartbeat IPC: 2.292 cumulative IPC: 2.105 (Simulation time: 00 hr 52 min 23 sec)
Heartbeat CPU 0 instructions: 410000000 cycles: 186322370 heartbeat IPC: 1.322 cumulative IPC: 2.071 (Simulation time: 00 hr 54 min 12 sec)
Heartbeat CPU 0 instructions: 420000003 cycles: 197111794 heartbeat IPC: 0.9268 cumulative IPC: 2.004 (Simulation time: 00 hr 56 min 32 sec)
Heartbeat CPU 0 instructions: 430000000 cycles: 204719574 heartbeat IPC: 1.314 cumulative IPC: 1.977 (Simulation time: 00 hr 58 min 16 sec)
Heartbeat CPU 0 instructions: 440000004 cycles: 211330902 heartbeat IPC: 1.513 cumulative IPC: 1.961 (Simulation time: 00 hr 59 min 52 sec)
Heartbeat CPU 0 instructions: 450000000 cycles: 217973075 heartbeat IPC: 1.506 cumulative IPC: 1.947 (Simulation time: 01 hr 01 min 25 sec)
Heartbeat CPU 0 instructions: 460000002 cycles: 228862507 heartbeat IPC: 0.9183 cumulative IPC: 1.895 (Simulation time: 01 hr 04 min 04 sec)
Heartbeat CPU 0 instructions: 470000003 cycles: 238603184 heartbeat IPC: 1.027 cumulative IPC: 1.858 (Simulation time: 01 hr 06 min 17 sec)
Heartbeat CPU 0 instructions: 480000003 cycles: 242877046 heartbeat IPC: 2.34 cumulative IPC: 1.867 (Simulation time: 01 hr 07 min 32 sec)
Heartbeat CPU 0 instructions: 490000001 cycles: 247567483 heartbeat IPC: 2.132 cumulative IPC: 1.872 (Simulation time: 01 hr 08 min 52 sec)
Heartbeat CPU 0 instructions: 500000002 cycles: 251977182 heartbeat IPC: 2.268 cumulative IPC: 1.879 (Simulation time: 01 hr 10 min 12 sec)
Heartbeat CPU 0 instructions: 510000000 cycles: 256227522 heartbeat IPC: 2.353 cumulative IPC: 1.887 (Simulation time: 01 hr 11 min 27 sec)
Heartbeat CPU 0 instructions: 520000000 cycles: 260659948 heartbeat IPC: 2.256 cumulative IPC: 1.894 (Simulation time: 01 hr 12 min 38 sec)
Heartbeat CPU 0 instructions: 530000001 cycles: 271804338 heartbeat IPC: 0.8973 cumulative IPC: 1.851 (Simulation time: 01 hr 14 min 48 sec)
Heartbeat CPU 0 instructions: 540000000 cycles: 282799398 heartbeat IPC: 0.9095 cumulative IPC: 1.813 (Simulation time: 01 hr 17 min 29 sec)
Heartbeat CPU 0 instructions: 550000004 cycles: 295130908 heartbeat IPC: 0.8109 cumulative IPC: 1.769 (Simulation time: 01 hr 20 min 10 sec)
Heartbeat CPU 0 instructions: 560000004 cycles: 299532861 heartbeat IPC: 2.272 cumulative IPC: 1.777 (Simulation time: 01 hr 21 min 28 sec)
Heartbeat CPU 0 instructions: 570000001 cycles: 302661810 heartbeat IPC: 3.196 cumulative IPC: 1.792 (Simulation time: 01 hr 22 min 38 sec)
Heartbeat CPU 0 instructions: 580000003 cycles: 306206232 heartbeat IPC: 2.821 cumulative IPC: 1.805 (Simulation time: 01 hr 23 min 47 sec)
Heartbeat CPU 0 instructions: 590000002 cycles: 309833048 heartbeat IPC: 2.757 cumulative IPC: 1.816 (Simulation time: 01 hr 24 min 53 sec)
Heartbeat CPU 0 instructions: 600000003 cycles: 312901348 heartbeat IPC: 3.259 cumulative IPC: 1.831 (Simulation time: 01 hr 25 min 55 sec)
Heartbeat CPU 0 instructions: 610000001 cycles: 316410831 heartbeat IPC: 2.849 cumulative IPC: 1.843 (Simulation time: 01 hr 26 min 57 sec)
Heartbeat CPU 0 instructions: 620000000 cycles: 320427942 heartbeat IPC: 2.489 cumulative IPC: 1.851 (Simulation time: 01 hr 28 min 04 sec)
Heartbeat CPU 0 instructions: 630000002 cycles: 323790986 heartbeat IPC: 2.973 cumulative IPC: 1.863 (Simulation time: 01 hr 29 min 11 sec)
Heartbeat CPU 0 instructions: 640000004 cycles: 327800102 heartbeat IPC: 2.494 cumulative IPC: 1.871 (Simulation time: 01 hr 30 min 35 sec)
Heartbeat CPU 0 instructions: 650000001 cycles: 331619536 heartbeat IPC: 2.618 cumulative IPC: 1.88 (Simulation time: 01 hr 31 min 54 sec)
Simulation finished CPU 0 instructions: 600000001 cycles: 319119475 cumulative IPC: 1.88 (Simulation time: 01 hr 31 min 54 sec)
Simulation complete CPU 0 instructions: 600000001 cycles: 319119475 cumulative IPC: 1.88 (Simulation time: 01 hr 31 min 54 sec)

ChampSim completed all CPUs

=== Simulation ===
CPU 0 runs traces/400.perlbench-50B.champsimtrace.xz
Region of Interest Statistics

CPU 0 cumulative IPC: 1.88 instructions: 600000001 cycles: 319119475
CPU 0 Branch Prediction Accuracy: 96.2% MPKI: 7.839 Average ROB Occupancy at Mispredict: 43.33
Branch type MPKI
BRANCH_DIRECT_JUMP: 0.0176
BRANCH_INDIRECT: 0.38
BRANCH_CONDITIONAL: 6.99
BRANCH_DIRECT_CALL: 0.0067
BRANCH_INDIRECT_CALL: 0.431
BRANCH_RETURN: 0.0161

LLC TOTAL        ACCESS:    1351348 HIT:     868101 MISS:     483247
LLC LOAD         ACCESS:     576179 HIT:     359567 MISS:     216612
LLC RFO          ACCESS:      47522 HIT:      27203 MISS:      20319
LLC PREFETCH     ACCESS:     576179 HIT:     342845 MISS:     233334
LLC WRITE        ACCESS:     129420 HIT:     128954 MISS:        466
LLC TRANSLATION  ACCESS:      22048 HIT:       9532 MISS:      12516
LLC PREFETCH REQUESTED:     576179 ISSUED:     576179 USEFUL:      92092 USELESS:      83044
LLC AVERAGE MISS LATENCY: 558 cycles
cpu0_DTLB TOTAL        ACCESS:  146491587 HIT:  145188413 MISS:    1303174
cpu0_DTLB LOAD         ACCESS:  146491587 HIT:  145188413 MISS:    1303174
cpu0_DTLB RFO          ACCESS:          0 HIT:          0 MISS:          0
cpu0_DTLB PREFETCH     ACCESS:          0 HIT:          0 MISS:          0
cpu0_DTLB WRITE        ACCESS:          0 HIT:          0 MISS:          0
cpu0_DTLB TRANSLATION  ACCESS:          0 HIT:          0 MISS:          0
cpu0_DTLB PREFETCH REQUESTED:          0 ISSUED:          0 USEFUL:          0 USELESS:          0
cpu0_DTLB AVERAGE MISS LATENCY: 12.74 cycles
cpu0_ITLB TOTAL        ACCESS:    8986354 HIT:    8801843 MISS:     184511
cpu0_ITLB LOAD         ACCESS:    8986354 HIT:    8801843 MISS:     184511
cpu0_ITLB RFO          ACCESS:          0 HIT:          0 MISS:          0
cpu0_ITLB PREFETCH     ACCESS:          0 HIT:          0 MISS:          0
cpu0_ITLB WRITE        ACCESS:          0 HIT:          0 MISS:          0
cpu0_ITLB TRANSLATION  ACCESS:          0 HIT:          0 MISS:          0
cpu0_ITLB PREFETCH REQUESTED:          0 ISSUED:          0 USEFUL:          0 USELESS:          0
cpu0_ITLB AVERAGE MISS LATENCY: 3.873 cycles
cpu0_L1D TOTAL        ACCESS:  193307563 HIT:  190427661 MISS:    2879902
cpu0_L1D LOAD         ACCESS:  107459883 HIT:  105092232 MISS:    2367651
cpu0_L1D RFO          ACCESS:          0 HIT:          0 MISS:          0
cpu0_L1D PREFETCH     ACCESS:          0 HIT:          0 MISS:          0
cpu0_L1D WRITE        ACCESS:   85819157 HIT:   85333417 MISS:     485740
cpu0_L1D TRANSLATION  ACCESS:      28523 HIT:       2012 MISS:      26511
cpu0_L1D PREFETCH REQUESTED:          0 ISSUED:          0 USEFUL:          0 USELESS:          0
cpu0_L1D AVERAGE MISS LATENCY: 57.81 cycles
cpu0_L1I TOTAL        ACCESS:   10420954 HIT:    8659296 MISS:    1761658
cpu0_L1I LOAD         ACCESS:   10420954 HIT:    8659296 MISS:    1761658
cpu0_L1I RFO          ACCESS:          0 HIT:          0 MISS:          0
cpu0_L1I PREFETCH     ACCESS:          0 HIT:          0 MISS:          0
cpu0_L1I WRITE        ACCESS:          0 HIT:          0 MISS:          0
cpu0_L1I TRANSLATION  ACCESS:          0 HIT:          0 MISS:          0
cpu0_L1I PREFETCH REQUESTED:          0 ISSUED:          0 USEFUL:          0 USELESS:          0
cpu0_L1I AVERAGE MISS LATENCY: 11.14 cycles
cpu0_L2C TOTAL        ACCESS:    3232345 HIT:    2580662 MISS:     651683
cpu0_L2C LOAD         ACCESS:    2710094 HIT:    2133915 MISS:     576179
cpu0_L2C RFO          ACCESS:     133255 HIT:      85733 MISS:      47522
cpu0_L2C PREFETCH     ACCESS:          0 HIT:          0 MISS:          0
cpu0_L2C WRITE        ACCESS:     362553 HIT:     356619 MISS:       5934
cpu0_L2C TRANSLATION  ACCESS:      26443 HIT:       4395 MISS:      22048
cpu0_L2C PREFETCH REQUESTED:          0 ISSUED:          0 USEFUL:          0 USELESS:          0
cpu0_L2C AVERAGE MISS LATENCY: 252.2 cycles
cpu0_STLB TOTAL        ACCESS:    1008406 HIT:     981711 MISS:      26695
cpu0_STLB LOAD         ACCESS:    1008406 HIT:     981711 MISS:      26695
cpu0_STLB RFO          ACCESS:          0 HIT:          0 MISS:          0
cpu0_STLB PREFETCH     ACCESS:          0 HIT:          0 MISS:          0
cpu0_STLB WRITE        ACCESS:          0 HIT:          0 MISS:          0
cpu0_STLB TRANSLATION  ACCESS:          0 HIT:          0 MISS:          0
cpu0_STLB PREFETCH REQUESTED:          0 ISSUED:          0 USEFUL:          0 USELESS:          0
cpu0_STLB AVERAGE MISS LATENCY: 406.5 cycles

DRAM Statistics

Channel 0 RQ ROW_BUFFER_HIT:      81525
  ROW_BUFFER_MISS:     331450
 AVG DBUS CONGESTED CYCLE: 3.875
WQ ROW_BUFFER_HIT: Channel 0 
  ROW_BUFFER_MISS:       6764
  FULL:      47009
