WARNING: physical memory size is smaller than virtual memory size.

*** ChampSim Multicore Out-of-Order Simulator ***
Warmup Instructions: 50000000
Simulation Instructions: 600000000
Number of CPUs: 1
Page size: 4096

Off-chip DRAM Size: 4 GiB Channels: 1 Width: 64-bit Data Race: 3200 MT/s
Heartbeat CPU 0 instructions: 10000001 cycles: 2500318 heartbeat IPC: 3.999 cumulative IPC: 3.999 (Simulation time: 00 hr 00 min 48 sec)
Heartbeat CPU 0 instructions: 20000002 cycles: 5037128 heartbeat IPC: 3.942 cumulative IPC: 3.971 (Simulation time: 00 hr 01 min 40 sec)
Heartbeat CPU 0 instructions: 30000002 cycles: 7537128 heartbeat IPC: 4 cumulative IPC: 3.98 (Simulation time: 00 hr 02 min 25 sec)
Heartbeat CPU 0 instructions: 40000002 cycles: 10037128 heartbeat IPC: 4 cumulative IPC: 3.985 (Simulation time: 00 hr 03 min 12 sec)
Heartbeat CPU 0 instructions: 50000002 cycles: 12537128 heartbeat IPC: 4 cumulative IPC: 3.988 (Simulation time: 00 hr 03 min 58 sec)
Warmup finished CPU 0 instructions: 50000002 cycles: 12537129 cumulative IPC: 3.988 (Simulation time: 00 hr 03 min 58 sec)
Warmup complete CPU 0 instructions: 50000002 cycles: 12537129 cumulative IPC: 3.988 (Simulation time: 00 hr 03 min 58 sec)
Heartbeat CPU 0 instructions: 60000000 cycles: 17705487 heartbeat IPC: 1.935 cumulative IPC: 1.935 (Simulation time: 00 hr 05 min 06 sec)
Heartbeat CPU 0 instructions: 70000002 cycles: 22605620 heartbeat IPC: 2.041 cumulative IPC: 1.986 (Simulation time: 00 hr 06 min 16 sec)
Heartbeat CPU 0 instructions: 80000001 cycles: 27975767 heartbeat IPC: 1.862 cumulative IPC: 1.943 (Simulation time: 00 hr 07 min 32 sec)
Heartbeat CPU 0 instructions: 90000001 cycles: 32864378 heartbeat IPC: 2.046 cumulative IPC: 1.968 (Simulation time: 00 hr 08 min 46 sec)
Heartbeat CPU 0 instructions: 100000000 cycles: 37979651 heartbeat IPC: 1.955 cumulative IPC: 1.965 (Simulation time: 00 hr 09 min 58 sec)
Heartbeat CPU 0 instructions: 110000000 cycles: 42877999 heartbeat IPC: 2.042 cumulative IPC: 1.978 (Simulation time: 00 hr 11 min 06 sec)
Heartbeat CPU 0 instructions: 120000001 cycles: 48080459 heartbeat IPC: 1.922 cumulative IPC: 1.969 (Simulation time: 00 hr 12 min 25 sec)
Heartbeat CPU 0 instructions: 130000001 cycles: 53243766 heartbeat IPC: 1.937 cumulative IPC: 1.965 (Simulation time: 00 hr 13 min 36 sec)
Heartbeat CPU 0 instructions: 140000001 cycles: 58559884 heartbeat IPC: 1.881 cumulative IPC: 1.956 (Simulation time: 00 hr 14 min 43 sec)
Heartbeat CPU 0 instructions: 150000001 cycles: 63880369 heartbeat IPC: 1.88 cumulative IPC: 1.948 (Simulation time: 00 hr 15 min 48 sec)
Heartbeat CPU 0 instructions: 160000004 cycles: 69088088 heartbeat IPC: 1.92 cumulative IPC: 1.945 (Simulation time: 00 hr 16 min 51 sec)
Heartbeat CPU 0 instructions: 170000000 cycles: 78198889 heartbeat IPC: 1.098 cumulative IPC: 1.828 (Simulation time: 00 hr 18 min 19 sec)
Heartbeat CPU 0 instructions: 180000004 cycles: 87322527 heartbeat IPC: 1.096 cumulative IPC: 1.738 (Simulation time: 00 hr 19 min 50 sec)
Heartbeat CPU 0 instructions: 190000001 cycles: 97493760 heartbeat IPC: 0.9832 cumulative IPC: 1.648 (Simulation time: 00 hr 21 min 27 sec)
Heartbeat CPU 0 instructions: 200000003 cycles: 102230492 heartbeat IPC: 2.111 cumulative IPC: 1.672 (Simulation time: 00 hr 22 min 25 sec)
Heartbeat CPU 0 instructions: 210000001 cycles: 107133906 heartbeat IPC: 2.039 cumulative IPC: 1.691 (Simulation time: 00 hr 23 min 24 sec)
Heartbeat CPU 0 instructions: 220000000 cycles: 111953519 heartbeat IPC: 2.075 cumulative IPC: 1.71 (Simulation time: 00 hr 24 min 22 sec)
Heartbeat CPU 0 instructions: 230000002 cycles: 117245389 heartbeat IPC: 1.89 cumulative IPC: 1.719 (Simulation time: 00 hr 25 min 23 sec)
Heartbeat CPU 0 instructions: 240000000 cycles: 122071930 heartbeat IPC: 2.072 cumulative IPC: 1.735 (Simulation time: 00 hr 26 min 22 sec)
Heartbeat CPU 0 instructions: 250000000 cycles: 127214306 heartbeat IPC: 1.945 cumulative IPC: 1.744 (Simulation time: 00 hr 27 min 22 sec)
Heartbeat CPU 0 instructions: 260000000 cycles: 132229179 heartbeat IPC: 1.994 cumulative IPC: 1.755 (Simulation time: 00 hr 28 min 21 sec)
Heartbeat CPU 0 instructions: 270000002 cycles: 137102838 heartbeat IPC: 2.052 cumulative IPC: 1.766 (Simulation time: 00 hr 29 min 20 sec)
Heartbeat CPU 0 instructions: 280000002 cycles: 142010617 heartbeat IPC: 2.038 cumulative IPC: 1.776 (Simulation time: 00 hr 30 min 19 sec)
Heartbeat CPU 0 instructions: 290000001 cycles: 147373420 heartbeat IPC: 1.865 cumulative IPC: 1.78 (Simulation time: 00 hr 31 min 21 sec)
Heartbeat CPU 0 instructions: 300000003 cycles: 152420319 heartbeat IPC: 1.981 cumulative IPC: 1.787 (Simulation time: 00 hr 32 min 21 sec)
Heartbeat CPU 0 instructions: 310000001 cycles: 157692762 heartbeat IPC: 1.897 cumulative IPC: 1.791 (Simulation time: 00 hr 33 min 22 sec)
Heartbeat CPU 0 instructions: 320000003 cycles: 162884755 heartbeat IPC: 1.926 cumulative IPC: 1.796 (Simulation time: 00 hr 34 min 23 sec)
Heartbeat CPU 0 instructions: 330000003 cycles: 168157686 heartbeat IPC: 1.896 cumulative IPC: 1.799 (Simulation time: 00 hr 35 min 24 sec)
Heartbeat CPU 0 instructions: 340000000 cycles: 177069403 heartbeat IPC: 1.122 cumulative IPC: 1.763 (Simulation time: 00 hr 36 min 52 sec)
Heartbeat CPU 0 instructions: 350000000 cycles: 186693387 heartbeat IPC: 1.039 cumulative IPC: 1.723 (Simulation time: 00 hr 38 min 26 sec)
Heartbeat CPU 0 instructions: 360000004 cycles: 196854598 heartbeat IPC: 0.9841 cumulative IPC: 1.682 (Simulation time: 00 hr 40 min 03 sec)
Heartbeat CPU 0 instructions: 370000000 cycles: 201254277 heartbeat IPC: 2.273 cumulative IPC: 1.696 (Simulation time: 00 hr 40 min 59 sec)
Heartbeat CPU 0 instructions: 380000001 cycles: 206155408 heartbeat IPC: 2.04 cumulative IPC: 1.704 (Simulation time: 00 hr 41 min 58 sec)
Heartbeat CPU 0 instructions: 390000002 cycles: 210971856 heartbeat IPC: 2.076 cumulative IPC: 1.713 (Simulation time: 00 hr 42 min 57 sec)
Heartbeat CPU 0 instructions: 400000004 cycles: 215901124 heartbeat IPC: 2.029 cumulative IPC: 1.721 (Simulation time: 00 hr 43 min 57 sec)
Heartbeat CPU 0 instructions: 410000000 cycles: 220605871 heartbeat IPC: 2.126 cumulative IPC: 1.73 (Simulation time: 00 hr 44 min 54 sec)
Heartbeat CPU 0 instructions: 420000000 cycles: 225676818 heartbeat IPC: 1.972 cumulative IPC: 1.736 (Simulation time: 00 hr 45 min 54 sec)
Heartbeat CPU 0 instructions: 430000001 cycles: 230129305 heartbeat IPC: 2.246 cumulative IPC: 1.746 (Simulation time: 00 hr 46 min 52 sec)
Heartbeat CPU 0 instructions: 440000000 cycles: 235474203 heartbeat IPC: 1.871 cumulative IPC: 1.749 (Simulation time: 00 hr 47 min 53 sec)
Heartbeat CPU 0 instructions: 450000002 cycles: 240132106 heartbeat IPC: 2.147 cumulative IPC: 1.758 (Simulation time: 00 hr 48 min 51 sec)
Heartbeat CPU 0 instructions: 460000000 cycles: 244914662 heartbeat IPC: 2.091 cumulative IPC: 1.764 (Simulation time: 00 hr 49 min 49 sec)
Heartbeat CPU 0 instructions: 470000000 cycles: 249879328 heartbeat IPC: 2.014 cumulative IPC: 1.77 (Simulation time: 00 hr 50 min 49 sec)
Heartbeat CPU 0 instructions: 480000003 cycles: 254649550 heartbeat IPC: 2.096 cumulative IPC: 1.776 (Simulation time: 00 hr 51 min 48 sec)
Heartbeat CPU 0 instructions: 490000000 cycles: 259259182 heartbeat IPC: 2.169 cumulative IPC: 1.783 (Simulation time: 00 hr 52 min 45 sec)
Heartbeat CPU 0 instructions: 500000000 cycles: 264273053 heartbeat IPC: 1.994 cumulative IPC: 1.788 (Simulation time: 00 hr 53 min 45 sec)
Heartbeat CPU 0 instructions: 510000003 cycles: 269881825 heartbeat IPC: 1.783 cumulative IPC: 1.787 (Simulation time: 00 hr 54 min 48 sec)
Heartbeat CPU 0 instructions: 520000001 cycles: 274558056 heartbeat IPC: 2.138 cumulative IPC: 1.794 (Simulation time: 00 hr 55 min 47 sec)
Heartbeat CPU 0 instructions: 530000002 cycles: 279679068 heartbeat IPC: 1.953 cumulative IPC: 1.797 (Simulation time: 00 hr 56 min 47 sec)
Heartbeat CPU 0 instructions: 540000000 cycles: 284779396 heartbeat IPC: 1.961 cumulative IPC: 1.8 (Simulation time: 00 hr 57 min 47 sec)
Heartbeat CPU 0 instructions: 550000001 cycles: 289572629 heartbeat IPC: 2.086 cumulative IPC: 1.805 (Simulation time: 00 hr 58 min 46 sec)
Heartbeat CPU 0 instructions: 560000000 cycles: 294766216 heartbeat IPC: 1.925 cumulative IPC: 1.807 (Simulation time: 00 hr 59 min 47 sec)
Heartbeat CPU 0 instructions: 570000004 cycles: 301297885 heartbeat IPC: 1.531 cumulative IPC: 1.801 (Simulation time: 01 hr 00 min 58 sec)
Heartbeat CPU 0 instructions: 580000003 cycles: 311520438 heartbeat IPC: 0.9782 cumulative IPC: 1.773 (Simulation time: 01 hr 02 min 37 sec)
Heartbeat CPU 0 instructions: 590000002 cycles: 323305640 heartbeat IPC: 0.8485 cumulative IPC: 1.738 (Simulation time: 01 hr 04 min 24 sec)
Heartbeat CPU 0 instructions: 600000000 cycles: 327822144 heartbeat IPC: 2.214 cumulative IPC: 1.744 (Simulation time: 01 hr 05 min 20 sec)
Heartbeat CPU 0 instructions: 610000002 cycles: 332296275 heartbeat IPC: 2.235 cumulative IPC: 1.751 (Simulation time: 01 hr 06 min 16 sec)
Heartbeat CPU 0 instructions: 620000000 cycles: 337088545 heartbeat IPC: 2.087 cumulative IPC: 1.756 (Simulation time: 01 hr 07 min 13 sec)
Heartbeat CPU 0 instructions: 630000002 cycles: 342163784 heartbeat IPC: 1.97 cumulative IPC: 1.76 (Simulation time: 01 hr 08 min 11 sec)
Heartbeat CPU 0 instructions: 640000001 cycles: 347012230 heartbeat IPC: 2.063 cumulative IPC: 1.764 (Simulation time: 01 hr 09 min 07 sec)
Heartbeat CPU 0 instructions: 650000000 cycles: 351561301 heartbeat IPC: 2.198 cumulative IPC: 1.77 (Simulation time: 01 hr 10 min 01 sec)
Simulation finished CPU 0 instructions: 600000001 cycles: 339024174 cumulative IPC: 1.77 (Simulation time: 01 hr 10 min 01 sec)
Simulation complete CPU 0 instructions: 600000001 cycles: 339024174 cumulative IPC: 1.77 (Simulation time: 01 hr 10 min 01 sec)

ChampSim completed all CPUs

=== Simulation ===
CPU 0 runs traces/400.perlbench-41B.champsimtrace.xz
Region of Interest Statistics

CPU 0 cumulative IPC: 1.77 instructions: 600000001 cycles: 339024174
CPU 0 Branch Prediction Accuracy: 93.95% MPKI: 12.5 Average ROB Occupancy at Mispredict: 29.6
Branch type MPKI
BRANCH_DIRECT_JUMP: 0.0123
BRANCH_INDIRECT: 0.323
BRANCH_CONDITIONAL: 12
BRANCH_DIRECT_CALL: 0.0043
BRANCH_INDIRECT_CALL: 0.2
BRANCH_RETURN: 0.00828

LLC TOTAL        ACCESS:     540991 HIT:     331011 MISS:     209980
LLC LOAD         ACCESS:     403604 HIT:     212620 MISS:     190984
LLC RFO          ACCESS:      32579 HIT:      22043 MISS:      10536
LLC PREFETCH     ACCESS:          0 HIT:          0 MISS:          0
LLC WRITE        ACCESS:      85773 HIT:      85700 MISS:         73
LLC TRANSLATION  ACCESS:      19035 HIT:      10648 MISS:       8387
LLC PREFETCH REQUESTED:          0 ISSUED:          0 USEFUL:          0 USELESS:          0
LLC AVERAGE MISS LATENCY: 540.5 cycles
cpu0_DTLB TOTAL        ACCESS:  153682888 HIT:  153005052 MISS:     677836
cpu0_DTLB LOAD         ACCESS:  153682888 HIT:  153005052 MISS:     677836
cpu0_DTLB RFO          ACCESS:          0 HIT:          0 MISS:          0
cpu0_DTLB PREFETCH     ACCESS:          0 HIT:          0 MISS:          0
cpu0_DTLB WRITE        ACCESS:          0 HIT:          0 MISS:          0
cpu0_DTLB TRANSLATION  ACCESS:          0 HIT:          0 MISS:          0
cpu0_DTLB PREFETCH REQUESTED:          0 ISSUED:          0 USEFUL:          0 USELESS:          0
cpu0_DTLB AVERAGE MISS LATENCY: 13.46 cycles
cpu0_ITLB TOTAL        ACCESS:    4836415 HIT:    4778573 MISS:      57842
cpu0_ITLB LOAD         ACCESS:    4836415 HIT:    4778573 MISS:      57842
cpu0_ITLB RFO          ACCESS:          0 HIT:          0 MISS:          0
cpu0_ITLB PREFETCH     ACCESS:          0 HIT:          0 MISS:          0
cpu0_ITLB WRITE        ACCESS:          0 HIT:          0 MISS:          0
cpu0_ITLB TRANSLATION  ACCESS:          0 HIT:          0 MISS:          0
cpu0_ITLB PREFETCH REQUESTED:          0 ISSUED:          0 USEFUL:          0 USELESS:          0
cpu0_ITLB AVERAGE MISS LATENCY: 6.369 cycles
cpu0_L1D TOTAL        ACCESS:  200290765 HIT:  198560627 MISS:    1730138
cpu0_L1D LOAD         ACCESS:  117048411 HIT:  115698962 MISS:    1349449
cpu0_L1D RFO          ACCESS:          0 HIT:          0 MISS:          0
cpu0_L1D PREFETCH     ACCESS:          0 HIT:          0 MISS:          0
cpu0_L1D WRITE        ACCESS:   83217894 HIT:   82860625 MISS:     357269
cpu0_L1D TRANSLATION  ACCESS:      24460 HIT:       1040 MISS:      23420
cpu0_L1D PREFETCH REQUESTED:          0 ISSUED:          0 USEFUL:          0 USELESS:          0
cpu0_L1D AVERAGE MISS LATENCY: 72.31 cycles
cpu0_L1I TOTAL        ACCESS:    5578971 HIT:    4817467 MISS:     761504
cpu0_L1I LOAD         ACCESS:    5578971 HIT:    4817467 MISS:     761504
cpu0_L1I RFO          ACCESS:          0 HIT:          0 MISS:          0
cpu0_L1I PREFETCH     ACCESS:          0 HIT:          0 MISS:          0
cpu0_L1I WRITE        ACCESS:          0 HIT:          0 MISS:          0
cpu0_L1I TRANSLATION  ACCESS:          0 HIT:          0 MISS:          0
cpu0_L1I PREFETCH REQUESTED:          0 ISSUED:          0 USEFUL:          0 USELESS:          0
cpu0_L1I AVERAGE MISS LATENCY: 9.764 cycles
cpu0_L2C TOTAL        ACCESS:    1667934 HIT:    1210899 MISS:     457035
cpu0_L2C LOAD         ACCESS:    1317078 HIT:     913474 MISS:     403604
cpu0_L2C RFO          ACCESS:      88609 HIT:      56030 MISS:      32579
cpu0_L2C PREFETCH     ACCESS:          0 HIT:          0 MISS:          0
cpu0_L2C WRITE        ACCESS:     238905 HIT:     237088 MISS:       1817
cpu0_L2C TRANSLATION  ACCESS:      23342 HIT:       4307 MISS:      19035
cpu0_L2C PREFETCH REQUESTED:          0 ISSUED:          0 USEFUL:          0 USELESS:          0
cpu0_L2C AVERAGE MISS LATENCY: 268.7 cycles
cpu0_STLB TOTAL        ACCESS:     505242 HIT:     482453 MISS:      22789
cpu0_STLB LOAD         ACCESS:     505242 HIT:     482453 MISS:      22789
cpu0_STLB RFO          ACCESS:          0 HIT:          0 MISS:          0
cpu0_STLB PREFETCH     ACCESS:          0 HIT:          0 MISS:          0
cpu0_STLB WRITE        ACCESS:          0 HIT:          0 MISS:          0
cpu0_STLB TRANSLATION  ACCESS:          0 HIT:          0 MISS:          0
cpu0_STLB PREFETCH REQUESTED:          0 ISSUED:          0 USEFUL:          0 USELESS:          0
cpu0_STLB AVERAGE MISS LATENCY: 273.9 cycles

DRAM Statistics

Channel 0 RQ ROW_BUFFER_HIT:      38553
  ROW_BUFFER_MISS:     171349
 AVG DBUS CONGESTED CYCLE: 3.77
WQ ROW_BUFFER_HIT: Channel 0 
  ROW_BUFFER_MISS:       6936
  FULL:      18481
