WARNING: physical memory size is smaller than virtual memory size.

*** ChampSim Multicore Out-of-Order Simulator ***
Warmup Instructions: 50000000
Simulation Instructions: 600000000
Number of CPUs: 1
Page size: 4096

Off-chip DRAM Size: 4 GiB Channels: 1 Width: 64-bit Data Race: 3200 MT/s
Heartbeat CPU 0 instructions: 10000001 cycles: 2500318 heartbeat IPC: 3.999 cumulative IPC: 3.999 (Simulation time: 00 hr 01 min 11 sec)
Heartbeat CPU 0 instructions: 20000002 cycles: 5037134 heartbeat IPC: 3.942 cumulative IPC: 3.971 (Simulation time: 00 hr 02 min 17 sec)
Heartbeat CPU 0 instructions: 30000002 cycles: 7537134 heartbeat IPC: 4 cumulative IPC: 3.98 (Simulation time: 00 hr 03 min 17 sec)
Heartbeat CPU 0 instructions: 40000002 cycles: 10037134 heartbeat IPC: 4 cumulative IPC: 3.985 (Simulation time: 00 hr 04 min 09 sec)
Heartbeat CPU 0 instructions: 50000002 cycles: 12537134 heartbeat IPC: 4 cumulative IPC: 3.988 (Simulation time: 00 hr 04 min 58 sec)
Warmup finished CPU 0 instructions: 50000002 cycles: 12537135 cumulative IPC: 3.988 (Simulation time: 00 hr 04 min 58 sec)
Warmup complete CPU 0 instructions: 50000002 cycles: 12537135 cumulative IPC: 3.988 (Simulation time: 00 hr 04 min 58 sec)
Heartbeat CPU 0 instructions: 60000000 cycles: 17731682 heartbeat IPC: 1.925 cumulative IPC: 1.925 (Simulation time: 00 hr 06 min 11 sec)
Heartbeat CPU 0 instructions: 70000002 cycles: 22658466 heartbeat IPC: 2.03 cumulative IPC: 1.976 (Simulation time: 00 hr 07 min 26 sec)
Heartbeat CPU 0 instructions: 80000001 cycles: 28057967 heartbeat IPC: 1.852 cumulative IPC: 1.933 (Simulation time: 00 hr 08 min 40 sec)
Heartbeat CPU 0 instructions: 90000001 cycles: 32962944 heartbeat IPC: 2.039 cumulative IPC: 1.958 (Simulation time: 00 hr 09 min 52 sec)
Heartbeat CPU 0 instructions: 100000000 cycles: 38103920 heartbeat IPC: 1.945 cumulative IPC: 1.956 (Simulation time: 00 hr 11 min 01 sec)
Heartbeat CPU 0 instructions: 110000000 cycles: 43020456 heartbeat IPC: 2.034 cumulative IPC: 1.968 (Simulation time: 00 hr 12 min 15 sec)
Heartbeat CPU 0 instructions: 120000001 cycles: 48241697 heartbeat IPC: 1.915 cumulative IPC: 1.961 (Simulation time: 00 hr 13 min 49 sec)
Heartbeat CPU 0 instructions: 130000001 cycles: 53433208 heartbeat IPC: 1.926 cumulative IPC: 1.956 (Simulation time: 00 hr 15 min 23 sec)
Heartbeat CPU 0 instructions: 140000001 cycles: 58784234 heartbeat IPC: 1.869 cumulative IPC: 1.946 (Simulation time: 00 hr 16 min 50 sec)
Heartbeat CPU 0 instructions: 150000001 cycles: 64131068 heartbeat IPC: 1.87 cumulative IPC: 1.938 (Simulation time: 00 hr 18 min 13 sec)
Heartbeat CPU 0 instructions: 160000004 cycles: 69370776 heartbeat IPC: 1.909 cumulative IPC: 1.935 (Simulation time: 00 hr 19 min 32 sec)
Heartbeat CPU 0 instructions: 170000000 cycles: 78512574 heartbeat IPC: 1.094 cumulative IPC: 1.819 (Simulation time: 00 hr 21 min 32 sec)
Heartbeat CPU 0 instructions: 180000004 cycles: 87403799 heartbeat IPC: 1.125 cumulative IPC: 1.736 (Simulation time: 00 hr 23 min 17 sec)
Heartbeat CPU 0 instructions: 190000001 cycles: 99302968 heartbeat IPC: 0.8404 cumulative IPC: 1.614 (Simulation time: 00 hr 25 min 25 sec)
Heartbeat CPU 0 instructions: 200000003 cycles: 104098065 heartbeat IPC: 2.085 cumulative IPC: 1.638 (Simulation time: 00 hr 26 min 52 sec)
Heartbeat CPU 0 instructions: 210000001 cycles: 109034089 heartbeat IPC: 2.026 cumulative IPC: 1.658 (Simulation time: 00 hr 28 min 26 sec)
Heartbeat CPU 0 instructions: 220000000 cycles: 113874374 heartbeat IPC: 2.066 cumulative IPC: 1.678 (Simulation time: 00 hr 29 min 50 sec)
Heartbeat CPU 0 instructions: 230000002 cycles: 119221374 heartbeat IPC: 1.87 cumulative IPC: 1.687 (Simulation time: 00 hr 31 min 07 sec)
Heartbeat CPU 0 instructions: 240000000 cycles: 124097478 heartbeat IPC: 2.051 cumulative IPC: 1.703 (Simulation time: 00 hr 32 min 22 sec)
Heartbeat CPU 0 instructions: 250000000 cycles: 129270260 heartbeat IPC: 1.933 cumulative IPC: 1.713 (Simulation time: 00 hr 33 min 38 sec)
Heartbeat CPU 0 instructions: 260000000 cycles: 134321581 heartbeat IPC: 1.98 cumulative IPC: 1.724 (Simulation time: 00 hr 34 min 55 sec)
Heartbeat CPU 0 instructions: 270000002 cycles: 139227799 heartbeat IPC: 2.038 cumulative IPC: 1.737 (Simulation time: 00 hr 36 min 09 sec)
Heartbeat CPU 0 instructions: 280000002 cycles: 144162367 heartbeat IPC: 2.027 cumulative IPC: 1.747 (Simulation time: 00 hr 37 min 24 sec)
Heartbeat CPU 0 instructions: 290000001 cycles: 149560848 heartbeat IPC: 1.852 cumulative IPC: 1.752 (Simulation time: 00 hr 39 min 03 sec)
Heartbeat CPU 0 instructions: 300000003 cycles: 154659870 heartbeat IPC: 1.961 cumulative IPC: 1.759 (Simulation time: 00 hr 40 min 40 sec)
Heartbeat CPU 0 instructions: 310000001 cycles: 159985626 heartbeat IPC: 1.878 cumulative IPC: 1.763 (Simulation time: 00 hr 42 min 08 sec)
Heartbeat CPU 0 instructions: 320000003 cycles: 165216360 heartbeat IPC: 1.912 cumulative IPC: 1.768 (Simulation time: 00 hr 43 min 30 sec)
Heartbeat CPU 0 instructions: 330000003 cycles: 170551766 heartbeat IPC: 1.874 cumulative IPC: 1.772 (Simulation time: 00 hr 44 min 56 sec)
Heartbeat CPU 0 instructions: 340000000 cycles: 179909044 heartbeat IPC: 1.069 cumulative IPC: 1.733 (Simulation time: 00 hr 46 min 57 sec)
Heartbeat CPU 0 instructions: 350000000 cycles: 189685488 heartbeat IPC: 1.023 cumulative IPC: 1.693 (Simulation time: 00 hr 48 min 54 sec)
Heartbeat CPU 0 instructions: 360000004 cycles: 201429377 heartbeat IPC: 0.8515 cumulative IPC: 1.641 (Simulation time: 00 hr 51 min 18 sec)
Heartbeat CPU 0 instructions: 370000000 cycles: 205856817 heartbeat IPC: 2.259 cumulative IPC: 1.655 (Simulation time: 00 hr 52 min 40 sec)
Heartbeat CPU 0 instructions: 380000001 cycles: 210791895 heartbeat IPC: 2.026 cumulative IPC: 1.665 (Simulation time: 00 hr 54 min 01 sec)
Heartbeat CPU 0 instructions: 390000002 cycles: 215626489 heartbeat IPC: 2.068 cumulative IPC: 1.674 (Simulation time: 00 hr 55 min 15 sec)
Heartbeat CPU 0 instructions: 400000004 cycles: 220566559 heartbeat IPC: 2.024 cumulative IPC: 1.682 (Simulation time: 00 hr 56 min 38 sec)
Heartbeat CPU 0 instructions: 410000000 cycles: 225308058 heartbeat IPC: 2.109 cumulative IPC: 1.692 (Simulation time: 00 hr 57 min 58 sec)
Heartbeat CPU 0 instructions: 420000000 cycles: 230474880 heartbeat IPC: 1.935 cumulative IPC: 1.698 (Simulation time: 00 hr 59 min 16 sec)
Heartbeat CPU 0 instructions: 430000001 cycles: 234984253 heartbeat IPC: 2.218 cumulative IPC: 1.708 (Simulation time: 01 hr 00 min 28 sec)
Heartbeat CPU 0 instructions: 440000000 cycles: 240360140 heartbeat IPC: 1.86 cumulative IPC: 1.712 (Simulation time: 01 hr 01 min 44 sec)
Heartbeat CPU 0 instructions: 450000002 cycles: 245047201 heartbeat IPC: 2.134 cumulative IPC: 1.72 (Simulation time: 01 hr 02 min 59 sec)
Heartbeat CPU 0 instructions: 460000000 cycles: 249865157 heartbeat IPC: 2.076 cumulative IPC: 1.728 (Simulation time: 01 hr 04 min 36 sec)
Heartbeat CPU 0 instructions: 470000000 cycles: 254860585 heartbeat IPC: 2.002 cumulative IPC: 1.733 (Simulation time: 01 hr 06 min 14 sec)
Heartbeat CPU 0 instructions: 480000003 cycles: 259710760 heartbeat IPC: 2.062 cumulative IPC: 1.74 (Simulation time: 01 hr 07 min 40 sec)
Heartbeat CPU 0 instructions: 490000000 cycles: 264339131 heartbeat IPC: 2.161 cumulative IPC: 1.747 (Simulation time: 01 hr 08 min 59 sec)
Heartbeat CPU 0 instructions: 500000000 cycles: 269379948 heartbeat IPC: 1.984 cumulative IPC: 1.752 (Simulation time: 01 hr 10 min 25 sec)
Heartbeat CPU 0 instructions: 510000003 cycles: 275109878 heartbeat IPC: 1.745 cumulative IPC: 1.752 (Simulation time: 01 hr 11 min 53 sec)
Heartbeat CPU 0 instructions: 520000001 cycles: 279825720 heartbeat IPC: 2.121 cumulative IPC: 1.758 (Simulation time: 01 hr 13 min 08 sec)
Heartbeat CPU 0 instructions: 530000002 cycles: 285029308 heartbeat IPC: 1.922 cumulative IPC: 1.762 (Simulation time: 01 hr 14 min 25 sec)
Heartbeat CPU 0 instructions: 540000000 cycles: 290170418 heartbeat IPC: 1.945 cumulative IPC: 1.765 (Simulation time: 01 hr 15 min 45 sec)
Heartbeat CPU 0 instructions: 550000001 cycles: 294998803 heartbeat IPC: 2.071 cumulative IPC: 1.77 (Simulation time: 01 hr 17 min 16 sec)
Heartbeat CPU 0 instructions: 560000000 cycles: 300323195 heartbeat IPC: 1.878 cumulative IPC: 1.772 (Simulation time: 01 hr 18 min 59 sec)
Heartbeat CPU 0 instructions: 570000004 cycles: 307773680 heartbeat IPC: 1.342 cumulative IPC: 1.761 (Simulation time: 01 hr 20 min 52 sec)
Heartbeat CPU 0 instructions: 580000003 cycles: 316658371 heartbeat IPC: 1.126 cumulative IPC: 1.743 (Simulation time: 01 hr 22 min 56 sec)
Heartbeat CPU 0 instructions: 590000002 cycles: 330870608 heartbeat IPC: 0.7036 cumulative IPC: 1.696 (Simulation time: 01 hr 25 min 37 sec)
Heartbeat CPU 0 instructions: 600000000 cycles: 335527410 heartbeat IPC: 2.147 cumulative IPC: 1.703 (Simulation time: 01 hr 27 min 07 sec)
Heartbeat CPU 0 instructions: 610000002 cycles: 340030165 heartbeat IPC: 2.221 cumulative IPC: 1.71 (Simulation time: 01 hr 28 min 40 sec)
Heartbeat CPU 0 instructions: 620000000 cycles: 344840024 heartbeat IPC: 2.079 cumulative IPC: 1.715 (Simulation time: 01 hr 30 min 08 sec)
Heartbeat CPU 0 instructions: 630000002 cycles: 349936223 heartbeat IPC: 1.962 cumulative IPC: 1.719 (Simulation time: 01 hr 31 min 32 sec)
Heartbeat CPU 0 instructions: 640000001 cycles: 354793345 heartbeat IPC: 2.059 cumulative IPC: 1.724 (Simulation time: 01 hr 32 min 49 sec)
Heartbeat CPU 0 instructions: 650000000 cycles: 359353958 heartbeat IPC: 2.193 cumulative IPC: 1.73 (Simulation time: 01 hr 34 min 03 sec)
Simulation finished CPU 0 instructions: 600000001 cycles: 346816825 cumulative IPC: 1.73 (Simulation time: 01 hr 34 min 03 sec)
Simulation complete CPU 0 instructions: 600000001 cycles: 346816825 cumulative IPC: 1.73 (Simulation time: 01 hr 34 min 03 sec)

ChampSim completed all CPUs

=== Simulation ===
CPU 0 runs traces/400.perlbench-41B.champsimtrace.xz
Region of Interest Statistics

CPU 0 cumulative IPC: 1.73 instructions: 600000001 cycles: 346816825
CPU 0 Branch Prediction Accuracy: 93.95% MPKI: 12.5 Average ROB Occupancy at Mispredict: 29.68
Branch type MPKI
BRANCH_DIRECT_JUMP: 0.0123
BRANCH_INDIRECT: 0.323
BRANCH_CONDITIONAL: 12
BRANCH_DIRECT_CALL: 0.0043
BRANCH_INDIRECT_CALL: 0.2
BRANCH_RETURN: 0.00828

LLC TOTAL        ACCESS:     540237 HIT:     284346 MISS:     255891
LLC LOAD         ACCESS:     402676 HIT:     204702 MISS:     197974
LLC RFO          ACCESS:      32388 HIT:      15799 MISS:      16589
LLC PREFETCH     ACCESS:          0 HIT:          0 MISS:          0
LLC WRITE        ACCESS:      86287 HIT:      59205 MISS:      27082
LLC TRANSLATION  ACCESS:      18886 HIT:       4640 MISS:      14246
LLC PREFETCH REQUESTED:          0 ISSUED:          0 USEFUL:          0 USELESS:          0
LLC AVERAGE MISS LATENCY: 496.7 cycles
cpu0_DTLB TOTAL        ACCESS:  153654594 HIT:  152976491 MISS:     678103
cpu0_DTLB LOAD         ACCESS:  153654594 HIT:  152976491 MISS:     678103
cpu0_DTLB RFO          ACCESS:          0 HIT:          0 MISS:          0
cpu0_DTLB PREFETCH     ACCESS:          0 HIT:          0 MISS:          0
cpu0_DTLB WRITE        ACCESS:          0 HIT:          0 MISS:          0
cpu0_DTLB TRANSLATION  ACCESS:          0 HIT:          0 MISS:          0
cpu0_DTLB PREFETCH REQUESTED:          0 ISSUED:          0 USEFUL:          0 USELESS:          0
cpu0_DTLB AVERAGE MISS LATENCY: 18.9 cycles
cpu0_ITLB TOTAL        ACCESS:    4834894 HIT:    4777060 MISS:      57834
cpu0_ITLB LOAD         ACCESS:    4834894 HIT:    4777060 MISS:      57834
cpu0_ITLB RFO          ACCESS:          0 HIT:          0 MISS:          0
cpu0_ITLB PREFETCH     ACCESS:          0 HIT:          0 MISS:          0
cpu0_ITLB WRITE        ACCESS:          0 HIT:          0 MISS:          0
cpu0_ITLB TRANSLATION  ACCESS:          0 HIT:          0 MISS:          0
cpu0_ITLB PREFETCH REQUESTED:          0 ISSUED:          0 USEFUL:          0 USELESS:          0
cpu0_ITLB AVERAGE MISS LATENCY: 6.892 cycles
cpu0_L1D TOTAL        ACCESS:  200274029 HIT:  198921878 MISS:    1352151
cpu0_L1D LOAD         ACCESS:  117029682 HIT:  115988821 MISS:    1040861
cpu0_L1D RFO          ACCESS:          0 HIT:          0 MISS:          0
cpu0_L1D PREFETCH     ACCESS:          0 HIT:          0 MISS:          0
cpu0_L1D WRITE        ACCESS:   83219881 HIT:   82931488 MISS:     288393
cpu0_L1D TRANSLATION  ACCESS:      24466 HIT:       1569 MISS:      22897
cpu0_L1D PREFETCH REQUESTED:          0 ISSUED:          0 USEFUL:          0 USELESS:          0
cpu0_L1D AVERAGE MISS LATENCY: 98.14 cycles
cpu0_L1I TOTAL        ACCESS:    5577344 HIT:    4816178 MISS:     761166
cpu0_L1I LOAD         ACCESS:    5577344 HIT:    4816178 MISS:     761166
cpu0_L1I RFO          ACCESS:          0 HIT:          0 MISS:          0
cpu0_L1I PREFETCH     ACCESS:          0 HIT:          0 MISS:          0
cpu0_L1I WRITE        ACCESS:          0 HIT:          0 MISS:          0
cpu0_L1I TRANSLATION  ACCESS:          0 HIT:          0 MISS:          0
cpu0_L1I PREFETCH REQUESTED:          0 ISSUED:          0 USEFUL:          0 USELESS:          0
cpu0_L1I AVERAGE MISS LATENCY: 15.36 cycles
cpu0_L2C TOTAL        ACCESS:    1382364 HIT:     924711 MISS:     457653
cpu0_L2C LOAD         ACCESS:    1125663 HIT:     722987 MISS:     402676
cpu0_L2C RFO          ACCESS:      63875 HIT:      31487 MISS:      32388
cpu0_L2C PREFETCH     ACCESS:          0 HIT:          0 MISS:          0
cpu0_L2C WRITE        ACCESS:     170018 HIT:     166315 MISS:       3703
cpu0_L2C TRANSLATION  ACCESS:      22808 HIT:       3922 MISS:      18886
cpu0_L2C PREFETCH REQUESTED:          0 ISSUED:          0 USEFUL:          0 USELESS:          0
cpu0_L2C AVERAGE MISS LATENCY: 298.1 cycles
cpu0_STLB TOTAL        ACCESS:     505138 HIT:     482349 MISS:      22789
cpu0_STLB LOAD         ACCESS:     505138 HIT:     482349 MISS:      22789
cpu0_STLB RFO          ACCESS:          0 HIT:          0 MISS:          0
cpu0_STLB PREFETCH     ACCESS:          0 HIT:          0 MISS:          0
cpu0_STLB WRITE        ACCESS:          0 HIT:          0 MISS:          0
cpu0_STLB TRANSLATION  ACCESS:          0 HIT:          0 MISS:          0
cpu0_STLB PREFETCH REQUESTED:          0 ISSUED:          0 USEFUL:          0 USELESS:          0
cpu0_STLB AVERAGE MISS LATENCY: 444.2 cycles

DRAM Statistics

Channel 0 RQ ROW_BUFFER_HIT:      30496
  ROW_BUFFER_MISS:     198224
 AVG DBUS CONGESTED CYCLE: 3.803
WQ ROW_BUFFER_HIT: Channel 0 
  ROW_BUFFER_MISS:       9257
  FULL:      30613
