WARNING: physical memory size is smaller than virtual memory size.

*** ChampSim Multicore Out-of-Order Simulator ***
Warmup Instructions: 50000000
Simulation Instructions: 600000000
Number of CPUs: 1
Page size: 4096

Off-chip DRAM Size: 4 GiB Channels: 1 Width: 64-bit Data Race: 3200 MT/s
Heartbeat CPU 0 instructions: 10000001 cycles: 2500319 heartbeat IPC: 3.999 cumulative IPC: 3.999 (Simulation time: 00 hr 00 min 52 sec)
Heartbeat CPU 0 instructions: 20000002 cycles: 5037128 heartbeat IPC: 3.942 cumulative IPC: 3.971 (Simulation time: 00 hr 01 min 45 sec)
Heartbeat CPU 0 instructions: 30000002 cycles: 7537128 heartbeat IPC: 4 cumulative IPC: 3.98 (Simulation time: 00 hr 02 min 33 sec)
Heartbeat CPU 0 instructions: 40000002 cycles: 10037128 heartbeat IPC: 4 cumulative IPC: 3.985 (Simulation time: 00 hr 03 min 30 sec)
Heartbeat CPU 0 instructions: 50000002 cycles: 12537128 heartbeat IPC: 4 cumulative IPC: 3.988 (Simulation time: 00 hr 04 min 25 sec)
Warmup finished CPU 0 instructions: 50000002 cycles: 12537129 cumulative IPC: 3.988 (Simulation time: 00 hr 04 min 25 sec)
Warmup complete CPU 0 instructions: 50000002 cycles: 12537129 cumulative IPC: 3.988 (Simulation time: 00 hr 04 min 25 sec)
Heartbeat CPU 0 instructions: 60000000 cycles: 17709937 heartbeat IPC: 1.933 cumulative IPC: 1.933 (Simulation time: 00 hr 06 min 08 sec)
Heartbeat CPU 0 instructions: 70000002 cycles: 22607536 heartbeat IPC: 2.042 cumulative IPC: 1.986 (Simulation time: 00 hr 07 min 38 sec)
Heartbeat CPU 0 instructions: 80000001 cycles: 27969918 heartbeat IPC: 1.865 cumulative IPC: 1.944 (Simulation time: 00 hr 09 min 05 sec)
Heartbeat CPU 0 instructions: 90000001 cycles: 32842453 heartbeat IPC: 2.052 cumulative IPC: 1.97 (Simulation time: 00 hr 10 min 34 sec)
Heartbeat CPU 0 instructions: 100000000 cycles: 37955818 heartbeat IPC: 1.956 cumulative IPC: 1.967 (Simulation time: 00 hr 12 min 01 sec)
Heartbeat CPU 0 instructions: 110000000 cycles: 42840685 heartbeat IPC: 2.047 cumulative IPC: 1.98 (Simulation time: 00 hr 13 min 15 sec)
Heartbeat CPU 0 instructions: 120000001 cycles: 48038629 heartbeat IPC: 1.924 cumulative IPC: 1.972 (Simulation time: 00 hr 14 min 34 sec)
Heartbeat CPU 0 instructions: 130000001 cycles: 53187523 heartbeat IPC: 1.942 cumulative IPC: 1.968 (Simulation time: 00 hr 15 min 47 sec)
Heartbeat CPU 0 instructions: 140000001 cycles: 58505593 heartbeat IPC: 1.88 cumulative IPC: 1.958 (Simulation time: 00 hr 17 min 06 sec)
Heartbeat CPU 0 instructions: 150000001 cycles: 63827334 heartbeat IPC: 1.879 cumulative IPC: 1.95 (Simulation time: 00 hr 18 min 49 sec)
Heartbeat CPU 0 instructions: 160000004 cycles: 69038681 heartbeat IPC: 1.919 cumulative IPC: 1.947 (Simulation time: 00 hr 20 min 25 sec)
Heartbeat CPU 0 instructions: 170000000 cycles: 79047081 heartbeat IPC: 0.9992 cumulative IPC: 1.804 (Simulation time: 00 hr 22 min 36 sec)
Heartbeat CPU 0 instructions: 180000004 cycles: 89569020 heartbeat IPC: 0.9504 cumulative IPC: 1.688 (Simulation time: 00 hr 24 min 59 sec)
Heartbeat CPU 0 instructions: 190000001 cycles: 100111336 heartbeat IPC: 0.9486 cumulative IPC: 1.599 (Simulation time: 00 hr 27 min 09 sec)
Heartbeat CPU 0 instructions: 200000003 cycles: 104895050 heartbeat IPC: 2.09 cumulative IPC: 1.624 (Simulation time: 00 hr 28 min 21 sec)
Heartbeat CPU 0 instructions: 210000001 cycles: 109820676 heartbeat IPC: 2.03 cumulative IPC: 1.645 (Simulation time: 00 hr 29 min 35 sec)
Heartbeat CPU 0 instructions: 220000000 cycles: 114651034 heartbeat IPC: 2.07 cumulative IPC: 1.665 (Simulation time: 00 hr 30 min 44 sec)
Heartbeat CPU 0 instructions: 230000002 cycles: 119971253 heartbeat IPC: 1.88 cumulative IPC: 1.675 (Simulation time: 00 hr 32 min 11 sec)
Heartbeat CPU 0 instructions: 240000000 cycles: 124813983 heartbeat IPC: 2.065 cumulative IPC: 1.692 (Simulation time: 00 hr 33 min 37 sec)
Heartbeat CPU 0 instructions: 250000000 cycles: 129964097 heartbeat IPC: 1.942 cumulative IPC: 1.703 (Simulation time: 00 hr 35 min 04 sec)
Heartbeat CPU 0 instructions: 260000000 cycles: 134980022 heartbeat IPC: 1.994 cumulative IPC: 1.715 (Simulation time: 00 hr 36 min 29 sec)
Heartbeat CPU 0 instructions: 270000002 cycles: 139864883 heartbeat IPC: 2.047 cumulative IPC: 1.728 (Simulation time: 00 hr 37 min 53 sec)
Heartbeat CPU 0 instructions: 280000002 cycles: 144767174 heartbeat IPC: 2.04 cumulative IPC: 1.739 (Simulation time: 00 hr 39 min 12 sec)
Heartbeat CPU 0 instructions: 290000001 cycles: 150135091 heartbeat IPC: 1.863 cumulative IPC: 1.744 (Simulation time: 00 hr 40 min 32 sec)
Heartbeat CPU 0 instructions: 300000003 cycles: 155189813 heartbeat IPC: 1.978 cumulative IPC: 1.753 (Simulation time: 00 hr 41 min 45 sec)
Heartbeat CPU 0 instructions: 310000001 cycles: 160487547 heartbeat IPC: 1.888 cumulative IPC: 1.757 (Simulation time: 00 hr 42 min 56 sec)
Heartbeat CPU 0 instructions: 320000003 cycles: 165695924 heartbeat IPC: 1.92 cumulative IPC: 1.763 (Simulation time: 00 hr 44 min 10 sec)
Heartbeat CPU 0 instructions: 330000003 cycles: 170998869 heartbeat IPC: 1.886 cumulative IPC: 1.767 (Simulation time: 00 hr 45 min 45 sec)
Heartbeat CPU 0 instructions: 340000000 cycles: 181101064 heartbeat IPC: 0.9899 cumulative IPC: 1.72 (Simulation time: 00 hr 48 min 09 sec)
Heartbeat CPU 0 instructions: 350000000 cycles: 192020330 heartbeat IPC: 0.9158 cumulative IPC: 1.671 (Simulation time: 00 hr 50 min 21 sec)
Heartbeat CPU 0 instructions: 360000004 cycles: 202600413 heartbeat IPC: 0.9452 cumulative IPC: 1.631 (Simulation time: 00 hr 52 min 38 sec)
Heartbeat CPU 0 instructions: 370000000 cycles: 207011282 heartbeat IPC: 2.267 cumulative IPC: 1.645 (Simulation time: 00 hr 53 min 52 sec)
Heartbeat CPU 0 instructions: 380000001 cycles: 211941806 heartbeat IPC: 2.028 cumulative IPC: 1.655 (Simulation time: 00 hr 55 min 02 sec)
Heartbeat CPU 0 instructions: 390000002 cycles: 216763779 heartbeat IPC: 2.074 cumulative IPC: 1.665 (Simulation time: 00 hr 56 min 09 sec)
Heartbeat CPU 0 instructions: 400000004 cycles: 221696534 heartbeat IPC: 2.027 cumulative IPC: 1.673 (Simulation time: 00 hr 57 min 14 sec)
Heartbeat CPU 0 instructions: 410000000 cycles: 226424376 heartbeat IPC: 2.115 cumulative IPC: 1.683 (Simulation time: 00 hr 58 min 15 sec)
Heartbeat CPU 0 instructions: 420000000 cycles: 231557398 heartbeat IPC: 1.948 cumulative IPC: 1.689 (Simulation time: 00 hr 59 min 21 sec)
Heartbeat CPU 0 instructions: 430000001 cycles: 236018338 heartbeat IPC: 2.242 cumulative IPC: 1.7 (Simulation time: 01 hr 00 min 22 sec)
Heartbeat CPU 0 instructions: 440000000 cycles: 241357449 heartbeat IPC: 1.873 cumulative IPC: 1.704 (Simulation time: 01 hr 01 min 30 sec)
Heartbeat CPU 0 instructions: 450000002 cycles: 246017618 heartbeat IPC: 2.146 cumulative IPC: 1.713 (Simulation time: 01 hr 02 min 37 sec)
Heartbeat CPU 0 instructions: 460000000 cycles: 250797597 heartbeat IPC: 2.092 cumulative IPC: 1.721 (Simulation time: 01 hr 03 min 44 sec)
Heartbeat CPU 0 instructions: 470000000 cycles: 255768665 heartbeat IPC: 2.012 cumulative IPC: 1.727 (Simulation time: 01 hr 04 min 47 sec)
Heartbeat CPU 0 instructions: 480000003 cycles: 260539406 heartbeat IPC: 2.096 cumulative IPC: 1.734 (Simulation time: 01 hr 05 min 48 sec)
Heartbeat CPU 0 instructions: 490000000 cycles: 265140095 heartbeat IPC: 2.174 cumulative IPC: 1.742 (Simulation time: 01 hr 06 min 50 sec)
Heartbeat CPU 0 instructions: 500000000 cycles: 270157390 heartbeat IPC: 1.993 cumulative IPC: 1.747 (Simulation time: 01 hr 07 min 59 sec)
Heartbeat CPU 0 instructions: 510000003 cycles: 275771496 heartbeat IPC: 1.781 cumulative IPC: 1.747 (Simulation time: 01 hr 09 min 13 sec)
Heartbeat CPU 0 instructions: 520000001 cycles: 280448229 heartbeat IPC: 2.138 cumulative IPC: 1.754 (Simulation time: 01 hr 10 min 20 sec)
Heartbeat CPU 0 instructions: 530000002 cycles: 285576974 heartbeat IPC: 1.95 cumulative IPC: 1.758 (Simulation time: 01 hr 11 min 27 sec)
Heartbeat CPU 0 instructions: 540000000 cycles: 290687328 heartbeat IPC: 1.957 cumulative IPC: 1.762 (Simulation time: 01 hr 12 min 34 sec)
Heartbeat CPU 0 instructions: 550000001 cycles: 295491538 heartbeat IPC: 2.082 cumulative IPC: 1.767 (Simulation time: 01 hr 13 min 41 sec)
Heartbeat CPU 0 instructions: 560000000 cycles: 300689545 heartbeat IPC: 1.924 cumulative IPC: 1.77 (Simulation time: 01 hr 14 min 45 sec)
Heartbeat CPU 0 instructions: 570000004 cycles: 307714397 heartbeat IPC: 1.424 cumulative IPC: 1.762 (Simulation time: 01 hr 15 min 44 sec)
Heartbeat CPU 0 instructions: 580000003 cycles: 318949049 heartbeat IPC: 0.8901 cumulative IPC: 1.73 (Simulation time: 01 hr 17 min 08 sec)
Heartbeat CPU 0 instructions: 590000002 cycles: 331901236 heartbeat IPC: 0.7721 cumulative IPC: 1.691 (Simulation time: 01 hr 18 min 39 sec)
Heartbeat CPU 0 instructions: 600000000 cycles: 336495701 heartbeat IPC: 2.177 cumulative IPC: 1.698 (Simulation time: 01 hr 19 min 26 sec)
Heartbeat CPU 0 instructions: 610000002 cycles: 340990675 heartbeat IPC: 2.225 cumulative IPC: 1.705 (Simulation time: 01 hr 20 min 14 sec)
Heartbeat CPU 0 instructions: 620000000 cycles: 345797735 heartbeat IPC: 2.08 cumulative IPC: 1.71 (Simulation time: 01 hr 21 min 07 sec)
Heartbeat CPU 0 instructions: 630000002 cycles: 350885295 heartbeat IPC: 1.966 cumulative IPC: 1.714 (Simulation time: 01 hr 21 min 58 sec)
Heartbeat CPU 0 instructions: 640000001 cycles: 355736192 heartbeat IPC: 2.061 cumulative IPC: 1.719 (Simulation time: 01 hr 22 min 50 sec)
Heartbeat CPU 0 instructions: 650000000 cycles: 360290432 heartbeat IPC: 2.196 cumulative IPC: 1.725 (Simulation time: 01 hr 23 min 38 sec)
Simulation finished CPU 0 instructions: 600000001 cycles: 347753305 cumulative IPC: 1.725 (Simulation time: 01 hr 23 min 38 sec)
Simulation complete CPU 0 instructions: 600000001 cycles: 347753305 cumulative IPC: 1.725 (Simulation time: 01 hr 23 min 38 sec)

ChampSim completed all CPUs

=== Simulation ===
CPU 0 runs traces/400.perlbench-41B.champsimtrace.xz
Region of Interest Statistics

CPU 0 cumulative IPC: 1.725 instructions: 600000001 cycles: 347753305
CPU 0 Branch Prediction Accuracy: 93.95% MPKI: 12.5 Average ROB Occupancy at Mispredict: 29.5
Branch type MPKI
BRANCH_DIRECT_JUMP: 0.0123
BRANCH_INDIRECT: 0.323
BRANCH_CONDITIONAL: 12
BRANCH_DIRECT_CALL: 0.0043
BRANCH_INDIRECT_CALL: 0.2
BRANCH_RETURN: 0.00828

LLC TOTAL        ACCESS:     938771 HIT:     515247 MISS:     423524
LLC LOAD         ACCESS:     400382 HIT:     209947 MISS:     190435
LLC RFO          ACCESS:      32719 HIT:      15179 MISS:      17540
LLC PREFETCH     ACCESS:     400382 HIT:     196977 MISS:     203405
LLC WRITE        ACCESS:      86362 HIT:      85428 MISS:        934
LLC TRANSLATION  ACCESS:      18926 HIT:       7716 MISS:      11210
LLC PREFETCH REQUESTED:     400382 ISSUED:     400382 USEFUL:      71930 USELESS:      80929
LLC AVERAGE MISS LATENCY: 580.1 cycles
cpu0_DTLB TOTAL        ACCESS:  153675161 HIT:  152998412 MISS:     676749
cpu0_DTLB LOAD         ACCESS:  153675161 HIT:  152998412 MISS:     676749
cpu0_DTLB RFO          ACCESS:          0 HIT:          0 MISS:          0
cpu0_DTLB PREFETCH     ACCESS:          0 HIT:          0 MISS:          0
cpu0_DTLB WRITE        ACCESS:          0 HIT:          0 MISS:          0
cpu0_DTLB TRANSLATION  ACCESS:          0 HIT:          0 MISS:          0
cpu0_DTLB PREFETCH REQUESTED:          0 ISSUED:          0 USEFUL:          0 USELESS:          0
cpu0_DTLB AVERAGE MISS LATENCY: 17.8 cycles
cpu0_ITLB TOTAL        ACCESS:    4835412 HIT:    4777519 MISS:      57893
cpu0_ITLB LOAD         ACCESS:    4835412 HIT:    4777519 MISS:      57893
cpu0_ITLB RFO          ACCESS:          0 HIT:          0 MISS:          0
cpu0_ITLB PREFETCH     ACCESS:          0 HIT:          0 MISS:          0
cpu0_ITLB WRITE        ACCESS:          0 HIT:          0 MISS:          0
cpu0_ITLB TRANSLATION  ACCESS:          0 HIT:          0 MISS:          0
cpu0_ITLB PREFETCH REQUESTED:          0 ISSUED:          0 USEFUL:          0 USELESS:          0
cpu0_ITLB AVERAGE MISS LATENCY: 8.041 cycles
cpu0_L1D TOTAL        ACCESS:  200302931 HIT:  198946014 MISS:    1356917
cpu0_L1D LOAD         ACCESS:  117059002 HIT:  116019204 MISS:    1039798
cpu0_L1D RFO          ACCESS:          0 HIT:          0 MISS:          0
cpu0_L1D PREFETCH     ACCESS:          0 HIT:          0 MISS:          0
cpu0_L1D WRITE        ACCESS:   83219469 HIT:   82925234 MISS:     294235
cpu0_L1D TRANSLATION  ACCESS:      24460 HIT:       1576 MISS:      22884
cpu0_L1D PREFETCH REQUESTED:          0 ISSUED:          0 USEFUL:          0 USELESS:          0
cpu0_L1D AVERAGE MISS LATENCY: 106.5 cycles
cpu0_L1I TOTAL        ACCESS:    5577748 HIT:    4816140 MISS:     761608
cpu0_L1I LOAD         ACCESS:    5577748 HIT:    4816140 MISS:     761608
cpu0_L1I RFO          ACCESS:          0 HIT:          0 MISS:          0
cpu0_L1I PREFETCH     ACCESS:          0 HIT:          0 MISS:          0
cpu0_L1I WRITE        ACCESS:          0 HIT:          0 MISS:          0
cpu0_L1I TRANSLATION  ACCESS:          0 HIT:          0 MISS:          0
cpu0_L1I PREFETCH REQUESTED:          0 ISSUED:          0 USEFUL:          0 USELESS:          0
cpu0_L1I AVERAGE MISS LATENCY: 12.62 cycles
cpu0_L2C TOTAL        ACCESS:    1382388 HIT:     926752 MISS:     455636
cpu0_L2C LOAD         ACCESS:    1125642 HIT:     725259 MISS:     400383
cpu0_L2C RFO          ACCESS:      63890 HIT:      31171 MISS:      32719
cpu0_L2C PREFETCH     ACCESS:          0 HIT:          0 MISS:          0
cpu0_L2C WRITE        ACCESS:     170053 HIT:     166445 MISS:       3608
cpu0_L2C TRANSLATION  ACCESS:      22803 HIT:       3877 MISS:      18926
cpu0_L2C PREFETCH REQUESTED:          0 ISSUED:          0 USEFUL:          0 USELESS:          0
cpu0_L2C AVERAGE MISS LATENCY: 321.2 cycles
cpu0_STLB TOTAL        ACCESS:     505068 HIT:     482278 MISS:      22790
cpu0_STLB LOAD         ACCESS:     505068 HIT:     482278 MISS:      22790
cpu0_STLB RFO          ACCESS:          0 HIT:          0 MISS:          0
cpu0_STLB PREFETCH     ACCESS:          0 HIT:          0 MISS:          0
cpu0_STLB WRITE        ACCESS:          0 HIT:          0 MISS:          0
cpu0_STLB TRANSLATION  ACCESS:          0 HIT:          0 MISS:          0
cpu0_STLB PREFETCH REQUESTED:          0 ISSUED:          0 USEFUL:          0 USELESS:          0
cpu0_STLB AVERAGE MISS LATENCY: 410.5 cycles

DRAM Statistics

Channel 0 RQ ROW_BUFFER_HIT:      63574
  ROW_BUFFER_MISS:     295595
 AVG DBUS CONGESTED CYCLE: 3.871
WQ ROW_BUFFER_HIT: Channel 0 
  ROW_BUFFER_MISS:       5737
  FULL:      40623
