WARNING: physical memory size is smaller than virtual memory size.

*** ChampSim Multicore Out-of-Order Simulator ***
Warmup Instructions: 50000000
Simulation Instructions: 600000000
Number of CPUs: 1
Page size: 4096

Off-chip DRAM Size: 4 GiB Channels: 1 Width: 64-bit Data Race: 3200 MT/s
Heartbeat CPU 0 instructions: 10000001 cycles: 2500319 heartbeat IPC: 3.999 cumulative IPC: 3.999 (Simulation time: 00 hr 00 min 57 sec)
Heartbeat CPU 0 instructions: 20000002 cycles: 5037128 heartbeat IPC: 3.942 cumulative IPC: 3.971 (Simulation time: 00 hr 01 min 54 sec)
Heartbeat CPU 0 instructions: 30000002 cycles: 7537128 heartbeat IPC: 4 cumulative IPC: 3.98 (Simulation time: 00 hr 02 min 44 sec)
Heartbeat CPU 0 instructions: 40000002 cycles: 10037128 heartbeat IPC: 4 cumulative IPC: 3.985 (Simulation time: 00 hr 03 min 30 sec)
Heartbeat CPU 0 instructions: 50000002 cycles: 12537128 heartbeat IPC: 4 cumulative IPC: 3.988 (Simulation time: 00 hr 04 min 15 sec)
Warmup finished CPU 0 instructions: 50000002 cycles: 12537129 cumulative IPC: 3.988 (Simulation time: 00 hr 04 min 15 sec)
Warmup complete CPU 0 instructions: 50000002 cycles: 12537129 cumulative IPC: 3.988 (Simulation time: 00 hr 04 min 15 sec)
Heartbeat CPU 0 instructions: 60000000 cycles: 17159079 heartbeat IPC: 2.164 cumulative IPC: 2.164 (Simulation time: 00 hr 05 min 27 sec)
Heartbeat CPU 0 instructions: 70000004 cycles: 21444316 heartbeat IPC: 2.334 cumulative IPC: 2.245 (Simulation time: 00 hr 07 min 00 sec)
Heartbeat CPU 0 instructions: 80000001 cycles: 26044394 heartbeat IPC: 2.174 cumulative IPC: 2.221 (Simulation time: 00 hr 08 min 32 sec)
Heartbeat CPU 0 instructions: 90000001 cycles: 30169228 heartbeat IPC: 2.424 cumulative IPC: 2.269 (Simulation time: 00 hr 09 min 51 sec)
Heartbeat CPU 0 instructions: 100000000 cycles: 34223302 heartbeat IPC: 2.467 cumulative IPC: 2.306 (Simulation time: 00 hr 11 min 04 sec)
Heartbeat CPU 0 instructions: 110000000 cycles: 38456182 heartbeat IPC: 2.362 cumulative IPC: 2.315 (Simulation time: 00 hr 12 min 15 sec)
Heartbeat CPU 0 instructions: 120000001 cycles: 42466069 heartbeat IPC: 2.494 cumulative IPC: 2.339 (Simulation time: 00 hr 13 min 28 sec)
Heartbeat CPU 0 instructions: 130000001 cycles: 46206394 heartbeat IPC: 2.674 cumulative IPC: 2.376 (Simulation time: 00 hr 14 min 38 sec)
Heartbeat CPU 0 instructions: 140000001 cycles: 50380538 heartbeat IPC: 2.396 cumulative IPC: 2.378 (Simulation time: 00 hr 15 min 48 sec)
Heartbeat CPU 0 instructions: 150000001 cycles: 54586690 heartbeat IPC: 2.377 cumulative IPC: 2.378 (Simulation time: 00 hr 16 min 57 sec)
Heartbeat CPU 0 instructions: 160000004 cycles: 59022988 heartbeat IPC: 2.254 cumulative IPC: 2.366 (Simulation time: 00 hr 18 min 05 sec)
Heartbeat CPU 0 instructions: 170000000 cycles: 67616317 heartbeat IPC: 1.164 cumulative IPC: 2.179 (Simulation time: 00 hr 20 min 10 sec)
Heartbeat CPU 0 instructions: 180000004 cycles: 78026207 heartbeat IPC: 0.9606 cumulative IPC: 1.985 (Simulation time: 00 hr 22 min 42 sec)
Heartbeat CPU 0 instructions: 190000001 cycles: 89856990 heartbeat IPC: 0.8453 cumulative IPC: 1.811 (Simulation time: 00 hr 25 min 07 sec)
Heartbeat CPU 0 instructions: 200000004 cycles: 93641698 heartbeat IPC: 2.642 cumulative IPC: 1.849 (Simulation time: 00 hr 26 min 16 sec)
Heartbeat CPU 0 instructions: 210000001 cycles: 97535652 heartbeat IPC: 2.568 cumulative IPC: 1.882 (Simulation time: 00 hr 27 min 28 sec)
Heartbeat CPU 0 instructions: 220000000 cycles: 101434958 heartbeat IPC: 2.565 cumulative IPC: 1.912 (Simulation time: 00 hr 28 min 36 sec)
Heartbeat CPU 0 instructions: 230000002 cycles: 106037057 heartbeat IPC: 2.173 cumulative IPC: 1.925 (Simulation time: 00 hr 29 min 48 sec)
Heartbeat CPU 0 instructions: 240000000 cycles: 110250162 heartbeat IPC: 2.374 cumulative IPC: 1.944 (Simulation time: 00 hr 30 min 58 sec)
Heartbeat CPU 0 instructions: 250000000 cycles: 114575063 heartbeat IPC: 2.312 cumulative IPC: 1.96 (Simulation time: 00 hr 32 min 23 sec)
Heartbeat CPU 0 instructions: 260000000 cycles: 118761761 heartbeat IPC: 2.389 cumulative IPC: 1.977 (Simulation time: 00 hr 33 min 50 sec)
Heartbeat CPU 0 instructions: 270000002 cycles: 122621295 heartbeat IPC: 2.591 cumulative IPC: 1.998 (Simulation time: 00 hr 35 min 08 sec)
Heartbeat CPU 0 instructions: 280000002 cycles: 126794745 heartbeat IPC: 2.396 cumulative IPC: 2.013 (Simulation time: 00 hr 36 min 21 sec)
Heartbeat CPU 0 instructions: 290000001 cycles: 130706945 heartbeat IPC: 2.556 cumulative IPC: 2.031 (Simulation time: 00 hr 37 min 31 sec)
Heartbeat CPU 0 instructions: 300000003 cycles: 134550467 heartbeat IPC: 2.602 cumulative IPC: 2.049 (Simulation time: 00 hr 38 min 44 sec)
Heartbeat CPU 0 instructions: 310000001 cycles: 138704734 heartbeat IPC: 2.407 cumulative IPC: 2.061 (Simulation time: 00 hr 39 min 54 sec)
Heartbeat CPU 0 instructions: 320000003 cycles: 142803629 heartbeat IPC: 2.44 cumulative IPC: 2.073 (Simulation time: 00 hr 41 min 02 sec)
Heartbeat CPU 0 instructions: 330000003 cycles: 147242458 heartbeat IPC: 2.253 cumulative IPC: 2.079 (Simulation time: 00 hr 42 min 10 sec)
Heartbeat CPU 0 instructions: 340000000 cycles: 156157312 heartbeat IPC: 1.122 cumulative IPC: 2.019 (Simulation time: 00 hr 44 min 04 sec)
Heartbeat CPU 0 instructions: 350000000 cycles: 167124763 heartbeat IPC: 0.9118 cumulative IPC: 1.941 (Simulation time: 00 hr 46 min 54 sec)
Heartbeat CPU 0 instructions: 360000004 cycles: 178500914 heartbeat IPC: 0.879 cumulative IPC: 1.868 (Simulation time: 00 hr 49 min 19 sec)
Heartbeat CPU 0 instructions: 370000000 cycles: 181939519 heartbeat IPC: 2.908 cumulative IPC: 1.889 (Simulation time: 00 hr 50 min 23 sec)
Heartbeat CPU 0 instructions: 380000001 cycles: 185357436 heartbeat IPC: 2.926 cumulative IPC: 1.909 (Simulation time: 00 hr 51 min 29 sec)
Heartbeat CPU 0 instructions: 390000004 cycles: 189082709 heartbeat IPC: 2.684 cumulative IPC: 1.926 (Simulation time: 00 hr 52 min 34 sec)
Heartbeat CPU 0 instructions: 400000004 cycles: 192857892 heartbeat IPC: 2.649 cumulative IPC: 1.941 (Simulation time: 00 hr 53 min 37 sec)
Heartbeat CPU 0 instructions: 410000001 cycles: 196406828 heartbeat IPC: 2.818 cumulative IPC: 1.958 (Simulation time: 00 hr 54 min 38 sec)
Heartbeat CPU 0 instructions: 420000003 cycles: 200533296 heartbeat IPC: 2.423 cumulative IPC: 1.968 (Simulation time: 00 hr 55 min 44 sec)
Heartbeat CPU 0 instructions: 430000001 cycles: 204220430 heartbeat IPC: 2.712 cumulative IPC: 1.982 (Simulation time: 00 hr 56 min 50 sec)
Heartbeat CPU 0 instructions: 440000004 cycles: 208320044 heartbeat IPC: 2.439 cumulative IPC: 1.992 (Simulation time: 00 hr 58 min 17 sec)
Heartbeat CPU 0 instructions: 450000002 cycles: 212060617 heartbeat IPC: 2.673 cumulative IPC: 2.005 (Simulation time: 00 hr 59 min 44 sec)
Heartbeat CPU 0 instructions: 460000000 cycles: 215733155 heartbeat IPC: 2.723 cumulative IPC: 2.018 (Simulation time: 01 hr 01 min 02 sec)
Heartbeat CPU 0 instructions: 470000000 cycles: 219206405 heartbeat IPC: 2.879 cumulative IPC: 2.032 (Simulation time: 01 hr 02 min 11 sec)
Heartbeat CPU 0 instructions: 480000003 cycles: 223096133 heartbeat IPC: 2.571 cumulative IPC: 2.042 (Simulation time: 01 hr 03 min 16 sec)
Heartbeat CPU 0 instructions: 490000000 cycles: 226730536 heartbeat IPC: 2.751 cumulative IPC: 2.054 (Simulation time: 01 hr 04 min 22 sec)
Heartbeat CPU 0 instructions: 500000000 cycles: 230439516 heartbeat IPC: 2.696 cumulative IPC: 2.065 (Simulation time: 01 hr 05 min 28 sec)
Heartbeat CPU 0 instructions: 510000003 cycles: 234198985 heartbeat IPC: 2.66 cumulative IPC: 2.075 (Simulation time: 01 hr 06 min 33 sec)
Heartbeat CPU 0 instructions: 520000001 cycles: 237617446 heartbeat IPC: 2.925 cumulative IPC: 2.088 (Simulation time: 01 hr 07 min 37 sec)
Heartbeat CPU 0 instructions: 530000002 cycles: 241369202 heartbeat IPC: 2.665 cumulative IPC: 2.098 (Simulation time: 01 hr 08 min 42 sec)
Heartbeat CPU 0 instructions: 540000000 cycles: 244913569 heartbeat IPC: 2.821 cumulative IPC: 2.109 (Simulation time: 01 hr 09 min 45 sec)
Heartbeat CPU 0 instructions: 550000001 cycles: 248622264 heartbeat IPC: 2.696 cumulative IPC: 2.118 (Simulation time: 01 hr 11 min 02 sec)
Heartbeat CPU 0 instructions: 560000000 cycles: 252742616 heartbeat IPC: 2.427 cumulative IPC: 2.123 (Simulation time: 01 hr 12 min 36 sec)
Heartbeat CPU 0 instructions: 570000004 cycles: 259221184 heartbeat IPC: 1.544 cumulative IPC: 2.108 (Simulation time: 01 hr 14 min 22 sec)
Heartbeat CPU 0 instructions: 580000003 cycles: 268769610 heartbeat IPC: 1.047 cumulative IPC: 2.068 (Simulation time: 01 hr 16 min 26 sec)
Heartbeat CPU 0 instructions: 590000002 cycles: 283530129 heartbeat IPC: 0.6775 cumulative IPC: 1.993 (Simulation time: 01 hr 19 min 16 sec)
Heartbeat CPU 0 instructions: 600000000 cycles: 287332864 heartbeat IPC: 2.63 cumulative IPC: 2.001 (Simulation time: 01 hr 20 min 23 sec)
Heartbeat CPU 0 instructions: 610000000 cycles: 291192593 heartbeat IPC: 2.591 cumulative IPC: 2.01 (Simulation time: 01 hr 21 min 30 sec)
Heartbeat CPU 0 instructions: 620000001 cycles: 294619630 heartbeat IPC: 2.918 cumulative IPC: 2.021 (Simulation time: 01 hr 22 min 32 sec)
Heartbeat CPU 0 instructions: 630000002 cycles: 298875964 heartbeat IPC: 2.349 cumulative IPC: 2.026 (Simulation time: 01 hr 23 min 47 sec)
Heartbeat CPU 0 instructions: 640000001 cycles: 302757500 heartbeat IPC: 2.576 cumulative IPC: 2.033 (Simulation time: 01 hr 25 min 13 sec)
Heartbeat CPU 0 instructions: 650000000 cycles: 306478747 heartbeat IPC: 2.687 cumulative IPC: 2.041 (Simulation time: 01 hr 26 min 33 sec)
Simulation finished CPU 0 instructions: 600000001 cycles: 293941620 cumulative IPC: 2.041 (Simulation time: 01 hr 26 min 33 sec)
Simulation complete CPU 0 instructions: 600000001 cycles: 293941620 cumulative IPC: 2.041 (Simulation time: 01 hr 26 min 33 sec)

ChampSim completed all CPUs

=== Simulation ===
CPU 0 runs traces/400.perlbench-41B.champsimtrace.xz
Region of Interest Statistics

CPU 0 cumulative IPC: 2.041 instructions: 600000001 cycles: 293941620
CPU 0 Branch Prediction Accuracy: 96.56% MPKI: 7.112 Average ROB Occupancy at Mispredict: 47.27
Branch type MPKI
BRANCH_DIRECT_JUMP: 0.0123
BRANCH_INDIRECT: 0.323
BRANCH_CONDITIONAL: 6.56
BRANCH_DIRECT_CALL: 0.0043
BRANCH_INDIRECT_CALL: 0.2
BRANCH_RETURN: 0.00828

LLC TOTAL        ACCESS:     935275 HIT:     497107 MISS:     438168
LLC LOAD         ACCESS:     399260 HIT:     221585 MISS:     177675
LLC RFO          ACCESS:      32357 HIT:      15771 MISS:      16586
LLC PREFETCH     ACCESS:     399260 HIT:     207454 MISS:     191806
LLC WRITE        ACCESS:      85476 HIT:      49606 MISS:      35870
LLC TRANSLATION  ACCESS:      18922 HIT:       2691 MISS:      16231
LLC PREFETCH REQUESTED:     399260 ISSUED:     399260 USEFUL:      61956 USELESS:      89231
LLC AVERAGE MISS LATENCY: 547.5 cycles
cpu0_DTLB TOTAL        ACCESS:  141885482 HIT:  141198886 MISS:     686596
cpu0_DTLB LOAD         ACCESS:  141885482 HIT:  141198886 MISS:     686596
cpu0_DTLB RFO          ACCESS:          0 HIT:          0 MISS:          0
cpu0_DTLB PREFETCH     ACCESS:          0 HIT:          0 MISS:          0
cpu0_DTLB WRITE        ACCESS:          0 HIT:          0 MISS:          0
cpu0_DTLB TRANSLATION  ACCESS:          0 HIT:          0 MISS:          0
cpu0_DTLB PREFETCH REQUESTED:          0 ISSUED:          0 USEFUL:          0 USELESS:          0
cpu0_DTLB AVERAGE MISS LATENCY: 21.48 cycles
cpu0_ITLB TOTAL        ACCESS:    4855424 HIT:    4802259 MISS:      53165
cpu0_ITLB LOAD         ACCESS:    4855424 HIT:    4802259 MISS:      53165
cpu0_ITLB RFO          ACCESS:          0 HIT:          0 MISS:          0
cpu0_ITLB PREFETCH     ACCESS:          0 HIT:          0 MISS:          0
cpu0_ITLB WRITE        ACCESS:          0 HIT:          0 MISS:          0
cpu0_ITLB TRANSLATION  ACCESS:          0 HIT:          0 MISS:          0
cpu0_ITLB PREFETCH REQUESTED:          0 ISSUED:          0 USEFUL:          0 USELESS:          0
cpu0_ITLB AVERAGE MISS LATENCY: 8.776 cycles
cpu0_L1D TOTAL        ACCESS:  188561465 HIT:  187198569 MISS:    1362896
cpu0_L1D LOAD         ACCESS:  105193994 HIT:  104139437 MISS:    1054557
cpu0_L1D RFO          ACCESS:          0 HIT:          0 MISS:          0
cpu0_L1D PREFETCH     ACCESS:          0 HIT:          0 MISS:          0
cpu0_L1D WRITE        ACCESS:   83343002 HIT:   83057534 MISS:     285468
cpu0_L1D TRANSLATION  ACCESS:      24469 HIT:       1598 MISS:      22871
cpu0_L1D PREFETCH REQUESTED:          0 ISSUED:          0 USEFUL:          0 USELESS:          0
cpu0_L1D AVERAGE MISS LATENCY: 102.1 cycles
cpu0_L1I TOTAL        ACCESS:    5593517 HIT:    4850195 MISS:     743322
cpu0_L1I LOAD         ACCESS:    5593517 HIT:    4850195 MISS:     743322
cpu0_L1I RFO          ACCESS:          0 HIT:          0 MISS:          0
cpu0_L1I PREFETCH     ACCESS:          0 HIT:          0 MISS:          0
cpu0_L1I WRITE        ACCESS:          0 HIT:          0 MISS:          0
cpu0_L1I TRANSLATION  ACCESS:          0 HIT:          0 MISS:          0
cpu0_L1I PREFETCH REQUESTED:          0 ISSUED:          0 USEFUL:          0 USELESS:          0
cpu0_L1I AVERAGE MISS LATENCY: 16.79 cycles
cpu0_L2C TOTAL        ACCESS:    1380772 HIT:     926773 MISS:     453999
cpu0_L2C LOAD         ACCESS:    1124779 HIT:     725519 MISS:     399260
cpu0_L2C RFO          ACCESS:      63763 HIT:      31406 MISS:      32357
cpu0_L2C PREFETCH     ACCESS:          0 HIT:          0 MISS:          0
cpu0_L2C WRITE        ACCESS:     169437 HIT:     165977 MISS:       3460
cpu0_L2C TRANSLATION  ACCESS:      22793 HIT:       3871 MISS:      18922
cpu0_L2C PREFETCH REQUESTED:          0 ISSUED:          0 USEFUL:          0 USELESS:          0
cpu0_L2C AVERAGE MISS LATENCY: 318.1 cycles
cpu0_STLB TOTAL        ACCESS:     507258 HIT:     484463 MISS:      22795
cpu0_STLB LOAD         ACCESS:     507258 HIT:     484463 MISS:      22795
cpu0_STLB RFO          ACCESS:          0 HIT:          0 MISS:          0
cpu0_STLB PREFETCH     ACCESS:          0 HIT:          0 MISS:          0
cpu0_STLB WRITE        ACCESS:          0 HIT:          0 MISS:          0
cpu0_STLB TRANSLATION  ACCESS:          0 HIT:          0 MISS:          0
cpu0_STLB PREFETCH REQUESTED:          0 ISSUED:          0 USEFUL:          0 USELESS:          0
cpu0_STLB AVERAGE MISS LATENCY: 538.5 cycles

DRAM Statistics

Channel 0 RQ ROW_BUFFER_HIT:      49455
  ROW_BUFFER_MISS:     297173
 AVG DBUS CONGESTED CYCLE: 3.883
WQ ROW_BUFFER_HIT: Channel 0 
  ROW_BUFFER_MISS:       8013
  FULL:      35766
