WARNING: physical memory size is smaller than virtual memory size.

*** ChampSim Multicore Out-of-Order Simulator ***
Warmup Instructions: 50000000
Simulation Instructions: 600000000
Number of CPUs: 1
Page size: 4096

Off-chip DRAM Size: 4 GiB Channels: 1 Width: 64-bit Data Race: 3200 MT/s
Heartbeat CPU 0 instructions: 10000001 cycles: 2500318 heartbeat IPC: 3.999 cumulative IPC: 3.999 (Simulation time: 00 hr 02 min 24 sec)
Heartbeat CPU 0 instructions: 20000002 cycles: 5037136 heartbeat IPC: 3.942 cumulative IPC: 3.971 (Simulation time: 00 hr 05 min 16 sec)
Heartbeat CPU 0 instructions: 30000002 cycles: 7537136 heartbeat IPC: 4 cumulative IPC: 3.98 (Simulation time: 00 hr 08 min 20 sec)
Heartbeat CPU 0 instructions: 40000002 cycles: 10037136 heartbeat IPC: 4 cumulative IPC: 3.985 (Simulation time: 00 hr 11 min 51 sec)
Heartbeat CPU 0 instructions: 50000002 cycles: 12537136 heartbeat IPC: 4 cumulative IPC: 3.988 (Simulation time: 00 hr 15 min 07 sec)
Warmup finished CPU 0 instructions: 50000002 cycles: 12537137 cumulative IPC: 3.988 (Simulation time: 00 hr 15 min 07 sec)
Warmup complete CPU 0 instructions: 50000002 cycles: 12537137 cumulative IPC: 3.988 (Simulation time: 00 hr 15 min 07 sec)
Heartbeat CPU 0 instructions: 60000000 cycles: 17146579 heartbeat IPC: 2.169 cumulative IPC: 2.169 (Simulation time: 00 hr 19 min 53 sec)
Heartbeat CPU 0 instructions: 70000004 cycles: 21426268 heartbeat IPC: 2.337 cumulative IPC: 2.25 (Simulation time: 00 hr 24 min 32 sec)
Heartbeat CPU 0 instructions: 80000001 cycles: 26030410 heartbeat IPC: 2.172 cumulative IPC: 2.223 (Simulation time: 00 hr 29 min 19 sec)
Heartbeat CPU 0 instructions: 90000001 cycles: 30162247 heartbeat IPC: 2.42 cumulative IPC: 2.269 (Simulation time: 00 hr 33 min 52 sec)
Heartbeat CPU 0 instructions: 100000000 cycles: 34217802 heartbeat IPC: 2.466 cumulative IPC: 2.306 (Simulation time: 00 hr 38 min 22 sec)
Heartbeat CPU 0 instructions: 110000000 cycles: 38453870 heartbeat IPC: 2.361 cumulative IPC: 2.315 (Simulation time: 00 hr 42 min 57 sec)
Heartbeat CPU 0 instructions: 120000001 cycles: 42465865 heartbeat IPC: 2.493 cumulative IPC: 2.339 (Simulation time: 00 hr 47 min 27 sec)
Heartbeat CPU 0 instructions: 130000001 cycles: 46201906 heartbeat IPC: 2.677 cumulative IPC: 2.376 (Simulation time: 00 hr 51 min 51 sec)
Heartbeat CPU 0 instructions: 140000001 cycles: 50376703 heartbeat IPC: 2.395 cumulative IPC: 2.378 (Simulation time: 00 hr 56 min 25 sec)
Heartbeat CPU 0 instructions: 150000001 cycles: 54578667 heartbeat IPC: 2.38 cumulative IPC: 2.379 (Simulation time: 01 hr 00 min 59 sec)
Heartbeat CPU 0 instructions: 160000004 cycles: 59001880 heartbeat IPC: 2.261 cumulative IPC: 2.367 (Simulation time: 01 hr 05 min 40 sec)
Heartbeat CPU 0 instructions: 170000000 cycles: 69023547 heartbeat IPC: 0.9978 cumulative IPC: 2.124 (Simulation time: 01 hr 13 min 48 sec)
Heartbeat CPU 0 instructions: 180000004 cycles: 79501755 heartbeat IPC: 0.9544 cumulative IPC: 1.941 (Simulation time: 01 hr 22 min 23 sec)
Heartbeat CPU 0 instructions: 190000001 cycles: 89367435 heartbeat IPC: 1.014 cumulative IPC: 1.822 (Simulation time: 01 hr 30 min 39 sec)
Heartbeat CPU 0 instructions: 200000004 cycles: 93124980 heartbeat IPC: 2.661 cumulative IPC: 1.861 (Simulation time: 01 hr 35 min 00 sec)
Heartbeat CPU 0 instructions: 210000001 cycles: 97035275 heartbeat IPC: 2.557 cumulative IPC: 1.894 (Simulation time: 01 hr 39 min 28 sec)
Heartbeat CPU 0 instructions: 220000000 cycles: 100987686 heartbeat IPC: 2.53 cumulative IPC: 1.922 (Simulation time: 01 hr 43 min 55 sec)
Heartbeat CPU 0 instructions: 230000002 cycles: 105647910 heartbeat IPC: 2.146 cumulative IPC: 1.933 (Simulation time: 01 hr 48 min 44 sec)
Heartbeat CPU 0 instructions: 240000000 cycles: 109828516 heartbeat IPC: 2.392 cumulative IPC: 1.953 (Simulation time: 01 hr 53 min 20 sec)
Heartbeat CPU 0 instructions: 250000000 cycles: 114143085 heartbeat IPC: 2.318 cumulative IPC: 1.968 (Simulation time: 01 hr 57 min 58 sec)
Heartbeat CPU 0 instructions: 260000000 cycles: 118318163 heartbeat IPC: 2.395 cumulative IPC: 1.985 (Simulation time: 02 hr 02 min 33 sec)
Heartbeat CPU 0 instructions: 270000002 cycles: 122158827 heartbeat IPC: 2.604 cumulative IPC: 2.007 (Simulation time: 02 hr 06 min 58 sec)
Heartbeat CPU 0 instructions: 280000002 cycles: 126323883 heartbeat IPC: 2.401 cumulative IPC: 2.021 (Simulation time: 02 hr 11 min 31 sec)
Heartbeat CPU 0 instructions: 290000001 cycles: 130218823 heartbeat IPC: 2.567 cumulative IPC: 2.039 (Simulation time: 02 hr 15 min 57 sec)
Heartbeat CPU 0 instructions: 300000003 cycles: 134040336 heartbeat IPC: 2.617 cumulative IPC: 2.058 (Simulation time: 02 hr 20 min 23 sec)
Heartbeat CPU 0 instructions: 310000001 cycles: 138151582 heartbeat IPC: 2.432 cumulative IPC: 2.07 (Simulation time: 02 hr 24 min 54 sec)
Heartbeat CPU 0 instructions: 320000003 cycles: 142227955 heartbeat IPC: 2.453 cumulative IPC: 2.082 (Simulation time: 02 hr 29 min 29 sec)
Heartbeat CPU 0 instructions: 330000003 cycles: 146617778 heartbeat IPC: 2.278 cumulative IPC: 2.088 (Simulation time: 02 hr 34 min 09 sec)
Heartbeat CPU 0 instructions: 340000000 cycles: 156385985 heartbeat IPC: 1.024 cumulative IPC: 2.016 (Simulation time: 02 hr 42 min 11 sec)
Heartbeat CPU 0 instructions: 350000000 cycles: 167043356 heartbeat IPC: 0.9383 cumulative IPC: 1.942 (Simulation time: 02 hr 50 min 56 sec)
Heartbeat CPU 0 instructions: 360000004 cycles: 176816065 heartbeat IPC: 1.023 cumulative IPC: 1.887 (Simulation time: 02 hr 59 min 06 sec)
Heartbeat CPU 0 instructions: 370000000 cycles: 180256124 heartbeat IPC: 2.907 cumulative IPC: 1.908 (Simulation time: 03 hr 03 min 17 sec)
Heartbeat CPU 0 instructions: 380000001 cycles: 183665600 heartbeat IPC: 2.933 cumulative IPC: 1.928 (Simulation time: 03 hr 07 min 31 sec)
Heartbeat CPU 0 instructions: 390000004 cycles: 187406216 heartbeat IPC: 2.673 cumulative IPC: 1.944 (Simulation time: 03 hr 11 min 53 sec)
Heartbeat CPU 0 instructions: 400000004 cycles: 191215692 heartbeat IPC: 2.625 cumulative IPC: 1.959 (Simulation time: 03 hr 16 min 15 sec)
Heartbeat CPU 0 instructions: 410000001 cycles: 194865661 heartbeat IPC: 2.74 cumulative IPC: 1.974 (Simulation time: 03 hr 20 min 31 sec)
Heartbeat CPU 0 instructions: 420000003 cycles: 198870605 heartbeat IPC: 2.497 cumulative IPC: 1.986 (Simulation time: 03 hr 25 min 00 sec)
Heartbeat CPU 0 instructions: 430000001 cycles: 202521473 heartbeat IPC: 2.739 cumulative IPC: 2 (Simulation time: 03 hr 29 min 23 sec)
Heartbeat CPU 0 instructions: 440000004 cycles: 206611872 heartbeat IPC: 2.445 cumulative IPC: 2.01 (Simulation time: 03 hr 33 min 56 sec)
Heartbeat CPU 0 instructions: 450000002 cycles: 210344754 heartbeat IPC: 2.679 cumulative IPC: 2.022 (Simulation time: 03 hr 38 min 18 sec)
Heartbeat CPU 0 instructions: 460000000 cycles: 214013012 heartbeat IPC: 2.726 cumulative IPC: 2.035 (Simulation time: 03 hr 42 min 36 sec)
Heartbeat CPU 0 instructions: 470000000 cycles: 217471187 heartbeat IPC: 2.892 cumulative IPC: 2.049 (Simulation time: 03 hr 46 min 52 sec)
Heartbeat CPU 0 instructions: 480000003 cycles: 221280414 heartbeat IPC: 2.625 cumulative IPC: 2.06 (Simulation time: 03 hr 51 min 17 sec)
Heartbeat CPU 0 instructions: 490000000 cycles: 224908524 heartbeat IPC: 2.756 cumulative IPC: 2.072 (Simulation time: 03 hr 55 min 33 sec)
Heartbeat CPU 0 instructions: 500000000 cycles: 228603487 heartbeat IPC: 2.706 cumulative IPC: 2.083 (Simulation time: 03 hr 59 min 53 sec)
Heartbeat CPU 0 instructions: 510000003 cycles: 232250590 heartbeat IPC: 2.742 cumulative IPC: 2.094 (Simulation time: 04 hr 04 min 16 sec)
Heartbeat CPU 0 instructions: 520000001 cycles: 235662751 heartbeat IPC: 2.931 cumulative IPC: 2.106 (Simulation time: 04 hr 08 min 32 sec)
Heartbeat CPU 0 instructions: 530000002 cycles: 239322733 heartbeat IPC: 2.732 cumulative IPC: 2.117 (Simulation time: 04 hr 12 min 52 sec)
Heartbeat CPU 0 instructions: 540000000 cycles: 242848979 heartbeat IPC: 2.836 cumulative IPC: 2.128 (Simulation time: 04 hr 17 min 12 sec)
Heartbeat CPU 0 instructions: 550000001 cycles: 246542642 heartbeat IPC: 2.707 cumulative IPC: 2.137 (Simulation time: 04 hr 21 min 40 sec)
Heartbeat CPU 0 instructions: 560000000 cycles: 250498187 heartbeat IPC: 2.528 cumulative IPC: 2.143 (Simulation time: 04 hr 26 min 10 sec)
Heartbeat CPU 0 instructions: 570000004 cycles: 256682185 heartbeat IPC: 1.617 cumulative IPC: 2.13 (Simulation time: 04 hr 32 min 06 sec)
Heartbeat CPU 0 instructions: 580000003 cycles: 267767247 heartbeat IPC: 0.9021 cumulative IPC: 2.077 (Simulation time: 04 hr 41 min 10 sec)
Heartbeat CPU 0 instructions: 590000002 cycles: 280272344 heartbeat IPC: 0.7997 cumulative IPC: 2.017 (Simulation time: 04 hr 51 min 05 sec)
Heartbeat CPU 0 instructions: 600000000 cycles: 283981890 heartbeat IPC: 2.696 cumulative IPC: 2.026 (Simulation time: 04 hr 55 min 27 sec)
Heartbeat CPU 0 instructions: 610000000 cycles: 287842381 heartbeat IPC: 2.59 cumulative IPC: 2.034 (Simulation time: 04 hr 59 min 49 sec)
Heartbeat CPU 0 instructions: 620000001 cycles: 291269457 heartbeat IPC: 2.918 cumulative IPC: 2.045 (Simulation time: 05 hr 04 min 03 sec)
Heartbeat CPU 0 instructions: 630000002 cycles: 295546027 heartbeat IPC: 2.338 cumulative IPC: 2.049 (Simulation time: 05 hr 08 min 40 sec)
Heartbeat CPU 0 instructions: 640000001 cycles: 299441006 heartbeat IPC: 2.567 cumulative IPC: 2.056 (Simulation time: 05 hr 13 min 20 sec)
Heartbeat CPU 0 instructions: 650000000 cycles: 303194604 heartbeat IPC: 2.664 cumulative IPC: 2.064 (Simulation time: 05 hr 17 min 43 sec)
Simulation finished CPU 0 instructions: 600000001 cycles: 290657469 cumulative IPC: 2.064 (Simulation time: 05 hr 17 min 43 sec)
Simulation complete CPU 0 instructions: 600000001 cycles: 290657469 cumulative IPC: 2.064 (Simulation time: 05 hr 17 min 43 sec)

ChampSim completed all CPUs

=== Simulation ===
CPU 0 runs traces/400.perlbench-41B.champsimtrace.xz
Region of Interest Statistics

CPU 0 cumulative IPC: 2.064 instructions: 600000001 cycles: 290657469
CPU 0 Branch Prediction Accuracy: 96.56% MPKI: 7.112 Average ROB Occupancy at Mispredict: 47.37
Branch type MPKI
BRANCH_DIRECT_JUMP: 0.0123
BRANCH_INDIRECT: 0.323
BRANCH_CONDITIONAL: 6.56
BRANCH_DIRECT_CALL: 0.0043
BRANCH_INDIRECT_CALL: 0.2
BRANCH_RETURN: 0.00828

LLC TOTAL        ACCESS:     539208 HIT:     298697 MISS:     240511
LLC LOAD         ACCESS:     402690 HIT:     185131 MISS:     217559
LLC RFO          ACCESS:      32519 HIT:      18876 MISS:      13643
LLC PREFETCH     ACCESS:          0 HIT:          0 MISS:          0
LLC WRITE        ACCESS:      84960 HIT:      84748 MISS:        212
LLC TRANSLATION  ACCESS:      19039 HIT:       9942 MISS:       9097
LLC PREFETCH REQUESTED:          0 ISSUED:          0 USEFUL:          0 USELESS:          0
LLC AVERAGE MISS LATENCY: 565.6 cycles
cpu0_DTLB TOTAL        ACCESS:  141908380 HIT:  141221079 MISS:     687301
cpu0_DTLB LOAD         ACCESS:  141908380 HIT:  141221079 MISS:     687301
cpu0_DTLB RFO          ACCESS:          0 HIT:          0 MISS:          0
cpu0_DTLB PREFETCH     ACCESS:          0 HIT:          0 MISS:          0
cpu0_DTLB WRITE        ACCESS:          0 HIT:          0 MISS:          0
cpu0_DTLB TRANSLATION  ACCESS:          0 HIT:          0 MISS:          0
cpu0_DTLB PREFETCH REQUESTED:          0 ISSUED:          0 USEFUL:          0 USELESS:          0
cpu0_DTLB AVERAGE MISS LATENCY: 14.03 cycles
cpu0_ITLB TOTAL        ACCESS:    4858972 HIT:    4805861 MISS:      53111
cpu0_ITLB LOAD         ACCESS:    4858972 HIT:    4805861 MISS:      53111
cpu0_ITLB RFO          ACCESS:          0 HIT:          0 MISS:          0
cpu0_ITLB PREFETCH     ACCESS:          0 HIT:          0 MISS:          0
cpu0_ITLB WRITE        ACCESS:          0 HIT:          0 MISS:          0
cpu0_ITLB TRANSLATION  ACCESS:          0 HIT:          0 MISS:          0
cpu0_ITLB PREFETCH REQUESTED:          0 ISSUED:          0 USEFUL:          0 USELESS:          0
cpu0_ITLB AVERAGE MISS LATENCY: 7.694 cycles
cpu0_L1D TOTAL        ACCESS:  188560693 HIT:  186817699 MISS:    1742994
cpu0_L1D LOAD         ACCESS:  105193359 HIT:  103830591 MISS:    1362768
cpu0_L1D RFO          ACCESS:          0 HIT:          0 MISS:          0
cpu0_L1D PREFETCH     ACCESS:          0 HIT:          0 MISS:          0
cpu0_L1D WRITE        ACCESS:   83342869 HIT:   82986042 MISS:     356827
cpu0_L1D TRANSLATION  ACCESS:      24465 HIT:       1066 MISS:      23399
cpu0_L1D PREFETCH REQUESTED:          0 ISSUED:          0 USEFUL:          0 USELESS:          0
cpu0_L1D AVERAGE MISS LATENCY: 82.73 cycles
cpu0_L1I TOTAL        ACCESS:    5596846 HIT:    4853197 MISS:     743649
cpu0_L1I LOAD         ACCESS:    5596846 HIT:    4853197 MISS:     743649
cpu0_L1I RFO          ACCESS:          0 HIT:          0 MISS:          0
cpu0_L1I PREFETCH     ACCESS:          0 HIT:          0 MISS:          0
cpu0_L1I WRITE        ACCESS:          0 HIT:          0 MISS:          0
cpu0_L1I TRANSLATION  ACCESS:          0 HIT:          0 MISS:          0
cpu0_L1I PREFETCH REQUESTED:          0 ISSUED:          0 USEFUL:          0 USELESS:          0
cpu0_L1I AVERAGE MISS LATENCY: 12.75 cycles
cpu0_L2C TOTAL        ACCESS:    1665628 HIT:    1209603 MISS:     456025
cpu0_L2C LOAD         ACCESS:    1315923 HIT:     913233 MISS:     402690
cpu0_L2C RFO          ACCESS:      88363 HIT:      55844 MISS:      32519
cpu0_L2C PREFETCH     ACCESS:          0 HIT:          0 MISS:          0
cpu0_L2C WRITE        ACCESS:     238011 HIT:     236234 MISS:       1777
cpu0_L2C TRANSLATION  ACCESS:      23331 HIT:       4292 MISS:      19039
cpu0_L2C PREFETCH REQUESTED:          0 ISSUED:          0 USEFUL:          0 USELESS:          0
cpu0_L2C AVERAGE MISS LATENCY: 318.7 cycles
cpu0_STLB TOTAL        ACCESS:     507437 HIT:     484642 MISS:      22795
cpu0_STLB LOAD         ACCESS:     507437 HIT:     484642 MISS:      22795
cpu0_STLB RFO          ACCESS:          0 HIT:          0 MISS:          0
cpu0_STLB PREFETCH     ACCESS:          0 HIT:          0 MISS:          0
cpu0_STLB WRITE        ACCESS:          0 HIT:          0 MISS:          0
cpu0_STLB TRANSLATION  ACCESS:          0 HIT:          0 MISS:          0
cpu0_STLB PREFETCH REQUESTED:          0 ISSUED:          0 USEFUL:          0 USELESS:          0
cpu0_STLB AVERAGE MISS LATENCY: 302.8 cycles

DRAM Statistics

Channel 0 RQ ROW_BUFFER_HIT:      40766
  ROW_BUFFER_MISS:     199509
 AVG DBUS CONGESTED CYCLE: 3.8
WQ ROW_BUFFER_HIT: Channel 0 
  ROW_BUFFER_MISS:       7510
  FULL:      27230
