WARNING: physical memory size is smaller than virtual memory size.

*** ChampSim Multicore Out-of-Order Simulator ***
Warmup Instructions: 50000000
Simulation Instructions: 600000000
Number of CPUs: 1
Page size: 4096

CPU 0 Tage branch predictor
Off-chip DRAM Size: 4 GiB Channels: 1 Width: 64-bit Data Race: 3200 MT/s
Heartbeat CPU 0 instructions: 10000001 cycles: 2500318 heartbeat IPC: 3.999 cumulative IPC: 3.999 (Simulation time: 00 hr 01 min 05 sec)
Heartbeat CPU 0 instructions: 20000002 cycles: 5037128 heartbeat IPC: 3.942 cumulative IPC: 3.971 (Simulation time: 00 hr 02 min 06 sec)
Heartbeat CPU 0 instructions: 30000002 cycles: 7537128 heartbeat IPC: 4 cumulative IPC: 3.98 (Simulation time: 00 hr 03 min 02 sec)
Heartbeat CPU 0 instructions: 40000002 cycles: 10037128 heartbeat IPC: 4 cumulative IPC: 3.985 (Simulation time: 00 hr 04 min 07 sec)
Heartbeat CPU 0 instructions: 50000002 cycles: 12537128 heartbeat IPC: 4 cumulative IPC: 3.988 (Simulation time: 00 hr 05 min 22 sec)
Warmup finished CPU 0 instructions: 50000002 cycles: 12537129 cumulative IPC: 3.988 (Simulation time: 00 hr 05 min 22 sec)
Warmup complete CPU 0 instructions: 50000002 cycles: 12537129 cumulative IPC: 3.988 (Simulation time: 00 hr 05 min 22 sec)
Heartbeat CPU 0 instructions: 60000001 cycles: 15527018 heartbeat IPC: 3.345 cumulative IPC: 3.345 (Simulation time: 00 hr 06 min 55 sec)
Heartbeat CPU 0 instructions: 70000004 cycles: 18615982 heartbeat IPC: 3.237 cumulative IPC: 3.29 (Simulation time: 00 hr 08 min 19 sec)
Heartbeat CPU 0 instructions: 80000001 cycles: 21678250 heartbeat IPC: 3.266 cumulative IPC: 3.282 (Simulation time: 00 hr 09 min 36 sec)
Heartbeat CPU 0 instructions: 90000001 cycles: 24635649 heartbeat IPC: 3.381 cumulative IPC: 3.306 (Simulation time: 00 hr 10 min 48 sec)
Heartbeat CPU 0 instructions: 100000000 cycles: 27563982 heartbeat IPC: 3.415 cumulative IPC: 3.327 (Simulation time: 00 hr 12 min 04 sec)
Heartbeat CPU 0 instructions: 110000000 cycles: 30521428 heartbeat IPC: 3.381 cumulative IPC: 3.336 (Simulation time: 00 hr 13 min 18 sec)
Heartbeat CPU 0 instructions: 120000001 cycles: 33510074 heartbeat IPC: 3.346 cumulative IPC: 3.338 (Simulation time: 00 hr 14 min 29 sec)
Heartbeat CPU 0 instructions: 130000001 cycles: 36386056 heartbeat IPC: 3.477 cumulative IPC: 3.354 (Simulation time: 00 hr 15 min 40 sec)
Heartbeat CPU 0 instructions: 140000001 cycles: 39456139 heartbeat IPC: 3.257 cumulative IPC: 3.343 (Simulation time: 00 hr 16 min 50 sec)
Heartbeat CPU 0 instructions: 150000001 cycles: 42477833 heartbeat IPC: 3.309 cumulative IPC: 3.34 (Simulation time: 00 hr 18 min 18 sec)
Heartbeat CPU 0 instructions: 160000004 cycles: 45513643 heartbeat IPC: 3.294 cumulative IPC: 3.336 (Simulation time: 00 hr 19 min 48 sec)
Heartbeat CPU 0 instructions: 170000000 cycles: 52222401 heartbeat IPC: 1.491 cumulative IPC: 3.024 (Simulation time: 00 hr 21 min 46 sec)
Heartbeat CPU 0 instructions: 180000004 cycles: 59196924 heartbeat IPC: 1.434 cumulative IPC: 2.786 (Simulation time: 00 hr 23 min 48 sec)
Heartbeat CPU 0 instructions: 190000001 cycles: 68316007 heartbeat IPC: 1.097 cumulative IPC: 2.51 (Simulation time: 00 hr 26 min 04 sec)
Heartbeat CPU 0 instructions: 200000004 cycles: 71293263 heartbeat IPC: 3.359 cumulative IPC: 2.553 (Simulation time: 00 hr 27 min 14 sec)
Heartbeat CPU 0 instructions: 210000001 cycles: 74258884 heartbeat IPC: 3.372 cumulative IPC: 2.592 (Simulation time: 00 hr 28 min 24 sec)
Heartbeat CPU 0 instructions: 220000000 cycles: 77159123 heartbeat IPC: 3.448 cumulative IPC: 2.631 (Simulation time: 00 hr 29 min 38 sec)
Heartbeat CPU 0 instructions: 230000002 cycles: 80193905 heartbeat IPC: 3.295 cumulative IPC: 2.66 (Simulation time: 00 hr 31 min 05 sec)
Heartbeat CPU 0 instructions: 240000003 cycles: 83248997 heartbeat IPC: 3.273 cumulative IPC: 2.687 (Simulation time: 00 hr 32 min 26 sec)
Heartbeat CPU 0 instructions: 250000000 cycles: 86283210 heartbeat IPC: 3.296 cumulative IPC: 2.712 (Simulation time: 00 hr 33 min 42 sec)
Heartbeat CPU 0 instructions: 260000002 cycles: 89263033 heartbeat IPC: 3.356 cumulative IPC: 2.737 (Simulation time: 00 hr 34 min 52 sec)
Heartbeat CPU 0 instructions: 270000002 cycles: 92184320 heartbeat IPC: 3.423 cumulative IPC: 2.762 (Simulation time: 00 hr 36 min 10 sec)
Heartbeat CPU 0 instructions: 280000002 cycles: 95081257 heartbeat IPC: 3.452 cumulative IPC: 2.786 (Simulation time: 00 hr 37 min 25 sec)
Heartbeat CPU 0 instructions: 290000002 cycles: 98054321 heartbeat IPC: 3.364 cumulative IPC: 2.806 (Simulation time: 00 hr 38 min 37 sec)
Heartbeat CPU 0 instructions: 300000003 cycles: 100974137 heartbeat IPC: 3.425 cumulative IPC: 2.827 (Simulation time: 00 hr 39 min 47 sec)
Heartbeat CPU 0 instructions: 310000001 cycles: 104029694 heartbeat IPC: 3.273 cumulative IPC: 2.842 (Simulation time: 00 hr 40 min 57 sec)
Heartbeat CPU 0 instructions: 320000003 cycles: 107050117 heartbeat IPC: 3.311 cumulative IPC: 2.857 (Simulation time: 00 hr 42 min 23 sec)
Heartbeat CPU 0 instructions: 330000003 cycles: 110064809 heartbeat IPC: 3.317 cumulative IPC: 2.871 (Simulation time: 00 hr 43 min 53 sec)
Heartbeat CPU 0 instructions: 340000000 cycles: 117093260 heartbeat IPC: 1.423 cumulative IPC: 2.774 (Simulation time: 00 hr 45 min 49 sec)
Heartbeat CPU 0 instructions: 350000000 cycles: 124520716 heartbeat IPC: 1.346 cumulative IPC: 2.679 (Simulation time: 00 hr 47 min 46 sec)
Heartbeat CPU 0 instructions: 360000004 cycles: 133482037 heartbeat IPC: 1.116 cumulative IPC: 2.563 (Simulation time: 00 hr 50 min 03 sec)
Heartbeat CPU 0 instructions: 370000000 cycles: 136458282 heartbeat IPC: 3.36 cumulative IPC: 2.582 (Simulation time: 00 hr 51 min 15 sec)
Heartbeat CPU 0 instructions: 380000003 cycles: 139385909 heartbeat IPC: 3.416 cumulative IPC: 2.602 (Simulation time: 00 hr 52 min 25 sec)
Heartbeat CPU 0 instructions: 390000002 cycles: 142368267 heartbeat IPC: 3.353 cumulative IPC: 2.619 (Simulation time: 00 hr 53 min 33 sec)
Heartbeat CPU 0 instructions: 400000004 cycles: 145273598 heartbeat IPC: 3.442 cumulative IPC: 2.637 (Simulation time: 00 hr 54 min 48 sec)
Heartbeat CPU 0 instructions: 410000002 cycles: 148227198 heartbeat IPC: 3.386 cumulative IPC: 2.653 (Simulation time: 00 hr 56 min 24 sec)
Heartbeat CPU 0 instructions: 420000003 cycles: 151369713 heartbeat IPC: 3.182 cumulative IPC: 2.665 (Simulation time: 00 hr 57 min 57 sec)
Heartbeat CPU 0 instructions: 430000001 cycles: 154414999 heartbeat IPC: 3.284 cumulative IPC: 2.678 (Simulation time: 00 hr 59 min 15 sec)
Heartbeat CPU 0 instructions: 440000004 cycles: 157562782 heartbeat IPC: 3.177 cumulative IPC: 2.689 (Simulation time: 01 hr 00 min 34 sec)
Heartbeat CPU 0 instructions: 450000002 cycles: 160498150 heartbeat IPC: 3.407 cumulative IPC: 2.703 (Simulation time: 01 hr 01 min 55 sec)
Heartbeat CPU 0 instructions: 460000000 cycles: 163447654 heartbeat IPC: 3.39 cumulative IPC: 2.717 (Simulation time: 01 hr 03 min 12 sec)
Heartbeat CPU 0 instructions: 470000001 cycles: 166313196 heartbeat IPC: 3.49 cumulative IPC: 2.731 (Simulation time: 01 hr 04 min 24 sec)
Heartbeat CPU 0 instructions: 480000003 cycles: 169418246 heartbeat IPC: 3.221 cumulative IPC: 2.741 (Simulation time: 01 hr 05 min 36 sec)
Heartbeat CPU 0 instructions: 490000004 cycles: 172253306 heartbeat IPC: 3.527 cumulative IPC: 2.755 (Simulation time: 01 hr 06 min 46 sec)
Heartbeat CPU 0 instructions: 500000004 cycles: 175248312 heartbeat IPC: 3.339 cumulative IPC: 2.766 (Simulation time: 01 hr 07 min 56 sec)
Heartbeat CPU 0 instructions: 510000003 cycles: 178355326 heartbeat IPC: 3.219 cumulative IPC: 2.774 (Simulation time: 01 hr 09 min 28 sec)
Heartbeat CPU 0 instructions: 520000001 cycles: 181255024 heartbeat IPC: 3.449 cumulative IPC: 2.786 (Simulation time: 01 hr 10 min 53 sec)
Heartbeat CPU 0 instructions: 530000001 cycles: 184310008 heartbeat IPC: 3.273 cumulative IPC: 2.794 (Simulation time: 01 hr 12 min 14 sec)
Heartbeat CPU 0 instructions: 540000000 cycles: 187280226 heartbeat IPC: 3.367 cumulative IPC: 2.804 (Simulation time: 01 hr 13 min 32 sec)
Heartbeat CPU 0 instructions: 550000001 cycles: 190278391 heartbeat IPC: 3.335 cumulative IPC: 2.813 (Simulation time: 01 hr 14 min 50 sec)
Heartbeat CPU 0 instructions: 560000000 cycles: 193456657 heartbeat IPC: 3.146 cumulative IPC: 2.819 (Simulation time: 01 hr 16 min 06 sec)
Heartbeat CPU 0 instructions: 570000004 cycles: 198972541 heartbeat IPC: 1.813 cumulative IPC: 2.789 (Simulation time: 01 hr 17 min 46 sec)
Heartbeat CPU 0 instructions: 580000003 cycles: 205510639 heartbeat IPC: 1.529 cumulative IPC: 2.746 (Simulation time: 01 hr 20 min 09 sec)
Heartbeat CPU 0 instructions: 590000002 cycles: 216878191 heartbeat IPC: 0.8797 cumulative IPC: 2.643 (Simulation time: 01 hr 23 min 01 sec)
Heartbeat CPU 0 instructions: 600000004 cycles: 220018960 heartbeat IPC: 3.184 cumulative IPC: 2.651 (Simulation time: 01 hr 24 min 14 sec)
Heartbeat CPU 0 instructions: 610000002 cycles: 222990900 heartbeat IPC: 3.365 cumulative IPC: 2.661 (Simulation time: 01 hr 25 min 26 sec)
Heartbeat CPU 0 instructions: 620000001 cycles: 225766228 heartbeat IPC: 3.603 cumulative IPC: 2.673 (Simulation time: 01 hr 26 min 39 sec)
Heartbeat CPU 0 instructions: 630000002 cycles: 228741407 heartbeat IPC: 3.361 cumulative IPC: 2.683 (Simulation time: 01 hr 28 min 03 sec)
Heartbeat CPU 0 instructions: 640000004 cycles: 231695231 heartbeat IPC: 3.385 cumulative IPC: 2.692 (Simulation time: 01 hr 29 min 36 sec)
Heartbeat CPU 0 instructions: 650000000 cycles: 234448565 heartbeat IPC: 3.632 cumulative IPC: 2.704 (Simulation time: 01 hr 30 min 54 sec)
Simulation finished CPU 0 instructions: 600000001 cycles: 221911438 cumulative IPC: 2.704 (Simulation time: 01 hr 30 min 54 sec)
Simulation complete CPU 0 instructions: 600000001 cycles: 221911438 cumulative IPC: 2.704 (Simulation time: 01 hr 30 min 54 sec)

ChampSim completed all CPUs

=== Simulation ===
CPU 0 runs traces/400.perlbench-41B.champsimtrace.xz
Region of Interest Statistics

CPU 0 cumulative IPC: 2.704 instructions: 600000001 cycles: 221911438
CPU 0 Branch Prediction Accuracy: 99.19% MPKI: 1.684 Average ROB Occupancy at Mispredict: 102.3
Branch type MPKI
BRANCH_DIRECT_JUMP: 0.0123
BRANCH_INDIRECT: 0.323
BRANCH_CONDITIONAL: 1.14
BRANCH_DIRECT_CALL: 0.0043
BRANCH_INDIRECT_CALL: 0.2
BRANCH_RETURN: 0.00828

LLC TOTAL        ACCESS:     539432 HIT:     284281 MISS:     255151
LLC LOAD         ACCESS:     402557 HIT:     204653 MISS:     197904
LLC RFO          ACCESS:      32374 HIT:      15842 MISS:      16532
LLC PREFETCH     ACCESS:          0 HIT:          0 MISS:          0
LLC WRITE        ACCESS:      85667 HIT:      59020 MISS:      26647
LLC TRANSLATION  ACCESS:      18834 HIT:       4766 MISS:      14068
LLC PREFETCH REQUESTED:          0 ISSUED:          0 USEFUL:          0 USELESS:          0
LLC AVERAGE MISS LATENCY: 565.7 cycles
cpu0_DTLB TOTAL        ACCESS:  129737135 HIT:  129032440 MISS:     704695
cpu0_DTLB LOAD         ACCESS:  129737135 HIT:  129032440 MISS:     704695
cpu0_DTLB RFO          ACCESS:          0 HIT:          0 MISS:          0
cpu0_DTLB PREFETCH     ACCESS:          0 HIT:          0 MISS:          0
cpu0_DTLB WRITE        ACCESS:          0 HIT:          0 MISS:          0
cpu0_DTLB TRANSLATION  ACCESS:          0 HIT:          0 MISS:          0
cpu0_DTLB PREFETCH REQUESTED:          0 ISSUED:          0 USEFUL:          0 USELESS:          0
cpu0_DTLB AVERAGE MISS LATENCY: 18.47 cycles
cpu0_ITLB TOTAL        ACCESS:    4875196 HIT:    4813077 MISS:      62119
cpu0_ITLB LOAD         ACCESS:    4875196 HIT:    4813077 MISS:      62119
cpu0_ITLB RFO          ACCESS:          0 HIT:          0 MISS:          0
cpu0_ITLB PREFETCH     ACCESS:          0 HIT:          0 MISS:          0
cpu0_ITLB WRITE        ACCESS:          0 HIT:          0 MISS:          0
cpu0_ITLB TRANSLATION  ACCESS:          0 HIT:          0 MISS:          0
cpu0_ITLB PREFETCH REQUESTED:          0 ISSUED:          0 USEFUL:          0 USELESS:          0
cpu0_ITLB AVERAGE MISS LATENCY: 6.505 cycles
cpu0_L1D TOTAL        ACCESS:  174340421 HIT:  172929775 MISS:    1410646
cpu0_L1D LOAD         ACCESS:   91319569 HIT:   90229813 MISS:    1089756
cpu0_L1D RFO          ACCESS:          0 HIT:          0 MISS:          0
cpu0_L1D PREFETCH     ACCESS:          0 HIT:          0 MISS:          0
cpu0_L1D WRITE        ACCESS:   82996389 HIT:   82698367 MISS:     298022
cpu0_L1D TRANSLATION  ACCESS:      24463 HIT:       1595 MISS:      22868
cpu0_L1D PREFETCH REQUESTED:          0 ISSUED:          0 USEFUL:          0 USELESS:          0
cpu0_L1D AVERAGE MISS LATENCY: 101.4 cycles
cpu0_L1I TOTAL        ACCESS:    5654143 HIT:    4850181 MISS:     803962
cpu0_L1I LOAD         ACCESS:    5654143 HIT:    4850181 MISS:     803962
cpu0_L1I RFO          ACCESS:          0 HIT:          0 MISS:          0
cpu0_L1I PREFETCH     ACCESS:          0 HIT:          0 MISS:          0
cpu0_L1I WRITE        ACCESS:          0 HIT:          0 MISS:          0
cpu0_L1I TRANSLATION  ACCESS:          0 HIT:          0 MISS:          0
cpu0_L1I PREFETCH REQUESTED:          0 ISSUED:          0 USEFUL:          0 USELESS:          0
cpu0_L1I AVERAGE MISS LATENCY: 14.5 cycles
cpu0_L2C TOTAL        ACCESS:    1381516 HIT:     924023 MISS:     457493
cpu0_L2C LOAD         ACCESS:    1124053 HIT:     721495 MISS:     402558
cpu0_L2C RFO          ACCESS:      64487 HIT:      32113 MISS:      32374
cpu0_L2C PREFETCH     ACCESS:          0 HIT:          0 MISS:          0
cpu0_L2C WRITE        ACCESS:     170197 HIT:     166470 MISS:       3727
cpu0_L2C TRANSLATION  ACCESS:      22779 HIT:       3945 MISS:      18834
cpu0_L2C PREFETCH REQUESTED:          0 ISSUED:          0 USEFUL:          0 USELESS:          0
cpu0_L2C AVERAGE MISS LATENCY: 335.8 cycles
cpu0_STLB TOTAL        ACCESS:     508863 HIT:     486077 MISS:      22786
cpu0_STLB LOAD         ACCESS:     508863 HIT:     486077 MISS:      22786
cpu0_STLB RFO          ACCESS:          0 HIT:          0 MISS:          0
cpu0_STLB PREFETCH     ACCESS:          0 HIT:          0 MISS:          0
cpu0_STLB WRITE        ACCESS:          0 HIT:          0 MISS:          0
cpu0_STLB TRANSLATION  ACCESS:          0 HIT:          0 MISS:          0
cpu0_STLB PREFETCH REQUESTED:          0 ISSUED:          0 USEFUL:          0 USELESS:          0
cpu0_STLB AVERAGE MISS LATENCY: 477.8 cycles

DRAM Statistics

Channel 0 RQ ROW_BUFFER_HIT:      33470
  ROW_BUFFER_MISS:     194889
 AVG DBUS CONGESTED CYCLE: 3.838
WQ ROW_BUFFER_HIT: Channel 0 
  ROW_BUFFER_MISS:       7095
  FULL:      32045
