WARNING: physical memory size is smaller than virtual memory size.

*** ChampSim Multicore Out-of-Order Simulator ***
Warmup Instructions: 50000000
Simulation Instructions: 600000000
Number of CPUs: 1
Page size: 4096

CPU 0 Tage branch predictor
Off-chip DRAM Size: 4 GiB Channels: 1 Width: 64-bit Data Race: 3200 MT/s
Heartbeat CPU 0 instructions: 10000001 cycles: 2500319 heartbeat IPC: 3.999 cumulative IPC: 3.999 (Simulation time: 00 hr 00 min 57 sec)
Heartbeat CPU 0 instructions: 20000002 cycles: 5037138 heartbeat IPC: 3.942 cumulative IPC: 3.971 (Simulation time: 00 hr 02 min 09 sec)
Heartbeat CPU 0 instructions: 30000002 cycles: 7537138 heartbeat IPC: 4 cumulative IPC: 3.98 (Simulation time: 00 hr 03 min 23 sec)
Heartbeat CPU 0 instructions: 40000002 cycles: 10037138 heartbeat IPC: 4 cumulative IPC: 3.985 (Simulation time: 00 hr 04 min 35 sec)
Heartbeat CPU 0 instructions: 50000002 cycles: 12537138 heartbeat IPC: 4 cumulative IPC: 3.988 (Simulation time: 00 hr 05 min 54 sec)
Warmup finished CPU 0 instructions: 50000002 cycles: 12537139 cumulative IPC: 3.988 (Simulation time: 00 hr 05 min 54 sec)
Warmup complete CPU 0 instructions: 50000002 cycles: 12537139 cumulative IPC: 3.988 (Simulation time: 00 hr 05 min 54 sec)
Heartbeat CPU 0 instructions: 60000001 cycles: 15564533 heartbeat IPC: 3.303 cumulative IPC: 3.303 (Simulation time: 00 hr 07 min 25 sec)
Heartbeat CPU 0 instructions: 70000004 cycles: 18663646 heartbeat IPC: 3.227 cumulative IPC: 3.265 (Simulation time: 00 hr 08 min 53 sec)
Heartbeat CPU 0 instructions: 80000001 cycles: 21738542 heartbeat IPC: 3.252 cumulative IPC: 3.26 (Simulation time: 00 hr 10 min 17 sec)
Heartbeat CPU 0 instructions: 90000001 cycles: 24705350 heartbeat IPC: 3.371 cumulative IPC: 3.287 (Simulation time: 00 hr 11 min 45 sec)
Heartbeat CPU 0 instructions: 100000000 cycles: 27643662 heartbeat IPC: 3.403 cumulative IPC: 3.31 (Simulation time: 00 hr 13 min 10 sec)
Heartbeat CPU 0 instructions: 110000000 cycles: 30600878 heartbeat IPC: 3.382 cumulative IPC: 3.322 (Simulation time: 00 hr 14 min 42 sec)
Heartbeat CPU 0 instructions: 120000001 cycles: 33598237 heartbeat IPC: 3.336 cumulative IPC: 3.324 (Simulation time: 00 hr 16 min 28 sec)
Heartbeat CPU 0 instructions: 130000001 cycles: 36483866 heartbeat IPC: 3.465 cumulative IPC: 3.341 (Simulation time: 00 hr 18 min 20 sec)
Heartbeat CPU 0 instructions: 140000001 cycles: 39577794 heartbeat IPC: 3.232 cumulative IPC: 3.328 (Simulation time: 00 hr 20 min 12 sec)
Heartbeat CPU 0 instructions: 150000001 cycles: 42622720 heartbeat IPC: 3.284 cumulative IPC: 3.324 (Simulation time: 00 hr 22 min 07 sec)
Heartbeat CPU 0 instructions: 160000004 cycles: 45682762 heartbeat IPC: 3.268 cumulative IPC: 3.319 (Simulation time: 00 hr 24 min 03 sec)
Heartbeat CPU 0 instructions: 170000000 cycles: 54105595 heartbeat IPC: 1.187 cumulative IPC: 2.887 (Simulation time: 00 hr 26 min 25 sec)
Heartbeat CPU 0 instructions: 180000004 cycles: 63458107 heartbeat IPC: 1.069 cumulative IPC: 2.553 (Simulation time: 00 hr 28 min 01 sec)
Heartbeat CPU 0 instructions: 190000001 cycles: 72598388 heartbeat IPC: 1.094 cumulative IPC: 2.331 (Simulation time: 00 hr 29 min 36 sec)
Heartbeat CPU 0 instructions: 200000004 cycles: 75617515 heartbeat IPC: 3.312 cumulative IPC: 2.378 (Simulation time: 00 hr 30 min 28 sec)
Heartbeat CPU 0 instructions: 210000001 cycles: 78627313 heartbeat IPC: 3.322 cumulative IPC: 2.421 (Simulation time: 00 hr 31 min 22 sec)
Heartbeat CPU 0 instructions: 220000000 cycles: 81546505 heartbeat IPC: 3.426 cumulative IPC: 2.463 (Simulation time: 00 hr 32 min 17 sec)
Heartbeat CPU 0 instructions: 230000002 cycles: 84658159 heartbeat IPC: 3.214 cumulative IPC: 2.496 (Simulation time: 00 hr 33 min 13 sec)
Heartbeat CPU 0 instructions: 240000003 cycles: 87749168 heartbeat IPC: 3.235 cumulative IPC: 2.526 (Simulation time: 00 hr 34 min 13 sec)
Heartbeat CPU 0 instructions: 250000000 cycles: 90836873 heartbeat IPC: 3.239 cumulative IPC: 2.554 (Simulation time: 00 hr 35 min 12 sec)
Heartbeat CPU 0 instructions: 260000002 cycles: 93861741 heartbeat IPC: 3.306 cumulative IPC: 2.582 (Simulation time: 00 hr 36 min 09 sec)
Heartbeat CPU 0 instructions: 270000002 cycles: 96811490 heartbeat IPC: 3.39 cumulative IPC: 2.611 (Simulation time: 00 hr 37 min 04 sec)
Heartbeat CPU 0 instructions: 280000002 cycles: 99741791 heartbeat IPC: 3.413 cumulative IPC: 2.637 (Simulation time: 00 hr 37 min 57 sec)
Heartbeat CPU 0 instructions: 290000002 cycles: 102740174 heartbeat IPC: 3.335 cumulative IPC: 2.661 (Simulation time: 00 hr 38 min 52 sec)
Heartbeat CPU 0 instructions: 300000003 cycles: 105703550 heartbeat IPC: 3.375 cumulative IPC: 2.683 (Simulation time: 00 hr 39 min 48 sec)
Heartbeat CPU 0 instructions: 310000001 cycles: 108806237 heartbeat IPC: 3.223 cumulative IPC: 2.701 (Simulation time: 00 hr 40 min 41 sec)
Heartbeat CPU 0 instructions: 320000003 cycles: 111868270 heartbeat IPC: 3.266 cumulative IPC: 2.718 (Simulation time: 00 hr 41 min 35 sec)
Heartbeat CPU 0 instructions: 330000003 cycles: 114938178 heartbeat IPC: 3.257 cumulative IPC: 2.734 (Simulation time: 00 hr 42 min 28 sec)
Heartbeat CPU 0 instructions: 340000000 cycles: 124269246 heartbeat IPC: 1.072 cumulative IPC: 2.595 (Simulation time: 00 hr 44 min 09 sec)
Heartbeat CPU 0 instructions: 350000000 cycles: 133768813 heartbeat IPC: 1.053 cumulative IPC: 2.475 (Simulation time: 00 hr 45 min 47 sec)
Heartbeat CPU 0 instructions: 360000004 cycles: 143067940 heartbeat IPC: 1.075 cumulative IPC: 2.375 (Simulation time: 00 hr 47 min 28 sec)
Heartbeat CPU 0 instructions: 370000000 cycles: 146073683 heartbeat IPC: 3.327 cumulative IPC: 2.396 (Simulation time: 00 hr 48 min 21 sec)
Heartbeat CPU 0 instructions: 380000003 cycles: 149043334 heartbeat IPC: 3.367 cumulative IPC: 2.417 (Simulation time: 00 hr 49 min 13 sec)
Heartbeat CPU 0 instructions: 390000002 cycles: 152054743 heartbeat IPC: 3.321 cumulative IPC: 2.437 (Simulation time: 00 hr 50 min 08 sec)
Heartbeat CPU 0 instructions: 400000004 cycles: 154974039 heartbeat IPC: 3.425 cumulative IPC: 2.457 (Simulation time: 00 hr 51 min 05 sec)
Heartbeat CPU 0 instructions: 410000002 cycles: 157967762 heartbeat IPC: 3.34 cumulative IPC: 2.475 (Simulation time: 00 hr 52 min 00 sec)
Heartbeat CPU 0 instructions: 420000003 cycles: 161193989 heartbeat IPC: 3.1 cumulative IPC: 2.489 (Simulation time: 00 hr 52 min 57 sec)
Heartbeat CPU 0 instructions: 430000001 cycles: 164245804 heartbeat IPC: 3.277 cumulative IPC: 2.505 (Simulation time: 00 hr 53 min 54 sec)
Heartbeat CPU 0 instructions: 440000004 cycles: 167428788 heartbeat IPC: 3.142 cumulative IPC: 2.518 (Simulation time: 00 hr 54 min 52 sec)
Heartbeat CPU 0 instructions: 450000002 cycles: 170394627 heartbeat IPC: 3.372 cumulative IPC: 2.534 (Simulation time: 00 hr 55 min 47 sec)
Heartbeat CPU 0 instructions: 460000000 cycles: 173366189 heartbeat IPC: 3.365 cumulative IPC: 2.549 (Simulation time: 00 hr 56 min 41 sec)
Heartbeat CPU 0 instructions: 470000001 cycles: 176254843 heartbeat IPC: 3.462 cumulative IPC: 2.565 (Simulation time: 00 hr 57 min 37 sec)
Heartbeat CPU 0 instructions: 480000003 cycles: 179374439 heartbeat IPC: 3.206 cumulative IPC: 2.577 (Simulation time: 00 hr 58 min 34 sec)
Heartbeat CPU 0 instructions: 490000004 cycles: 182232227 heartbeat IPC: 3.499 cumulative IPC: 2.593 (Simulation time: 00 hr 59 min 28 sec)
Heartbeat CPU 0 instructions: 500000004 cycles: 185242072 heartbeat IPC: 3.322 cumulative IPC: 2.606 (Simulation time: 01 hr 00 min 21 sec)
Heartbeat CPU 0 instructions: 510000003 cycles: 188353939 heartbeat IPC: 3.214 cumulative IPC: 2.616 (Simulation time: 01 hr 01 min 19 sec)
Heartbeat CPU 0 instructions: 520000001 cycles: 191288585 heartbeat IPC: 3.408 cumulative IPC: 2.629 (Simulation time: 01 hr 02 min 20 sec)
Heartbeat CPU 0 instructions: 530000001 cycles: 194363734 heartbeat IPC: 3.252 cumulative IPC: 2.64 (Simulation time: 01 hr 03 min 15 sec)
Heartbeat CPU 0 instructions: 540000000 cycles: 197352982 heartbeat IPC: 3.345 cumulative IPC: 2.651 (Simulation time: 01 hr 04 min 09 sec)
Heartbeat CPU 0 instructions: 550000001 cycles: 200364937 heartbeat IPC: 3.32 cumulative IPC: 2.662 (Simulation time: 01 hr 05 min 03 sec)
Heartbeat CPU 0 instructions: 560000000 cycles: 203592908 heartbeat IPC: 3.098 cumulative IPC: 2.669 (Simulation time: 01 hr 05 min 59 sec)
Heartbeat CPU 0 instructions: 570000004 cycles: 209177503 heartbeat IPC: 1.791 cumulative IPC: 2.644 (Simulation time: 01 hr 07 min 11 sec)
Heartbeat CPU 0 instructions: 580000003 cycles: 219615480 heartbeat IPC: 0.958 cumulative IPC: 2.559 (Simulation time: 01 hr 08 min 55 sec)
Heartbeat CPU 0 instructions: 590000002 cycles: 231676271 heartbeat IPC: 0.8291 cumulative IPC: 2.464 (Simulation time: 01 hr 10 min 50 sec)
Heartbeat CPU 0 instructions: 600000004 cycles: 234793436 heartbeat IPC: 3.208 cumulative IPC: 2.475 (Simulation time: 01 hr 11 min 45 sec)
Heartbeat CPU 0 instructions: 610000002 cycles: 237791706 heartbeat IPC: 3.335 cumulative IPC: 2.486 (Simulation time: 01 hr 12 min 40 sec)
Heartbeat CPU 0 instructions: 620000001 cycles: 240588018 heartbeat IPC: 3.576 cumulative IPC: 2.499 (Simulation time: 01 hr 13 min 30 sec)
Heartbeat CPU 0 instructions: 630000002 cycles: 243593281 heartbeat IPC: 3.327 cumulative IPC: 2.51 (Simulation time: 01 hr 14 min 20 sec)
Heartbeat CPU 0 instructions: 640000004 cycles: 246556666 heartbeat IPC: 3.375 cumulative IPC: 2.521 (Simulation time: 01 hr 15 min 07 sec)
Heartbeat CPU 0 instructions: 650000000 cycles: 249320572 heartbeat IPC: 3.618 cumulative IPC: 2.534 (Simulation time: 01 hr 15 min 49 sec)
Simulation finished CPU 0 instructions: 600000001 cycles: 236783435 cumulative IPC: 2.534 (Simulation time: 01 hr 15 min 49 sec)
Simulation complete CPU 0 instructions: 600000001 cycles: 236783435 cumulative IPC: 2.534 (Simulation time: 01 hr 15 min 49 sec)

ChampSim completed all CPUs

=== Simulation ===
CPU 0 runs traces/400.perlbench-41B.champsimtrace.xz
Region of Interest Statistics

CPU 0 cumulative IPC: 2.534 instructions: 600000001 cycles: 236783435
CPU 0 Branch Prediction Accuracy: 99.19% MPKI: 1.684 Average ROB Occupancy at Mispredict: 102.3
Branch type MPKI
BRANCH_DIRECT_JUMP: 0.0123
BRANCH_INDIRECT: 0.323
BRANCH_CONDITIONAL: 1.14
BRANCH_DIRECT_CALL: 0.0043
BRANCH_INDIRECT_CALL: 0.2
BRANCH_RETURN: 0.00828

LLC TOTAL        ACCESS:     937250 HIT:     417740 MISS:     519510
LLC LOAD         ACCESS:     400334 HIT:     161720 MISS:     238614
LLC RFO          ACCESS:      32363 HIT:      14974 MISS:      17389
LLC PREFETCH     ACCESS:     400334 HIT:     160178 MISS:     240156
LLC WRITE        ACCESS:      85367 HIT:      73678 MISS:      11689
LLC TRANSLATION  ACCESS:      18852 HIT:       7190 MISS:      11662
LLC PREFETCH REQUESTED:     400334 ISSUED:     400334 USEFUL:      54977 USELESS:      46604
LLC AVERAGE MISS LATENCY: 654.2 cycles
cpu0_DTLB TOTAL        ACCESS:  129762049 HIT:  129057766 MISS:     704283
cpu0_DTLB LOAD         ACCESS:  129762049 HIT:  129057766 MISS:     704283
cpu0_DTLB RFO          ACCESS:          0 HIT:          0 MISS:          0
cpu0_DTLB PREFETCH     ACCESS:          0 HIT:          0 MISS:          0
cpu0_DTLB WRITE        ACCESS:          0 HIT:          0 MISS:          0
cpu0_DTLB TRANSLATION  ACCESS:          0 HIT:          0 MISS:          0
cpu0_DTLB PREFETCH REQUESTED:          0 ISSUED:          0 USEFUL:          0 USELESS:          0
cpu0_DTLB AVERAGE MISS LATENCY: 19.08 cycles
cpu0_ITLB TOTAL        ACCESS:    4875021 HIT:    4812781 MISS:      62240
cpu0_ITLB LOAD         ACCESS:    4875021 HIT:    4812781 MISS:      62240
cpu0_ITLB RFO          ACCESS:          0 HIT:          0 MISS:          0
cpu0_ITLB PREFETCH     ACCESS:          0 HIT:          0 MISS:          0
cpu0_ITLB WRITE        ACCESS:          0 HIT:          0 MISS:          0
cpu0_ITLB TRANSLATION  ACCESS:          0 HIT:          0 MISS:          0
cpu0_ITLB PREFETCH REQUESTED:          0 ISSUED:          0 USEFUL:          0 USELESS:          0
cpu0_ITLB AVERAGE MISS LATENCY: 7.578 cycles
cpu0_L1D TOTAL        ACCESS:  174354131 HIT:  172918973 MISS:    1435158
cpu0_L1D LOAD         ACCESS:   91333557 HIT:   90224587 MISS:    1108970
cpu0_L1D RFO          ACCESS:          0 HIT:          0 MISS:          0
cpu0_L1D PREFETCH     ACCESS:          0 HIT:          0 MISS:          0
cpu0_L1D WRITE        ACCESS:   82996117 HIT:   82692791 MISS:     303326
cpu0_L1D TRANSLATION  ACCESS:      24457 HIT:       1595 MISS:      22862
cpu0_L1D PREFETCH REQUESTED:          0 ISSUED:          0 USEFUL:          0 USELESS:          0
cpu0_L1D AVERAGE MISS LATENCY: 133.3 cycles
cpu0_L1I TOTAL        ACCESS:    5653973 HIT:    4849777 MISS:     804196
cpu0_L1I LOAD         ACCESS:    5653973 HIT:    4849777 MISS:     804196
cpu0_L1I RFO          ACCESS:          0 HIT:          0 MISS:          0
cpu0_L1I PREFETCH     ACCESS:          0 HIT:          0 MISS:          0
cpu0_L1I WRITE        ACCESS:          0 HIT:          0 MISS:          0
cpu0_L1I TRANSLATION  ACCESS:          0 HIT:          0 MISS:          0
cpu0_L1I PREFETCH REQUESTED:          0 ISSUED:          0 USEFUL:          0 USELESS:          0
cpu0_L1I AVERAGE MISS LATENCY: 15.07 cycles
cpu0_L2C TOTAL        ACCESS:    1381507 HIT:     926497 MISS:     455010
cpu0_L2C LOAD         ACCESS:    1123967 HIT:     723632 MISS:     400335
cpu0_L2C RFO          ACCESS:      64537 HIT:      32174 MISS:      32363
cpu0_L2C PREFETCH     ACCESS:          0 HIT:          0 MISS:          0
cpu0_L2C WRITE        ACCESS:     170223 HIT:     166763 MISS:       3460
cpu0_L2C TRANSLATION  ACCESS:      22780 HIT:       3928 MISS:      18852
cpu0_L2C PREFETCH REQUESTED:          0 ISSUED:          0 USEFUL:          0 USELESS:          0
cpu0_L2C AVERAGE MISS LATENCY: 452.8 cycles
cpu0_STLB TOTAL        ACCESS:     508967 HIT:     486182 MISS:      22785
cpu0_STLB LOAD         ACCESS:     508967 HIT:     486182 MISS:      22785
cpu0_STLB RFO          ACCESS:          0 HIT:          0 MISS:          0
cpu0_STLB PREFETCH     ACCESS:          0 HIT:          0 MISS:          0
cpu0_STLB WRITE        ACCESS:          0 HIT:          0 MISS:          0
cpu0_STLB TRANSLATION  ACCESS:          0 HIT:          0 MISS:          0
cpu0_STLB PREFETCH REQUESTED:          0 ISSUED:          0 USEFUL:          0 USELESS:          0
cpu0_STLB AVERAGE MISS LATENCY: 496.1 cycles

DRAM Statistics

Channel 0 RQ ROW_BUFFER_HIT:      89865
  ROW_BUFFER_MISS:     336263
 AVG DBUS CONGESTED CYCLE: 3.896
WQ ROW_BUFFER_HIT: Channel 0 
  ROW_BUFFER_MISS:       4306
  FULL:      41501
