WARNING: physical memory size is smaller than virtual memory size.

*** ChampSim Multicore Out-of-Order Simulator ***
Warmup Instructions: 50000000
Simulation Instructions: 600000000
Number of CPUs: 1
Page size: 4096

CPU 0 Tage branch predictor
Off-chip DRAM Size: 4 GiB Channels: 1 Width: 64-bit Data Race: 3200 MT/s
Heartbeat CPU 0 instructions: 10000001 cycles: 2500318 heartbeat IPC: 3.999 cumulative IPC: 3.999 (Simulation time: 00 hr 01 min 06 sec)
Heartbeat CPU 0 instructions: 20000002 cycles: 5037131 heartbeat IPC: 3.942 cumulative IPC: 3.971 (Simulation time: 00 hr 02 min 19 sec)
Heartbeat CPU 0 instructions: 30000002 cycles: 7537131 heartbeat IPC: 4 cumulative IPC: 3.98 (Simulation time: 00 hr 03 min 24 sec)
Heartbeat CPU 0 instructions: 40000002 cycles: 10037131 heartbeat IPC: 4 cumulative IPC: 3.985 (Simulation time: 00 hr 04 min 25 sec)
Heartbeat CPU 0 instructions: 50000002 cycles: 12537131 heartbeat IPC: 4 cumulative IPC: 3.988 (Simulation time: 00 hr 05 min 26 sec)
Warmup finished CPU 0 instructions: 50000002 cycles: 12537132 cumulative IPC: 3.988 (Simulation time: 00 hr 05 min 26 sec)
Warmup complete CPU 0 instructions: 50000002 cycles: 12537132 cumulative IPC: 3.988 (Simulation time: 00 hr 05 min 26 sec)
Heartbeat CPU 0 instructions: 60000001 cycles: 15524774 heartbeat IPC: 3.347 cumulative IPC: 3.347 (Simulation time: 00 hr 06 min 35 sec)
Heartbeat CPU 0 instructions: 70000004 cycles: 18603119 heartbeat IPC: 3.248 cumulative IPC: 3.297 (Simulation time: 00 hr 07 min 40 sec)
Heartbeat CPU 0 instructions: 80000001 cycles: 21658602 heartbeat IPC: 3.273 cumulative IPC: 3.289 (Simulation time: 00 hr 08 min 46 sec)
Heartbeat CPU 0 instructions: 90000001 cycles: 24616207 heartbeat IPC: 3.381 cumulative IPC: 3.312 (Simulation time: 00 hr 10 min 11 sec)
Heartbeat CPU 0 instructions: 100000000 cycles: 27544623 heartbeat IPC: 3.415 cumulative IPC: 3.332 (Simulation time: 00 hr 11 min 41 sec)
Heartbeat CPU 0 instructions: 110000000 cycles: 30503757 heartbeat IPC: 3.379 cumulative IPC: 3.34 (Simulation time: 00 hr 13 min 01 sec)
Heartbeat CPU 0 instructions: 120000001 cycles: 33491369 heartbeat IPC: 3.347 cumulative IPC: 3.341 (Simulation time: 00 hr 14 min 15 sec)
Heartbeat CPU 0 instructions: 130000001 cycles: 36357651 heartbeat IPC: 3.489 cumulative IPC: 3.358 (Simulation time: 00 hr 15 min 27 sec)
Heartbeat CPU 0 instructions: 140000001 cycles: 39417263 heartbeat IPC: 3.268 cumulative IPC: 3.348 (Simulation time: 00 hr 16 min 45 sec)
Heartbeat CPU 0 instructions: 150000001 cycles: 42441266 heartbeat IPC: 3.307 cumulative IPC: 3.344 (Simulation time: 00 hr 18 min 01 sec)
Heartbeat CPU 0 instructions: 160000004 cycles: 45473028 heartbeat IPC: 3.298 cumulative IPC: 3.34 (Simulation time: 00 hr 19 min 13 sec)
Heartbeat CPU 0 instructions: 170000000 cycles: 52341341 heartbeat IPC: 1.456 cumulative IPC: 3.015 (Simulation time: 00 hr 20 min 59 sec)
Heartbeat CPU 0 instructions: 180000004 cycles: 59077345 heartbeat IPC: 1.485 cumulative IPC: 2.793 (Simulation time: 00 hr 22 min 48 sec)
Heartbeat CPU 0 instructions: 190000001 cycles: 67515457 heartbeat IPC: 1.185 cumulative IPC: 2.546 (Simulation time: 00 hr 25 min 14 sec)
Heartbeat CPU 0 instructions: 200000004 cycles: 70474068 heartbeat IPC: 3.38 cumulative IPC: 2.589 (Simulation time: 00 hr 26 min 31 sec)
Heartbeat CPU 0 instructions: 210000001 cycles: 73427524 heartbeat IPC: 3.386 cumulative IPC: 2.628 (Simulation time: 00 hr 27 min 44 sec)
Heartbeat CPU 0 instructions: 220000000 cycles: 76317051 heartbeat IPC: 3.461 cumulative IPC: 2.665 (Simulation time: 00 hr 28 min 56 sec)
Heartbeat CPU 0 instructions: 230000002 cycles: 79329908 heartbeat IPC: 3.319 cumulative IPC: 2.695 (Simulation time: 00 hr 30 min 11 sec)
Heartbeat CPU 0 instructions: 240000003 cycles: 82358693 heartbeat IPC: 3.302 cumulative IPC: 2.721 (Simulation time: 00 hr 31 min 28 sec)
Heartbeat CPU 0 instructions: 250000000 cycles: 85370455 heartbeat IPC: 3.32 cumulative IPC: 2.746 (Simulation time: 00 hr 32 min 41 sec)
Heartbeat CPU 0 instructions: 260000002 cycles: 88336034 heartbeat IPC: 3.372 cumulative IPC: 2.77 (Simulation time: 00 hr 33 min 52 sec)
Heartbeat CPU 0 instructions: 270000002 cycles: 91250655 heartbeat IPC: 3.431 cumulative IPC: 2.795 (Simulation time: 00 hr 35 min 05 sec)
Heartbeat CPU 0 instructions: 280000002 cycles: 94131017 heartbeat IPC: 3.472 cumulative IPC: 2.819 (Simulation time: 00 hr 36 min 36 sec)
Heartbeat CPU 0 instructions: 290000002 cycles: 97088821 heartbeat IPC: 3.381 cumulative IPC: 2.839 (Simulation time: 00 hr 38 min 03 sec)
Heartbeat CPU 0 instructions: 300000003 cycles: 99975615 heartbeat IPC: 3.464 cumulative IPC: 2.859 (Simulation time: 00 hr 39 min 23 sec)
Heartbeat CPU 0 instructions: 310000001 cycles: 102996372 heartbeat IPC: 3.31 cumulative IPC: 2.874 (Simulation time: 00 hr 40 min 36 sec)
Heartbeat CPU 0 instructions: 320000003 cycles: 105995282 heartbeat IPC: 3.335 cumulative IPC: 2.889 (Simulation time: 00 hr 41 min 53 sec)
Heartbeat CPU 0 instructions: 330000003 cycles: 108984024 heartbeat IPC: 3.346 cumulative IPC: 2.903 (Simulation time: 00 hr 43 min 10 sec)
Heartbeat CPU 0 instructions: 340000000 cycles: 115972933 heartbeat IPC: 1.431 cumulative IPC: 2.804 (Simulation time: 00 hr 45 min 00 sec)
Heartbeat CPU 0 instructions: 350000000 cycles: 122928866 heartbeat IPC: 1.438 cumulative IPC: 2.718 (Simulation time: 00 hr 46 min 46 sec)
Heartbeat CPU 0 instructions: 360000004 cycles: 131103578 heartbeat IPC: 1.223 cumulative IPC: 2.615 (Simulation time: 00 hr 49 min 11 sec)
Heartbeat CPU 0 instructions: 370000000 cycles: 134068047 heartbeat IPC: 3.373 cumulative IPC: 2.633 (Simulation time: 00 hr 50 min 38 sec)
Heartbeat CPU 0 instructions: 380000003 cycles: 136982699 heartbeat IPC: 3.431 cumulative IPC: 2.652 (Simulation time: 00 hr 51 min 56 sec)
Heartbeat CPU 0 instructions: 390000002 cycles: 139958329 heartbeat IPC: 3.361 cumulative IPC: 2.668 (Simulation time: 00 hr 53 min 09 sec)
Heartbeat CPU 0 instructions: 400000004 cycles: 142858435 heartbeat IPC: 3.448 cumulative IPC: 2.686 (Simulation time: 00 hr 54 min 22 sec)
Heartbeat CPU 0 instructions: 410000002 cycles: 145793888 heartbeat IPC: 3.407 cumulative IPC: 2.702 (Simulation time: 00 hr 55 min 34 sec)
Heartbeat CPU 0 instructions: 420000003 cycles: 148886973 heartbeat IPC: 3.233 cumulative IPC: 2.714 (Simulation time: 00 hr 56 min 44 sec)
Heartbeat CPU 0 instructions: 430000001 cycles: 151906172 heartbeat IPC: 3.312 cumulative IPC: 2.727 (Simulation time: 00 hr 57 min 52 sec)
Heartbeat CPU 0 instructions: 440000004 cycles: 155036353 heartbeat IPC: 3.195 cumulative IPC: 2.737 (Simulation time: 00 hr 58 min 58 sec)
Heartbeat CPU 0 instructions: 450000002 cycles: 157957202 heartbeat IPC: 3.424 cumulative IPC: 2.751 (Simulation time: 01 hr 00 min 02 sec)
Heartbeat CPU 0 instructions: 460000000 cycles: 160891344 heartbeat IPC: 3.408 cumulative IPC: 2.764 (Simulation time: 01 hr 01 min 18 sec)
Heartbeat CPU 0 instructions: 470000001 cycles: 163744788 heartbeat IPC: 3.505 cumulative IPC: 2.778 (Simulation time: 01 hr 02 min 52 sec)
Heartbeat CPU 0 instructions: 480000003 cycles: 166817164 heartbeat IPC: 3.255 cumulative IPC: 2.787 (Simulation time: 01 hr 04 min 18 sec)
Heartbeat CPU 0 instructions: 490000004 cycles: 169641487 heartbeat IPC: 3.541 cumulative IPC: 2.801 (Simulation time: 01 hr 05 min 34 sec)
Heartbeat CPU 0 instructions: 500000004 cycles: 172626029 heartbeat IPC: 3.351 cumulative IPC: 2.811 (Simulation time: 01 hr 06 min 47 sec)
Heartbeat CPU 0 instructions: 510000003 cycles: 175668845 heartbeat IPC: 3.286 cumulative IPC: 2.82 (Simulation time: 01 hr 08 min 05 sec)
Heartbeat CPU 0 instructions: 520000001 cycles: 178548596 heartbeat IPC: 3.473 cumulative IPC: 2.831 (Simulation time: 01 hr 09 min 21 sec)
Heartbeat CPU 0 instructions: 530000001 cycles: 181564326 heartbeat IPC: 3.316 cumulative IPC: 2.84 (Simulation time: 01 hr 10 min 33 sec)
Heartbeat CPU 0 instructions: 540000000 cycles: 184515212 heartbeat IPC: 3.389 cumulative IPC: 2.849 (Simulation time: 01 hr 11 min 44 sec)
Heartbeat CPU 0 instructions: 550000001 cycles: 187495755 heartbeat IPC: 3.355 cumulative IPC: 2.858 (Simulation time: 01 hr 12 min 53 sec)
Heartbeat CPU 0 instructions: 560000000 cycles: 190610522 heartbeat IPC: 3.211 cumulative IPC: 2.864 (Simulation time: 01 hr 14 min 09 sec)
Heartbeat CPU 0 instructions: 570000004 cycles: 195718521 heartbeat IPC: 1.958 cumulative IPC: 2.839 (Simulation time: 01 hr 16 min 11 sec)
Heartbeat CPU 0 instructions: 580000003 cycles: 202734887 heartbeat IPC: 1.425 cumulative IPC: 2.787 (Simulation time: 01 hr 18 min 23 sec)
Heartbeat CPU 0 instructions: 590000002 cycles: 212922156 heartbeat IPC: 0.9816 cumulative IPC: 2.695 (Simulation time: 01 hr 20 min 48 sec)
Heartbeat CPU 0 instructions: 600000004 cycles: 216005725 heartbeat IPC: 3.243 cumulative IPC: 2.703 (Simulation time: 01 hr 22 min 09 sec)
Heartbeat CPU 0 instructions: 610000002 cycles: 218967526 heartbeat IPC: 3.376 cumulative IPC: 2.713 (Simulation time: 01 hr 23 min 22 sec)
Heartbeat CPU 0 instructions: 620000001 cycles: 221736773 heartbeat IPC: 3.611 cumulative IPC: 2.725 (Simulation time: 01 hr 24 min 28 sec)
Heartbeat CPU 0 instructions: 630000002 cycles: 224703472 heartbeat IPC: 3.371 cumulative IPC: 2.734 (Simulation time: 01 hr 25 min 41 sec)
Heartbeat CPU 0 instructions: 640000004 cycles: 227653070 heartbeat IPC: 3.39 cumulative IPC: 2.743 (Simulation time: 01 hr 26 min 52 sec)
Heartbeat CPU 0 instructions: 650000000 cycles: 230402291 heartbeat IPC: 3.637 cumulative IPC: 2.754 (Simulation time: 01 hr 28 min 19 sec)
Simulation finished CPU 0 instructions: 600000001 cycles: 217865161 cumulative IPC: 2.754 (Simulation time: 01 hr 28 min 19 sec)
Simulation complete CPU 0 instructions: 600000001 cycles: 217865161 cumulative IPC: 2.754 (Simulation time: 01 hr 28 min 19 sec)

ChampSim completed all CPUs

=== Simulation ===
CPU 0 runs traces/400.perlbench-41B.champsimtrace.xz
Region of Interest Statistics

CPU 0 cumulative IPC: 2.754 instructions: 600000001 cycles: 217865161
CPU 0 Branch Prediction Accuracy: 99.19% MPKI: 1.684 Average ROB Occupancy at Mispredict: 102.1
Branch type MPKI
BRANCH_DIRECT_JUMP: 0.0123
BRANCH_INDIRECT: 0.323
BRANCH_CONDITIONAL: 1.14
BRANCH_DIRECT_CALL: 0.0043
BRANCH_INDIRECT_CALL: 0.2
BRANCH_RETURN: 0.00828

LLC TOTAL        ACCESS:     592846 HIT:     348651 MISS:     244195
LLC LOAD         ACCESS:     402477 HIT:     220105 MISS:     182372
LLC RFO          ACCESS:      32374 HIT:      17054 MISS:      15320
LLC PREFETCH     ACCESS:      53392 HIT:      42493 MISS:      10899
LLC WRITE        ACCESS:      85722 HIT:      63983 MISS:      21739
LLC TRANSLATION  ACCESS:      18881 HIT:       5016 MISS:      13865
LLC PREFETCH REQUESTED:      53392 ISSUED:      53392 USEFUL:       3954 USELESS:       5843
LLC AVERAGE MISS LATENCY: 561.3 cycles
cpu0_DTLB TOTAL        ACCESS:  129753038 HIT:  129048044 MISS:     704994
cpu0_DTLB LOAD         ACCESS:  129753038 HIT:  129048044 MISS:     704994
cpu0_DTLB RFO          ACCESS:          0 HIT:          0 MISS:          0
cpu0_DTLB PREFETCH     ACCESS:          0 HIT:          0 MISS:          0
cpu0_DTLB WRITE        ACCESS:          0 HIT:          0 MISS:          0
cpu0_DTLB TRANSLATION  ACCESS:          0 HIT:          0 MISS:          0
cpu0_DTLB PREFETCH REQUESTED:          0 ISSUED:          0 USEFUL:          0 USELESS:          0
cpu0_DTLB AVERAGE MISS LATENCY: 17.89 cycles
cpu0_ITLB TOTAL        ACCESS:    4882448 HIT:    4820241 MISS:      62207
cpu0_ITLB LOAD         ACCESS:    4882448 HIT:    4820241 MISS:      62207
cpu0_ITLB RFO          ACCESS:          0 HIT:          0 MISS:          0
cpu0_ITLB PREFETCH     ACCESS:          0 HIT:          0 MISS:          0
cpu0_ITLB WRITE        ACCESS:          0 HIT:          0 MISS:          0
cpu0_ITLB TRANSLATION  ACCESS:          0 HIT:          0 MISS:          0
cpu0_ITLB PREFETCH REQUESTED:          0 ISSUED:          0 USEFUL:          0 USELESS:          0
cpu0_ITLB AVERAGE MISS LATENCY: 6.417 cycles
cpu0_L1D TOTAL        ACCESS:  174351337 HIT:  172960581 MISS:    1390756
cpu0_L1D LOAD         ACCESS:   91328040 HIT:   90261072 MISS:    1066968
cpu0_L1D RFO          ACCESS:          0 HIT:          0 MISS:          0
cpu0_L1D PREFETCH     ACCESS:          0 HIT:          0 MISS:          0
cpu0_L1D WRITE        ACCESS:   82998836 HIT:   82697914 MISS:     300922
cpu0_L1D TRANSLATION  ACCESS:      24461 HIT:       1595 MISS:      22866
cpu0_L1D PREFETCH REQUESTED:          0 ISSUED:          0 USEFUL:          0 USELESS:          0
cpu0_L1D AVERAGE MISS LATENCY: 96.56 cycles
cpu0_L1I TOTAL        ACCESS:    5661004 HIT:    4856168 MISS:     804836
cpu0_L1I LOAD         ACCESS:    5661004 HIT:    4856168 MISS:     804836
cpu0_L1I RFO          ACCESS:          0 HIT:          0 MISS:          0
cpu0_L1I PREFETCH     ACCESS:          0 HIT:          0 MISS:          0
cpu0_L1I WRITE        ACCESS:          0 HIT:          0 MISS:          0
cpu0_L1I TRANSLATION  ACCESS:          0 HIT:          0 MISS:          0
cpu0_L1I PREFETCH REQUESTED:          0 ISSUED:          0 USEFUL:          0 USELESS:          0
cpu0_L1I AVERAGE MISS LATENCY: 9.757 cycles
cpu0_L2C TOTAL        ACCESS:    1381495 HIT:     924027 MISS:     457468
cpu0_L2C LOAD         ACCESS:    1123981 HIT:     721503 MISS:     402478
cpu0_L2C RFO          ACCESS:      64505 HIT:      32131 MISS:      32374
cpu0_L2C PREFETCH     ACCESS:          0 HIT:          0 MISS:          0
cpu0_L2C WRITE        ACCESS:     170234 HIT:     166499 MISS:       3735
cpu0_L2C TRANSLATION  ACCESS:      22775 HIT:       3894 MISS:      18881
cpu0_L2C PREFETCH REQUESTED:          0 ISSUED:          0 USEFUL:          0 USELESS:          0
cpu0_L2C AVERAGE MISS LATENCY: 303.3 cycles
cpu0_STLB TOTAL        ACCESS:     508911 HIT:     486127 MISS:      22784
cpu0_STLB LOAD         ACCESS:     508911 HIT:     486127 MISS:      22784
cpu0_STLB RFO          ACCESS:          0 HIT:          0 MISS:          0
cpu0_STLB PREFETCH     ACCESS:          0 HIT:          0 MISS:          0
cpu0_STLB WRITE        ACCESS:          0 HIT:          0 MISS:          0
cpu0_STLB TRANSLATION  ACCESS:          0 HIT:          0 MISS:          0
cpu0_STLB PREFETCH REQUESTED:          0 ISSUED:          0 USEFUL:          0 USELESS:          0
cpu0_STLB AVERAGE MISS LATENCY: 456.4 cycles

DRAM Statistics

Channel 0 RQ ROW_BUFFER_HIT:      40411
  ROW_BUFFER_MISS:     180369
 AVG DBUS CONGESTED CYCLE: 3.828
WQ ROW_BUFFER_HIT: Channel 0 
  ROW_BUFFER_MISS:       6980
  FULL:      24692
