WARNING: physical memory size is smaller than virtual memory size.

*** ChampSim Multicore Out-of-Order Simulator ***
Warmup Instructions: 50000000
Simulation Instructions: 600000000
Number of CPUs: 1
Page size: 4096

Off-chip DRAM Size: 4 GiB Channels: 1 Width: 64-bit Data Race: 3200 MT/s
Heartbeat CPU 0 instructions: 10000000 cycles: 2500061 heartbeat IPC: 4 cumulative IPC: 4 (Simulation time: 00 hr 00 min 35 sec)
Heartbeat CPU 0 instructions: 20000000 cycles: 5000061 heartbeat IPC: 4 cumulative IPC: 4 (Simulation time: 00 hr 01 min 13 sec)
Heartbeat CPU 0 instructions: 30000000 cycles: 7500061 heartbeat IPC: 4 cumulative IPC: 4 (Simulation time: 00 hr 01 min 52 sec)
Heartbeat CPU 0 instructions: 40000000 cycles: 10000061 heartbeat IPC: 4 cumulative IPC: 4 (Simulation time: 00 hr 02 min 39 sec)
Heartbeat CPU 0 instructions: 50000000 cycles: 12500061 heartbeat IPC: 4 cumulative IPC: 4 (Simulation time: 00 hr 03 min 34 sec)
Warmup finished CPU 0 instructions: 50000000 cycles: 12500062 cumulative IPC: 4 (Simulation time: 00 hr 03 min 34 sec)
Warmup complete CPU 0 instructions: 50000000 cycles: 12500062 cumulative IPC: 4 (Simulation time: 00 hr 03 min 34 sec)
Heartbeat CPU 0 instructions: 60000002 cycles: 16446270 heartbeat IPC: 2.534 cumulative IPC: 2.534 (Simulation time: 00 hr 04 min 47 sec)
Heartbeat CPU 0 instructions: 70000003 cycles: 20769583 heartbeat IPC: 2.313 cumulative IPC: 2.419 (Simulation time: 00 hr 06 min 04 sec)
Heartbeat CPU 0 instructions: 80000003 cycles: 25245871 heartbeat IPC: 2.234 cumulative IPC: 2.354 (Simulation time: 00 hr 07 min 19 sec)
Heartbeat CPU 0 instructions: 90000000 cycles: 28938083 heartbeat IPC: 2.708 cumulative IPC: 2.433 (Simulation time: 00 hr 08 min 24 sec)
Heartbeat CPU 0 instructions: 100000003 cycles: 32841676 heartbeat IPC: 2.562 cumulative IPC: 2.458 (Simulation time: 00 hr 09 min 29 sec)
Heartbeat CPU 0 instructions: 110000002 cycles: 36947590 heartbeat IPC: 2.436 cumulative IPC: 2.454 (Simulation time: 00 hr 10 min 33 sec)
Heartbeat CPU 0 instructions: 120000001 cycles: 40666269 heartbeat IPC: 2.689 cumulative IPC: 2.485 (Simulation time: 00 hr 11 min 38 sec)
Heartbeat CPU 0 instructions: 130000003 cycles: 44442573 heartbeat IPC: 2.648 cumulative IPC: 2.504 (Simulation time: 00 hr 12 min 41 sec)
Heartbeat CPU 0 instructions: 140000002 cycles: 48577225 heartbeat IPC: 2.419 cumulative IPC: 2.495 (Simulation time: 00 hr 13 min 47 sec)
Heartbeat CPU 0 instructions: 150000001 cycles: 52630564 heartbeat IPC: 2.467 cumulative IPC: 2.492 (Simulation time: 00 hr 14 min 49 sec)
Heartbeat CPU 0 instructions: 160000000 cycles: 56289638 heartbeat IPC: 2.733 cumulative IPC: 2.512 (Simulation time: 00 hr 15 min 47 sec)
Heartbeat CPU 0 instructions: 170000001 cycles: 60469935 heartbeat IPC: 2.392 cumulative IPC: 2.502 (Simulation time: 00 hr 16 min 47 sec)
Heartbeat CPU 0 instructions: 180000001 cycles: 63934708 heartbeat IPC: 2.886 cumulative IPC: 2.527 (Simulation time: 00 hr 17 min 44 sec)
Heartbeat CPU 0 instructions: 190000002 cycles: 67525581 heartbeat IPC: 2.785 cumulative IPC: 2.544 (Simulation time: 00 hr 18 min 40 sec)
Heartbeat CPU 0 instructions: 200000002 cycles: 71310535 heartbeat IPC: 2.642 cumulative IPC: 2.551 (Simulation time: 00 hr 19 min 39 sec)
Heartbeat CPU 0 instructions: 210000000 cycles: 74952388 heartbeat IPC: 2.746 cumulative IPC: 2.562 (Simulation time: 00 hr 20 min 36 sec)
Heartbeat CPU 0 instructions: 220000001 cycles: 78825416 heartbeat IPC: 2.582 cumulative IPC: 2.563 (Simulation time: 00 hr 21 min 33 sec)
Heartbeat CPU 0 instructions: 230000002 cycles: 82669327 heartbeat IPC: 2.602 cumulative IPC: 2.565 (Simulation time: 00 hr 22 min 31 sec)
Heartbeat CPU 0 instructions: 240000001 cycles: 86880534 heartbeat IPC: 2.375 cumulative IPC: 2.554 (Simulation time: 00 hr 23 min 32 sec)
Heartbeat CPU 0 instructions: 250000003 cycles: 91453270 heartbeat IPC: 2.187 cumulative IPC: 2.533 (Simulation time: 00 hr 24 min 32 sec)
Heartbeat CPU 0 instructions: 260000000 cycles: 95250377 heartbeat IPC: 2.634 cumulative IPC: 2.538 (Simulation time: 00 hr 25 min 28 sec)
Heartbeat CPU 0 instructions: 270000003 cycles: 102486923 heartbeat IPC: 1.382 cumulative IPC: 2.445 (Simulation time: 00 hr 26 min 51 sec)
Heartbeat CPU 0 instructions: 280000000 cycles: 114108728 heartbeat IPC: 0.8605 cumulative IPC: 2.264 (Simulation time: 00 hr 28 min 46 sec)
Heartbeat CPU 0 instructions: 290000000 cycles: 124432868 heartbeat IPC: 0.9686 cumulative IPC: 2.144 (Simulation time: 00 hr 30 min 31 sec)
Heartbeat CPU 0 instructions: 300000003 cycles: 131895205 heartbeat IPC: 1.34 cumulative IPC: 2.094 (Simulation time: 00 hr 32 min 04 sec)
Heartbeat CPU 0 instructions: 310000004 cycles: 142890585 heartbeat IPC: 0.9095 cumulative IPC: 1.994 (Simulation time: 00 hr 34 min 35 sec)
Heartbeat CPU 0 instructions: 320000004 cycles: 147944564 heartbeat IPC: 1.979 cumulative IPC: 1.993 (Simulation time: 00 hr 36 min 00 sec)
Heartbeat CPU 0 instructions: 330000000 cycles: 152023804 heartbeat IPC: 2.451 cumulative IPC: 2.007 (Simulation time: 00 hr 37 min 11 sec)
Heartbeat CPU 0 instructions: 340000001 cycles: 156371112 heartbeat IPC: 2.3 cumulative IPC: 2.016 (Simulation time: 00 hr 38 min 21 sec)
Heartbeat CPU 0 instructions: 350000004 cycles: 160856302 heartbeat IPC: 2.23 cumulative IPC: 2.022 (Simulation time: 00 hr 39 min 30 sec)
Heartbeat CPU 0 instructions: 360000003 cycles: 165027814 heartbeat IPC: 2.397 cumulative IPC: 2.032 (Simulation time: 00 hr 40 min 34 sec)
Heartbeat CPU 0 instructions: 370000001 cycles: 169096795 heartbeat IPC: 2.458 cumulative IPC: 2.043 (Simulation time: 00 hr 41 min 39 sec)
Heartbeat CPU 0 instructions: 380000004 cycles: 173019781 heartbeat IPC: 2.549 cumulative IPC: 2.056 (Simulation time: 00 hr 42 min 45 sec)
Heartbeat CPU 0 instructions: 390000002 cycles: 177143076 heartbeat IPC: 2.425 cumulative IPC: 2.065 (Simulation time: 00 hr 43 min 52 sec)
Heartbeat CPU 0 instructions: 400000000 cycles: 181549566 heartbeat IPC: 2.269 cumulative IPC: 2.07 (Simulation time: 00 hr 45 min 09 sec)
Heartbeat CPU 0 instructions: 410000000 cycles: 189577527 heartbeat IPC: 1.246 cumulative IPC: 2.033 (Simulation time: 00 hr 47 min 23 sec)
Heartbeat CPU 0 instructions: 420000003 cycles: 201192841 heartbeat IPC: 0.8609 cumulative IPC: 1.961 (Simulation time: 00 hr 49 min 52 sec)
Heartbeat CPU 0 instructions: 430000000 cycles: 209183157 heartbeat IPC: 1.252 cumulative IPC: 1.932 (Simulation time: 00 hr 51 min 40 sec)
Heartbeat CPU 0 instructions: 440000004 cycles: 215981452 heartbeat IPC: 1.471 cumulative IPC: 1.917 (Simulation time: 00 hr 53 min 11 sec)
Heartbeat CPU 0 instructions: 450000000 cycles: 222845916 heartbeat IPC: 1.457 cumulative IPC: 1.902 (Simulation time: 00 hr 54 min 39 sec)
Heartbeat CPU 0 instructions: 460000002 cycles: 233769053 heartbeat IPC: 0.9155 cumulative IPC: 1.853 (Simulation time: 00 hr 56 min 34 sec)
Heartbeat CPU 0 instructions: 470000003 cycles: 243385923 heartbeat IPC: 1.04 cumulative IPC: 1.819 (Simulation time: 00 hr 58 min 31 sec)
Heartbeat CPU 0 instructions: 480000003 cycles: 247695234 heartbeat IPC: 2.321 cumulative IPC: 1.828 (Simulation time: 01 hr 00 min 01 sec)
Heartbeat CPU 0 instructions: 490000001 cycles: 252468520 heartbeat IPC: 2.095 cumulative IPC: 1.834 (Simulation time: 01 hr 01 min 29 sec)
Heartbeat CPU 0 instructions: 500000002 cycles: 256965599 heartbeat IPC: 2.224 cumulative IPC: 1.841 (Simulation time: 01 hr 02 min 48 sec)
Heartbeat CPU 0 instructions: 510000000 cycles: 261261920 heartbeat IPC: 2.328 cumulative IPC: 1.849 (Simulation time: 01 hr 04 min 00 sec)
Heartbeat CPU 0 instructions: 520000000 cycles: 265755196 heartbeat IPC: 2.226 cumulative IPC: 1.856 (Simulation time: 01 hr 05 min 12 sec)
Heartbeat CPU 0 instructions: 530000001 cycles: 277824833 heartbeat IPC: 0.8285 cumulative IPC: 1.809 (Simulation time: 01 hr 07 min 26 sec)
Heartbeat CPU 0 instructions: 540000000 cycles: 289552019 heartbeat IPC: 0.8527 cumulative IPC: 1.769 (Simulation time: 01 hr 09 min 44 sec)
Heartbeat CPU 0 instructions: 550000004 cycles: 302341755 heartbeat IPC: 0.7819 cumulative IPC: 1.725 (Simulation time: 01 hr 12 min 38 sec)
Heartbeat CPU 0 instructions: 560000004 cycles: 306654835 heartbeat IPC: 2.319 cumulative IPC: 1.734 (Simulation time: 01 hr 14 min 02 sec)
Heartbeat CPU 0 instructions: 570000001 cycles: 309785323 heartbeat IPC: 3.194 cumulative IPC: 1.749 (Simulation time: 01 hr 15 min 10 sec)
Heartbeat CPU 0 instructions: 580000003 cycles: 313333412 heartbeat IPC: 2.818 cumulative IPC: 1.762 (Simulation time: 01 hr 16 min 17 sec)
Heartbeat CPU 0 instructions: 590000002 cycles: 316960929 heartbeat IPC: 2.757 cumulative IPC: 1.774 (Simulation time: 01 hr 17 min 23 sec)
Heartbeat CPU 0 instructions: 600000003 cycles: 320028942 heartbeat IPC: 3.259 cumulative IPC: 1.788 (Simulation time: 01 hr 18 min 28 sec)
Heartbeat CPU 0 instructions: 610000001 cycles: 323539762 heartbeat IPC: 2.848 cumulative IPC: 1.8 (Simulation time: 01 hr 19 min 36 sec)
Heartbeat CPU 0 instructions: 620000000 cycles: 327558118 heartbeat IPC: 2.489 cumulative IPC: 1.809 (Simulation time: 01 hr 20 min 44 sec)
Heartbeat CPU 0 instructions: 630000002 cycles: 330925967 heartbeat IPC: 2.969 cumulative IPC: 1.821 (Simulation time: 01 hr 21 min 49 sec)
Heartbeat CPU 0 instructions: 640000004 cycles: 334940436 heartbeat IPC: 2.491 cumulative IPC: 1.83 (Simulation time: 01 hr 23 min 05 sec)
Heartbeat CPU 0 instructions: 650000001 cycles: 338764250 heartbeat IPC: 2.615 cumulative IPC: 1.839 (Simulation time: 01 hr 24 min 31 sec)
Simulation finished CPU 0 instructions: 600000001 cycles: 326264189 cumulative IPC: 1.839 (Simulation time: 01 hr 24 min 31 sec)
Simulation complete CPU 0 instructions: 600000001 cycles: 326264189 cumulative IPC: 1.839 (Simulation time: 01 hr 24 min 31 sec)

ChampSim completed all CPUs

=== Simulation ===
CPU 0 runs traces/400.perlbench-50B.champsimtrace.xz
Region of Interest Statistics

CPU 0 cumulative IPC: 1.839 instructions: 600000001 cycles: 326264189
CPU 0 Branch Prediction Accuracy: 96.2% MPKI: 7.839 Average ROB Occupancy at Mispredict: 43.66
Branch type MPKI
BRANCH_DIRECT_JUMP: 0.0176
BRANCH_INDIRECT: 0.38
BRANCH_CONDITIONAL: 6.99
BRANCH_DIRECT_CALL: 0.0067
BRANCH_INDIRECT_CALL: 0.431
BRANCH_RETURN: 0.0161

LLC TOTAL        ACCESS:     781843 HIT:     471876 MISS:     309967
LLC LOAD         ACCESS:     582407 HIT:     305712 MISS:     276695
LLC RFO          ACCESS:      47437 HIT:      26676 MISS:      20761
LLC PREFETCH     ACCESS:          0 HIT:          0 MISS:          0
LLC WRITE        ACCESS:     130158 HIT:     129650 MISS:        508
LLC TRANSLATION  ACCESS:      21841 HIT:       9838 MISS:      12003
LLC PREFETCH REQUESTED:          0 ISSUED:          0 USEFUL:          0 USELESS:          0
LLC AVERAGE MISS LATENCY: 548.4 cycles
cpu0_DTLB TOTAL        ACCESS:  146482690 HIT:  145178670 MISS:    1304020
cpu0_DTLB LOAD         ACCESS:  146482690 HIT:  145178670 MISS:    1304020
cpu0_DTLB RFO          ACCESS:          0 HIT:          0 MISS:          0
cpu0_DTLB PREFETCH     ACCESS:          0 HIT:          0 MISS:          0
cpu0_DTLB WRITE        ACCESS:          0 HIT:          0 MISS:          0
cpu0_DTLB TRANSLATION  ACCESS:          0 HIT:          0 MISS:          0
cpu0_DTLB PREFETCH REQUESTED:          0 ISSUED:          0 USEFUL:          0 USELESS:          0
cpu0_DTLB AVERAGE MISS LATENCY: 11.96 cycles
cpu0_ITLB TOTAL        ACCESS:    8990313 HIT:    8805742 MISS:     184571
cpu0_ITLB LOAD         ACCESS:    8990313 HIT:    8805742 MISS:     184571
cpu0_ITLB RFO          ACCESS:          0 HIT:          0 MISS:          0
cpu0_ITLB PREFETCH     ACCESS:          0 HIT:          0 MISS:          0
cpu0_ITLB WRITE        ACCESS:          0 HIT:          0 MISS:          0
cpu0_ITLB TRANSLATION  ACCESS:          0 HIT:          0 MISS:          0
cpu0_ITLB PREFETCH REQUESTED:          0 ISSUED:          0 USEFUL:          0 USELESS:          0
cpu0_ITLB AVERAGE MISS LATENCY: 3.541 cycles
cpu0_L1D TOTAL        ACCESS:  193278907 HIT:  190390414 MISS:    2888493
cpu0_L1D LOAD         ACCESS:  107432524 HIT:  105055095 MISS:    2377429
cpu0_L1D RFO          ACCESS:          0 HIT:          0 MISS:          0
cpu0_L1D PREFETCH     ACCESS:          0 HIT:          0 MISS:          0
cpu0_L1D WRITE        ACCESS:   85817863 HIT:   85333298 MISS:     484565
cpu0_L1D TRANSLATION  ACCESS:      28520 HIT:       2021 MISS:      26499
cpu0_L1D PREFETCH REQUESTED:          0 ISSUED:          0 USEFUL:          0 USELESS:          0
cpu0_L1D AVERAGE MISS LATENCY: 63.44 cycles
cpu0_L1I TOTAL        ACCESS:   10424116 HIT:    8661684 MISS:    1762432
cpu0_L1I LOAD         ACCESS:   10424116 HIT:    8661684 MISS:    1762432
cpu0_L1I RFO          ACCESS:          0 HIT:          0 MISS:          0
cpu0_L1I PREFETCH     ACCESS:          0 HIT:          0 MISS:          0
cpu0_L1I WRITE        ACCESS:          0 HIT:          0 MISS:          0
cpu0_L1I TRANSLATION  ACCESS:          0 HIT:          0 MISS:          0
cpu0_L1I PREFETCH REQUESTED:          0 ISSUED:          0 USEFUL:          0 USELESS:          0
cpu0_L1I AVERAGE MISS LATENCY: 11.88 cycles
cpu0_L2C TOTAL        ACCESS:    3232237 HIT:    2574452 MISS:     657785
cpu0_L2C LOAD         ACCESS:    2710063 HIT:    2127655 MISS:     582408
cpu0_L2C RFO          ACCESS:     133267 HIT:      85830 MISS:      47437
cpu0_L2C PREFETCH     ACCESS:          0 HIT:          0 MISS:          0
cpu0_L2C WRITE        ACCESS:     362472 HIT:     356373 MISS:       6099
cpu0_L2C TRANSLATION  ACCESS:      26435 HIT:       4594 MISS:      21841
cpu0_L2C PREFETCH REQUESTED:          0 ISSUED:          0 USEFUL:          0 USELESS:          0
cpu0_L2C AVERAGE MISS LATENCY: 278.7 cycles
cpu0_STLB TOTAL        ACCESS:    1008712 HIT:     982019 MISS:      26693
cpu0_STLB LOAD         ACCESS:    1008712 HIT:     982019 MISS:      26693
cpu0_STLB RFO          ACCESS:          0 HIT:          0 MISS:          0
cpu0_STLB PREFETCH     ACCESS:          0 HIT:          0 MISS:          0
cpu0_STLB WRITE        ACCESS:          0 HIT:          0 MISS:          0
cpu0_STLB TRANSLATION  ACCESS:          0 HIT:          0 MISS:          0
cpu0_STLB PREFETCH REQUESTED:          0 ISSUED:          0 USEFUL:          0 USELESS:          0
cpu0_STLB AVERAGE MISS LATENCY: 366.7 cycles

DRAM Statistics

Channel 0 RQ ROW_BUFFER_HIT:      55823
  ROW_BUFFER_MISS:     253584
 AVG DBUS CONGESTED CYCLE: 3.806
WQ ROW_BUFFER_HIT: Channel 0 
  ROW_BUFFER_MISS:       8815
  FULL:      39688
