WARNING: physical memory size is smaller than virtual memory size.

*** ChampSim Multicore Out-of-Order Simulator ***
Warmup Instructions: 50000000
Simulation Instructions: 600000000
Number of CPUs: 1
Page size: 4096

Off-chip DRAM Size: 4 GiB Channels: 1 Width: 64-bit Data Race: 3200 MT/s
Heartbeat CPU 0 instructions: 10000000 cycles: 2500061 heartbeat IPC: 4 cumulative IPC: 4 (Simulation time: 00 hr 01 min 01 sec)
Heartbeat CPU 0 instructions: 20000000 cycles: 5000061 heartbeat IPC: 4 cumulative IPC: 4 (Simulation time: 00 hr 02 min 00 sec)
Heartbeat CPU 0 instructions: 30000000 cycles: 7500061 heartbeat IPC: 4 cumulative IPC: 4 (Simulation time: 00 hr 03 min 03 sec)
Heartbeat CPU 0 instructions: 40000000 cycles: 10000061 heartbeat IPC: 4 cumulative IPC: 4 (Simulation time: 00 hr 04 min 02 sec)
Heartbeat CPU 0 instructions: 50000000 cycles: 12500061 heartbeat IPC: 4 cumulative IPC: 4 (Simulation time: 00 hr 05 min 04 sec)
Warmup finished CPU 0 instructions: 50000000 cycles: 12500062 cumulative IPC: 4 (Simulation time: 00 hr 05 min 04 sec)
Warmup complete CPU 0 instructions: 50000000 cycles: 12500062 cumulative IPC: 4 (Simulation time: 00 hr 05 min 04 sec)
Heartbeat CPU 0 instructions: 60000002 cycles: 16446270 heartbeat IPC: 2.534 cumulative IPC: 2.534 (Simulation time: 00 hr 06 min 25 sec)
Heartbeat CPU 0 instructions: 70000003 cycles: 20769583 heartbeat IPC: 2.313 cumulative IPC: 2.419 (Simulation time: 00 hr 07 min 42 sec)
Heartbeat CPU 0 instructions: 80000003 cycles: 25245871 heartbeat IPC: 2.234 cumulative IPC: 2.354 (Simulation time: 00 hr 09 min 08 sec)
Heartbeat CPU 0 instructions: 90000000 cycles: 28938083 heartbeat IPC: 2.708 cumulative IPC: 2.433 (Simulation time: 00 hr 10 min 24 sec)
Heartbeat CPU 0 instructions: 100000003 cycles: 32841676 heartbeat IPC: 2.562 cumulative IPC: 2.458 (Simulation time: 00 hr 11 min 47 sec)
Heartbeat CPU 0 instructions: 110000002 cycles: 36947590 heartbeat IPC: 2.436 cumulative IPC: 2.454 (Simulation time: 00 hr 13 min 27 sec)
Heartbeat CPU 0 instructions: 120000001 cycles: 40666269 heartbeat IPC: 2.689 cumulative IPC: 2.485 (Simulation time: 00 hr 15 min 06 sec)
Heartbeat CPU 0 instructions: 130000003 cycles: 44442573 heartbeat IPC: 2.648 cumulative IPC: 2.504 (Simulation time: 00 hr 16 min 44 sec)
Heartbeat CPU 0 instructions: 140000002 cycles: 48577225 heartbeat IPC: 2.419 cumulative IPC: 2.495 (Simulation time: 00 hr 18 min 29 sec)
Heartbeat CPU 0 instructions: 150000001 cycles: 52630564 heartbeat IPC: 2.467 cumulative IPC: 2.492 (Simulation time: 00 hr 20 min 14 sec)
Heartbeat CPU 0 instructions: 160000000 cycles: 56289638 heartbeat IPC: 2.733 cumulative IPC: 2.512 (Simulation time: 00 hr 21 min 57 sec)
Heartbeat CPU 0 instructions: 170000001 cycles: 60469935 heartbeat IPC: 2.392 cumulative IPC: 2.502 (Simulation time: 00 hr 23 min 22 sec)
Heartbeat CPU 0 instructions: 180000001 cycles: 63934708 heartbeat IPC: 2.886 cumulative IPC: 2.527 (Simulation time: 00 hr 24 min 10 sec)
Heartbeat CPU 0 instructions: 190000002 cycles: 67525581 heartbeat IPC: 2.785 cumulative IPC: 2.544 (Simulation time: 00 hr 24 min 58 sec)
Heartbeat CPU 0 instructions: 200000002 cycles: 71310535 heartbeat IPC: 2.642 cumulative IPC: 2.551 (Simulation time: 00 hr 25 min 47 sec)
Heartbeat CPU 0 instructions: 210000000 cycles: 74952388 heartbeat IPC: 2.746 cumulative IPC: 2.562 (Simulation time: 00 hr 26 min 35 sec)
Heartbeat CPU 0 instructions: 220000001 cycles: 78825426 heartbeat IPC: 2.582 cumulative IPC: 2.563 (Simulation time: 00 hr 27 min 23 sec)
Heartbeat CPU 0 instructions: 230000002 cycles: 82668842 heartbeat IPC: 2.602 cumulative IPC: 2.565 (Simulation time: 00 hr 28 min 11 sec)
Heartbeat CPU 0 instructions: 240000001 cycles: 86880049 heartbeat IPC: 2.375 cumulative IPC: 2.554 (Simulation time: 00 hr 29 min 02 sec)
Heartbeat CPU 0 instructions: 250000003 cycles: 91453080 heartbeat IPC: 2.187 cumulative IPC: 2.533 (Simulation time: 00 hr 29 min 57 sec)
Heartbeat CPU 0 instructions: 260000000 cycles: 95252257 heartbeat IPC: 2.632 cumulative IPC: 2.538 (Simulation time: 00 hr 30 min 48 sec)
Heartbeat CPU 0 instructions: 270000003 cycles: 102417836 heartbeat IPC: 1.396 cumulative IPC: 2.447 (Simulation time: 00 hr 32 min 04 sec)
Heartbeat CPU 0 instructions: 280000000 cycles: 113853830 heartbeat IPC: 0.8744 cumulative IPC: 2.269 (Simulation time: 00 hr 33 min 45 sec)
Heartbeat CPU 0 instructions: 290000000 cycles: 124095643 heartbeat IPC: 0.9764 cumulative IPC: 2.151 (Simulation time: 00 hr 35 min 16 sec)
Heartbeat CPU 0 instructions: 300000003 cycles: 131554144 heartbeat IPC: 1.341 cumulative IPC: 2.1 (Simulation time: 00 hr 36 min 34 sec)
Heartbeat CPU 0 instructions: 310000004 cycles: 142451300 heartbeat IPC: 0.9177 cumulative IPC: 2.001 (Simulation time: 00 hr 38 min 10 sec)
Heartbeat CPU 0 instructions: 320000004 cycles: 147522310 heartbeat IPC: 1.972 cumulative IPC: 2 (Simulation time: 00 hr 39 min 09 sec)
Heartbeat CPU 0 instructions: 330000000 cycles: 151599619 heartbeat IPC: 2.453 cumulative IPC: 2.013 (Simulation time: 00 hr 40 min 01 sec)
Heartbeat CPU 0 instructions: 340000001 cycles: 155943465 heartbeat IPC: 2.302 cumulative IPC: 2.022 (Simulation time: 00 hr 40 min 57 sec)
Heartbeat CPU 0 instructions: 350000004 cycles: 160416141 heartbeat IPC: 2.236 cumulative IPC: 2.028 (Simulation time: 00 hr 41 min 52 sec)
Heartbeat CPU 0 instructions: 360000003 cycles: 164586309 heartbeat IPC: 2.398 cumulative IPC: 2.038 (Simulation time: 00 hr 42 min 44 sec)
Heartbeat CPU 0 instructions: 370000001 cycles: 168641041 heartbeat IPC: 2.466 cumulative IPC: 2.049 (Simulation time: 00 hr 43 min 36 sec)
Heartbeat CPU 0 instructions: 380000004 cycles: 172555632 heartbeat IPC: 2.555 cumulative IPC: 2.062 (Simulation time: 00 hr 44 min 29 sec)
Heartbeat CPU 0 instructions: 390000002 cycles: 176662906 heartbeat IPC: 2.435 cumulative IPC: 2.071 (Simulation time: 00 hr 45 min 23 sec)
Heartbeat CPU 0 instructions: 400000000 cycles: 181050885 heartbeat IPC: 2.279 cumulative IPC: 2.077 (Simulation time: 00 hr 46 min 14 sec)
Heartbeat CPU 0 instructions: 410000000 cycles: 189222631 heartbeat IPC: 1.224 cumulative IPC: 2.037 (Simulation time: 00 hr 47 min 32 sec)
Heartbeat CPU 0 instructions: 420000003 cycles: 201446358 heartbeat IPC: 0.8181 cumulative IPC: 1.958 (Simulation time: 00 hr 49 min 18 sec)
Heartbeat CPU 0 instructions: 430000000 cycles: 210002492 heartbeat IPC: 1.169 cumulative IPC: 1.924 (Simulation time: 00 hr 50 min 42 sec)
Heartbeat CPU 0 instructions: 440000004 cycles: 217325564 heartbeat IPC: 1.366 cumulative IPC: 1.904 (Simulation time: 00 hr 52 min 01 sec)
Heartbeat CPU 0 instructions: 450000000 cycles: 224616226 heartbeat IPC: 1.372 cumulative IPC: 1.886 (Simulation time: 00 hr 53 min 16 sec)
Heartbeat CPU 0 instructions: 460000002 cycles: 236320703 heartbeat IPC: 0.8544 cumulative IPC: 1.832 (Simulation time: 00 hr 54 min 59 sec)
Heartbeat CPU 0 instructions: 470000003 cycles: 245899956 heartbeat IPC: 1.044 cumulative IPC: 1.799 (Simulation time: 00 hr 56 min 29 sec)
Heartbeat CPU 0 instructions: 480000003 cycles: 250214304 heartbeat IPC: 2.318 cumulative IPC: 1.809 (Simulation time: 00 hr 57 min 22 sec)
Heartbeat CPU 0 instructions: 490000001 cycles: 254964730 heartbeat IPC: 2.105 cumulative IPC: 1.815 (Simulation time: 00 hr 58 min 21 sec)
Heartbeat CPU 0 instructions: 500000002 cycles: 259444656 heartbeat IPC: 2.232 cumulative IPC: 1.822 (Simulation time: 00 hr 59 min 21 sec)
Heartbeat CPU 0 instructions: 510000000 cycles: 263743209 heartbeat IPC: 2.326 cumulative IPC: 1.831 (Simulation time: 01 hr 00 min 17 sec)
Heartbeat CPU 0 instructions: 520000000 cycles: 268218746 heartbeat IPC: 2.234 cumulative IPC: 1.838 (Simulation time: 01 hr 01 min 11 sec)
Heartbeat CPU 0 instructions: 530000001 cycles: 281007688 heartbeat IPC: 0.7819 cumulative IPC: 1.788 (Simulation time: 01 hr 02 min 55 sec)
Heartbeat CPU 0 instructions: 540000000 cycles: 293254228 heartbeat IPC: 0.8166 cumulative IPC: 1.745 (Simulation time: 01 hr 04 min 39 sec)
Heartbeat CPU 0 instructions: 550000004 cycles: 306855443 heartbeat IPC: 0.7352 cumulative IPC: 1.699 (Simulation time: 01 hr 06 min 28 sec)
Heartbeat CPU 0 instructions: 560000004 cycles: 311091958 heartbeat IPC: 2.36 cumulative IPC: 1.708 (Simulation time: 01 hr 07 min 19 sec)
Heartbeat CPU 0 instructions: 570000001 cycles: 314220177 heartbeat IPC: 3.197 cumulative IPC: 1.723 (Simulation time: 01 hr 08 min 08 sec)
Heartbeat CPU 0 instructions: 580000003 cycles: 317766745 heartbeat IPC: 2.82 cumulative IPC: 1.736 (Simulation time: 01 hr 08 min 56 sec)
Heartbeat CPU 0 instructions: 590000002 cycles: 321390801 heartbeat IPC: 2.759 cumulative IPC: 1.748 (Simulation time: 01 hr 09 min 47 sec)
Heartbeat CPU 0 instructions: 600000003 cycles: 324457476 heartbeat IPC: 3.261 cumulative IPC: 1.763 (Simulation time: 01 hr 10 min 33 sec)
Heartbeat CPU 0 instructions: 610000001 cycles: 327964961 heartbeat IPC: 2.851 cumulative IPC: 1.775 (Simulation time: 01 hr 11 min 18 sec)
Heartbeat CPU 0 instructions: 620000000 cycles: 331982228 heartbeat IPC: 2.489 cumulative IPC: 1.784 (Simulation time: 01 hr 12 min 06 sec)
Heartbeat CPU 0 instructions: 630000002 cycles: 335350763 heartbeat IPC: 2.969 cumulative IPC: 1.796 (Simulation time: 01 hr 12 min 45 sec)
Heartbeat CPU 0 instructions: 640000004 cycles: 339365940 heartbeat IPC: 2.491 cumulative IPC: 1.805 (Simulation time: 01 hr 13 min 22 sec)
Heartbeat CPU 0 instructions: 650000001 cycles: 343190484 heartbeat IPC: 2.615 cumulative IPC: 1.814 (Simulation time: 01 hr 13 min 54 sec)
Simulation finished CPU 0 instructions: 600000001 cycles: 330690423 cumulative IPC: 1.814 (Simulation time: 01 hr 13 min 54 sec)
Simulation complete CPU 0 instructions: 600000001 cycles: 330690423 cumulative IPC: 1.814 (Simulation time: 01 hr 13 min 54 sec)

ChampSim completed all CPUs

=== Simulation ===
CPU 0 runs traces/400.perlbench-50B.champsimtrace.xz
Region of Interest Statistics

CPU 0 cumulative IPC: 1.814 instructions: 600000001 cycles: 330690423
CPU 0 Branch Prediction Accuracy: 96.2% MPKI: 7.839 Average ROB Occupancy at Mispredict: 43.73
Branch type MPKI
BRANCH_DIRECT_JUMP: 0.0176
BRANCH_INDIRECT: 0.38
BRANCH_CONDITIONAL: 6.99
BRANCH_DIRECT_CALL: 0.0067
BRANCH_INDIRECT_CALL: 0.431
BRANCH_RETURN: 0.0161

LLC TOTAL        ACCESS:     782181 HIT:     451539 MISS:     330642
LLC LOAD         ACCESS:     582657 HIT:     293887 MISS:     288770
LLC RFO          ACCESS:      47419 HIT:      27033 MISS:      20386
LLC PREFETCH     ACCESS:          0 HIT:          0 MISS:          0
LLC WRITE        ACCESS:     130181 HIT:     120367 MISS:       9814
LLC TRANSLATION  ACCESS:      21924 HIT:      10252 MISS:      11672
LLC PREFETCH REQUESTED:          0 ISSUED:          0 USEFUL:          0 USELESS:          0
LLC AVERAGE MISS LATENCY: 520.6 cycles
cpu0_DTLB TOTAL        ACCESS:  146477569 HIT:  145173459 MISS:    1304110
cpu0_DTLB LOAD         ACCESS:  146477569 HIT:  145173459 MISS:    1304110
cpu0_DTLB RFO          ACCESS:          0 HIT:          0 MISS:          0
cpu0_DTLB PREFETCH     ACCESS:          0 HIT:          0 MISS:          0
cpu0_DTLB WRITE        ACCESS:          0 HIT:          0 MISS:          0
cpu0_DTLB TRANSLATION  ACCESS:          0 HIT:          0 MISS:          0
cpu0_DTLB PREFETCH REQUESTED:          0 ISSUED:          0 USEFUL:          0 USELESS:          0
cpu0_DTLB AVERAGE MISS LATENCY: 11.81 cycles
cpu0_ITLB TOTAL        ACCESS:    8990779 HIT:    8806203 MISS:     184576
cpu0_ITLB LOAD         ACCESS:    8990779 HIT:    8806203 MISS:     184576
cpu0_ITLB RFO          ACCESS:          0 HIT:          0 MISS:          0
cpu0_ITLB PREFETCH     ACCESS:          0 HIT:          0 MISS:          0
cpu0_ITLB WRITE        ACCESS:          0 HIT:          0 MISS:          0
cpu0_ITLB TRANSLATION  ACCESS:          0 HIT:          0 MISS:          0
cpu0_ITLB PREFETCH REQUESTED:          0 ISSUED:          0 USEFUL:          0 USELESS:          0
cpu0_ITLB AVERAGE MISS LATENCY: 3.378 cycles
cpu0_L1D TOTAL        ACCESS:  193269501 HIT:  190379167 MISS:    2890334
cpu0_L1D LOAD         ACCESS:  107423125 HIT:  105043618 MISS:    2379507
cpu0_L1D RFO          ACCESS:          0 HIT:          0 MISS:          0
cpu0_L1D PREFETCH     ACCESS:          0 HIT:          0 MISS:          0
cpu0_L1D WRITE        ACCESS:   85817849 HIT:   85333532 MISS:     484317
cpu0_L1D TRANSLATION  ACCESS:      28527 HIT:       2017 MISS:      26510
cpu0_L1D PREFETCH REQUESTED:          0 ISSUED:          0 USEFUL:          0 USELESS:          0
cpu0_L1D AVERAGE MISS LATENCY: 64.25 cycles
cpu0_L1I TOTAL        ACCESS:   10424649 HIT:    8662238 MISS:    1762411
cpu0_L1I LOAD         ACCESS:   10424649 HIT:    8662238 MISS:    1762411
cpu0_L1I RFO          ACCESS:          0 HIT:          0 MISS:          0
cpu0_L1I PREFETCH     ACCESS:          0 HIT:          0 MISS:          0
cpu0_L1I WRITE        ACCESS:          0 HIT:          0 MISS:          0
cpu0_L1I TRANSLATION  ACCESS:          0 HIT:          0 MISS:          0
cpu0_L1I PREFETCH REQUESTED:          0 ISSUED:          0 USEFUL:          0 USELESS:          0
cpu0_L1I AVERAGE MISS LATENCY: 11.69 cycles
cpu0_L2C TOTAL        ACCESS:    3232214 HIT:    2574074 MISS:     658140
cpu0_L2C LOAD         ACCESS:    2710057 HIT:    2127398 MISS:     582659
cpu0_L2C RFO          ACCESS:     133258 HIT:      85839 MISS:      47419
cpu0_L2C PREFETCH     ACCESS:          0 HIT:          0 MISS:          0
cpu0_L2C WRITE        ACCESS:     362450 HIT:     356312 MISS:       6138
cpu0_L2C TRANSLATION  ACCESS:      26449 HIT:       4525 MISS:      21924
cpu0_L2C PREFETCH REQUESTED:          0 ISSUED:          0 USEFUL:          0 USELESS:          0
cpu0_L2C AVERAGE MISS LATENCY: 281.8 cycles
cpu0_STLB TOTAL        ACCESS:    1008746 HIT:     982050 MISS:      26696
cpu0_STLB LOAD         ACCESS:    1008746 HIT:     982050 MISS:      26696
cpu0_STLB RFO          ACCESS:          0 HIT:          0 MISS:          0
cpu0_STLB PREFETCH     ACCESS:          0 HIT:          0 MISS:          0
cpu0_STLB WRITE        ACCESS:          0 HIT:          0 MISS:          0
cpu0_STLB TRANSLATION  ACCESS:          0 HIT:          0 MISS:          0
cpu0_STLB PREFETCH REQUESTED:          0 ISSUED:          0 USEFUL:          0 USELESS:          0
cpu0_STLB AVERAGE MISS LATENCY: 357.7 cycles

DRAM Statistics

Channel 0 RQ ROW_BUFFER_HIT:      62500
  ROW_BUFFER_MISS:     258276
 AVG DBUS CONGESTED CYCLE: 3.792
WQ ROW_BUFFER_HIT: Channel 0 
  ROW_BUFFER_MISS:      10258
  FULL:      35455
