WARNING: physical memory size is smaller than virtual memory size.

*** ChampSim Multicore Out-of-Order Simulator ***
Warmup Instructions: 50000000
Simulation Instructions: 600000000
Number of CPUs: 1
Page size: 4096

CPU 0 Tage branch predictor
Off-chip DRAM Size: 4 GiB Channels: 1 Width: 64-bit Data Race: 3200 MT/s
Heartbeat CPU 0 instructions: 10000000 cycles: 2500061 heartbeat IPC: 4 cumulative IPC: 4 (Simulation time: 00 hr 00 min 57 sec)
Heartbeat CPU 0 instructions: 20000000 cycles: 5000061 heartbeat IPC: 4 cumulative IPC: 4 (Simulation time: 00 hr 01 min 54 sec)
Heartbeat CPU 0 instructions: 30000000 cycles: 7500061 heartbeat IPC: 4 cumulative IPC: 4 (Simulation time: 00 hr 03 min 02 sec)
Heartbeat CPU 0 instructions: 40000000 cycles: 10000061 heartbeat IPC: 4 cumulative IPC: 4 (Simulation time: 00 hr 03 min 59 sec)
Heartbeat CPU 0 instructions: 50000000 cycles: 12500061 heartbeat IPC: 4 cumulative IPC: 4 (Simulation time: 00 hr 04 min 56 sec)
Warmup finished CPU 0 instructions: 50000000 cycles: 12500062 cumulative IPC: 4 (Simulation time: 00 hr 04 min 56 sec)
Warmup complete CPU 0 instructions: 50000000 cycles: 12500062 cumulative IPC: 4 (Simulation time: 00 hr 04 min 56 sec)
Heartbeat CPU 0 instructions: 60000004 cycles: 15504310 heartbeat IPC: 3.329 cumulative IPC: 3.329 (Simulation time: 00 hr 06 min 05 sec)
Heartbeat CPU 0 instructions: 70000003 cycles: 18374292 heartbeat IPC: 3.484 cumulative IPC: 3.405 (Simulation time: 00 hr 07 min 25 sec)
Heartbeat CPU 0 instructions: 80000002 cycles: 21384258 heartbeat IPC: 3.322 cumulative IPC: 3.377 (Simulation time: 00 hr 08 min 33 sec)
Heartbeat CPU 0 instructions: 90000000 cycles: 24105025 heartbeat IPC: 3.675 cumulative IPC: 3.447 (Simulation time: 00 hr 09 min 39 sec)
Heartbeat CPU 0 instructions: 100000003 cycles: 26860136 heartbeat IPC: 3.63 cumulative IPC: 3.482 (Simulation time: 00 hr 10 min 46 sec)
Heartbeat CPU 0 instructions: 110000001 cycles: 29758774 heartbeat IPC: 3.45 cumulative IPC: 3.477 (Simulation time: 00 hr 11 min 53 sec)
Heartbeat CPU 0 instructions: 120000001 cycles: 32474947 heartbeat IPC: 3.682 cumulative IPC: 3.504 (Simulation time: 00 hr 13 min 00 sec)
Heartbeat CPU 0 instructions: 130000003 cycles: 35372130 heartbeat IPC: 3.452 cumulative IPC: 3.498 (Simulation time: 00 hr 14 min 07 sec)
Heartbeat CPU 0 instructions: 140000002 cycles: 38208472 heartbeat IPC: 3.526 cumulative IPC: 3.501 (Simulation time: 00 hr 15 min 14 sec)
Heartbeat CPU 0 instructions: 150000001 cycles: 40977266 heartbeat IPC: 3.612 cumulative IPC: 3.512 (Simulation time: 00 hr 16 min 21 sec)
Heartbeat CPU 0 instructions: 160000000 cycles: 43894145 heartbeat IPC: 3.428 cumulative IPC: 3.504 (Simulation time: 00 hr 17 min 28 sec)
Heartbeat CPU 0 instructions: 170000001 cycles: 46817660 heartbeat IPC: 3.421 cumulative IPC: 3.497 (Simulation time: 00 hr 18 min 37 sec)
Heartbeat CPU 0 instructions: 180000000 cycles: 49609891 heartbeat IPC: 3.581 cumulative IPC: 3.503 (Simulation time: 00 hr 19 min 44 sec)
Heartbeat CPU 0 instructions: 190000002 cycles: 52316240 heartbeat IPC: 3.695 cumulative IPC: 3.516 (Simulation time: 00 hr 20 min 52 sec)
Heartbeat CPU 0 instructions: 200000002 cycles: 55140058 heartbeat IPC: 3.541 cumulative IPC: 3.518 (Simulation time: 00 hr 21 min 59 sec)
Heartbeat CPU 0 instructions: 210000000 cycles: 58030720 heartbeat IPC: 3.459 cumulative IPC: 3.514 (Simulation time: 00 hr 23 min 07 sec)
Heartbeat CPU 0 instructions: 220000001 cycles: 60780317 heartbeat IPC: 3.637 cumulative IPC: 3.521 (Simulation time: 00 hr 24 min 14 sec)
Heartbeat CPU 0 instructions: 230000002 cycles: 63669134 heartbeat IPC: 3.462 cumulative IPC: 3.518 (Simulation time: 00 hr 25 min 21 sec)
Heartbeat CPU 0 instructions: 240000004 cycles: 66620351 heartbeat IPC: 3.388 cumulative IPC: 3.511 (Simulation time: 00 hr 26 min 29 sec)
Heartbeat CPU 0 instructions: 250000003 cycles: 69510393 heartbeat IPC: 3.46 cumulative IPC: 3.508 (Simulation time: 00 hr 27 min 36 sec)
Heartbeat CPU 0 instructions: 260000001 cycles: 72295578 heartbeat IPC: 3.59 cumulative IPC: 3.512 (Simulation time: 00 hr 28 min 43 sec)
Heartbeat CPU 0 instructions: 270000002 cycles: 78155393 heartbeat IPC: 1.707 cumulative IPC: 3.351 (Simulation time: 00 hr 30 min 20 sec)
Heartbeat CPU 0 instructions: 280000000 cycles: 87746575 heartbeat IPC: 1.043 cumulative IPC: 3.057 (Simulation time: 00 hr 32 min 34 sec)
Heartbeat CPU 0 instructions: 290000000 cycles: 95981868 heartbeat IPC: 1.214 cumulative IPC: 2.875 (Simulation time: 00 hr 34 min 36 sec)
Heartbeat CPU 0 instructions: 300000003 cycles: 101873454 heartbeat IPC: 1.697 cumulative IPC: 2.797 (Simulation time: 00 hr 36 min 20 sec)
Heartbeat CPU 0 instructions: 310000001 cycles: 110440322 heartbeat IPC: 1.167 cumulative IPC: 2.655 (Simulation time: 00 hr 38 min 30 sec)
Heartbeat CPU 0 instructions: 320000004 cycles: 114280915 heartbeat IPC: 2.604 cumulative IPC: 2.653 (Simulation time: 00 hr 39 min 51 sec)
Heartbeat CPU 0 instructions: 330000000 cycles: 117445255 heartbeat IPC: 3.16 cumulative IPC: 2.668 (Simulation time: 00 hr 41 min 02 sec)
Heartbeat CPU 0 instructions: 340000001 cycles: 120669648 heartbeat IPC: 3.101 cumulative IPC: 2.681 (Simulation time: 00 hr 42 min 15 sec)
Heartbeat CPU 0 instructions: 350000000 cycles: 124070807 heartbeat IPC: 2.94 cumulative IPC: 2.689 (Simulation time: 00 hr 43 min 29 sec)
Heartbeat CPU 0 instructions: 360000004 cycles: 127272737 heartbeat IPC: 3.123 cumulative IPC: 2.701 (Simulation time: 00 hr 44 min 42 sec)
Heartbeat CPU 0 instructions: 370000001 cycles: 130382627 heartbeat IPC: 3.216 cumulative IPC: 2.715 (Simulation time: 00 hr 45 min 53 sec)
Heartbeat CPU 0 instructions: 380000004 cycles: 133507162 heartbeat IPC: 3.2 cumulative IPC: 2.727 (Simulation time: 00 hr 47 min 04 sec)
Heartbeat CPU 0 instructions: 390000002 cycles: 136815322 heartbeat IPC: 3.023 cumulative IPC: 2.735 (Simulation time: 00 hr 48 min 18 sec)
Heartbeat CPU 0 instructions: 400000000 cycles: 140203313 heartbeat IPC: 2.952 cumulative IPC: 2.741 (Simulation time: 00 hr 49 min 32 sec)
Heartbeat CPU 0 instructions: 410000000 cycles: 147099951 heartbeat IPC: 1.45 cumulative IPC: 2.675 (Simulation time: 00 hr 51 min 32 sec)
Heartbeat CPU 0 instructions: 420000003 cycles: 157076139 heartbeat IPC: 1.002 cumulative IPC: 2.559 (Simulation time: 00 hr 53 min 52 sec)
Heartbeat CPU 0 instructions: 430000004 cycles: 162820992 heartbeat IPC: 1.741 cumulative IPC: 2.528 (Simulation time: 00 hr 55 min 33 sec)
Heartbeat CPU 0 instructions: 440000004 cycles: 168294851 heartbeat IPC: 1.827 cumulative IPC: 2.503 (Simulation time: 00 hr 57 min 10 sec)
Heartbeat CPU 0 instructions: 450000000 cycles: 173365568 heartbeat IPC: 1.972 cumulative IPC: 2.487 (Simulation time: 00 hr 58 min 44 sec)
Heartbeat CPU 0 instructions: 460000002 cycles: 182239705 heartbeat IPC: 1.127 cumulative IPC: 2.415 (Simulation time: 01 hr 00 min 55 sec)
Heartbeat CPU 0 instructions: 470000003 cycles: 189640826 heartbeat IPC: 1.351 cumulative IPC: 2.371 (Simulation time: 01 hr 02 min 51 sec)
Heartbeat CPU 0 instructions: 480000000 cycles: 193101836 heartbeat IPC: 2.889 cumulative IPC: 2.381 (Simulation time: 01 hr 04 min 06 sec)
Heartbeat CPU 0 instructions: 490000001 cycles: 196711634 heartbeat IPC: 2.77 cumulative IPC: 2.389 (Simulation time: 01 hr 05 min 23 sec)
Heartbeat CPU 0 instructions: 500000002 cycles: 200177730 heartbeat IPC: 2.885 cumulative IPC: 2.398 (Simulation time: 01 hr 06 min 38 sec)
Heartbeat CPU 0 instructions: 510000000 cycles: 203614978 heartbeat IPC: 2.909 cumulative IPC: 2.407 (Simulation time: 01 hr 07 min 54 sec)
Heartbeat CPU 0 instructions: 520000000 cycles: 207071567 heartbeat IPC: 2.893 cumulative IPC: 2.416 (Simulation time: 01 hr 09 min 09 sec)
Heartbeat CPU 0 instructions: 530000001 cycles: 217178738 heartbeat IPC: 0.9894 cumulative IPC: 2.345 (Simulation time: 01 hr 11 min 28 sec)
Heartbeat CPU 0 instructions: 540000000 cycles: 226392987 heartbeat IPC: 1.085 cumulative IPC: 2.291 (Simulation time: 01 hr 13 min 41 sec)
Heartbeat CPU 0 instructions: 550000004 cycles: 237446719 heartbeat IPC: 0.9047 cumulative IPC: 2.223 (Simulation time: 01 hr 16 min 11 sec)
Heartbeat CPU 0 instructions: 560000004 cycles: 241064402 heartbeat IPC: 2.764 cumulative IPC: 2.231 (Simulation time: 01 hr 17 min 25 sec)
Heartbeat CPU 0 instructions: 570000002 cycles: 243887860 heartbeat IPC: 3.542 cumulative IPC: 2.247 (Simulation time: 01 hr 18 min 33 sec)
Heartbeat CPU 0 instructions: 580000000 cycles: 246812388 heartbeat IPC: 3.419 cumulative IPC: 2.262 (Simulation time: 01 hr 19 min 41 sec)
Heartbeat CPU 0 instructions: 590000001 cycles: 249740360 heartbeat IPC: 3.415 cumulative IPC: 2.276 (Simulation time: 01 hr 20 min 49 sec)
Heartbeat CPU 0 instructions: 600000003 cycles: 252430558 heartbeat IPC: 3.717 cumulative IPC: 2.292 (Simulation time: 01 hr 22 min 02 sec)
Heartbeat CPU 0 instructions: 610000001 cycles: 255297606 heartbeat IPC: 3.488 cumulative IPC: 2.306 (Simulation time: 01 hr 23 min 41 sec)
Heartbeat CPU 0 instructions: 620000004 cycles: 258250525 heartbeat IPC: 3.386 cumulative IPC: 2.319 (Simulation time: 01 hr 25 min 24 sec)
Heartbeat CPU 0 instructions: 630000002 cycles: 261061256 heartbeat IPC: 3.558 cumulative IPC: 2.333 (Simulation time: 01 hr 26 min 59 sec)
Heartbeat CPU 0 instructions: 640000004 cycles: 264108201 heartbeat IPC: 3.282 cumulative IPC: 2.345 (Simulation time: 01 hr 28 min 35 sec)
Heartbeat CPU 0 instructions: 650000001 cycles: 266820711 heartbeat IPC: 3.687 cumulative IPC: 2.359 (Simulation time: 01 hr 30 min 02 sec)
Simulation finished CPU 0 instructions: 600000001 cycles: 254320650 cumulative IPC: 2.359 (Simulation time: 01 hr 30 min 02 sec)
Simulation complete CPU 0 instructions: 600000001 cycles: 254320650 cumulative IPC: 2.359 (Simulation time: 01 hr 30 min 02 sec)

ChampSim completed all CPUs

=== Simulation ===
CPU 0 runs traces/400.perlbench-50B.champsimtrace.xz
Region of Interest Statistics

CPU 0 cumulative IPC: 2.359 instructions: 600000001 cycles: 254320650
CPU 0 Branch Prediction Accuracy: 99.01% MPKI: 2.04 Average ROB Occupancy at Mispredict: 94.98
Branch type MPKI
BRANCH_DIRECT_JUMP: 0.0176
BRANCH_INDIRECT: 0.38
BRANCH_CONDITIONAL: 1.19
BRANCH_DIRECT_CALL: 0.0067
BRANCH_INDIRECT_CALL: 0.431
BRANCH_RETURN: 0.0161

LLC TOTAL        ACCESS:     849736 HIT:     482197 MISS:     367539
LLC LOAD         ACCESS:     584160 HIT:     299456 MISS:     284704
LLC RFO          ACCESS:      47511 HIT:      26672 MISS:      20839
LLC PREFETCH     ACCESS:      65356 HIT:      34999 MISS:      30357
LLC WRITE        ACCESS:     130694 HIT:     113516 MISS:      17178
LLC TRANSLATION  ACCESS:      22015 HIT:       7554 MISS:      14461
LLC PREFETCH REQUESTED:      65356 ISSUED:      65356 USEFUL:      19439 USELESS:       5702
LLC AVERAGE MISS LATENCY: 575.9 cycles
cpu0_DTLB TOTAL        ACCESS:  133217730 HIT:  131864881 MISS:    1352849
cpu0_DTLB LOAD         ACCESS:  133217730 HIT:  131864881 MISS:    1352849
cpu0_DTLB RFO          ACCESS:          0 HIT:          0 MISS:          0
cpu0_DTLB PREFETCH     ACCESS:          0 HIT:          0 MISS:          0
cpu0_DTLB WRITE        ACCESS:          0 HIT:          0 MISS:          0
cpu0_DTLB TRANSLATION  ACCESS:          0 HIT:          0 MISS:          0
cpu0_DTLB PREFETCH REQUESTED:          0 ISSUED:          0 USEFUL:          0 USELESS:          0
cpu0_DTLB AVERAGE MISS LATENCY: 13.07 cycles
cpu0_ITLB TOTAL        ACCESS:    9000546 HIT:    8790905 MISS:     209641
cpu0_ITLB LOAD         ACCESS:    9000546 HIT:    8790905 MISS:     209641
cpu0_ITLB RFO          ACCESS:          0 HIT:          0 MISS:          0
cpu0_ITLB PREFETCH     ACCESS:          0 HIT:          0 MISS:          0
cpu0_ITLB WRITE        ACCESS:          0 HIT:          0 MISS:          0
cpu0_ITLB TRANSLATION  ACCESS:          0 HIT:          0 MISS:          0
cpu0_ITLB PREFETCH REQUESTED:          0 ISSUED:          0 USEFUL:          0 USELESS:          0
cpu0_ITLB AVERAGE MISS LATENCY: 3.03 cycles
cpu0_L1D TOTAL        ACCESS:  178257204 HIT:  175253891 MISS:    3003313
cpu0_L1D LOAD         ACCESS:   92738141 HIT:   90269444 MISS:    2468697
cpu0_L1D RFO          ACCESS:          0 HIT:          0 MISS:          0
cpu0_L1D PREFETCH     ACCESS:          0 HIT:          0 MISS:          0
cpu0_L1D WRITE        ACCESS:   85490534 HIT:   84982446 MISS:     508088
cpu0_L1D TRANSLATION  ACCESS:      28529 HIT:       2001 MISS:      26528
cpu0_L1D PREFETCH REQUESTED:          0 ISSUED:          0 USEFUL:          0 USELESS:          0
cpu0_L1D AVERAGE MISS LATENCY: 66.32 cycles
cpu0_L1I TOTAL        ACCESS:   10519261 HIT:    8621598 MISS:    1897663
cpu0_L1I LOAD         ACCESS:   10519261 HIT:    8621598 MISS:    1897663
cpu0_L1I RFO          ACCESS:          0 HIT:          0 MISS:          0
cpu0_L1I PREFETCH     ACCESS:          0 HIT:          0 MISS:          0
cpu0_L1I WRITE        ACCESS:          0 HIT:          0 MISS:          0
cpu0_L1I TRANSLATION  ACCESS:          0 HIT:          0 MISS:          0
cpu0_L1I PREFETCH REQUESTED:          0 ISSUED:          0 USEFUL:          0 USELESS:          0
cpu0_L1I AVERAGE MISS LATENCY: 11.17 cycles
cpu0_L2C TOTAL        ACCESS:    3236008 HIT:    2575915 MISS:     660093
cpu0_L2C LOAD         ACCESS:    2709047 HIT:    2124886 MISS:     584161
cpu0_L2C RFO          ACCESS:     135584 HIT:      88073 MISS:      47511
cpu0_L2C PREFETCH     ACCESS:          0 HIT:          0 MISS:          0
cpu0_L2C WRITE        ACCESS:     364931 HIT:     358525 MISS:       6406
cpu0_L2C TRANSLATION  ACCESS:      26446 HIT:       4431 MISS:      22015
cpu0_L2C PREFETCH REQUESTED:          0 ISSUED:          0 USEFUL:          0 USELESS:          0
cpu0_L2C AVERAGE MISS LATENCY: 311.8 cycles
cpu0_STLB TOTAL        ACCESS:    1009718 HIT:     983027 MISS:      26691
cpu0_STLB LOAD         ACCESS:    1009718 HIT:     983027 MISS:      26691
cpu0_STLB RFO          ACCESS:          0 HIT:          0 MISS:          0
cpu0_STLB PREFETCH     ACCESS:          0 HIT:          0 MISS:          0
cpu0_STLB WRITE        ACCESS:          0 HIT:          0 MISS:          0
cpu0_STLB TRANSLATION  ACCESS:          0 HIT:          0 MISS:          0
cpu0_STLB PREFETCH REQUESTED:          0 ISSUED:          0 USEFUL:          0 USELESS:          0
cpu0_STLB AVERAGE MISS LATENCY: 466.5 cycles

DRAM Statistics

Channel 0 RQ ROW_BUFFER_HIT:      71497
  ROW_BUFFER_MISS:     272347
 AVG DBUS CONGESTED CYCLE: 3.84
WQ ROW_BUFFER_HIT: Channel 0 
  ROW_BUFFER_MISS:       7831
  FULL:      42427
Final OPTGen Hits: 6963
Final OPTGen Access: 10192
Final OPTGEN Hit Rate: 68.3183
