WARNING: physical memory size is smaller than virtual memory size.

*** ChampSim Multicore Out-of-Order Simulator ***
Warmup Instructions: 50000000
Simulation Instructions: 600000000
Number of CPUs: 1
Page size: 4096

Off-chip DRAM Size: 4 GiB Channels: 1 Width: 64-bit Data Race: 3200 MT/s
Heartbeat CPU 0 instructions: 10000001 cycles: 2500319 heartbeat IPC: 3.999 cumulative IPC: 3.999 (Simulation time: 00 hr 01 min 00 sec)
Heartbeat CPU 0 instructions: 20000002 cycles: 5037134 heartbeat IPC: 3.942 cumulative IPC: 3.971 (Simulation time: 00 hr 01 min 56 sec)
Heartbeat CPU 0 instructions: 30000002 cycles: 7537134 heartbeat IPC: 4 cumulative IPC: 3.98 (Simulation time: 00 hr 02 min 44 sec)
Heartbeat CPU 0 instructions: 40000002 cycles: 10037134 heartbeat IPC: 4 cumulative IPC: 3.985 (Simulation time: 00 hr 03 min 34 sec)
Heartbeat CPU 0 instructions: 50000002 cycles: 12537134 heartbeat IPC: 4 cumulative IPC: 3.988 (Simulation time: 00 hr 04 min 26 sec)
Warmup finished CPU 0 instructions: 50000002 cycles: 12537135 cumulative IPC: 3.988 (Simulation time: 00 hr 04 min 26 sec)
Warmup complete CPU 0 instructions: 50000002 cycles: 12537135 cumulative IPC: 3.988 (Simulation time: 00 hr 04 min 26 sec)
Heartbeat CPU 0 instructions: 60000000 cycles: 17147637 heartbeat IPC: 2.169 cumulative IPC: 2.169 (Simulation time: 00 hr 05 min 46 sec)
Heartbeat CPU 0 instructions: 70000004 cycles: 21415766 heartbeat IPC: 2.343 cumulative IPC: 2.253 (Simulation time: 00 hr 07 min 13 sec)
Heartbeat CPU 0 instructions: 80000001 cycles: 25998831 heartbeat IPC: 2.182 cumulative IPC: 2.229 (Simulation time: 00 hr 08 min 44 sec)
Heartbeat CPU 0 instructions: 90000001 cycles: 30113006 heartbeat IPC: 2.431 cumulative IPC: 2.276 (Simulation time: 00 hr 10 min 01 sec)
Heartbeat CPU 0 instructions: 100000000 cycles: 34158967 heartbeat IPC: 2.472 cumulative IPC: 2.312 (Simulation time: 00 hr 11 min 11 sec)
Heartbeat CPU 0 instructions: 110000000 cycles: 38385782 heartbeat IPC: 2.366 cumulative IPC: 2.321 (Simulation time: 00 hr 12 min 22 sec)
Heartbeat CPU 0 instructions: 120000001 cycles: 42386318 heartbeat IPC: 2.5 cumulative IPC: 2.345 (Simulation time: 00 hr 13 min 33 sec)
Heartbeat CPU 0 instructions: 130000001 cycles: 46103567 heartbeat IPC: 2.69 cumulative IPC: 2.383 (Simulation time: 00 hr 14 min 34 sec)
Heartbeat CPU 0 instructions: 140000001 cycles: 50264982 heartbeat IPC: 2.403 cumulative IPC: 2.386 (Simulation time: 00 hr 15 min 43 sec)
Heartbeat CPU 0 instructions: 150000001 cycles: 54458351 heartbeat IPC: 2.385 cumulative IPC: 2.385 (Simulation time: 00 hr 16 min 59 sec)
Heartbeat CPU 0 instructions: 160000004 cycles: 58878860 heartbeat IPC: 2.262 cumulative IPC: 2.374 (Simulation time: 00 hr 18 min 27 sec)
Heartbeat CPU 0 instructions: 170000000 cycles: 68409014 heartbeat IPC: 1.049 cumulative IPC: 2.148 (Simulation time: 00 hr 20 min 45 sec)
Heartbeat CPU 0 instructions: 180000004 cycles: 78963503 heartbeat IPC: 0.9475 cumulative IPC: 1.957 (Simulation time: 00 hr 23 min 02 sec)
Heartbeat CPU 0 instructions: 190000001 cycles: 89149030 heartbeat IPC: 0.9818 cumulative IPC: 1.827 (Simulation time: 00 hr 25 min 05 sec)
Heartbeat CPU 0 instructions: 200000004 cycles: 92941215 heartbeat IPC: 2.637 cumulative IPC: 1.866 (Simulation time: 00 hr 26 min 10 sec)
Heartbeat CPU 0 instructions: 210000001 cycles: 96860901 heartbeat IPC: 2.551 cumulative IPC: 1.897 (Simulation time: 00 hr 27 min 30 sec)
Heartbeat CPU 0 instructions: 220000000 cycles: 100820248 heartbeat IPC: 2.526 cumulative IPC: 1.926 (Simulation time: 00 hr 29 min 01 sec)
Heartbeat CPU 0 instructions: 230000002 cycles: 105497779 heartbeat IPC: 2.138 cumulative IPC: 1.936 (Simulation time: 00 hr 30 min 32 sec)
Heartbeat CPU 0 instructions: 240000000 cycles: 109697300 heartbeat IPC: 2.381 cumulative IPC: 1.956 (Simulation time: 00 hr 31 min 50 sec)
Heartbeat CPU 0 instructions: 250000000 cycles: 114013858 heartbeat IPC: 2.317 cumulative IPC: 1.971 (Simulation time: 00 hr 33 min 04 sec)
Heartbeat CPU 0 instructions: 260000000 cycles: 118183361 heartbeat IPC: 2.398 cumulative IPC: 1.988 (Simulation time: 00 hr 34 min 18 sec)
Heartbeat CPU 0 instructions: 270000002 cycles: 122029648 heartbeat IPC: 2.6 cumulative IPC: 2.009 (Simulation time: 00 hr 35 min 27 sec)
Heartbeat CPU 0 instructions: 280000002 cycles: 126194764 heartbeat IPC: 2.401 cumulative IPC: 2.024 (Simulation time: 00 hr 36 min 33 sec)
Heartbeat CPU 0 instructions: 290000001 cycles: 130093806 heartbeat IPC: 2.565 cumulative IPC: 2.042 (Simulation time: 00 hr 37 min 38 sec)
Heartbeat CPU 0 instructions: 300000003 cycles: 133908511 heartbeat IPC: 2.621 cumulative IPC: 2.06 (Simulation time: 00 hr 38 min 43 sec)
Heartbeat CPU 0 instructions: 310000001 cycles: 138042404 heartbeat IPC: 2.419 cumulative IPC: 2.072 (Simulation time: 00 hr 39 min 54 sec)
Heartbeat CPU 0 instructions: 320000003 cycles: 142123229 heartbeat IPC: 2.45 cumulative IPC: 2.084 (Simulation time: 00 hr 41 min 24 sec)
Heartbeat CPU 0 instructions: 330000003 cycles: 146535358 heartbeat IPC: 2.266 cumulative IPC: 2.09 (Simulation time: 00 hr 42 min 53 sec)
Heartbeat CPU 0 instructions: 340000000 cycles: 156274528 heartbeat IPC: 1.027 cumulative IPC: 2.018 (Simulation time: 00 hr 45 min 00 sec)
Heartbeat CPU 0 instructions: 350000000 cycles: 167117461 heartbeat IPC: 0.9223 cumulative IPC: 1.941 (Simulation time: 00 hr 47 min 11 sec)
Heartbeat CPU 0 instructions: 360000004 cycles: 177246601 heartbeat IPC: 0.9873 cumulative IPC: 1.882 (Simulation time: 00 hr 49 min 12 sec)
Heartbeat CPU 0 instructions: 370000000 cycles: 180687156 heartbeat IPC: 2.907 cumulative IPC: 1.903 (Simulation time: 00 hr 50 min 13 sec)
Heartbeat CPU 0 instructions: 380000001 cycles: 184115700 heartbeat IPC: 2.917 cumulative IPC: 1.923 (Simulation time: 00 hr 51 min 12 sec)
Heartbeat CPU 0 instructions: 390000004 cycles: 187857801 heartbeat IPC: 2.672 cumulative IPC: 1.939 (Simulation time: 00 hr 52 min 12 sec)
Heartbeat CPU 0 instructions: 400000004 cycles: 191667520 heartbeat IPC: 2.625 cumulative IPC: 1.954 (Simulation time: 00 hr 53 min 22 sec)
Heartbeat CPU 0 instructions: 410000001 cycles: 195328978 heartbeat IPC: 2.731 cumulative IPC: 1.969 (Simulation time: 00 hr 54 min 50 sec)
Heartbeat CPU 0 instructions: 420000003 cycles: 199375367 heartbeat IPC: 2.471 cumulative IPC: 1.98 (Simulation time: 00 hr 56 min 20 sec)
Heartbeat CPU 0 instructions: 430000001 cycles: 203036905 heartbeat IPC: 2.731 cumulative IPC: 1.995 (Simulation time: 00 hr 57 min 37 sec)
Heartbeat CPU 0 instructions: 440000004 cycles: 207116409 heartbeat IPC: 2.451 cumulative IPC: 2.004 (Simulation time: 00 hr 58 min 51 sec)
Heartbeat CPU 0 instructions: 450000002 cycles: 210841464 heartbeat IPC: 2.685 cumulative IPC: 2.017 (Simulation time: 01 hr 00 min 04 sec)
Heartbeat CPU 0 instructions: 460000000 cycles: 214501650 heartbeat IPC: 2.732 cumulative IPC: 2.03 (Simulation time: 01 hr 01 min 15 sec)
Heartbeat CPU 0 instructions: 470000000 cycles: 217958235 heartbeat IPC: 2.893 cumulative IPC: 2.045 (Simulation time: 01 hr 02 min 22 sec)
Heartbeat CPU 0 instructions: 480000003 cycles: 221768955 heartbeat IPC: 2.624 cumulative IPC: 2.055 (Simulation time: 01 hr 03 min 28 sec)
Heartbeat CPU 0 instructions: 490000000 cycles: 225391565 heartbeat IPC: 2.76 cumulative IPC: 2.067 (Simulation time: 01 hr 04 min 31 sec)
Heartbeat CPU 0 instructions: 500000000 cycles: 229088948 heartbeat IPC: 2.705 cumulative IPC: 2.078 (Simulation time: 01 hr 05 min 34 sec)
Heartbeat CPU 0 instructions: 510000003 cycles: 232732243 heartbeat IPC: 2.745 cumulative IPC: 2.089 (Simulation time: 01 hr 06 min 45 sec)
Heartbeat CPU 0 instructions: 520000001 cycles: 236132401 heartbeat IPC: 2.941 cumulative IPC: 2.102 (Simulation time: 01 hr 08 min 02 sec)
Heartbeat CPU 0 instructions: 530000002 cycles: 239802024 heartbeat IPC: 2.725 cumulative IPC: 2.112 (Simulation time: 01 hr 09 min 24 sec)
Heartbeat CPU 0 instructions: 540000000 cycles: 243327006 heartbeat IPC: 2.837 cumulative IPC: 2.123 (Simulation time: 01 hr 10 min 45 sec)
Heartbeat CPU 0 instructions: 550000001 cycles: 247021616 heartbeat IPC: 2.707 cumulative IPC: 2.132 (Simulation time: 01 hr 11 min 58 sec)
Heartbeat CPU 0 instructions: 560000000 cycles: 250991468 heartbeat IPC: 2.519 cumulative IPC: 2.139 (Simulation time: 01 hr 13 min 14 sec)
Heartbeat CPU 0 instructions: 570000004 cycles: 257273222 heartbeat IPC: 1.592 cumulative IPC: 2.125 (Simulation time: 01 hr 14 min 53 sec)
Heartbeat CPU 0 instructions: 580000003 cycles: 268404470 heartbeat IPC: 0.8984 cumulative IPC: 2.071 (Simulation time: 01 hr 17 min 10 sec)
Heartbeat CPU 0 instructions: 590000002 cycles: 281345495 heartbeat IPC: 0.7727 cumulative IPC: 2.009 (Simulation time: 01 hr 19 min 43 sec)
Heartbeat CPU 0 instructions: 600000000 cycles: 285099442 heartbeat IPC: 2.664 cumulative IPC: 2.018 (Simulation time: 01 hr 21 min 09 sec)
Heartbeat CPU 0 instructions: 610000000 cycles: 288963227 heartbeat IPC: 2.588 cumulative IPC: 2.026 (Simulation time: 01 hr 22 min 30 sec)
Heartbeat CPU 0 instructions: 620000001 cycles: 292400174 heartbeat IPC: 2.91 cumulative IPC: 2.037 (Simulation time: 01 hr 23 min 45 sec)
Heartbeat CPU 0 instructions: 630000002 cycles: 296680264 heartbeat IPC: 2.336 cumulative IPC: 2.041 (Simulation time: 01 hr 25 min 01 sec)
Heartbeat CPU 0 instructions: 640000001 cycles: 300577776 heartbeat IPC: 2.566 cumulative IPC: 2.048 (Simulation time: 01 hr 26 min 22 sec)
Heartbeat CPU 0 instructions: 650000000 cycles: 304333632 heartbeat IPC: 2.663 cumulative IPC: 2.056 (Simulation time: 01 hr 27 min 36 sec)
Simulation finished CPU 0 instructions: 600000001 cycles: 291796499 cumulative IPC: 2.056 (Simulation time: 01 hr 27 min 36 sec)
Simulation complete CPU 0 instructions: 600000001 cycles: 291796499 cumulative IPC: 2.056 (Simulation time: 01 hr 27 min 36 sec)

ChampSim completed all CPUs

=== Simulation ===
CPU 0 runs traces/400.perlbench-41B.champsimtrace.xz
Region of Interest Statistics

CPU 0 cumulative IPC: 2.056 instructions: 600000001 cycles: 291796499
CPU 0 Branch Prediction Accuracy: 96.56% MPKI: 7.112 Average ROB Occupancy at Mispredict: 47.13
Branch type MPKI
BRANCH_DIRECT_JUMP: 0.0123
BRANCH_INDIRECT: 0.323
BRANCH_CONDITIONAL: 6.56
BRANCH_DIRECT_CALL: 0.0043
BRANCH_INDIRECT_CALL: 0.2
BRANCH_RETURN: 0.00828

LLC TOTAL        ACCESS:     936020 HIT:     514805 MISS:     421215
LLC LOAD         ACCESS:     399521 HIT:     210044 MISS:     189477
LLC RFO          ACCESS:      32383 HIT:      17512 MISS:      14871
LLC PREFETCH     ACCESS:     399521 HIT:     194623 MISS:     204898
LLC WRITE        ACCESS:      85663 HIT:      85179 MISS:        484
LLC TRANSLATION  ACCESS:      18932 HIT:       7447 MISS:      11485
LLC PREFETCH REQUESTED:     399521 ISSUED:     399521 USEFUL:      76329 USELESS:      81928
LLC AVERAGE MISS LATENCY: 594.9 cycles
cpu0_DTLB TOTAL        ACCESS:  141901677 HIT:  141215704 MISS:     685973
cpu0_DTLB LOAD         ACCESS:  141901677 HIT:  141215704 MISS:     685973
cpu0_DTLB RFO          ACCESS:          0 HIT:          0 MISS:          0
cpu0_DTLB PREFETCH     ACCESS:          0 HIT:          0 MISS:          0
cpu0_DTLB WRITE        ACCESS:          0 HIT:          0 MISS:          0
cpu0_DTLB TRANSLATION  ACCESS:          0 HIT:          0 MISS:          0
cpu0_DTLB PREFETCH REQUESTED:          0 ISSUED:          0 USEFUL:          0 USELESS:          0
cpu0_DTLB AVERAGE MISS LATENCY: 17.32 cycles
cpu0_ITLB TOTAL        ACCESS:    4857137 HIT:    4803974 MISS:      53163
cpu0_ITLB LOAD         ACCESS:    4857137 HIT:    4803974 MISS:      53163
cpu0_ITLB RFO          ACCESS:          0 HIT:          0 MISS:          0
cpu0_ITLB PREFETCH     ACCESS:          0 HIT:          0 MISS:          0
cpu0_ITLB WRITE        ACCESS:          0 HIT:          0 MISS:          0
cpu0_ITLB TRANSLATION  ACCESS:          0 HIT:          0 MISS:          0
cpu0_ITLB PREFETCH REQUESTED:          0 ISSUED:          0 USEFUL:          0 USELESS:          0
cpu0_ITLB AVERAGE MISS LATENCY: 8.662 cycles
cpu0_L1D TOTAL        ACCESS:  188578349 HIT:  187217736 MISS:    1360613
cpu0_L1D LOAD         ACCESS:  105211160 HIT:  104164251 MISS:    1046909
cpu0_L1D RFO          ACCESS:          0 HIT:          0 MISS:          0
cpu0_L1D PREFETCH     ACCESS:          0 HIT:          0 MISS:          0
cpu0_L1D WRITE        ACCESS:   83342723 HIT:   83051878 MISS:     290845
cpu0_L1D TRANSLATION  ACCESS:      24466 HIT:       1607 MISS:      22859
cpu0_L1D PREFETCH REQUESTED:          0 ISSUED:          0 USEFUL:          0 USELESS:          0
cpu0_L1D AVERAGE MISS LATENCY: 107.6 cycles
cpu0_L1I TOTAL        ACCESS:    5595020 HIT:    4851640 MISS:     743380
cpu0_L1I LOAD         ACCESS:    5595020 HIT:    4851640 MISS:     743380
cpu0_L1I RFO          ACCESS:          0 HIT:          0 MISS:          0
cpu0_L1I PREFETCH     ACCESS:          0 HIT:          0 MISS:          0
cpu0_L1I WRITE        ACCESS:          0 HIT:          0 MISS:          0
cpu0_L1I TRANSLATION  ACCESS:          0 HIT:          0 MISS:          0
cpu0_L1I PREFETCH REQUESTED:          0 ISSUED:          0 USEFUL:          0 USELESS:          0
cpu0_L1I AVERAGE MISS LATENCY: 12.82 cycles
cpu0_L2C TOTAL        ACCESS:    1380819 HIT:     926550 MISS:     454269
cpu0_L2C LOAD         ACCESS:    1124733 HIT:     725212 MISS:     399521
cpu0_L2C RFO          ACCESS:      63784 HIT:      31401 MISS:      32383
cpu0_L2C PREFETCH     ACCESS:          0 HIT:          0 MISS:          0
cpu0_L2C WRITE        ACCESS:     169514 HIT:     166081 MISS:       3433
cpu0_L2C TRANSLATION  ACCESS:      22788 HIT:       3856 MISS:      18932
cpu0_L2C PREFETCH REQUESTED:          0 ISSUED:          0 USEFUL:          0 USELESS:          0
cpu0_L2C AVERAGE MISS LATENCY: 328.1 cycles
cpu0_STLB TOTAL        ACCESS:     507267 HIT:     484473 MISS:      22794
cpu0_STLB LOAD         ACCESS:     507267 HIT:     484473 MISS:      22794
cpu0_STLB RFO          ACCESS:          0 HIT:          0 MISS:          0
cpu0_STLB PREFETCH     ACCESS:          0 HIT:          0 MISS:          0
cpu0_STLB WRITE        ACCESS:          0 HIT:          0 MISS:          0
cpu0_STLB TRANSLATION  ACCESS:          0 HIT:          0 MISS:          0
cpu0_STLB PREFETCH REQUESTED:          0 ISSUED:          0 USEFUL:          0 USELESS:          0
cpu0_STLB AVERAGE MISS LATENCY: 405.7 cycles

DRAM Statistics

Channel 0 RQ ROW_BUFFER_HIT:      63870
  ROW_BUFFER_MISS:     294260
 AVG DBUS CONGESTED CYCLE: 3.878
WQ ROW_BUFFER_HIT: Channel 0 
  ROW_BUFFER_MISS:       5472
  FULL:      36144
