WARNING: physical memory size is smaller than virtual memory size.

*** ChampSim Multicore Out-of-Order Simulator ***
Warmup Instructions: 50000000
Simulation Instructions: 600000000
Number of CPUs: 1
Page size: 4096

CPU 0 Tage branch predictor
Off-chip DRAM Size: 4 GiB Channels: 1 Width: 64-bit Data Race: 3200 MT/s
Heartbeat CPU 0 instructions: 10000001 cycles: 2500318 heartbeat IPC: 3.999 cumulative IPC: 3.999 (Simulation time: 00 hr 04 min 23 sec)
Heartbeat CPU 0 instructions: 20000002 cycles: 5037121 heartbeat IPC: 3.942 cumulative IPC: 3.971 (Simulation time: 00 hr 08 min 59 sec)
Heartbeat CPU 0 instructions: 30000002 cycles: 7537121 heartbeat IPC: 4 cumulative IPC: 3.98 (Simulation time: 00 hr 13 min 08 sec)
Heartbeat CPU 0 instructions: 40000002 cycles: 10037121 heartbeat IPC: 4 cumulative IPC: 3.985 (Simulation time: 00 hr 17 min 15 sec)
Heartbeat CPU 0 instructions: 50000002 cycles: 12537121 heartbeat IPC: 4 cumulative IPC: 3.988 (Simulation time: 00 hr 21 min 12 sec)
Warmup finished CPU 0 instructions: 50000002 cycles: 12537122 cumulative IPC: 3.988 (Simulation time: 00 hr 21 min 12 sec)
Warmup complete CPU 0 instructions: 50000002 cycles: 12537122 cumulative IPC: 3.988 (Simulation time: 00 hr 21 min 12 sec)
Heartbeat CPU 0 instructions: 60000001 cycles: 15539494 heartbeat IPC: 3.331 cumulative IPC: 3.331 (Simulation time: 00 hr 26 min 06 sec)
Heartbeat CPU 0 instructions: 70000004 cycles: 18625675 heartbeat IPC: 3.24 cumulative IPC: 3.285 (Simulation time: 00 hr 30 min 49 sec)
Heartbeat CPU 0 instructions: 80000001 cycles: 21686541 heartbeat IPC: 3.267 cumulative IPC: 3.279 (Simulation time: 00 hr 35 min 27 sec)
Heartbeat CPU 0 instructions: 90000001 cycles: 24641183 heartbeat IPC: 3.385 cumulative IPC: 3.305 (Simulation time: 00 hr 39 min 44 sec)
Heartbeat CPU 0 instructions: 100000000 cycles: 27566217 heartbeat IPC: 3.419 cumulative IPC: 3.327 (Simulation time: 00 hr 43 min 52 sec)
Heartbeat CPU 0 instructions: 110000000 cycles: 30515234 heartbeat IPC: 3.391 cumulative IPC: 3.337 (Simulation time: 00 hr 47 min 53 sec)
Heartbeat CPU 0 instructions: 120000001 cycles: 33500585 heartbeat IPC: 3.35 cumulative IPC: 3.339 (Simulation time: 00 hr 51 min 51 sec)
Heartbeat CPU 0 instructions: 130000001 cycles: 36371449 heartbeat IPC: 3.483 cumulative IPC: 3.357 (Simulation time: 00 hr 55 min 37 sec)
Heartbeat CPU 0 instructions: 140000001 cycles: 39443623 heartbeat IPC: 3.255 cumulative IPC: 3.345 (Simulation time: 00 hr 59 min 28 sec)
Heartbeat CPU 0 instructions: 150000001 cycles: 42473375 heartbeat IPC: 3.301 cumulative IPC: 3.34 (Simulation time: 01 hr 03 min 20 sec)
Heartbeat CPU 0 instructions: 160000004 cycles: 45510888 heartbeat IPC: 3.292 cumulative IPC: 3.336 (Simulation time: 01 hr 07 min 11 sec)
Heartbeat CPU 0 instructions: 170000000 cycles: 51666442 heartbeat IPC: 1.625 cumulative IPC: 3.067 (Simulation time: 01 hr 12 min 43 sec)
Heartbeat CPU 0 instructions: 180000004 cycles: 57730393 heartbeat IPC: 1.649 cumulative IPC: 2.877 (Simulation time: 01 hr 18 min 17 sec)
Heartbeat CPU 0 instructions: 190000001 cycles: 64798432 heartbeat IPC: 1.415 cumulative IPC: 2.679 (Simulation time: 01 hr 24 min 19 sec)
Heartbeat CPU 0 instructions: 200000004 cycles: 67719071 heartbeat IPC: 3.424 cumulative IPC: 2.718 (Simulation time: 01 hr 28 min 02 sec)
Heartbeat CPU 0 instructions: 210000001 cycles: 70639696 heartbeat IPC: 3.424 cumulative IPC: 2.754 (Simulation time: 01 hr 31 min 49 sec)
Heartbeat CPU 0 instructions: 220000000 cycles: 73515150 heartbeat IPC: 3.478 cumulative IPC: 2.788 (Simulation time: 01 hr 35 min 54 sec)
Heartbeat CPU 0 instructions: 230000002 cycles: 76503463 heartbeat IPC: 3.346 cumulative IPC: 2.814 (Simulation time: 01 hr 40 min 06 sec)
Heartbeat CPU 0 instructions: 240000003 cycles: 79520755 heartbeat IPC: 3.314 cumulative IPC: 2.837 (Simulation time: 01 hr 44 min 18 sec)
Heartbeat CPU 0 instructions: 250000000 cycles: 82518453 heartbeat IPC: 3.336 cumulative IPC: 2.858 (Simulation time: 01 hr 48 min 30 sec)
Heartbeat CPU 0 instructions: 260000002 cycles: 85452895 heartbeat IPC: 3.408 cumulative IPC: 2.88 (Simulation time: 01 hr 52 min 40 sec)
Heartbeat CPU 0 instructions: 270000002 cycles: 88342876 heartbeat IPC: 3.46 cumulative IPC: 2.902 (Simulation time: 01 hr 56 min 47 sec)
Heartbeat CPU 0 instructions: 280000002 cycles: 91204311 heartbeat IPC: 3.495 cumulative IPC: 2.924 (Simulation time: 02 hr 00 min 52 sec)
Heartbeat CPU 0 instructions: 290000002 cycles: 94153994 heartbeat IPC: 3.39 cumulative IPC: 2.941 (Simulation time: 02 hr 04 min 59 sec)
Heartbeat CPU 0 instructions: 300000003 cycles: 97025899 heartbeat IPC: 3.482 cumulative IPC: 2.959 (Simulation time: 02 hr 09 min 10 sec)
Heartbeat CPU 0 instructions: 310000001 cycles: 100041447 heartbeat IPC: 3.316 cumulative IPC: 2.971 (Simulation time: 02 hr 13 min 21 sec)
Heartbeat CPU 0 instructions: 320000003 cycles: 103030901 heartbeat IPC: 3.345 cumulative IPC: 2.984 (Simulation time: 02 hr 17 min 32 sec)
Heartbeat CPU 0 instructions: 330000003 cycles: 105987616 heartbeat IPC: 3.382 cumulative IPC: 2.996 (Simulation time: 02 hr 21 min 42 sec)
Heartbeat CPU 0 instructions: 340000000 cycles: 112186651 heartbeat IPC: 1.613 cumulative IPC: 2.91 (Simulation time: 02 hr 27 min 45 sec)
Heartbeat CPU 0 instructions: 350000000 cycles: 118575276 heartbeat IPC: 1.565 cumulative IPC: 2.829 (Simulation time: 02 hr 34 min 05 sec)
Heartbeat CPU 0 instructions: 360000004 cycles: 125881611 heartbeat IPC: 1.369 cumulative IPC: 2.735 (Simulation time: 02 hr 40 min 47 sec)
Heartbeat CPU 0 instructions: 370000000 cycles: 128818700 heartbeat IPC: 3.405 cumulative IPC: 2.752 (Simulation time: 02 hr 44 min 50 sec)
Heartbeat CPU 0 instructions: 380000003 cycles: 131716112 heartbeat IPC: 3.451 cumulative IPC: 2.769 (Simulation time: 02 hr 49 min 03 sec)
Heartbeat CPU 0 instructions: 390000002 cycles: 134665233 heartbeat IPC: 3.391 cumulative IPC: 2.784 (Simulation time: 02 hr 53 min 03 sec)
Heartbeat CPU 0 instructions: 400000004 cycles: 137554991 heartbeat IPC: 3.46 cumulative IPC: 2.8 (Simulation time: 02 hr 57 min 02 sec)
Heartbeat CPU 0 instructions: 410000002 cycles: 140486992 heartbeat IPC: 3.411 cumulative IPC: 2.814 (Simulation time: 03 hr 00 min 59 sec)
Heartbeat CPU 0 instructions: 420000003 cycles: 143575066 heartbeat IPC: 3.238 cumulative IPC: 2.824 (Simulation time: 03 hr 04 min 58 sec)
Heartbeat CPU 0 instructions: 430000001 cycles: 146576514 heartbeat IPC: 3.332 cumulative IPC: 2.835 (Simulation time: 03 hr 08 min 35 sec)
Heartbeat CPU 0 instructions: 440000004 cycles: 149697146 heartbeat IPC: 3.204 cumulative IPC: 2.843 (Simulation time: 03 hr 12 min 14 sec)
Heartbeat CPU 0 instructions: 450000002 cycles: 152603685 heartbeat IPC: 3.441 cumulative IPC: 2.856 (Simulation time: 03 hr 15 min 51 sec)
Heartbeat CPU 0 instructions: 460000000 cycles: 155520686 heartbeat IPC: 3.428 cumulative IPC: 2.867 (Simulation time: 03 hr 19 min 25 sec)
Heartbeat CPU 0 instructions: 470000001 cycles: 158356586 heartbeat IPC: 3.526 cumulative IPC: 2.88 (Simulation time: 03 hr 22 min 58 sec)
Heartbeat CPU 0 instructions: 480000003 cycles: 161410694 heartbeat IPC: 3.274 cumulative IPC: 2.888 (Simulation time: 03 hr 26 min 34 sec)
Heartbeat CPU 0 instructions: 490000004 cycles: 164227669 heartbeat IPC: 3.55 cumulative IPC: 2.901 (Simulation time: 03 hr 30 min 02 sec)
Heartbeat CPU 0 instructions: 500000004 cycles: 167201803 heartbeat IPC: 3.362 cumulative IPC: 2.91 (Simulation time: 03 hr 33 min 35 sec)
Heartbeat CPU 0 instructions: 510000003 cycles: 170235440 heartbeat IPC: 3.296 cumulative IPC: 2.917 (Simulation time: 03 hr 37 min 15 sec)
Heartbeat CPU 0 instructions: 520000001 cycles: 173102731 heartbeat IPC: 3.488 cumulative IPC: 2.927 (Simulation time: 03 hr 40 min 54 sec)
Heartbeat CPU 0 instructions: 530000001 cycles: 176112450 heartbeat IPC: 3.323 cumulative IPC: 2.934 (Simulation time: 03 hr 44 min 30 sec)
Heartbeat CPU 0 instructions: 540000000 cycles: 179056809 heartbeat IPC: 3.396 cumulative IPC: 2.943 (Simulation time: 03 hr 48 min 07 sec)
Heartbeat CPU 0 instructions: 550000001 cycles: 182024764 heartbeat IPC: 3.369 cumulative IPC: 2.95 (Simulation time: 03 hr 51 min 45 sec)
Heartbeat CPU 0 instructions: 560000000 cycles: 185140310 heartbeat IPC: 3.21 cumulative IPC: 2.955 (Simulation time: 03 hr 55 min 33 sec)
Heartbeat CPU 0 instructions: 570000004 cycles: 189811936 heartbeat IPC: 2.141 cumulative IPC: 2.933 (Simulation time: 04 hr 00 min 10 sec)
Heartbeat CPU 0 instructions: 580000003 cycles: 196829126 heartbeat IPC: 1.425 cumulative IPC: 2.876 (Simulation time: 04 hr 05 min 59 sec)
Heartbeat CPU 0 instructions: 590000002 cycles: 205611303 heartbeat IPC: 1.139 cumulative IPC: 2.797 (Simulation time: 04 hr 12 min 15 sec)
Heartbeat CPU 0 instructions: 600000004 cycles: 208637152 heartbeat IPC: 3.305 cumulative IPC: 2.805 (Simulation time: 04 hr 15 min 35 sec)
Heartbeat CPU 0 instructions: 610000002 cycles: 211574390 heartbeat IPC: 3.405 cumulative IPC: 2.814 (Simulation time: 04 hr 18 min 53 sec)
Heartbeat CPU 0 instructions: 620000001 cycles: 214336030 heartbeat IPC: 3.621 cumulative IPC: 2.825 (Simulation time: 04 hr 21 min 53 sec)
Heartbeat CPU 0 instructions: 630000002 cycles: 217284462 heartbeat IPC: 3.392 cumulative IPC: 2.833 (Simulation time: 04 hr 24 min 37 sec)
Heartbeat CPU 0 instructions: 640000004 cycles: 220222101 heartbeat IPC: 3.404 cumulative IPC: 2.841 (Simulation time: 04 hr 27 min 06 sec)
Heartbeat CPU 0 instructions: 650000000 cycles: 222964746 heartbeat IPC: 3.646 cumulative IPC: 2.851 (Simulation time: 04 hr 29 min 30 sec)
Simulation finished CPU 0 instructions: 600000001 cycles: 210427626 cumulative IPC: 2.851 (Simulation time: 04 hr 29 min 30 sec)
Simulation complete CPU 0 instructions: 600000001 cycles: 210427626 cumulative IPC: 2.851 (Simulation time: 04 hr 29 min 30 sec)

ChampSim completed all CPUs

=== Simulation ===
CPU 0 runs traces/400.perlbench-41B.champsimtrace.xz
Region of Interest Statistics

CPU 0 cumulative IPC: 2.851 instructions: 600000001 cycles: 210427626
CPU 0 Branch Prediction Accuracy: 99.19% MPKI: 1.684 Average ROB Occupancy at Mispredict: 101.5
Branch type MPKI
BRANCH_DIRECT_JUMP: 0.0123
BRANCH_INDIRECT: 0.323
BRANCH_CONDITIONAL: 1.14
BRANCH_DIRECT_CALL: 0.0043
BRANCH_INDIRECT_CALL: 0.2
BRANCH_RETURN: 0.00828

LLC TOTAL        ACCESS:     939897 HIT:     666216 MISS:     273681
LLC LOAD         ACCESS:     401666 HIT:     280149 MISS:     121517
LLC RFO          ACCESS:      32426 HIT:      26105 MISS:       6321
LLC PREFETCH     ACCESS:     401666 HIT:     273632 MISS:     128034
LLC WRITE        ACCESS:      85055 HIT:      78608 MISS:       6447
LLC TRANSLATION  ACCESS:      19084 HIT:       7722 MISS:      11362
LLC PREFETCH REQUESTED:     401666 ISSUED:     401666 USEFUL:      24356 USELESS:      73691
LLC AVERAGE MISS LATENCY: 580.2 cycles
cpu0_DTLB TOTAL        ACCESS:  129769827 HIT:  129066555 MISS:     703272
cpu0_DTLB LOAD         ACCESS:  129769827 HIT:  129066555 MISS:     703272
cpu0_DTLB RFO          ACCESS:          0 HIT:          0 MISS:          0
cpu0_DTLB PREFETCH     ACCESS:          0 HIT:          0 MISS:          0
cpu0_DTLB WRITE        ACCESS:          0 HIT:          0 MISS:          0
cpu0_DTLB TRANSLATION  ACCESS:          0 HIT:          0 MISS:          0
cpu0_DTLB PREFETCH REQUESTED:          0 ISSUED:          0 USEFUL:          0 USELESS:          0
cpu0_DTLB AVERAGE MISS LATENCY: 15.63 cycles
cpu0_ITLB TOTAL        ACCESS:    4871474 HIT:    4809304 MISS:      62170
cpu0_ITLB LOAD         ACCESS:    4871474 HIT:    4809304 MISS:      62170
cpu0_ITLB RFO          ACCESS:          0 HIT:          0 MISS:          0
cpu0_ITLB PREFETCH     ACCESS:          0 HIT:          0 MISS:          0
cpu0_ITLB WRITE        ACCESS:          0 HIT:          0 MISS:          0
cpu0_ITLB TRANSLATION  ACCESS:          0 HIT:          0 MISS:          0
cpu0_ITLB PREFETCH REQUESTED:          0 ISSUED:          0 USEFUL:          0 USELESS:          0
cpu0_ITLB AVERAGE MISS LATENCY: 6.337 cycles
cpu0_L1D TOTAL        ACCESS:  174372889 HIT:  172632055 MISS:    1740834
cpu0_L1D LOAD         ACCESS:   91349301 HIT:   89990327 MISS:    1358974
cpu0_L1D RFO          ACCESS:          0 HIT:          0 MISS:          0
cpu0_L1D PREFETCH     ACCESS:          0 HIT:          0 MISS:          0
cpu0_L1D WRITE        ACCESS:   82999128 HIT:   82640666 MISS:     358462
cpu0_L1D TRANSLATION  ACCESS:      24460 HIT:       1062 MISS:      23398
cpu0_L1D PREFETCH REQUESTED:          0 ISSUED:          0 USEFUL:          0 USELESS:          0
cpu0_L1D AVERAGE MISS LATENCY: 57.71 cycles
cpu0_L1I TOTAL        ACCESS:    5650790 HIT:    4847020 MISS:     803770
cpu0_L1I LOAD         ACCESS:    5650790 HIT:    4847020 MISS:     803770
cpu0_L1I RFO          ACCESS:          0 HIT:          0 MISS:          0
cpu0_L1I PREFETCH     ACCESS:          0 HIT:          0 MISS:          0
cpu0_L1I WRITE        ACCESS:          0 HIT:          0 MISS:          0
cpu0_L1I TRANSLATION  ACCESS:          0 HIT:          0 MISS:          0
cpu0_L1I PREFETCH REQUESTED:          0 ISSUED:          0 USEFUL:          0 USELESS:          0
cpu0_L1I AVERAGE MISS LATENCY: 11.33 cycles
cpu0_L2C TOTAL        ACCESS:    1668403 HIT:    1213399 MISS:     455004
cpu0_L2C LOAD         ACCESS:    1315298 HIT:     913632 MISS:     401666
cpu0_L2C RFO          ACCESS:      89609 HIT:      57183 MISS:      32426
cpu0_L2C PREFETCH     ACCESS:          0 HIT:          0 MISS:          0
cpu0_L2C WRITE        ACCESS:     240180 HIT:     238352 MISS:       1828
cpu0_L2C TRANSLATION  ACCESS:      23316 HIT:       4232 MISS:      19084
cpu0_L2C PREFETCH REQUESTED:          0 ISSUED:          0 USEFUL:          0 USELESS:          0
cpu0_L2C AVERAGE MISS LATENCY: 223.4 cycles
cpu0_STLB TOTAL        ACCESS:     508686 HIT:     485902 MISS:      22784
cpu0_STLB LOAD         ACCESS:     508686 HIT:     485902 MISS:      22784
cpu0_STLB RFO          ACCESS:          0 HIT:          0 MISS:          0
cpu0_STLB PREFETCH     ACCESS:          0 HIT:          0 MISS:          0
cpu0_STLB WRITE        ACCESS:          0 HIT:          0 MISS:          0
cpu0_STLB TRANSLATION  ACCESS:          0 HIT:          0 MISS:          0
cpu0_STLB PREFETCH REQUESTED:          0 ISSUED:          0 USEFUL:          0 USELESS:          0
cpu0_STLB AVERAGE MISS LATENCY: 375.3 cycles

DRAM Statistics

Channel 0 RQ ROW_BUFFER_HIT:      41367
  ROW_BUFFER_MISS:     179313
 AVG DBUS CONGESTED CYCLE: 3.865
WQ ROW_BUFFER_HIT: Channel 0 
  ROW_BUFFER_MISS:       3638
  FULL:       7798
