WARNING: physical memory size is smaller than virtual memory size.

*** ChampSim Multicore Out-of-Order Simulator ***
Warmup Instructions: 50000000
Simulation Instructions: 600000000
Number of CPUs: 1
Page size: 4096

Off-chip DRAM Size: 4 GiB Channels: 1 Width: 64-bit Data Race: 3200 MT/s
Heartbeat CPU 0 instructions: 10000001 cycles: 2500318 heartbeat IPC: 3.999 cumulative IPC: 3.999 (Simulation time: 00 hr 00 min 49 sec)
Heartbeat CPU 0 instructions: 20000002 cycles: 5037135 heartbeat IPC: 3.942 cumulative IPC: 3.971 (Simulation time: 00 hr 01 min 44 sec)
Heartbeat CPU 0 instructions: 30000002 cycles: 7537135 heartbeat IPC: 4 cumulative IPC: 3.98 (Simulation time: 00 hr 02 min 33 sec)
Heartbeat CPU 0 instructions: 40000002 cycles: 10037135 heartbeat IPC: 4 cumulative IPC: 3.985 (Simulation time: 00 hr 03 min 20 sec)
Heartbeat CPU 0 instructions: 50000002 cycles: 12537135 heartbeat IPC: 4 cumulative IPC: 3.988 (Simulation time: 00 hr 04 min 08 sec)
Warmup finished CPU 0 instructions: 50000002 cycles: 12537136 cumulative IPC: 3.988 (Simulation time: 00 hr 04 min 08 sec)
Warmup complete CPU 0 instructions: 50000002 cycles: 12537136 cumulative IPC: 3.988 (Simulation time: 00 hr 04 min 08 sec)
Heartbeat CPU 0 instructions: 60000000 cycles: 17150773 heartbeat IPC: 2.167 cumulative IPC: 2.167 (Simulation time: 00 hr 05 min 16 sec)
Heartbeat CPU 0 instructions: 70000004 cycles: 21417184 heartbeat IPC: 2.344 cumulative IPC: 2.252 (Simulation time: 00 hr 06 min 32 sec)
Heartbeat CPU 0 instructions: 80000001 cycles: 26004339 heartbeat IPC: 2.18 cumulative IPC: 2.228 (Simulation time: 00 hr 07 min 42 sec)
Heartbeat CPU 0 instructions: 90000001 cycles: 30127382 heartbeat IPC: 2.425 cumulative IPC: 2.274 (Simulation time: 00 hr 08 min 45 sec)
Heartbeat CPU 0 instructions: 100000000 cycles: 34178546 heartbeat IPC: 2.468 cumulative IPC: 2.31 (Simulation time: 00 hr 09 min 47 sec)
Heartbeat CPU 0 instructions: 110000000 cycles: 38416787 heartbeat IPC: 2.359 cumulative IPC: 2.318 (Simulation time: 00 hr 10 min 52 sec)
Heartbeat CPU 0 instructions: 120000001 cycles: 42418566 heartbeat IPC: 2.499 cumulative IPC: 2.343 (Simulation time: 00 hr 11 min 57 sec)
Heartbeat CPU 0 instructions: 130000001 cycles: 46145359 heartbeat IPC: 2.683 cumulative IPC: 2.38 (Simulation time: 00 hr 12 min 59 sec)
Heartbeat CPU 0 instructions: 140000001 cycles: 50299527 heartbeat IPC: 2.407 cumulative IPC: 2.383 (Simulation time: 00 hr 14 min 01 sec)
Heartbeat CPU 0 instructions: 150000001 cycles: 54491303 heartbeat IPC: 2.386 cumulative IPC: 2.384 (Simulation time: 00 hr 15 min 03 sec)
Heartbeat CPU 0 instructions: 160000004 cycles: 58901448 heartbeat IPC: 2.267 cumulative IPC: 2.373 (Simulation time: 00 hr 16 min 07 sec)
Heartbeat CPU 0 instructions: 170000004 cycles: 69118727 heartbeat IPC: 0.9787 cumulative IPC: 2.121 (Simulation time: 00 hr 17 min 51 sec)
Heartbeat CPU 0 instructions: 180000004 cycles: 80586865 heartbeat IPC: 0.872 cumulative IPC: 1.91 (Simulation time: 00 hr 19 min 50 sec)
Heartbeat CPU 0 instructions: 190000001 cycles: 91434897 heartbeat IPC: 0.9218 cumulative IPC: 1.774 (Simulation time: 00 hr 21 min 46 sec)
Heartbeat CPU 0 instructions: 200000004 cycles: 95205270 heartbeat IPC: 2.652 cumulative IPC: 1.814 (Simulation time: 00 hr 22 min 47 sec)
Heartbeat CPU 0 instructions: 210000001 cycles: 99119420 heartbeat IPC: 2.555 cumulative IPC: 1.848 (Simulation time: 00 hr 23 min 50 sec)
Heartbeat CPU 0 instructions: 220000000 cycles: 103076298 heartbeat IPC: 2.527 cumulative IPC: 1.878 (Simulation time: 00 hr 24 min 53 sec)
Heartbeat CPU 0 instructions: 230000002 cycles: 107745268 heartbeat IPC: 2.142 cumulative IPC: 1.891 (Simulation time: 00 hr 26 min 01 sec)
Heartbeat CPU 0 instructions: 240000000 cycles: 111935525 heartbeat IPC: 2.386 cumulative IPC: 1.911 (Simulation time: 00 hr 27 min 05 sec)
Heartbeat CPU 0 instructions: 250000000 cycles: 116247235 heartbeat IPC: 2.319 cumulative IPC: 1.928 (Simulation time: 00 hr 28 min 10 sec)
Heartbeat CPU 0 instructions: 260000000 cycles: 120430407 heartbeat IPC: 2.391 cumulative IPC: 1.946 (Simulation time: 00 hr 29 min 14 sec)
Heartbeat CPU 0 instructions: 270000002 cycles: 124280700 heartbeat IPC: 2.597 cumulative IPC: 1.969 (Simulation time: 00 hr 30 min 18 sec)
Heartbeat CPU 0 instructions: 280000002 cycles: 128452020 heartbeat IPC: 2.397 cumulative IPC: 1.984 (Simulation time: 00 hr 31 min 23 sec)
Heartbeat CPU 0 instructions: 290000001 cycles: 132342833 heartbeat IPC: 2.57 cumulative IPC: 2.003 (Simulation time: 00 hr 32 min 27 sec)
Heartbeat CPU 0 instructions: 300000003 cycles: 136169328 heartbeat IPC: 2.613 cumulative IPC: 2.022 (Simulation time: 00 hr 33 min 32 sec)
Heartbeat CPU 0 instructions: 310000001 cycles: 140289536 heartbeat IPC: 2.427 cumulative IPC: 2.035 (Simulation time: 00 hr 34 min 34 sec)
Heartbeat CPU 0 instructions: 320000003 cycles: 144364810 heartbeat IPC: 2.454 cumulative IPC: 2.048 (Simulation time: 00 hr 35 min 37 sec)
Heartbeat CPU 0 instructions: 330000003 cycles: 148769062 heartbeat IPC: 2.271 cumulative IPC: 2.055 (Simulation time: 00 hr 36 min 36 sec)
Heartbeat CPU 0 instructions: 340000000 cycles: 158882454 heartbeat IPC: 0.9888 cumulative IPC: 1.982 (Simulation time: 00 hr 37 min 53 sec)
Heartbeat CPU 0 instructions: 350000000 cycles: 170430203 heartbeat IPC: 0.866 cumulative IPC: 1.9 (Simulation time: 00 hr 39 min 24 sec)
Heartbeat CPU 0 instructions: 360000004 cycles: 181516975 heartbeat IPC: 0.902 cumulative IPC: 1.835 (Simulation time: 00 hr 40 min 51 sec)
Heartbeat CPU 0 instructions: 370000000 cycles: 184965996 heartbeat IPC: 2.899 cumulative IPC: 1.856 (Simulation time: 00 hr 41 min 33 sec)
Heartbeat CPU 0 instructions: 380000001 cycles: 188387260 heartbeat IPC: 2.923 cumulative IPC: 1.877 (Simulation time: 00 hr 42 min 16 sec)
Heartbeat CPU 0 instructions: 390000004 cycles: 192130968 heartbeat IPC: 2.671 cumulative IPC: 1.893 (Simulation time: 00 hr 43 min 02 sec)
Heartbeat CPU 0 instructions: 400000004 cycles: 195942212 heartbeat IPC: 2.624 cumulative IPC: 1.908 (Simulation time: 00 hr 43 min 47 sec)
Heartbeat CPU 0 instructions: 410000001 cycles: 199597289 heartbeat IPC: 2.736 cumulative IPC: 1.925 (Simulation time: 00 hr 44 min 31 sec)
Heartbeat CPU 0 instructions: 420000003 cycles: 203732908 heartbeat IPC: 2.418 cumulative IPC: 1.935 (Simulation time: 00 hr 45 min 16 sec)
Heartbeat CPU 0 instructions: 430000001 cycles: 207403410 heartbeat IPC: 2.724 cumulative IPC: 1.95 (Simulation time: 00 hr 45 min 58 sec)
Heartbeat CPU 0 instructions: 440000004 cycles: 211493381 heartbeat IPC: 2.445 cumulative IPC: 1.96 (Simulation time: 00 hr 46 min 54 sec)
Heartbeat CPU 0 instructions: 450000002 cycles: 215230204 heartbeat IPC: 2.676 cumulative IPC: 1.973 (Simulation time: 00 hr 47 min 38 sec)
Heartbeat CPU 0 instructions: 460000000 cycles: 218909525 heartbeat IPC: 2.718 cumulative IPC: 1.987 (Simulation time: 00 hr 48 min 24 sec)
Heartbeat CPU 0 instructions: 470000000 cycles: 222382825 heartbeat IPC: 2.879 cumulative IPC: 2.001 (Simulation time: 00 hr 49 min 06 sec)
Heartbeat CPU 0 instructions: 480000003 cycles: 226277275 heartbeat IPC: 2.568 cumulative IPC: 2.012 (Simulation time: 00 hr 49 min 50 sec)
Heartbeat CPU 0 instructions: 490000000 cycles: 229916538 heartbeat IPC: 2.748 cumulative IPC: 2.024 (Simulation time: 00 hr 50 min 33 sec)
Heartbeat CPU 0 instructions: 500000000 cycles: 233617773 heartbeat IPC: 2.702 cumulative IPC: 2.035 (Simulation time: 00 hr 51 min 17 sec)
Heartbeat CPU 0 instructions: 510000003 cycles: 237374230 heartbeat IPC: 2.662 cumulative IPC: 2.046 (Simulation time: 00 hr 52 min 01 sec)
Heartbeat CPU 0 instructions: 520000001 cycles: 240799425 heartbeat IPC: 2.92 cumulative IPC: 2.059 (Simulation time: 00 hr 52 min 45 sec)
Heartbeat CPU 0 instructions: 530000002 cycles: 244522939 heartbeat IPC: 2.686 cumulative IPC: 2.069 (Simulation time: 00 hr 53 min 28 sec)
Heartbeat CPU 0 instructions: 540000000 cycles: 248056539 heartbeat IPC: 2.83 cumulative IPC: 2.081 (Simulation time: 00 hr 54 min 12 sec)
Heartbeat CPU 0 instructions: 550000001 cycles: 251749482 heartbeat IPC: 2.708 cumulative IPC: 2.09 (Simulation time: 00 hr 54 min 57 sec)
Heartbeat CPU 0 instructions: 560000000 cycles: 255855196 heartbeat IPC: 2.436 cumulative IPC: 2.096 (Simulation time: 00 hr 55 min 44 sec)
Heartbeat CPU 0 instructions: 570000004 cycles: 262271006 heartbeat IPC: 1.559 cumulative IPC: 2.082 (Simulation time: 00 hr 56 min 46 sec)
Heartbeat CPU 0 instructions: 580000003 cycles: 274453117 heartbeat IPC: 0.8209 cumulative IPC: 2.024 (Simulation time: 00 hr 58 min 22 sec)
Heartbeat CPU 0 instructions: 590000002 cycles: 288412433 heartbeat IPC: 0.7164 cumulative IPC: 1.957 (Simulation time: 01 hr 00 min 01 sec)
Heartbeat CPU 0 instructions: 600000000 cycles: 292200019 heartbeat IPC: 2.64 cumulative IPC: 1.967 (Simulation time: 01 hr 00 min 47 sec)
Heartbeat CPU 0 instructions: 610000000 cycles: 296057174 heartbeat IPC: 2.593 cumulative IPC: 1.975 (Simulation time: 01 hr 01 min 34 sec)
Heartbeat CPU 0 instructions: 620000001 cycles: 299492483 heartbeat IPC: 2.911 cumulative IPC: 1.986 (Simulation time: 01 hr 02 min 18 sec)
Heartbeat CPU 0 instructions: 630000002 cycles: 303771070 heartbeat IPC: 2.337 cumulative IPC: 1.992 (Simulation time: 01 hr 03 min 08 sec)
Heartbeat CPU 0 instructions: 640000001 cycles: 307668616 heartbeat IPC: 2.566 cumulative IPC: 1.999 (Simulation time: 01 hr 03 min 56 sec)
Heartbeat CPU 0 instructions: 650000000 cycles: 311423307 heartbeat IPC: 2.663 cumulative IPC: 2.007 (Simulation time: 01 hr 04 min 44 sec)
Simulation finished CPU 0 instructions: 600000001 cycles: 298886173 cumulative IPC: 2.007 (Simulation time: 01 hr 04 min 44 sec)
Simulation complete CPU 0 instructions: 600000001 cycles: 298886173 cumulative IPC: 2.007 (Simulation time: 01 hr 04 min 44 sec)

ChampSim completed all CPUs

=== Simulation ===
CPU 0 runs traces/400.perlbench-41B.champsimtrace.xz
Region of Interest Statistics

CPU 0 cumulative IPC: 2.007 instructions: 600000001 cycles: 298886173
CPU 0 Branch Prediction Accuracy: 96.56% MPKI: 7.112 Average ROB Occupancy at Mispredict: 47.38
Branch type MPKI
BRANCH_DIRECT_JUMP: 0.0123
BRANCH_INDIRECT: 0.323
BRANCH_CONDITIONAL: 6.56
BRANCH_DIRECT_CALL: 0.0043
BRANCH_INDIRECT_CALL: 0.2
BRANCH_RETURN: 0.00828

LLC TOTAL        ACCESS:     592767 HIT:     290887 MISS:     301880
LLC LOAD         ACCESS:     402005 HIT:     171098 MISS:     230907
LLC RFO          ACCESS:      32395 HIT:      16550 MISS:      15845
LLC PREFETCH     ACCESS:      53570 HIT:      26327 MISS:      27243
LLC WRITE        ACCESS:      85741 HIT:      69116 MISS:      16625
LLC TRANSLATION  ACCESS:      19056 HIT:       7796 MISS:      11260
LLC PREFETCH REQUESTED:      53570 ISSUED:      53570 USEFUL:      17686 USELESS:       5711
LLC AVERAGE MISS LATENCY: 546.6 cycles
cpu0_DTLB TOTAL        ACCESS:  141900656 HIT:  141214087 MISS:     686569
cpu0_DTLB LOAD         ACCESS:  141900656 HIT:  141214087 MISS:     686569
cpu0_DTLB RFO          ACCESS:          0 HIT:          0 MISS:          0
cpu0_DTLB PREFETCH     ACCESS:          0 HIT:          0 MISS:          0
cpu0_DTLB WRITE        ACCESS:          0 HIT:          0 MISS:          0
cpu0_DTLB TRANSLATION  ACCESS:          0 HIT:          0 MISS:          0
cpu0_DTLB PREFETCH REQUESTED:          0 ISSUED:          0 USEFUL:          0 USELESS:          0
cpu0_DTLB AVERAGE MISS LATENCY: 16.25 cycles
cpu0_ITLB TOTAL        ACCESS:    4859758 HIT:    4806614 MISS:      53144
cpu0_ITLB LOAD         ACCESS:    4859758 HIT:    4806614 MISS:      53144
cpu0_ITLB RFO          ACCESS:          0 HIT:          0 MISS:          0
cpu0_ITLB PREFETCH     ACCESS:          0 HIT:          0 MISS:          0
cpu0_ITLB WRITE        ACCESS:          0 HIT:          0 MISS:          0
cpu0_ITLB TRANSLATION  ACCESS:          0 HIT:          0 MISS:          0
cpu0_ITLB PREFETCH REQUESTED:          0 ISSUED:          0 USEFUL:          0 USELESS:          0
cpu0_ITLB AVERAGE MISS LATENCY: 8.033 cycles
cpu0_L1D TOTAL        ACCESS:  188565871 HIT:  187201361 MISS:    1364510
cpu0_L1D LOAD         ACCESS:  105197929 HIT:  104146767 MISS:    1051162
cpu0_L1D RFO          ACCESS:          0 HIT:          0 MISS:          0
cpu0_L1D PREFETCH     ACCESS:          0 HIT:          0 MISS:          0
cpu0_L1D WRITE        ACCESS:   83343480 HIT:   83052995 MISS:     290485
cpu0_L1D TRANSLATION  ACCESS:      24462 HIT:       1599 MISS:      22863
cpu0_L1D PREFETCH REQUESTED:          0 ISSUED:          0 USEFUL:          0 USELESS:          0
cpu0_L1D AVERAGE MISS LATENCY: 112.7 cycles
cpu0_L1I TOTAL        ACCESS:    5597707 HIT:    4854085 MISS:     743622
cpu0_L1I LOAD         ACCESS:    5597707 HIT:    4854085 MISS:     743622
cpu0_L1I RFO          ACCESS:          0 HIT:          0 MISS:          0
cpu0_L1I PREFETCH     ACCESS:          0 HIT:          0 MISS:          0
cpu0_L1I WRITE        ACCESS:          0 HIT:          0 MISS:          0
cpu0_L1I TRANSLATION  ACCESS:          0 HIT:          0 MISS:          0
cpu0_L1I PREFETCH REQUESTED:          0 ISSUED:          0 USEFUL:          0 USELESS:          0
cpu0_L1I AVERAGE MISS LATENCY: 13.68 cycles
cpu0_L2C TOTAL        ACCESS:    1380687 HIT:     923579 MISS:     457108
cpu0_L2C LOAD         ACCESS:    1124743 HIT:     722738 MISS:     402005
cpu0_L2C RFO          ACCESS:      63782 HIT:      31387 MISS:      32395
cpu0_L2C PREFETCH     ACCESS:          0 HIT:          0 MISS:          0
cpu0_L2C WRITE        ACCESS:     169370 HIT:     165718 MISS:       3652
cpu0_L2C TRANSLATION  ACCESS:      22792 HIT:       3736 MISS:      19056
cpu0_L2C PREFETCH REQUESTED:          0 ISSUED:          0 USEFUL:          0 USELESS:          0
cpu0_L2C AVERAGE MISS LATENCY: 344 cycles
cpu0_STLB TOTAL        ACCESS:     507291 HIT:     484498 MISS:      22793
cpu0_STLB LOAD         ACCESS:     507291 HIT:     484498 MISS:      22793
cpu0_STLB RFO          ACCESS:          0 HIT:          0 MISS:          0
cpu0_STLB PREFETCH     ACCESS:          0 HIT:          0 MISS:          0
cpu0_STLB WRITE        ACCESS:          0 HIT:          0 MISS:          0
cpu0_STLB TRANSLATION  ACCESS:          0 HIT:          0 MISS:          0
cpu0_STLB PREFETCH REQUESTED:          0 ISSUED:          0 USEFUL:          0 USELESS:          0
cpu0_STLB AVERAGE MISS LATENCY: 372.2 cycles

DRAM Statistics

Channel 0 RQ ROW_BUFFER_HIT:      48439
  ROW_BUFFER_MISS:     231853
 AVG DBUS CONGESTED CYCLE: 3.818
WQ ROW_BUFFER_HIT: Channel 0 
  ROW_BUFFER_MISS:       9188
  FULL:      33648
Final OPTGen Hits: 5877
Final OPTGen Access: 9196
Final OPTGEN Hit Rate: 63.9083
