WARNING: physical memory size is smaller than virtual memory size.

*** ChampSim Multicore Out-of-Order Simulator ***
Warmup Instructions: 50000000
Simulation Instructions: 600000000
Number of CPUs: 1
Page size: 4096

Off-chip DRAM Size: 4 GiB Channels: 1 Width: 64-bit Data Race: 3200 MT/s
Heartbeat CPU 0 instructions: 10000001 cycles: 2500318 heartbeat IPC: 3.999 cumulative IPC: 3.999 (Simulation time: 00 hr 01 min 15 sec)
Heartbeat CPU 0 instructions: 20000002 cycles: 5037122 heartbeat IPC: 3.942 cumulative IPC: 3.971 (Simulation time: 00 hr 03 min 01 sec)
Heartbeat CPU 0 instructions: 30000002 cycles: 7537122 heartbeat IPC: 4 cumulative IPC: 3.98 (Simulation time: 00 hr 05 min 06 sec)
Heartbeat CPU 0 instructions: 40000002 cycles: 10037122 heartbeat IPC: 4 cumulative IPC: 3.985 (Simulation time: 00 hr 08 min 02 sec)
Heartbeat CPU 0 instructions: 50000002 cycles: 12537122 heartbeat IPC: 4 cumulative IPC: 3.988 (Simulation time: 00 hr 11 min 24 sec)
Warmup finished CPU 0 instructions: 50000002 cycles: 12537123 cumulative IPC: 3.988 (Simulation time: 00 hr 11 min 24 sec)
Warmup complete CPU 0 instructions: 50000002 cycles: 12537123 cumulative IPC: 3.988 (Simulation time: 00 hr 11 min 24 sec)
Heartbeat CPU 0 instructions: 60000000 cycles: 17135872 heartbeat IPC: 2.175 cumulative IPC: 2.175 (Simulation time: 00 hr 16 min 44 sec)
Heartbeat CPU 0 instructions: 70000004 cycles: 21395098 heartbeat IPC: 2.348 cumulative IPC: 2.258 (Simulation time: 00 hr 21 min 44 sec)
Heartbeat CPU 0 instructions: 80000001 cycles: 25977727 heartbeat IPC: 2.182 cumulative IPC: 2.232 (Simulation time: 00 hr 26 min 51 sec)
Heartbeat CPU 0 instructions: 90000001 cycles: 30094082 heartbeat IPC: 2.429 cumulative IPC: 2.278 (Simulation time: 00 hr 31 min 40 sec)
Heartbeat CPU 0 instructions: 100000000 cycles: 34135277 heartbeat IPC: 2.475 cumulative IPC: 2.315 (Simulation time: 00 hr 36 min 32 sec)
Heartbeat CPU 0 instructions: 110000000 cycles: 38373625 heartbeat IPC: 2.359 cumulative IPC: 2.322 (Simulation time: 00 hr 41 min 24 sec)
Heartbeat CPU 0 instructions: 120000001 cycles: 42378032 heartbeat IPC: 2.497 cumulative IPC: 2.346 (Simulation time: 00 hr 46 min 09 sec)
Heartbeat CPU 0 instructions: 130000001 cycles: 46100431 heartbeat IPC: 2.686 cumulative IPC: 2.384 (Simulation time: 00 hr 50 min 52 sec)
Heartbeat CPU 0 instructions: 140000001 cycles: 50247870 heartbeat IPC: 2.411 cumulative IPC: 2.387 (Simulation time: 00 hr 55 min 44 sec)
Heartbeat CPU 0 instructions: 150000001 cycles: 54435218 heartbeat IPC: 2.388 cumulative IPC: 2.387 (Simulation time: 01 hr 00 min 38 sec)
Heartbeat CPU 0 instructions: 160000004 cycles: 58843424 heartbeat IPC: 2.268 cumulative IPC: 2.375 (Simulation time: 01 hr 05 min 40 sec)
Heartbeat CPU 0 instructions: 170000000 cycles: 66436109 heartbeat IPC: 1.317 cumulative IPC: 2.226 (Simulation time: 01 hr 12 min 50 sec)
Heartbeat CPU 0 instructions: 180000004 cycles: 74321945 heartbeat IPC: 1.268 cumulative IPC: 2.104 (Simulation time: 01 hr 20 min 20 sec)
Heartbeat CPU 0 instructions: 190000001 cycles: 83126240 heartbeat IPC: 1.136 cumulative IPC: 1.983 (Simulation time: 01 hr 28 min 22 sec)
Heartbeat CPU 0 instructions: 200000004 cycles: 86831545 heartbeat IPC: 2.699 cumulative IPC: 2.019 (Simulation time: 01 hr 33 min 01 sec)
Heartbeat CPU 0 instructions: 210000001 cycles: 90693818 heartbeat IPC: 2.589 cumulative IPC: 2.047 (Simulation time: 01 hr 37 min 46 sec)
Heartbeat CPU 0 instructions: 220000000 cycles: 94620345 heartbeat IPC: 2.547 cumulative IPC: 2.071 (Simulation time: 01 hr 42 min 28 sec)
Heartbeat CPU 0 instructions: 230000002 cycles: 99198544 heartbeat IPC: 2.184 cumulative IPC: 2.077 (Simulation time: 01 hr 47 min 29 sec)
Heartbeat CPU 0 instructions: 240000000 cycles: 103329696 heartbeat IPC: 2.421 cumulative IPC: 2.093 (Simulation time: 01 hr 52 min 21 sec)
Heartbeat CPU 0 instructions: 250000000 cycles: 107559407 heartbeat IPC: 2.364 cumulative IPC: 2.105 (Simulation time: 01 hr 57 min 17 sec)
Heartbeat CPU 0 instructions: 260000000 cycles: 111658177 heartbeat IPC: 2.44 cumulative IPC: 2.119 (Simulation time: 02 hr 02 min 07 sec)
Heartbeat CPU 0 instructions: 270000002 cycles: 115443021 heartbeat IPC: 2.642 cumulative IPC: 2.138 (Simulation time: 02 hr 06 min 46 sec)
Heartbeat CPU 0 instructions: 280000002 cycles: 119542855 heartbeat IPC: 2.439 cumulative IPC: 2.149 (Simulation time: 02 hr 11 min 33 sec)
Heartbeat CPU 0 instructions: 290000001 cycles: 123372569 heartbeat IPC: 2.611 cumulative IPC: 2.165 (Simulation time: 02 hr 16 min 14 sec)
Heartbeat CPU 0 instructions: 300000003 cycles: 127095079 heartbeat IPC: 2.686 cumulative IPC: 2.182 (Simulation time: 02 hr 20 min 53 sec)
Heartbeat CPU 0 instructions: 310000001 cycles: 131093364 heartbeat IPC: 2.501 cumulative IPC: 2.193 (Simulation time: 02 hr 25 min 40 sec)
Heartbeat CPU 0 instructions: 320000003 cycles: 135080329 heartbeat IPC: 2.508 cumulative IPC: 2.203 (Simulation time: 02 hr 30 min 35 sec)
Heartbeat CPU 0 instructions: 330000003 cycles: 139372559 heartbeat IPC: 2.33 cumulative IPC: 2.208 (Simulation time: 02 hr 35 min 30 sec)
Heartbeat CPU 0 instructions: 340000000 cycles: 147307898 heartbeat IPC: 1.26 cumulative IPC: 2.152 (Simulation time: 02 hr 42 min 53 sec)
Heartbeat CPU 0 instructions: 350000000 cycles: 156060630 heartbeat IPC: 1.143 cumulative IPC: 2.09 (Simulation time: 02 hr 50 min 52 sec)
Heartbeat CPU 0 instructions: 360000004 cycles: 164304552 heartbeat IPC: 1.213 cumulative IPC: 2.043 (Simulation time: 02 hr 58 min 26 sec)
Heartbeat CPU 0 instructions: 370000000 cycles: 167673491 heartbeat IPC: 2.968 cumulative IPC: 2.063 (Simulation time: 03 hr 02 min 53 sec)
Heartbeat CPU 0 instructions: 380000001 cycles: 171018629 heartbeat IPC: 2.989 cumulative IPC: 2.082 (Simulation time: 03 hr 07 min 20 sec)
Heartbeat CPU 0 instructions: 390000004 cycles: 174712778 heartbeat IPC: 2.707 cumulative IPC: 2.096 (Simulation time: 03 hr 11 min 57 sec)
Heartbeat CPU 0 instructions: 400000004 cycles: 178495676 heartbeat IPC: 2.643 cumulative IPC: 2.109 (Simulation time: 03 hr 16 min 37 sec)
Heartbeat CPU 0 instructions: 410000001 cycles: 182072256 heartbeat IPC: 2.796 cumulative IPC: 2.123 (Simulation time: 03 hr 21 min 07 sec)
Heartbeat CPU 0 instructions: 420000003 cycles: 185992196 heartbeat IPC: 2.551 cumulative IPC: 2.133 (Simulation time: 03 hr 25 min 48 sec)
Heartbeat CPU 0 instructions: 430000001 cycles: 189601025 heartbeat IPC: 2.771 cumulative IPC: 2.146 (Simulation time: 03 hr 30 min 24 sec)
Heartbeat CPU 0 instructions: 440000004 cycles: 193595349 heartbeat IPC: 2.504 cumulative IPC: 2.154 (Simulation time: 03 hr 35 min 11 sec)
Heartbeat CPU 0 instructions: 450000002 cycles: 197247499 heartbeat IPC: 2.738 cumulative IPC: 2.166 (Simulation time: 03 hr 39 min 45 sec)
Heartbeat CPU 0 instructions: 460000000 cycles: 200851670 heartbeat IPC: 2.775 cumulative IPC: 2.177 (Simulation time: 03 hr 44 min 18 sec)
Heartbeat CPU 0 instructions: 470000000 cycles: 204250752 heartbeat IPC: 2.942 cumulative IPC: 2.191 (Simulation time: 03 hr 48 min 43 sec)
Heartbeat CPU 0 instructions: 480000003 cycles: 207997953 heartbeat IPC: 2.669 cumulative IPC: 2.2 (Simulation time: 03 hr 53 min 21 sec)
Heartbeat CPU 0 instructions: 490000000 cycles: 211594556 heartbeat IPC: 2.78 cumulative IPC: 2.21 (Simulation time: 03 hr 57 min 47 sec)
Heartbeat CPU 0 instructions: 500000000 cycles: 215249169 heartbeat IPC: 2.736 cumulative IPC: 2.22 (Simulation time: 04 hr 02 min 23 sec)
Heartbeat CPU 0 instructions: 510000003 cycles: 218819582 heartbeat IPC: 2.801 cumulative IPC: 2.23 (Simulation time: 04 hr 06 min 56 sec)
Heartbeat CPU 0 instructions: 520000001 cycles: 222142260 heartbeat IPC: 3.01 cumulative IPC: 2.242 (Simulation time: 04 hr 11 min 23 sec)
Heartbeat CPU 0 instructions: 530000002 cycles: 225745036 heartbeat IPC: 2.776 cumulative IPC: 2.251 (Simulation time: 04 hr 15 min 59 sec)
Heartbeat CPU 0 instructions: 540000000 cycles: 229197844 heartbeat IPC: 2.896 cumulative IPC: 2.262 (Simulation time: 04 hr 20 min 28 sec)
Heartbeat CPU 0 instructions: 550000001 cycles: 232840056 heartbeat IPC: 2.746 cumulative IPC: 2.27 (Simulation time: 04 hr 25 min 05 sec)
Heartbeat CPU 0 instructions: 560000000 cycles: 236714347 heartbeat IPC: 2.581 cumulative IPC: 2.275 (Simulation time: 04 hr 29 min 44 sec)
Heartbeat CPU 0 instructions: 570000004 cycles: 242257510 heartbeat IPC: 1.804 cumulative IPC: 2.264 (Simulation time: 04 hr 35 min 38 sec)
Heartbeat CPU 0 instructions: 580000003 cycles: 251383218 heartbeat IPC: 1.096 cumulative IPC: 2.219 (Simulation time: 04 hr 43 min 54 sec)
Heartbeat CPU 0 instructions: 590000002 cycles: 261788715 heartbeat IPC: 0.961 cumulative IPC: 2.166 (Simulation time: 04 hr 53 min 01 sec)
Heartbeat CPU 0 instructions: 600000000 cycles: 265436855 heartbeat IPC: 2.741 cumulative IPC: 2.175 (Simulation time: 04 hr 57 min 35 sec)
Heartbeat CPU 0 instructions: 610000000 cycles: 269237604 heartbeat IPC: 2.631 cumulative IPC: 2.182 (Simulation time: 05 hr 02 min 13 sec)
Heartbeat CPU 0 instructions: 620000001 cycles: 272638183 heartbeat IPC: 2.941 cumulative IPC: 2.191 (Simulation time: 05 hr 06 min 41 sec)
Heartbeat CPU 0 instructions: 630000002 cycles: 276857542 heartbeat IPC: 2.37 cumulative IPC: 2.194 (Simulation time: 05 hr 11 min 35 sec)
Heartbeat CPU 0 instructions: 640000001 cycles: 280735128 heartbeat IPC: 2.579 cumulative IPC: 2.2 (Simulation time: 05 hr 16 min 18 sec)
Heartbeat CPU 0 instructions: 650000000 cycles: 284466287 heartbeat IPC: 2.68 cumulative IPC: 2.206 (Simulation time: 05 hr 20 min 54 sec)
Simulation finished CPU 0 instructions: 600000001 cycles: 271929166 cumulative IPC: 2.206 (Simulation time: 05 hr 20 min 54 sec)
Simulation complete CPU 0 instructions: 600000001 cycles: 271929166 cumulative IPC: 2.206 (Simulation time: 05 hr 20 min 54 sec)

ChampSim completed all CPUs

=== Simulation ===
CPU 0 runs traces/400.perlbench-41B.champsimtrace.xz
Region of Interest Statistics

CPU 0 cumulative IPC: 2.206 instructions: 600000001 cycles: 271929166
CPU 0 Branch Prediction Accuracy: 96.56% MPKI: 7.112 Average ROB Occupancy at Mispredict: 47.13
Branch type MPKI
BRANCH_DIRECT_JUMP: 0.0123
BRANCH_INDIRECT: 0.323
BRANCH_CONDITIONAL: 6.56
BRANCH_DIRECT_CALL: 0.0043
BRANCH_INDIRECT_CALL: 0.2
BRANCH_RETURN: 0.00828

LLC TOTAL        ACCESS:     593033 HIT:     433631 MISS:     159402
LLC LOAD         ACCESS:     403121 HIT:     280182 MISS:     122939
LLC RFO          ACCESS:      32526 HIT:      22941 MISS:       9585
LLC PREFETCH     ACCESS:      52984 HIT:      37746 MISS:      15238
LLC WRITE        ACCESS:      85330 HIT:      82749 MISS:       2581
LLC TRANSLATION  ACCESS:      19072 HIT:      10013 MISS:       9059
LLC PREFETCH REQUESTED:      52984 ISSUED:      52984 USEFUL:       6571 USELESS:       6951
LLC AVERAGE MISS LATENCY: 519.3 cycles
cpu0_DTLB TOTAL        ACCESS:  141911531 HIT:  141224785 MISS:     686746
cpu0_DTLB LOAD         ACCESS:  141911531 HIT:  141224785 MISS:     686746
cpu0_DTLB RFO          ACCESS:          0 HIT:          0 MISS:          0
cpu0_DTLB PREFETCH     ACCESS:          0 HIT:          0 MISS:          0
cpu0_DTLB WRITE        ACCESS:          0 HIT:          0 MISS:          0
cpu0_DTLB TRANSLATION  ACCESS:          0 HIT:          0 MISS:          0
cpu0_DTLB PREFETCH REQUESTED:          0 ISSUED:          0 USEFUL:          0 USELESS:          0
cpu0_DTLB AVERAGE MISS LATENCY: 13.03 cycles
cpu0_ITLB TOTAL        ACCESS:    4860117 HIT:    4807001 MISS:      53116
cpu0_ITLB LOAD         ACCESS:    4860117 HIT:    4807001 MISS:      53116
cpu0_ITLB RFO          ACCESS:          0 HIT:          0 MISS:          0
cpu0_ITLB PREFETCH     ACCESS:          0 HIT:          0 MISS:          0
cpu0_ITLB WRITE        ACCESS:          0 HIT:          0 MISS:          0
cpu0_ITLB TRANSLATION  ACCESS:          0 HIT:          0 MISS:          0
cpu0_ITLB PREFETCH REQUESTED:          0 ISSUED:          0 USEFUL:          0 USELESS:          0
cpu0_ITLB AVERAGE MISS LATENCY: 6.583 cycles
cpu0_L1D TOTAL        ACCESS:  188576852 HIT:  186870193 MISS:    1706659
cpu0_L1D LOAD         ACCESS:  105209644 HIT:  103875375 MISS:    1334269
cpu0_L1D RFO          ACCESS:          0 HIT:          0 MISS:          0
cpu0_L1D PREFETCH     ACCESS:          0 HIT:          0 MISS:          0
cpu0_L1D WRITE        ACCESS:   83342749 HIT:   82993755 MISS:     348994
cpu0_L1D TRANSLATION  ACCESS:      24459 HIT:       1063 MISS:      23396
cpu0_L1D PREFETCH REQUESTED:          0 ISSUED:          0 USEFUL:          0 USELESS:          0
cpu0_L1D AVERAGE MISS LATENCY: 51.05 cycles
cpu0_L1I TOTAL        ACCESS:    5597950 HIT:    4854509 MISS:     743441
cpu0_L1I LOAD         ACCESS:    5597950 HIT:    4854509 MISS:     743441
cpu0_L1I RFO          ACCESS:          0 HIT:          0 MISS:          0
cpu0_L1I PREFETCH     ACCESS:          0 HIT:          0 MISS:          0
cpu0_L1I WRITE        ACCESS:          0 HIT:          0 MISS:          0
cpu0_L1I TRANSLATION  ACCESS:          0 HIT:          0 MISS:          0
cpu0_L1I PREFETCH REQUESTED:          0 ISSUED:          0 USEFUL:          0 USELESS:          0
cpu0_L1I AVERAGE MISS LATENCY: 9.805 cycles
cpu0_L2C TOTAL        ACCESS:    1665861 HIT:    1209306 MISS:     456555
cpu0_L2C LOAD         ACCESS:    1316004 HIT:     912883 MISS:     403121
cpu0_L2C RFO          ACCESS:      88337 HIT:      55811 MISS:      32526
cpu0_L2C PREFETCH     ACCESS:          0 HIT:          0 MISS:          0
cpu0_L2C WRITE        ACCESS:     238192 HIT:     236356 MISS:       1836
cpu0_L2C TRANSLATION  ACCESS:      23328 HIT:       4256 MISS:      19072
cpu0_L2C PREFETCH REQUESTED:          0 ISSUED:          0 USEFUL:          0 USELESS:          0
cpu0_L2C AVERAGE MISS LATENCY: 183.8 cycles
cpu0_STLB TOTAL        ACCESS:     507274 HIT:     484481 MISS:      22793
cpu0_STLB LOAD         ACCESS:     507274 HIT:     484481 MISS:      22793
cpu0_STLB RFO          ACCESS:          0 HIT:          0 MISS:          0
cpu0_STLB PREFETCH     ACCESS:          0 HIT:          0 MISS:          0
cpu0_STLB WRITE        ACCESS:          0 HIT:          0 MISS:          0
cpu0_STLB TRANSLATION  ACCESS:          0 HIT:          0 MISS:          0
cpu0_STLB PREFETCH REQUESTED:          0 ISSUED:          0 USEFUL:          0 USELESS:          0
cpu0_STLB AVERAGE MISS LATENCY: 267.1 cycles

DRAM Statistics

Channel 0 RQ ROW_BUFFER_HIT:      29263
  ROW_BUFFER_MISS:     124596
 AVG DBUS CONGESTED CYCLE: 3.773
WQ ROW_BUFFER_HIT: Channel 0 
  ROW_BUFFER_MISS:       6889
  FULL:      12719
