WARNING: physical memory size is smaller than virtual memory size.

*** ChampSim Multicore Out-of-Order Simulator ***
Warmup Instructions: 50000000
Simulation Instructions: 600000000
Number of CPUs: 1
Page size: 4096

CPU 0 Tage branch predictor
Off-chip DRAM Size: 4 GiB Channels: 1 Width: 64-bit Data Race: 3200 MT/s
Heartbeat CPU 0 instructions: 10000000 cycles: 2500061 heartbeat IPC: 4 cumulative IPC: 4 (Simulation time: 00 hr 00 min 35 sec)
Heartbeat CPU 0 instructions: 20000000 cycles: 5000061 heartbeat IPC: 4 cumulative IPC: 4 (Simulation time: 00 hr 01 min 16 sec)
Heartbeat CPU 0 instructions: 30000000 cycles: 7500061 heartbeat IPC: 4 cumulative IPC: 4 (Simulation time: 00 hr 02 min 01 sec)
Heartbeat CPU 0 instructions: 40000000 cycles: 10000061 heartbeat IPC: 4 cumulative IPC: 4 (Simulation time: 00 hr 02 min 52 sec)
Heartbeat CPU 0 instructions: 50000000 cycles: 12500061 heartbeat IPC: 4 cumulative IPC: 4 (Simulation time: 00 hr 03 min 54 sec)
Warmup finished CPU 0 instructions: 50000000 cycles: 12500062 cumulative IPC: 4 (Simulation time: 00 hr 03 min 54 sec)
Warmup complete CPU 0 instructions: 50000000 cycles: 12500062 cumulative IPC: 4 (Simulation time: 00 hr 03 min 54 sec)
Heartbeat CPU 0 instructions: 60000004 cycles: 15504310 heartbeat IPC: 3.329 cumulative IPC: 3.329 (Simulation time: 00 hr 05 min 14 sec)
Heartbeat CPU 0 instructions: 70000003 cycles: 18374292 heartbeat IPC: 3.484 cumulative IPC: 3.405 (Simulation time: 00 hr 06 min 30 sec)
Heartbeat CPU 0 instructions: 80000002 cycles: 21384258 heartbeat IPC: 3.322 cumulative IPC: 3.377 (Simulation time: 00 hr 07 min 43 sec)
Heartbeat CPU 0 instructions: 90000000 cycles: 24105025 heartbeat IPC: 3.675 cumulative IPC: 3.447 (Simulation time: 00 hr 08 min 52 sec)
Heartbeat CPU 0 instructions: 100000003 cycles: 26860136 heartbeat IPC: 3.63 cumulative IPC: 3.482 (Simulation time: 00 hr 10 min 00 sec)
Heartbeat CPU 0 instructions: 110000001 cycles: 29758774 heartbeat IPC: 3.45 cumulative IPC: 3.477 (Simulation time: 00 hr 11 min 05 sec)
Heartbeat CPU 0 instructions: 120000001 cycles: 32474947 heartbeat IPC: 3.682 cumulative IPC: 3.504 (Simulation time: 00 hr 12 min 11 sec)
Heartbeat CPU 0 instructions: 130000003 cycles: 35372130 heartbeat IPC: 3.452 cumulative IPC: 3.498 (Simulation time: 00 hr 13 min 18 sec)
Heartbeat CPU 0 instructions: 140000002 cycles: 38208472 heartbeat IPC: 3.526 cumulative IPC: 3.501 (Simulation time: 00 hr 14 min 29 sec)
Heartbeat CPU 0 instructions: 150000001 cycles: 40977266 heartbeat IPC: 3.612 cumulative IPC: 3.512 (Simulation time: 00 hr 15 min 36 sec)
Heartbeat CPU 0 instructions: 160000000 cycles: 43894145 heartbeat IPC: 3.428 cumulative IPC: 3.504 (Simulation time: 00 hr 16 min 42 sec)
Heartbeat CPU 0 instructions: 170000001 cycles: 46817660 heartbeat IPC: 3.421 cumulative IPC: 3.497 (Simulation time: 00 hr 17 min 46 sec)
Heartbeat CPU 0 instructions: 180000000 cycles: 49609891 heartbeat IPC: 3.581 cumulative IPC: 3.503 (Simulation time: 00 hr 18 min 49 sec)
Heartbeat CPU 0 instructions: 190000002 cycles: 52316240 heartbeat IPC: 3.695 cumulative IPC: 3.516 (Simulation time: 00 hr 19 min 51 sec)
Heartbeat CPU 0 instructions: 200000002 cycles: 55140058 heartbeat IPC: 3.541 cumulative IPC: 3.518 (Simulation time: 00 hr 20 min 54 sec)
Heartbeat CPU 0 instructions: 210000000 cycles: 58030720 heartbeat IPC: 3.459 cumulative IPC: 3.514 (Simulation time: 00 hr 21 min 56 sec)
Heartbeat CPU 0 instructions: 220000001 cycles: 60780317 heartbeat IPC: 3.637 cumulative IPC: 3.521 (Simulation time: 00 hr 23 min 01 sec)
Heartbeat CPU 0 instructions: 230000002 cycles: 63669344 heartbeat IPC: 3.461 cumulative IPC: 3.518 (Simulation time: 00 hr 24 min 07 sec)
Heartbeat CPU 0 instructions: 240000004 cycles: 66620561 heartbeat IPC: 3.388 cumulative IPC: 3.511 (Simulation time: 00 hr 25 min 10 sec)
Heartbeat CPU 0 instructions: 250000003 cycles: 69510913 heartbeat IPC: 3.46 cumulative IPC: 3.508 (Simulation time: 00 hr 26 min 13 sec)
Heartbeat CPU 0 instructions: 260000001 cycles: 72296708 heartbeat IPC: 3.59 cumulative IPC: 3.512 (Simulation time: 00 hr 27 min 19 sec)
Heartbeat CPU 0 instructions: 270000002 cycles: 78158236 heartbeat IPC: 1.706 cumulative IPC: 3.351 (Simulation time: 00 hr 28 min 49 sec)
Heartbeat CPU 0 instructions: 280000000 cycles: 87481288 heartbeat IPC: 1.073 cumulative IPC: 3.067 (Simulation time: 00 hr 30 min 47 sec)
Heartbeat CPU 0 instructions: 290000000 cycles: 95150601 heartbeat IPC: 1.304 cumulative IPC: 2.904 (Simulation time: 00 hr 32 min 39 sec)
Heartbeat CPU 0 instructions: 300000003 cycles: 100387069 heartbeat IPC: 1.91 cumulative IPC: 2.845 (Simulation time: 00 hr 34 min 35 sec)
Heartbeat CPU 0 instructions: 310000001 cycles: 108623460 heartbeat IPC: 1.214 cumulative IPC: 2.705 (Simulation time: 00 hr 36 min 50 sec)
Heartbeat CPU 0 instructions: 320000004 cycles: 112395750 heartbeat IPC: 2.651 cumulative IPC: 2.703 (Simulation time: 00 hr 38 min 13 sec)
Heartbeat CPU 0 instructions: 330000000 cycles: 115548697 heartbeat IPC: 3.172 cumulative IPC: 2.717 (Simulation time: 00 hr 39 min 25 sec)
Heartbeat CPU 0 instructions: 340000001 cycles: 118729573 heartbeat IPC: 3.144 cumulative IPC: 2.73 (Simulation time: 00 hr 40 min 34 sec)
Heartbeat CPU 0 instructions: 350000000 cycles: 122078012 heartbeat IPC: 2.986 cumulative IPC: 2.738 (Simulation time: 00 hr 41 min 42 sec)
Heartbeat CPU 0 instructions: 360000004 cycles: 125228307 heartbeat IPC: 3.174 cumulative IPC: 2.75 (Simulation time: 00 hr 42 min 53 sec)
Heartbeat CPU 0 instructions: 370000001 cycles: 128320211 heartbeat IPC: 3.234 cumulative IPC: 2.763 (Simulation time: 00 hr 44 min 01 sec)
Heartbeat CPU 0 instructions: 380000004 cycles: 131423777 heartbeat IPC: 3.222 cumulative IPC: 2.775 (Simulation time: 00 hr 45 min 12 sec)
Heartbeat CPU 0 instructions: 390000002 cycles: 134668144 heartbeat IPC: 3.082 cumulative IPC: 2.783 (Simulation time: 00 hr 46 min 45 sec)
Heartbeat CPU 0 instructions: 400000000 cycles: 137974062 heartbeat IPC: 3.025 cumulative IPC: 2.789 (Simulation time: 00 hr 48 min 16 sec)
Heartbeat CPU 0 instructions: 410000000 cycles: 144320633 heartbeat IPC: 1.576 cumulative IPC: 2.731 (Simulation time: 00 hr 50 min 08 sec)
Heartbeat CPU 0 instructions: 420000003 cycles: 153217912 heartbeat IPC: 1.124 cumulative IPC: 2.629 (Simulation time: 00 hr 52 min 10 sec)
Heartbeat CPU 0 instructions: 430000004 cycles: 158888368 heartbeat IPC: 1.764 cumulative IPC: 2.596 (Simulation time: 00 hr 53 min 42 sec)
Heartbeat CPU 0 instructions: 440000004 cycles: 163837397 heartbeat IPC: 2.021 cumulative IPC: 2.577 (Simulation time: 00 hr 55 min 14 sec)
Heartbeat CPU 0 instructions: 450000000 cycles: 168608062 heartbeat IPC: 2.096 cumulative IPC: 2.562 (Simulation time: 00 hr 56 min 41 sec)
Heartbeat CPU 0 instructions: 460000002 cycles: 176661993 heartbeat IPC: 1.242 cumulative IPC: 2.498 (Simulation time: 00 hr 58 min 40 sec)
Heartbeat CPU 0 instructions: 470000003 cycles: 184112866 heartbeat IPC: 1.342 cumulative IPC: 2.447 (Simulation time: 01 hr 01 min 09 sec)
Heartbeat CPU 0 instructions: 480000000 cycles: 187506546 heartbeat IPC: 2.947 cumulative IPC: 2.457 (Simulation time: 01 hr 02 min 35 sec)
Heartbeat CPU 0 instructions: 490000001 cycles: 191123804 heartbeat IPC: 2.765 cumulative IPC: 2.463 (Simulation time: 01 hr 03 min 58 sec)
Heartbeat CPU 0 instructions: 500000002 cycles: 194601095 heartbeat IPC: 2.876 cumulative IPC: 2.471 (Simulation time: 01 hr 05 min 16 sec)
Heartbeat CPU 0 instructions: 510000000 cycles: 198042200 heartbeat IPC: 2.906 cumulative IPC: 2.479 (Simulation time: 01 hr 06 min 30 sec)
Heartbeat CPU 0 instructions: 520000000 cycles: 201511879 heartbeat IPC: 2.882 cumulative IPC: 2.487 (Simulation time: 01 hr 07 min 50 sec)
Heartbeat CPU 0 instructions: 530000001 cycles: 210820796 heartbeat IPC: 1.074 cumulative IPC: 2.42 (Simulation time: 01 hr 09 min 54 sec)
Heartbeat CPU 0 instructions: 540000000 cycles: 219633260 heartbeat IPC: 1.135 cumulative IPC: 2.366 (Simulation time: 01 hr 12 min 09 sec)
Heartbeat CPU 0 instructions: 550000004 cycles: 229601114 heartbeat IPC: 1.003 cumulative IPC: 2.303 (Simulation time: 01 hr 14 min 58 sec)
Heartbeat CPU 0 instructions: 560000004 cycles: 233214394 heartbeat IPC: 2.768 cumulative IPC: 2.311 (Simulation time: 01 hr 16 min 20 sec)
Heartbeat CPU 0 instructions: 570000002 cycles: 236035495 heartbeat IPC: 3.545 cumulative IPC: 2.326 (Simulation time: 01 hr 17 min 32 sec)
Heartbeat CPU 0 instructions: 580000000 cycles: 238960333 heartbeat IPC: 3.419 cumulative IPC: 2.34 (Simulation time: 01 hr 18 min 44 sec)
Heartbeat CPU 0 instructions: 590000001 cycles: 241887575 heartbeat IPC: 3.416 cumulative IPC: 2.354 (Simulation time: 01 hr 19 min 57 sec)
Heartbeat CPU 0 instructions: 600000003 cycles: 244578947 heartbeat IPC: 3.716 cumulative IPC: 2.37 (Simulation time: 01 hr 21 min 09 sec)
Heartbeat CPU 0 instructions: 610000001 cycles: 247445019 heartbeat IPC: 3.489 cumulative IPC: 2.384 (Simulation time: 01 hr 22 min 21 sec)
Heartbeat CPU 0 instructions: 620000004 cycles: 250398285 heartbeat IPC: 3.386 cumulative IPC: 2.396 (Simulation time: 01 hr 23 min 39 sec)
Heartbeat CPU 0 instructions: 630000002 cycles: 253208926 heartbeat IPC: 3.558 cumulative IPC: 2.41 (Simulation time: 01 hr 25 min 14 sec)
Heartbeat CPU 0 instructions: 640000004 cycles: 256255062 heartbeat IPC: 3.283 cumulative IPC: 2.42 (Simulation time: 01 hr 26 min 49 sec)
Heartbeat CPU 0 instructions: 650000001 cycles: 258967704 heartbeat IPC: 3.686 cumulative IPC: 2.434 (Simulation time: 01 hr 28 min 03 sec)
Simulation finished CPU 0 instructions: 600000001 cycles: 246467643 cumulative IPC: 2.434 (Simulation time: 01 hr 28 min 03 sec)
Simulation complete CPU 0 instructions: 600000001 cycles: 246467643 cumulative IPC: 2.434 (Simulation time: 01 hr 28 min 03 sec)

ChampSim completed all CPUs

=== Simulation ===
CPU 0 runs traces/400.perlbench-50B.champsimtrace.xz
Region of Interest Statistics

CPU 0 cumulative IPC: 2.434 instructions: 600000001 cycles: 246467643
CPU 0 Branch Prediction Accuracy: 99.01% MPKI: 2.04 Average ROB Occupancy at Mispredict: 94.62
Branch type MPKI
BRANCH_DIRECT_JUMP: 0.0176
BRANCH_INDIRECT: 0.38
BRANCH_CONDITIONAL: 1.19
BRANCH_DIRECT_CALL: 0.0067
BRANCH_INDIRECT_CALL: 0.431
BRANCH_RETURN: 0.0161

LLC TOTAL        ACCESS:     850038 HIT:     525250 MISS:     324788
LLC LOAD         ACCESS:     584292 HIT:     322267 MISS:     262025
LLC RFO          ACCESS:      47517 HIT:      26967 MISS:      20550
LLC PREFETCH     ACCESS:      65428 HIT:      35740 MISS:      29688
LLC WRITE        ACCESS:     130716 HIT:     130171 MISS:        545
LLC TRANSLATION  ACCESS:      22085 HIT:      10105 MISS:      11980
LLC PREFETCH REQUESTED:      65428 ISSUED:      65428 USEFUL:      18652 USELESS:       6722
LLC AVERAGE MISS LATENCY: 619.8 cycles
cpu0_DTLB TOTAL        ACCESS:  133219962 HIT:  131867986 MISS:    1351976
cpu0_DTLB LOAD         ACCESS:  133219962 HIT:  131867986 MISS:    1351976
cpu0_DTLB RFO          ACCESS:          0 HIT:          0 MISS:          0
cpu0_DTLB PREFETCH     ACCESS:          0 HIT:          0 MISS:          0
cpu0_DTLB WRITE        ACCESS:          0 HIT:          0 MISS:          0
cpu0_DTLB TRANSLATION  ACCESS:          0 HIT:          0 MISS:          0
cpu0_DTLB PREFETCH REQUESTED:          0 ISSUED:          0 USEFUL:          0 USELESS:          0
cpu0_DTLB AVERAGE MISS LATENCY: 11.87 cycles
cpu0_ITLB TOTAL        ACCESS:    8999557 HIT:    8789942 MISS:     209615
cpu0_ITLB LOAD         ACCESS:    8999557 HIT:    8789942 MISS:     209615
cpu0_ITLB RFO          ACCESS:          0 HIT:          0 MISS:          0
cpu0_ITLB PREFETCH     ACCESS:          0 HIT:          0 MISS:          0
cpu0_ITLB WRITE        ACCESS:          0 HIT:          0 MISS:          0
cpu0_ITLB TRANSLATION  ACCESS:          0 HIT:          0 MISS:          0
cpu0_ITLB PREFETCH REQUESTED:          0 ISSUED:          0 USEFUL:          0 USELESS:          0
cpu0_ITLB AVERAGE MISS LATENCY: 3.033 cycles
cpu0_L1D TOTAL        ACCESS:  178269272 HIT:  175275437 MISS:    2993835
cpu0_L1D LOAD         ACCESS:   92750811 HIT:   90291039 MISS:    2459772
cpu0_L1D RFO          ACCESS:          0 HIT:          0 MISS:          0
cpu0_L1D PREFETCH     ACCESS:          0 HIT:          0 MISS:          0
cpu0_L1D WRITE        ACCESS:   85489925 HIT:   84982394 MISS:     507531
cpu0_L1D TRANSLATION  ACCESS:      28536 HIT:       2004 MISS:      26532
cpu0_L1D PREFETCH REQUESTED:          0 ISSUED:          0 USEFUL:          0 USELESS:          0
cpu0_L1D AVERAGE MISS LATENCY: 63.12 cycles
cpu0_L1I TOTAL        ACCESS:   10518270 HIT:    8620028 MISS:    1898242
cpu0_L1I LOAD         ACCESS:   10518270 HIT:    8620028 MISS:    1898242
cpu0_L1I RFO          ACCESS:          0 HIT:          0 MISS:          0
cpu0_L1I PREFETCH     ACCESS:          0 HIT:          0 MISS:          0
cpu0_L1I WRITE        ACCESS:          0 HIT:          0 MISS:          0
cpu0_L1I TRANSLATION  ACCESS:          0 HIT:          0 MISS:          0
cpu0_L1I PREFETCH REQUESTED:          0 ISSUED:          0 USEFUL:          0 USELESS:          0
cpu0_L1I AVERAGE MISS LATENCY: 11.06 cycles
cpu0_L2C TOTAL        ACCESS:    3236068 HIT:    2575849 MISS:     660219
cpu0_L2C LOAD         ACCESS:    2709062 HIT:    2124768 MISS:     584294
cpu0_L2C RFO          ACCESS:     135576 HIT:      88059 MISS:      47517
cpu0_L2C PREFETCH     ACCESS:          0 HIT:          0 MISS:          0
cpu0_L2C WRITE        ACCESS:     364979 HIT:     358656 MISS:       6323
cpu0_L2C TRANSLATION  ACCESS:      26451 HIT:       4366 MISS:      22085
cpu0_L2C PREFETCH REQUESTED:          0 ISSUED:          0 USEFUL:          0 USELESS:          0
cpu0_L2C AVERAGE MISS LATENCY: 295.8 cycles
cpu0_STLB TOTAL        ACCESS:    1009744 HIT:     983052 MISS:      26692
cpu0_STLB LOAD         ACCESS:    1009744 HIT:     983052 MISS:      26692
cpu0_STLB RFO          ACCESS:          0 HIT:          0 MISS:          0
cpu0_STLB PREFETCH     ACCESS:          0 HIT:          0 MISS:          0
cpu0_STLB WRITE        ACCESS:          0 HIT:          0 MISS:          0
cpu0_STLB TRANSLATION  ACCESS:          0 HIT:          0 MISS:          0
cpu0_STLB PREFETCH REQUESTED:          0 ISSUED:          0 USEFUL:          0 USELESS:          0
cpu0_STLB AVERAGE MISS LATENCY: 400 cycles

DRAM Statistics

Channel 0 RQ ROW_BUFFER_HIT:      66798
  ROW_BUFFER_MISS:     251376
 AVG DBUS CONGESTED CYCLE: 3.85
WQ ROW_BUFFER_HIT: Channel 0 
  ROW_BUFFER_MISS:       5737
  FULL:      42970
