WARNING: physical memory size is smaller than virtual memory size.

*** ChampSim Multicore Out-of-Order Simulator ***
Warmup Instructions: 50000000
Simulation Instructions: 600000000
Number of CPUs: 1
Page size: 4096

CPU 0 Tage branch predictor
Off-chip DRAM Size: 4 GiB Channels: 1 Width: 64-bit Data Race: 3200 MT/s
Heartbeat CPU 0 instructions: 10000000 cycles: 2500061 heartbeat IPC: 4 cumulative IPC: 4 (Simulation time: 00 hr 00 min 19 sec)
Heartbeat CPU 0 instructions: 20000000 cycles: 5000061 heartbeat IPC: 4 cumulative IPC: 4 (Simulation time: 00 hr 00 min 51 sec)
Heartbeat CPU 0 instructions: 30000000 cycles: 7500061 heartbeat IPC: 4 cumulative IPC: 4 (Simulation time: 00 hr 01 min 29 sec)
Heartbeat CPU 0 instructions: 40000000 cycles: 10000061 heartbeat IPC: 4 cumulative IPC: 4 (Simulation time: 00 hr 02 min 12 sec)
Heartbeat CPU 0 instructions: 50000000 cycles: 12500061 heartbeat IPC: 4 cumulative IPC: 4 (Simulation time: 00 hr 03 min 00 sec)
Warmup finished CPU 0 instructions: 50000000 cycles: 12500062 cumulative IPC: 4 (Simulation time: 00 hr 03 min 00 sec)
Warmup complete CPU 0 instructions: 50000000 cycles: 12500062 cumulative IPC: 4 (Simulation time: 00 hr 03 min 00 sec)
Heartbeat CPU 0 instructions: 60000004 cycles: 15503575 heartbeat IPC: 3.329 cumulative IPC: 3.329 (Simulation time: 00 hr 04 min 12 sec)
Heartbeat CPU 0 instructions: 70000003 cycles: 18381992 heartbeat IPC: 3.474 cumulative IPC: 3.4 (Simulation time: 00 hr 05 min 26 sec)
Heartbeat CPU 0 instructions: 80000002 cycles: 21404034 heartbeat IPC: 3.309 cumulative IPC: 3.369 (Simulation time: 00 hr 06 min 41 sec)
Heartbeat CPU 0 instructions: 90000000 cycles: 24126115 heartbeat IPC: 3.674 cumulative IPC: 3.441 (Simulation time: 00 hr 07 min 51 sec)
Heartbeat CPU 0 instructions: 100000003 cycles: 26892056 heartbeat IPC: 3.615 cumulative IPC: 3.474 (Simulation time: 00 hr 08 min 58 sec)
Heartbeat CPU 0 instructions: 110000001 cycles: 29797837 heartbeat IPC: 3.441 cumulative IPC: 3.469 (Simulation time: 00 hr 10 min 03 sec)
Heartbeat CPU 0 instructions: 120000001 cycles: 32521809 heartbeat IPC: 3.671 cumulative IPC: 3.496 (Simulation time: 00 hr 11 min 05 sec)
Heartbeat CPU 0 instructions: 130000003 cycles: 35424102 heartbeat IPC: 3.446 cumulative IPC: 3.49 (Simulation time: 00 hr 12 min 10 sec)
Heartbeat CPU 0 instructions: 140000002 cycles: 38262157 heartbeat IPC: 3.524 cumulative IPC: 3.494 (Simulation time: 00 hr 13 min 15 sec)
Heartbeat CPU 0 instructions: 150000001 cycles: 41035888 heartbeat IPC: 3.605 cumulative IPC: 3.504 (Simulation time: 00 hr 14 min 21 sec)
Heartbeat CPU 0 instructions: 160000000 cycles: 43951491 heartbeat IPC: 3.43 cumulative IPC: 3.497 (Simulation time: 00 hr 15 min 28 sec)
Heartbeat CPU 0 instructions: 170000001 cycles: 46882495 heartbeat IPC: 3.412 cumulative IPC: 3.49 (Simulation time: 00 hr 16 min 37 sec)
Heartbeat CPU 0 instructions: 180000000 cycles: 49680461 heartbeat IPC: 3.574 cumulative IPC: 3.496 (Simulation time: 00 hr 17 min 43 sec)
Heartbeat CPU 0 instructions: 190000002 cycles: 52389723 heartbeat IPC: 3.691 cumulative IPC: 3.51 (Simulation time: 00 hr 18 min 48 sec)
Heartbeat CPU 0 instructions: 200000002 cycles: 55218809 heartbeat IPC: 3.535 cumulative IPC: 3.511 (Simulation time: 00 hr 19 min 52 sec)
Heartbeat CPU 0 instructions: 210000000 cycles: 58119490 heartbeat IPC: 3.447 cumulative IPC: 3.507 (Simulation time: 00 hr 20 min 59 sec)
Heartbeat CPU 0 instructions: 220000001 cycles: 60885247 heartbeat IPC: 3.616 cumulative IPC: 3.513 (Simulation time: 00 hr 22 min 04 sec)
Heartbeat CPU 0 instructions: 230000002 cycles: 63781157 heartbeat IPC: 3.453 cumulative IPC: 3.51 (Simulation time: 00 hr 23 min 08 sec)
Heartbeat CPU 0 instructions: 240000004 cycles: 66743101 heartbeat IPC: 3.376 cumulative IPC: 3.503 (Simulation time: 00 hr 24 min 16 sec)
Heartbeat CPU 0 instructions: 250000003 cycles: 69653653 heartbeat IPC: 3.436 cumulative IPC: 3.499 (Simulation time: 00 hr 25 min 21 sec)
Heartbeat CPU 0 instructions: 260000001 cycles: 72452864 heartbeat IPC: 3.572 cumulative IPC: 3.503 (Simulation time: 00 hr 26 min 24 sec)
Heartbeat CPU 0 instructions: 270000002 cycles: 78066892 heartbeat IPC: 1.781 cumulative IPC: 3.355 (Simulation time: 00 hr 27 min 53 sec)
Heartbeat CPU 0 instructions: 280000000 cycles: 87036726 heartbeat IPC: 1.115 cumulative IPC: 3.086 (Simulation time: 00 hr 29 min 53 sec)
Heartbeat CPU 0 instructions: 290000000 cycles: 94395243 heartbeat IPC: 1.359 cumulative IPC: 2.931 (Simulation time: 00 hr 31 min 38 sec)
Heartbeat CPU 0 instructions: 300000003 cycles: 99615260 heartbeat IPC: 1.916 cumulative IPC: 2.87 (Simulation time: 00 hr 33 min 13 sec)
Heartbeat CPU 0 instructions: 310000001 cycles: 108328023 heartbeat IPC: 1.148 cumulative IPC: 2.713 (Simulation time: 00 hr 35 min 55 sec)
Heartbeat CPU 0 instructions: 320000004 cycles: 112161965 heartbeat IPC: 2.608 cumulative IPC: 2.709 (Simulation time: 00 hr 37 min 22 sec)
Heartbeat CPU 0 instructions: 330000000 cycles: 115354000 heartbeat IPC: 3.133 cumulative IPC: 2.722 (Simulation time: 00 hr 38 min 34 sec)
Heartbeat CPU 0 instructions: 340000001 cycles: 118557243 heartbeat IPC: 3.122 cumulative IPC: 2.734 (Simulation time: 00 hr 39 min 43 sec)
Heartbeat CPU 0 instructions: 350000000 cycles: 121907672 heartbeat IPC: 2.985 cumulative IPC: 2.742 (Simulation time: 00 hr 40 min 51 sec)
Heartbeat CPU 0 instructions: 360000004 cycles: 125071453 heartbeat IPC: 3.161 cumulative IPC: 2.754 (Simulation time: 00 hr 41 min 56 sec)
Heartbeat CPU 0 instructions: 370000001 cycles: 128175853 heartbeat IPC: 3.221 cumulative IPC: 2.766 (Simulation time: 00 hr 43 min 00 sec)
Heartbeat CPU 0 instructions: 380000004 cycles: 131298720 heartbeat IPC: 3.202 cumulative IPC: 2.778 (Simulation time: 00 hr 44 min 05 sec)
Heartbeat CPU 0 instructions: 390000002 cycles: 134569195 heartbeat IPC: 3.058 cumulative IPC: 2.785 (Simulation time: 00 hr 45 min 12 sec)
Heartbeat CPU 0 instructions: 400000000 cycles: 137892560 heartbeat IPC: 3.009 cumulative IPC: 2.791 (Simulation time: 00 hr 46 min 28 sec)
Heartbeat CPU 0 instructions: 410000000 cycles: 143996747 heartbeat IPC: 1.638 cumulative IPC: 2.738 (Simulation time: 00 hr 48 min 24 sec)
Heartbeat CPU 0 instructions: 420000003 cycles: 152637695 heartbeat IPC: 1.157 cumulative IPC: 2.64 (Simulation time: 00 hr 50 min 41 sec)
Heartbeat CPU 0 instructions: 430000004 cycles: 158126293 heartbeat IPC: 1.822 cumulative IPC: 2.609 (Simulation time: 00 hr 52 min 21 sec)
Heartbeat CPU 0 instructions: 440000004 cycles: 162983772 heartbeat IPC: 2.059 cumulative IPC: 2.592 (Simulation time: 00 hr 53 min 49 sec)
Heartbeat CPU 0 instructions: 450000000 cycles: 167642293 heartbeat IPC: 2.147 cumulative IPC: 2.578 (Simulation time: 00 hr 55 min 21 sec)
Heartbeat CPU 0 instructions: 460000002 cycles: 176064784 heartbeat IPC: 1.187 cumulative IPC: 2.507 (Simulation time: 00 hr 57 min 24 sec)
Heartbeat CPU 0 instructions: 470000003 cycles: 183952629 heartbeat IPC: 1.268 cumulative IPC: 2.45 (Simulation time: 00 hr 59 min 24 sec)
Heartbeat CPU 0 instructions: 480000000 cycles: 187397714 heartbeat IPC: 2.903 cumulative IPC: 2.459 (Simulation time: 01 hr 01 min 04 sec)
Heartbeat CPU 0 instructions: 490000001 cycles: 191054112 heartbeat IPC: 2.735 cumulative IPC: 2.464 (Simulation time: 01 hr 02 min 39 sec)
Heartbeat CPU 0 instructions: 500000002 cycles: 194558595 heartbeat IPC: 2.853 cumulative IPC: 2.472 (Simulation time: 01 hr 04 min 04 sec)
Heartbeat CPU 0 instructions: 510000000 cycles: 198038493 heartbeat IPC: 2.874 cumulative IPC: 2.479 (Simulation time: 01 hr 05 min 24 sec)
Heartbeat CPU 0 instructions: 520000000 cycles: 201564277 heartbeat IPC: 2.836 cumulative IPC: 2.486 (Simulation time: 01 hr 06 min 38 sec)
Heartbeat CPU 0 instructions: 530000001 cycles: 210406501 heartbeat IPC: 1.131 cumulative IPC: 2.425 (Simulation time: 01 hr 08 min 36 sec)
Heartbeat CPU 0 instructions: 540000000 cycles: 219049045 heartbeat IPC: 1.157 cumulative IPC: 2.372 (Simulation time: 01 hr 10 min 32 sec)
Heartbeat CPU 0 instructions: 550000004 cycles: 229212049 heartbeat IPC: 0.984 cumulative IPC: 2.307 (Simulation time: 01 hr 12 min 50 sec)
Heartbeat CPU 0 instructions: 560000004 cycles: 232932170 heartbeat IPC: 2.688 cumulative IPC: 2.314 (Simulation time: 01 hr 14 min 20 sec)
Heartbeat CPU 0 instructions: 570000002 cycles: 235758155 heartbeat IPC: 3.539 cumulative IPC: 2.329 (Simulation time: 01 hr 15 min 34 sec)
Heartbeat CPU 0 instructions: 580000000 cycles: 238691626 heartbeat IPC: 3.409 cumulative IPC: 2.343 (Simulation time: 01 hr 16 min 45 sec)
Heartbeat CPU 0 instructions: 590000001 cycles: 241628078 heartbeat IPC: 3.405 cumulative IPC: 2.357 (Simulation time: 01 hr 17 min 52 sec)
Heartbeat CPU 0 instructions: 600000003 cycles: 244328457 heartbeat IPC: 3.703 cumulative IPC: 2.372 (Simulation time: 01 hr 18 min 57 sec)
Heartbeat CPU 0 instructions: 610000001 cycles: 247202053 heartbeat IPC: 3.48 cumulative IPC: 2.386 (Simulation time: 01 hr 20 min 06 sec)
Heartbeat CPU 0 instructions: 620000004 cycles: 250160385 heartbeat IPC: 3.38 cumulative IPC: 2.398 (Simulation time: 01 hr 21 min 20 sec)
Heartbeat CPU 0 instructions: 630000002 cycles: 252972564 heartbeat IPC: 3.556 cumulative IPC: 2.412 (Simulation time: 01 hr 22 min 29 sec)
Heartbeat CPU 0 instructions: 640000004 cycles: 256023835 heartbeat IPC: 3.277 cumulative IPC: 2.423 (Simulation time: 01 hr 23 min 40 sec)
Heartbeat CPU 0 instructions: 650000001 cycles: 258732951 heartbeat IPC: 3.691 cumulative IPC: 2.437 (Simulation time: 01 hr 25 min 02 sec)
Simulation finished CPU 0 instructions: 600000001 cycles: 246232890 cumulative IPC: 2.437 (Simulation time: 01 hr 25 min 02 sec)
Simulation complete CPU 0 instructions: 600000001 cycles: 246232890 cumulative IPC: 2.437 (Simulation time: 01 hr 25 min 02 sec)

ChampSim completed all CPUs

=== Simulation ===
CPU 0 runs traces/400.perlbench-50B.champsimtrace.xz
Region of Interest Statistics

CPU 0 cumulative IPC: 2.437 instructions: 600000001 cycles: 246232890
CPU 0 Branch Prediction Accuracy: 99.01% MPKI: 2.04 Average ROB Occupancy at Mispredict: 94.16
Branch type MPKI
BRANCH_DIRECT_JUMP: 0.0176
BRANCH_INDIRECT: 0.38
BRANCH_CONDITIONAL: 1.19
BRANCH_DIRECT_CALL: 0.0067
BRANCH_INDIRECT_CALL: 0.431
BRANCH_RETURN: 0.0161

LLC TOTAL        ACCESS:    1368168 HIT:     866558 MISS:     501610
LLC LOAD         ACCESS:     584391 HIT:     357300 MISS:     227091
LLC RFO          ACCESS:      47117 HIT:      26762 MISS:      20355
LLC PREFETCH     ACCESS:     584391 HIT:     343700 MISS:     240691
LLC WRITE        ACCESS:     130136 HIT:     129407 MISS:        729
LLC TRANSLATION  ACCESS:      22133 HIT:       9389 MISS:      12744
LLC PREFETCH REQUESTED:     584391 ISSUED:     584391 USEFUL:      90360 USELESS:      83638
LLC AVERAGE MISS LATENCY: 632.7 cycles
cpu0_DTLB TOTAL        ACCESS:  133216680 HIT:  131863916 MISS:    1352764
cpu0_DTLB LOAD         ACCESS:  133216680 HIT:  131863916 MISS:    1352764
cpu0_DTLB RFO          ACCESS:          0 HIT:          0 MISS:          0
cpu0_DTLB PREFETCH     ACCESS:          0 HIT:          0 MISS:          0
cpu0_DTLB WRITE        ACCESS:          0 HIT:          0 MISS:          0
cpu0_DTLB TRANSLATION  ACCESS:          0 HIT:          0 MISS:          0
cpu0_DTLB PREFETCH REQUESTED:          0 ISSUED:          0 USEFUL:          0 USELESS:          0
cpu0_DTLB AVERAGE MISS LATENCY: 12.97 cycles
cpu0_ITLB TOTAL        ACCESS:    8990601 HIT:    8781048 MISS:     209553
cpu0_ITLB LOAD         ACCESS:    8990601 HIT:    8781048 MISS:     209553
cpu0_ITLB RFO          ACCESS:          0 HIT:          0 MISS:          0
cpu0_ITLB PREFETCH     ACCESS:          0 HIT:          0 MISS:          0
cpu0_ITLB WRITE        ACCESS:          0 HIT:          0 MISS:          0
cpu0_ITLB TRANSLATION  ACCESS:          0 HIT:          0 MISS:          0
cpu0_ITLB PREFETCH REQUESTED:          0 ISSUED:          0 USEFUL:          0 USELESS:          0
cpu0_ITLB AVERAGE MISS LATENCY: 3.304 cycles
cpu0_L1D TOTAL        ACCESS:  178278188 HIT:  175289762 MISS:    2988426
cpu0_L1D LOAD         ACCESS:   92759704 HIT:   90305360 MISS:    2454344
cpu0_L1D RFO          ACCESS:          0 HIT:          0 MISS:          0
cpu0_L1D PREFETCH     ACCESS:          0 HIT:          0 MISS:          0
cpu0_L1D WRITE        ACCESS:   85489956 HIT:   84982389 MISS:     507567
cpu0_L1D TRANSLATION  ACCESS:      28528 HIT:       2013 MISS:      26515
cpu0_L1D PREFETCH REQUESTED:          0 ISSUED:          0 USEFUL:          0 USELESS:          0
cpu0_L1D AVERAGE MISS LATENCY: 63.68 cycles
cpu0_L1I TOTAL        ACCESS:   10510079 HIT:    8613226 MISS:    1896853
cpu0_L1I LOAD         ACCESS:   10510079 HIT:    8613226 MISS:    1896853
cpu0_L1I RFO          ACCESS:          0 HIT:          0 MISS:          0
cpu0_L1I PREFETCH     ACCESS:          0 HIT:          0 MISS:          0
cpu0_L1I WRITE        ACCESS:          0 HIT:          0 MISS:          0
cpu0_L1I TRANSLATION  ACCESS:          0 HIT:          0 MISS:          0
cpu0_L1I PREFETCH REQUESTED:          0 ISSUED:          0 USEFUL:          0 USELESS:          0
cpu0_L1I AVERAGE MISS LATENCY: 10.73 cycles
cpu0_L2C TOTAL        ACCESS:    3235972 HIT:    2575738 MISS:     660234
cpu0_L2C LOAD         ACCESS:    2709057 HIT:    2124664 MISS:     584393
cpu0_L2C RFO          ACCESS:     135571 HIT:      88454 MISS:      47117
cpu0_L2C PREFETCH     ACCESS:          0 HIT:          0 MISS:          0
cpu0_L2C WRITE        ACCESS:     364908 HIT:     358317 MISS:       6591
cpu0_L2C TRANSLATION  ACCESS:      26436 HIT:       4303 MISS:      22133
cpu0_L2C PREFETCH REQUESTED:          0 ISSUED:          0 USEFUL:          0 USELESS:          0
cpu0_L2C AVERAGE MISS LATENCY: 297 cycles
cpu0_STLB TOTAL        ACCESS:    1009921 HIT:     983231 MISS:      26690
cpu0_STLB LOAD         ACCESS:    1009921 HIT:     983231 MISS:      26690
cpu0_STLB RFO          ACCESS:          0 HIT:          0 MISS:          0
cpu0_STLB PREFETCH     ACCESS:          0 HIT:          0 MISS:          0
cpu0_STLB WRITE        ACCESS:          0 HIT:          0 MISS:          0
cpu0_STLB TRANSLATION  ACCESS:          0 HIT:          0 MISS:          0
cpu0_STLB PREFETCH REQUESTED:          0 ISSUED:          0 USEFUL:          0 USELESS:          0
cpu0_STLB AVERAGE MISS LATENCY: 460.7 cycles

DRAM Statistics

Channel 0 RQ ROW_BUFFER_HIT:      88742
  ROW_BUFFER_MISS:     326257
 AVG DBUS CONGESTED CYCLE: 3.897
WQ ROW_BUFFER_HIT: Channel 0 
  ROW_BUFFER_MISS:       4673
  FULL:      49119
