WARNING: physical memory size is smaller than virtual memory size.

*** ChampSim Multicore Out-of-Order Simulator ***
Warmup Instructions: 50000000
Simulation Instructions: 600000000
Number of CPUs: 1
Page size: 4096

Off-chip DRAM Size: 4 GiB Channels: 1 Width: 64-bit Data Race: 3200 MT/s
Heartbeat CPU 0 instructions: 10000001 cycles: 2500318 heartbeat IPC: 3.999 cumulative IPC: 3.999 (Simulation time: 00 hr 00 min 35 sec)
Heartbeat CPU 0 instructions: 20000002 cycles: 5037128 heartbeat IPC: 3.942 cumulative IPC: 3.971 (Simulation time: 00 hr 01 min 13 sec)
Heartbeat CPU 0 instructions: 30000002 cycles: 7537128 heartbeat IPC: 4 cumulative IPC: 3.98 (Simulation time: 00 hr 01 min 51 sec)
Heartbeat CPU 0 instructions: 40000002 cycles: 10037128 heartbeat IPC: 4 cumulative IPC: 3.985 (Simulation time: 00 hr 02 min 35 sec)
Heartbeat CPU 0 instructions: 50000002 cycles: 12537128 heartbeat IPC: 4 cumulative IPC: 3.988 (Simulation time: 00 hr 03 min 19 sec)
Warmup finished CPU 0 instructions: 50000002 cycles: 12537129 cumulative IPC: 3.988 (Simulation time: 00 hr 03 min 19 sec)
Warmup complete CPU 0 instructions: 50000002 cycles: 12537129 cumulative IPC: 3.988 (Simulation time: 00 hr 03 min 19 sec)
Heartbeat CPU 0 instructions: 60000000 cycles: 17714908 heartbeat IPC: 1.931 cumulative IPC: 1.931 (Simulation time: 00 hr 04 min 32 sec)
Heartbeat CPU 0 instructions: 70000002 cycles: 22625033 heartbeat IPC: 2.037 cumulative IPC: 1.983 (Simulation time: 00 hr 05 min 40 sec)
Heartbeat CPU 0 instructions: 80000001 cycles: 28001275 heartbeat IPC: 1.86 cumulative IPC: 1.94 (Simulation time: 00 hr 06 min 51 sec)
Heartbeat CPU 0 instructions: 90000001 cycles: 32891753 heartbeat IPC: 2.045 cumulative IPC: 1.965 (Simulation time: 00 hr 07 min 59 sec)
Heartbeat CPU 0 instructions: 100000000 cycles: 38012171 heartbeat IPC: 1.953 cumulative IPC: 1.963 (Simulation time: 00 hr 09 min 08 sec)
Heartbeat CPU 0 instructions: 110000000 cycles: 42913569 heartbeat IPC: 2.04 cumulative IPC: 1.975 (Simulation time: 00 hr 10 min 16 sec)
Heartbeat CPU 0 instructions: 120000001 cycles: 48121998 heartbeat IPC: 1.92 cumulative IPC: 1.967 (Simulation time: 00 hr 11 min 25 sec)
Heartbeat CPU 0 instructions: 130000001 cycles: 53295253 heartbeat IPC: 1.933 cumulative IPC: 1.963 (Simulation time: 00 hr 12 min 35 sec)
Heartbeat CPU 0 instructions: 140000001 cycles: 58623584 heartbeat IPC: 1.877 cumulative IPC: 1.953 (Simulation time: 00 hr 13 min 42 sec)
Heartbeat CPU 0 instructions: 150000001 cycles: 63955241 heartbeat IPC: 1.876 cumulative IPC: 1.945 (Simulation time: 00 hr 14 min 51 sec)
Heartbeat CPU 0 instructions: 160000004 cycles: 69181044 heartbeat IPC: 1.914 cumulative IPC: 1.942 (Simulation time: 00 hr 16 min 01 sec)
Heartbeat CPU 0 instructions: 170000000 cycles: 78208671 heartbeat IPC: 1.108 cumulative IPC: 1.827 (Simulation time: 00 hr 17 min 46 sec)
Heartbeat CPU 0 instructions: 180000004 cycles: 85127051 heartbeat IPC: 1.445 cumulative IPC: 1.791 (Simulation time: 00 hr 19 min 17 sec)
Heartbeat CPU 0 instructions: 190000001 cycles: 92268527 heartbeat IPC: 1.4 cumulative IPC: 1.756 (Simulation time: 00 hr 20 min 47 sec)
Heartbeat CPU 0 instructions: 200000003 cycles: 96894270 heartbeat IPC: 2.162 cumulative IPC: 1.778 (Simulation time: 00 hr 21 min 55 sec)
Heartbeat CPU 0 instructions: 210000001 cycles: 101699720 heartbeat IPC: 2.081 cumulative IPC: 1.794 (Simulation time: 00 hr 23 min 05 sec)
Heartbeat CPU 0 instructions: 220000000 cycles: 106468723 heartbeat IPC: 2.097 cumulative IPC: 1.81 (Simulation time: 00 hr 24 min 15 sec)
Heartbeat CPU 0 instructions: 230000002 cycles: 111628507 heartbeat IPC: 1.938 cumulative IPC: 1.817 (Simulation time: 00 hr 25 min 22 sec)
Heartbeat CPU 0 instructions: 240000000 cycles: 116395816 heartbeat IPC: 2.098 cumulative IPC: 1.829 (Simulation time: 00 hr 26 min 32 sec)
Heartbeat CPU 0 instructions: 250000000 cycles: 121462711 heartbeat IPC: 1.974 cumulative IPC: 1.836 (Simulation time: 00 hr 27 min 44 sec)
Heartbeat CPU 0 instructions: 260000000 cycles: 126423799 heartbeat IPC: 2.016 cumulative IPC: 1.844 (Simulation time: 00 hr 28 min 53 sec)
Heartbeat CPU 0 instructions: 270000002 cycles: 131259401 heartbeat IPC: 2.068 cumulative IPC: 1.853 (Simulation time: 00 hr 30 min 03 sec)
Heartbeat CPU 0 instructions: 280000002 cycles: 136146013 heartbeat IPC: 2.046 cumulative IPC: 1.861 (Simulation time: 00 hr 31 min 12 sec)
Heartbeat CPU 0 instructions: 290000001 cycles: 141496239 heartbeat IPC: 1.869 cumulative IPC: 1.861 (Simulation time: 00 hr 32 min 23 sec)
Heartbeat CPU 0 instructions: 300000003 cycles: 146527422 heartbeat IPC: 1.988 cumulative IPC: 1.866 (Simulation time: 00 hr 33 min 38 sec)
Heartbeat CPU 0 instructions: 310000001 cycles: 151778057 heartbeat IPC: 1.905 cumulative IPC: 1.867 (Simulation time: 00 hr 34 min 49 sec)
Heartbeat CPU 0 instructions: 320000003 cycles: 156976601 heartbeat IPC: 1.924 cumulative IPC: 1.869 (Simulation time: 00 hr 36 min 01 sec)
Heartbeat CPU 0 instructions: 330000003 cycles: 162253449 heartbeat IPC: 1.895 cumulative IPC: 1.87 (Simulation time: 00 hr 37 min 12 sec)
Heartbeat CPU 0 instructions: 340000000 cycles: 171455703 heartbeat IPC: 1.087 cumulative IPC: 1.825 (Simulation time: 00 hr 38 min 53 sec)
Heartbeat CPU 0 instructions: 350000000 cycles: 179039695 heartbeat IPC: 1.319 cumulative IPC: 1.802 (Simulation time: 00 hr 40 min 30 sec)
Heartbeat CPU 0 instructions: 360000004 cycles: 186666831 heartbeat IPC: 1.311 cumulative IPC: 1.78 (Simulation time: 00 hr 42 min 03 sec)
Heartbeat CPU 0 instructions: 370000000 cycles: 190962079 heartbeat IPC: 2.328 cumulative IPC: 1.793 (Simulation time: 00 hr 43 min 07 sec)
Heartbeat CPU 0 instructions: 380000001 cycles: 195775582 heartbeat IPC: 2.077 cumulative IPC: 1.801 (Simulation time: 00 hr 44 min 10 sec)
Heartbeat CPU 0 instructions: 390000002 cycles: 200529099 heartbeat IPC: 2.104 cumulative IPC: 1.809 (Simulation time: 00 hr 45 min 16 sec)
Heartbeat CPU 0 instructions: 400000004 cycles: 205422995 heartbeat IPC: 2.043 cumulative IPC: 1.815 (Simulation time: 00 hr 46 min 27 sec)
Heartbeat CPU 0 instructions: 410000000 cycles: 210053370 heartbeat IPC: 2.16 cumulative IPC: 1.823 (Simulation time: 00 hr 47 min 32 sec)
Heartbeat CPU 0 instructions: 420000000 cycles: 215073871 heartbeat IPC: 1.992 cumulative IPC: 1.827 (Simulation time: 00 hr 48 min 38 sec)
Heartbeat CPU 0 instructions: 430000001 cycles: 219489030 heartbeat IPC: 2.265 cumulative IPC: 1.836 (Simulation time: 00 hr 49 min 43 sec)
Heartbeat CPU 0 instructions: 440000000 cycles: 224777497 heartbeat IPC: 1.891 cumulative IPC: 1.838 (Simulation time: 00 hr 50 min 53 sec)
Heartbeat CPU 0 instructions: 450000002 cycles: 229386258 heartbeat IPC: 2.17 cumulative IPC: 1.845 (Simulation time: 00 hr 51 min 59 sec)
Heartbeat CPU 0 instructions: 460000000 cycles: 234144160 heartbeat IPC: 2.102 cumulative IPC: 1.85 (Simulation time: 00 hr 53 min 07 sec)
Heartbeat CPU 0 instructions: 470000000 cycles: 239082224 heartbeat IPC: 2.025 cumulative IPC: 1.854 (Simulation time: 00 hr 54 min 16 sec)
Heartbeat CPU 0 instructions: 480000003 cycles: 243853019 heartbeat IPC: 2.096 cumulative IPC: 1.859 (Simulation time: 00 hr 55 min 22 sec)
Heartbeat CPU 0 instructions: 490000000 cycles: 248451201 heartbeat IPC: 2.175 cumulative IPC: 1.865 (Simulation time: 00 hr 56 min 28 sec)
Heartbeat CPU 0 instructions: 500000000 cycles: 253462328 heartbeat IPC: 1.996 cumulative IPC: 1.868 (Simulation time: 00 hr 57 min 40 sec)
Heartbeat CPU 0 instructions: 510000003 cycles: 259094846 heartbeat IPC: 1.775 cumulative IPC: 1.866 (Simulation time: 00 hr 58 min 56 sec)
Heartbeat CPU 0 instructions: 520000001 cycles: 263764431 heartbeat IPC: 2.142 cumulative IPC: 1.871 (Simulation time: 01 hr 00 min 03 sec)
Heartbeat CPU 0 instructions: 530000002 cycles: 268898238 heartbeat IPC: 1.948 cumulative IPC: 1.872 (Simulation time: 01 hr 01 min 13 sec)
Heartbeat CPU 0 instructions: 540000000 cycles: 274001490 heartbeat IPC: 1.96 cumulative IPC: 1.874 (Simulation time: 01 hr 02 min 24 sec)
Heartbeat CPU 0 instructions: 550000001 cycles: 278809781 heartbeat IPC: 2.08 cumulative IPC: 1.878 (Simulation time: 01 hr 03 min 28 sec)
Heartbeat CPU 0 instructions: 560000000 cycles: 284044618 heartbeat IPC: 1.91 cumulative IPC: 1.878 (Simulation time: 01 hr 04 min 32 sec)
Heartbeat CPU 0 instructions: 570000004 cycles: 291229483 heartbeat IPC: 1.392 cumulative IPC: 1.866 (Simulation time: 01 hr 05 min 57 sec)
Heartbeat CPU 0 instructions: 580000003 cycles: 299834548 heartbeat IPC: 1.162 cumulative IPC: 1.845 (Simulation time: 01 hr 07 min 38 sec)
Heartbeat CPU 0 instructions: 590000002 cycles: 308431375 heartbeat IPC: 1.163 cumulative IPC: 1.825 (Simulation time: 01 hr 09 min 21 sec)
Heartbeat CPU 0 instructions: 600000000 cycles: 312859216 heartbeat IPC: 2.258 cumulative IPC: 1.831 (Simulation time: 01 hr 10 min 24 sec)
Heartbeat CPU 0 instructions: 610000002 cycles: 317260952 heartbeat IPC: 2.272 cumulative IPC: 1.838 (Simulation time: 01 hr 11 min 30 sec)
Heartbeat CPU 0 instructions: 620000000 cycles: 322004059 heartbeat IPC: 2.108 cumulative IPC: 1.842 (Simulation time: 01 hr 12 min 36 sec)
Heartbeat CPU 0 instructions: 630000002 cycles: 327001478 heartbeat IPC: 2.001 cumulative IPC: 1.844 (Simulation time: 01 hr 13 min 46 sec)
Heartbeat CPU 0 instructions: 640000001 cycles: 331818336 heartbeat IPC: 2.076 cumulative IPC: 1.848 (Simulation time: 01 hr 15 min 01 sec)
Heartbeat CPU 0 instructions: 650000000 cycles: 336340643 heartbeat IPC: 2.211 cumulative IPC: 1.853 (Simulation time: 01 hr 16 min 11 sec)
Simulation finished CPU 0 instructions: 600000001 cycles: 323803516 cumulative IPC: 1.853 (Simulation time: 01 hr 16 min 11 sec)
Simulation complete CPU 0 instructions: 600000001 cycles: 323803516 cumulative IPC: 1.853 (Simulation time: 01 hr 16 min 11 sec)

ChampSim completed all CPUs

=== Simulation ===
CPU 0 runs traces/400.perlbench-41B.champsimtrace.xz
Region of Interest Statistics

CPU 0 cumulative IPC: 1.853 instructions: 600000001 cycles: 323803516
CPU 0 Branch Prediction Accuracy: 93.95% MPKI: 12.5 Average ROB Occupancy at Mispredict: 29.51
Branch type MPKI
BRANCH_DIRECT_JUMP: 0.0123
BRANCH_INDIRECT: 0.323
BRANCH_CONDITIONAL: 12
BRANCH_DIRECT_CALL: 0.0043
BRANCH_INDIRECT_CALL: 0.2
BRANCH_RETURN: 0.00828

LLC TOTAL        ACCESS:     541065 HIT:     409185 MISS:     131880
LLC LOAD         ACCESS:     403661 HIT:     298860 MISS:     104801
LLC RFO          ACCESS:      32596 HIT:      22840 MISS:       9756
LLC PREFETCH     ACCESS:          0 HIT:          0 MISS:          0
LLC WRITE        ACCESS:      85707 HIT:      78311 MISS:       7396
LLC TRANSLATION  ACCESS:      19101 HIT:       9174 MISS:       9927
LLC PREFETCH REQUESTED:          0 ISSUED:          0 USEFUL:          0 USELESS:          0
LLC AVERAGE MISS LATENCY: 500.8 cycles
cpu0_DTLB TOTAL        ACCESS:  153674383 HIT:  152996955 MISS:     677428
cpu0_DTLB LOAD         ACCESS:  153674383 HIT:  152996955 MISS:     677428
cpu0_DTLB RFO          ACCESS:          0 HIT:          0 MISS:          0
cpu0_DTLB PREFETCH     ACCESS:          0 HIT:          0 MISS:          0
cpu0_DTLB WRITE        ACCESS:          0 HIT:          0 MISS:          0
cpu0_DTLB TRANSLATION  ACCESS:          0 HIT:          0 MISS:          0
cpu0_DTLB PREFETCH REQUESTED:          0 ISSUED:          0 USEFUL:          0 USELESS:          0
cpu0_DTLB AVERAGE MISS LATENCY: 14.22 cycles
cpu0_ITLB TOTAL        ACCESS:    4839241 HIT:    4781397 MISS:      57844
cpu0_ITLB LOAD         ACCESS:    4839241 HIT:    4781397 MISS:      57844
cpu0_ITLB RFO          ACCESS:          0 HIT:          0 MISS:          0
cpu0_ITLB PREFETCH     ACCESS:          0 HIT:          0 MISS:          0
cpu0_ITLB WRITE        ACCESS:          0 HIT:          0 MISS:          0
cpu0_ITLB TRANSLATION  ACCESS:          0 HIT:          0 MISS:          0
cpu0_ITLB PREFETCH REQUESTED:          0 ISSUED:          0 USEFUL:          0 USELESS:          0
cpu0_ITLB AVERAGE MISS LATENCY: 5.653 cycles
cpu0_L1D TOTAL        ACCESS:  200292817 HIT:  198597975 MISS:    1694842
cpu0_L1D LOAD         ACCESS:  117049932 HIT:  115730173 MISS:    1319759
cpu0_L1D RFO          ACCESS:          0 HIT:          0 MISS:          0
cpu0_L1D PREFETCH     ACCESS:          0 HIT:          0 MISS:          0
cpu0_L1D WRITE        ACCESS:   83218425 HIT:   82866769 MISS:     351656
cpu0_L1D TRANSLATION  ACCESS:      24460 HIT:       1033 MISS:      23427
cpu0_L1D PREFETCH REQUESTED:          0 ISSUED:          0 USEFUL:          0 USELESS:          0
cpu0_L1D AVERAGE MISS LATENCY: 45.63 cycles
cpu0_L1I TOTAL        ACCESS:    5581329 HIT:    4820005 MISS:     761324
cpu0_L1I LOAD         ACCESS:    5581329 HIT:    4820005 MISS:     761324
cpu0_L1I RFO          ACCESS:          0 HIT:          0 MISS:          0
cpu0_L1I PREFETCH     ACCESS:          0 HIT:          0 MISS:          0
cpu0_L1I WRITE        ACCESS:          0 HIT:          0 MISS:          0
cpu0_L1I TRANSLATION  ACCESS:          0 HIT:          0 MISS:          0
cpu0_L1I PREFETCH REQUESTED:          0 ISSUED:          0 USEFUL:          0 USELESS:          0
cpu0_L1I AVERAGE MISS LATENCY: 11.65 cycles
cpu0_L2C TOTAL        ACCESS:    1667956 HIT:    1210755 MISS:     457201
cpu0_L2C LOAD         ACCESS:    1317143 HIT:     913482 MISS:     403661
cpu0_L2C RFO          ACCESS:      88609 HIT:      56013 MISS:      32596
cpu0_L2C PREFETCH     ACCESS:          0 HIT:          0 MISS:          0
cpu0_L2C WRITE        ACCESS:     238856 HIT:     237013 MISS:       1843
cpu0_L2C TRANSLATION  ACCESS:      23348 HIT:       4247 MISS:      19101
cpu0_L2C PREFETCH REQUESTED:          0 ISSUED:          0 USEFUL:          0 USELESS:          0
cpu0_L2C AVERAGE MISS LATENCY: 164.6 cycles
cpu0_STLB TOTAL        ACCESS:     505183 HIT:     482393 MISS:      22790
cpu0_STLB LOAD         ACCESS:     505183 HIT:     482393 MISS:      22790
cpu0_STLB RFO          ACCESS:          0 HIT:          0 MISS:          0
cpu0_STLB PREFETCH     ACCESS:          0 HIT:          0 MISS:          0
cpu0_STLB WRITE        ACCESS:          0 HIT:          0 MISS:          0
cpu0_STLB TRANSLATION  ACCESS:          0 HIT:          0 MISS:          0
cpu0_STLB PREFETCH REQUESTED:          0 ISSUED:          0 USEFUL:          0 USELESS:          0
cpu0_STLB AVERAGE MISS LATENCY: 294.7 cycles

DRAM Statistics

Channel 0 RQ ROW_BUFFER_HIT:      19210
  ROW_BUFFER_MISS:     105257
 AVG DBUS CONGESTED CYCLE: 3.777
WQ ROW_BUFFER_HIT: Channel 0 
  ROW_BUFFER_MISS:       6943
  FULL:      14809
