WARNING: physical memory size is smaller than virtual memory size.

*** ChampSim Multicore Out-of-Order Simulator ***
Warmup Instructions: 50000000
Simulation Instructions: 600000000
Number of CPUs: 1
Page size: 4096

Off-chip DRAM Size: 4 GiB Channels: 1 Width: 64-bit Data Race: 3200 MT/s
Heartbeat CPU 0 instructions: 10000001 cycles: 2500318 heartbeat IPC: 3.999 cumulative IPC: 3.999 (Simulation time: 00 hr 00 min 56 sec)
Heartbeat CPU 0 instructions: 20000002 cycles: 5037125 heartbeat IPC: 3.942 cumulative IPC: 3.971 (Simulation time: 00 hr 01 min 53 sec)
Heartbeat CPU 0 instructions: 30000002 cycles: 7537125 heartbeat IPC: 4 cumulative IPC: 3.98 (Simulation time: 00 hr 02 min 39 sec)
Heartbeat CPU 0 instructions: 40000002 cycles: 10037125 heartbeat IPC: 4 cumulative IPC: 3.985 (Simulation time: 00 hr 03 min 25 sec)
Heartbeat CPU 0 instructions: 50000002 cycles: 12537125 heartbeat IPC: 4 cumulative IPC: 3.988 (Simulation time: 00 hr 04 min 12 sec)
Warmup finished CPU 0 instructions: 50000002 cycles: 12537126 cumulative IPC: 3.988 (Simulation time: 00 hr 04 min 12 sec)
Warmup complete CPU 0 instructions: 50000002 cycles: 12537126 cumulative IPC: 3.988 (Simulation time: 00 hr 04 min 12 sec)
Heartbeat CPU 0 instructions: 60000000 cycles: 17132942 heartbeat IPC: 2.176 cumulative IPC: 2.176 (Simulation time: 00 hr 05 min 29 sec)
Heartbeat CPU 0 instructions: 70000004 cycles: 21393144 heartbeat IPC: 2.347 cumulative IPC: 2.258 (Simulation time: 00 hr 06 min 51 sec)
Heartbeat CPU 0 instructions: 80000001 cycles: 25974868 heartbeat IPC: 2.183 cumulative IPC: 2.233 (Simulation time: 00 hr 08 min 18 sec)
Heartbeat CPU 0 instructions: 90000001 cycles: 30096147 heartbeat IPC: 2.426 cumulative IPC: 2.278 (Simulation time: 00 hr 09 min 32 sec)
Heartbeat CPU 0 instructions: 100000000 cycles: 34143780 heartbeat IPC: 2.471 cumulative IPC: 2.314 (Simulation time: 00 hr 10 min 41 sec)
Heartbeat CPU 0 instructions: 110000000 cycles: 38367771 heartbeat IPC: 2.367 cumulative IPC: 2.323 (Simulation time: 00 hr 11 min 54 sec)
Heartbeat CPU 0 instructions: 120000001 cycles: 42371662 heartbeat IPC: 2.498 cumulative IPC: 2.346 (Simulation time: 00 hr 13 min 06 sec)
Heartbeat CPU 0 instructions: 130000001 cycles: 46098359 heartbeat IPC: 2.683 cumulative IPC: 2.384 (Simulation time: 00 hr 14 min 16 sec)
Heartbeat CPU 0 instructions: 140000001 cycles: 50248348 heartbeat IPC: 2.41 cumulative IPC: 2.387 (Simulation time: 00 hr 15 min 25 sec)
Heartbeat CPU 0 instructions: 150000001 cycles: 54437538 heartbeat IPC: 2.387 cumulative IPC: 2.387 (Simulation time: 00 hr 16 min 32 sec)
Heartbeat CPU 0 instructions: 160000004 cycles: 58843355 heartbeat IPC: 2.27 cumulative IPC: 2.375 (Simulation time: 00 hr 17 min 45 sec)
Heartbeat CPU 0 instructions: 170000000 cycles: 67444675 heartbeat IPC: 1.163 cumulative IPC: 2.185 (Simulation time: 00 hr 19 min 54 sec)
Heartbeat CPU 0 instructions: 180000004 cycles: 76463052 heartbeat IPC: 1.109 cumulative IPC: 2.034 (Simulation time: 00 hr 21 min 58 sec)
Heartbeat CPU 0 instructions: 190000001 cycles: 86362125 heartbeat IPC: 1.01 cumulative IPC: 1.896 (Simulation time: 00 hr 23 min 55 sec)
Heartbeat CPU 0 instructions: 200000004 cycles: 90131975 heartbeat IPC: 2.653 cumulative IPC: 1.933 (Simulation time: 00 hr 25 min 02 sec)
Heartbeat CPU 0 instructions: 210000001 cycles: 94032450 heartbeat IPC: 2.564 cumulative IPC: 1.963 (Simulation time: 00 hr 26 min 13 sec)
Heartbeat CPU 0 instructions: 220000000 cycles: 97983250 heartbeat IPC: 2.531 cumulative IPC: 1.99 (Simulation time: 00 hr 27 min 21 sec)
Heartbeat CPU 0 instructions: 230000002 cycles: 102620577 heartbeat IPC: 2.156 cumulative IPC: 1.998 (Simulation time: 00 hr 28 min 30 sec)
Heartbeat CPU 0 instructions: 240000000 cycles: 106794010 heartbeat IPC: 2.396 cumulative IPC: 2.016 (Simulation time: 00 hr 29 min 35 sec)
Heartbeat CPU 0 instructions: 250000000 cycles: 111097965 heartbeat IPC: 2.323 cumulative IPC: 2.029 (Simulation time: 00 hr 30 min 53 sec)
Heartbeat CPU 0 instructions: 260000000 cycles: 115258483 heartbeat IPC: 2.404 cumulative IPC: 2.044 (Simulation time: 00 hr 32 min 26 sec)
Heartbeat CPU 0 instructions: 270000002 cycles: 119103923 heartbeat IPC: 2.6 cumulative IPC: 2.064 (Simulation time: 00 hr 33 min 48 sec)
Heartbeat CPU 0 instructions: 280000002 cycles: 123255708 heartbeat IPC: 2.409 cumulative IPC: 2.077 (Simulation time: 00 hr 35 min 03 sec)
Heartbeat CPU 0 instructions: 290000001 cycles: 127143588 heartbeat IPC: 2.572 cumulative IPC: 2.094 (Simulation time: 00 hr 36 min 11 sec)
Heartbeat CPU 0 instructions: 300000003 cycles: 130948541 heartbeat IPC: 2.628 cumulative IPC: 2.111 (Simulation time: 00 hr 37 min 22 sec)
Heartbeat CPU 0 instructions: 310000001 cycles: 135049342 heartbeat IPC: 2.439 cumulative IPC: 2.122 (Simulation time: 00 hr 38 min 34 sec)
Heartbeat CPU 0 instructions: 320000003 cycles: 139109753 heartbeat IPC: 2.463 cumulative IPC: 2.133 (Simulation time: 00 hr 39 min 43 sec)
Heartbeat CPU 0 instructions: 330000003 cycles: 143500625 heartbeat IPC: 2.277 cumulative IPC: 2.138 (Simulation time: 00 hr 40 min 53 sec)
Heartbeat CPU 0 instructions: 340000000 cycles: 152153431 heartbeat IPC: 1.156 cumulative IPC: 2.077 (Simulation time: 00 hr 42 min 38 sec)
Heartbeat CPU 0 instructions: 350000000 cycles: 161511950 heartbeat IPC: 1.069 cumulative IPC: 2.014 (Simulation time: 00 hr 44 min 57 sec)
Heartbeat CPU 0 instructions: 360000004 cycles: 171498192 heartbeat IPC: 1.001 cumulative IPC: 1.95 (Simulation time: 00 hr 47 min 13 sec)
Heartbeat CPU 0 instructions: 370000000 cycles: 174932071 heartbeat IPC: 2.912 cumulative IPC: 1.971 (Simulation time: 00 hr 48 min 22 sec)
Heartbeat CPU 0 instructions: 380000001 cycles: 178346476 heartbeat IPC: 2.929 cumulative IPC: 1.99 (Simulation time: 00 hr 49 min 29 sec)
Heartbeat CPU 0 instructions: 390000004 cycles: 182084098 heartbeat IPC: 2.675 cumulative IPC: 2.005 (Simulation time: 00 hr 50 min 41 sec)
Heartbeat CPU 0 instructions: 400000004 cycles: 185889427 heartbeat IPC: 2.628 cumulative IPC: 2.019 (Simulation time: 00 hr 51 min 48 sec)
Heartbeat CPU 0 instructions: 410000001 cycles: 189538099 heartbeat IPC: 2.741 cumulative IPC: 2.034 (Simulation time: 00 hr 52 min 54 sec)
Heartbeat CPU 0 instructions: 420000003 cycles: 193553734 heartbeat IPC: 2.49 cumulative IPC: 2.044 (Simulation time: 00 hr 54 min 01 sec)
Heartbeat CPU 0 instructions: 430000001 cycles: 197211732 heartbeat IPC: 2.734 cumulative IPC: 2.058 (Simulation time: 00 hr 55 min 05 sec)
Heartbeat CPU 0 instructions: 440000004 cycles: 201290767 heartbeat IPC: 2.452 cumulative IPC: 2.066 (Simulation time: 00 hr 56 min 14 sec)
Heartbeat CPU 0 instructions: 450000002 cycles: 205012956 heartbeat IPC: 2.687 cumulative IPC: 2.078 (Simulation time: 00 hr 57 min 38 sec)
Heartbeat CPU 0 instructions: 460000000 cycles: 208677069 heartbeat IPC: 2.729 cumulative IPC: 2.09 (Simulation time: 00 hr 58 min 54 sec)
Heartbeat CPU 0 instructions: 470000000 cycles: 212140263 heartbeat IPC: 2.888 cumulative IPC: 2.104 (Simulation time: 01 hr 00 min 03 sec)
Heartbeat CPU 0 instructions: 480000003 cycles: 215971648 heartbeat IPC: 2.61 cumulative IPC: 2.114 (Simulation time: 01 hr 01 min 15 sec)
Heartbeat CPU 0 instructions: 490000000 cycles: 219602838 heartbeat IPC: 2.754 cumulative IPC: 2.125 (Simulation time: 01 hr 02 min 23 sec)
Heartbeat CPU 0 instructions: 500000000 cycles: 223302274 heartbeat IPC: 2.703 cumulative IPC: 2.135 (Simulation time: 01 hr 03 min 35 sec)
Heartbeat CPU 0 instructions: 510000003 cycles: 226986505 heartbeat IPC: 2.714 cumulative IPC: 2.145 (Simulation time: 01 hr 04 min 46 sec)
Heartbeat CPU 0 instructions: 520000001 cycles: 230396588 heartbeat IPC: 2.932 cumulative IPC: 2.157 (Simulation time: 01 hr 05 min 53 sec)
Heartbeat CPU 0 instructions: 530000002 cycles: 234077527 heartbeat IPC: 2.717 cumulative IPC: 2.167 (Simulation time: 01 hr 06 min 58 sec)
Heartbeat CPU 0 instructions: 540000000 cycles: 237604713 heartbeat IPC: 2.835 cumulative IPC: 2.177 (Simulation time: 01 hr 08 min 00 sec)
Heartbeat CPU 0 instructions: 550000001 cycles: 241295865 heartbeat IPC: 2.709 cumulative IPC: 2.186 (Simulation time: 01 hr 09 min 00 sec)
Heartbeat CPU 0 instructions: 560000000 cycles: 245293158 heartbeat IPC: 2.502 cumulative IPC: 2.191 (Simulation time: 01 hr 10 min 14 sec)
Heartbeat CPU 0 instructions: 570000004 cycles: 251321486 heartbeat IPC: 1.659 cumulative IPC: 2.178 (Simulation time: 01 hr 11 min 57 sec)
Heartbeat CPU 0 instructions: 580000003 cycles: 261330736 heartbeat IPC: 0.9991 cumulative IPC: 2.13 (Simulation time: 01 hr 14 min 13 sec)
Heartbeat CPU 0 instructions: 590000002 cycles: 273332525 heartbeat IPC: 0.8332 cumulative IPC: 2.071 (Simulation time: 01 hr 16 min 42 sec)
Heartbeat CPU 0 instructions: 600000000 cycles: 277069352 heartbeat IPC: 2.676 cumulative IPC: 2.079 (Simulation time: 01 hr 17 min 53 sec)
Heartbeat CPU 0 instructions: 610000000 cycles: 280918180 heartbeat IPC: 2.598 cumulative IPC: 2.087 (Simulation time: 01 hr 19 min 05 sec)
Heartbeat CPU 0 instructions: 620000001 cycles: 284349816 heartbeat IPC: 2.914 cumulative IPC: 2.097 (Simulation time: 01 hr 20 min 12 sec)
Heartbeat CPU 0 instructions: 630000002 cycles: 288612250 heartbeat IPC: 2.346 cumulative IPC: 2.101 (Simulation time: 01 hr 21 min 21 sec)
Heartbeat CPU 0 instructions: 640000001 cycles: 292507110 heartbeat IPC: 2.567 cumulative IPC: 2.107 (Simulation time: 01 hr 22 min 28 sec)
Heartbeat CPU 0 instructions: 650000000 cycles: 296261702 heartbeat IPC: 2.663 cumulative IPC: 2.115 (Simulation time: 01 hr 23 min 48 sec)
Simulation finished CPU 0 instructions: 600000001 cycles: 283724578 cumulative IPC: 2.115 (Simulation time: 01 hr 23 min 48 sec)
Simulation complete CPU 0 instructions: 600000001 cycles: 283724578 cumulative IPC: 2.115 (Simulation time: 01 hr 23 min 48 sec)

ChampSim completed all CPUs

=== Simulation ===
CPU 0 runs traces/400.perlbench-41B.champsimtrace.xz
Region of Interest Statistics

CPU 0 cumulative IPC: 2.115 instructions: 600000001 cycles: 283724578
CPU 0 Branch Prediction Accuracy: 96.56% MPKI: 7.112 Average ROB Occupancy at Mispredict: 47.16
Branch type MPKI
BRANCH_DIRECT_JUMP: 0.0123
BRANCH_INDIRECT: 0.323
BRANCH_CONDITIONAL: 6.56
BRANCH_DIRECT_CALL: 0.0043
BRANCH_INDIRECT_CALL: 0.2
BRANCH_RETURN: 0.00828

LLC TOTAL        ACCESS:     538791 HIT:     316256 MISS:     222535
LLC LOAD         ACCESS:     401638 HIT:     199486 MISS:     202152
LLC RFO          ACCESS:      32304 HIT:      26875 MISS:       5429
LLC PREFETCH     ACCESS:          0 HIT:          0 MISS:          0
LLC WRITE        ACCESS:      85954 HIT:      82366 MISS:       3588
LLC TRANSLATION  ACCESS:      18895 HIT:       7529 MISS:      11366
LLC PREFETCH REQUESTED:          0 ISSUED:          0 USEFUL:          0 USELESS:          0
LLC AVERAGE MISS LATENCY: 503 cycles
cpu0_DTLB TOTAL        ACCESS:  141915038 HIT:  141228412 MISS:     686626
cpu0_DTLB LOAD         ACCESS:  141915038 HIT:  141228412 MISS:     686626
cpu0_DTLB RFO          ACCESS:          0 HIT:          0 MISS:          0
cpu0_DTLB PREFETCH     ACCESS:          0 HIT:          0 MISS:          0
cpu0_DTLB WRITE        ACCESS:          0 HIT:          0 MISS:          0
cpu0_DTLB TRANSLATION  ACCESS:          0 HIT:          0 MISS:          0
cpu0_DTLB PREFETCH REQUESTED:          0 ISSUED:          0 USEFUL:          0 USELESS:          0
cpu0_DTLB AVERAGE MISS LATENCY: 15.01 cycles
cpu0_ITLB TOTAL        ACCESS:    4860446 HIT:    4807298 MISS:      53148
cpu0_ITLB LOAD         ACCESS:    4860446 HIT:    4807298 MISS:      53148
cpu0_ITLB RFO          ACCESS:          0 HIT:          0 MISS:          0
cpu0_ITLB PREFETCH     ACCESS:          0 HIT:          0 MISS:          0
cpu0_ITLB WRITE        ACCESS:          0 HIT:          0 MISS:          0
cpu0_ITLB TRANSLATION  ACCESS:          0 HIT:          0 MISS:          0
cpu0_ITLB PREFETCH REQUESTED:          0 ISSUED:          0 USEFUL:          0 USELESS:          0
cpu0_ITLB AVERAGE MISS LATENCY: 7.9 cycles
cpu0_L1D TOTAL        ACCESS:  188579335 HIT:  187235956 MISS:    1343379
cpu0_L1D LOAD         ACCESS:  105210503 HIT:  104164591 MISS:    1045912
cpu0_L1D RFO          ACCESS:          0 HIT:          0 MISS:          0
cpu0_L1D PREFETCH     ACCESS:          0 HIT:          0 MISS:          0
cpu0_L1D WRITE        ACCESS:   83344372 HIT:   83069763 MISS:     274609
cpu0_L1D TRANSLATION  ACCESS:      24460 HIT:       1602 MISS:      22858
cpu0_L1D PREFETCH REQUESTED:          0 ISSUED:          0 USEFUL:          0 USELESS:          0
cpu0_L1D AVERAGE MISS LATENCY: 89.68 cycles
cpu0_L1I TOTAL        ACCESS:    5598374 HIT:    4854703 MISS:     743671
cpu0_L1I LOAD         ACCESS:    5598374 HIT:    4854703 MISS:     743671
cpu0_L1I RFO          ACCESS:          0 HIT:          0 MISS:          0
cpu0_L1I PREFETCH     ACCESS:          0 HIT:          0 MISS:          0
cpu0_L1I WRITE        ACCESS:          0 HIT:          0 MISS:          0
cpu0_L1I TRANSLATION  ACCESS:          0 HIT:          0 MISS:          0
cpu0_L1I PREFETCH REQUESTED:          0 ISSUED:          0 USEFUL:          0 USELESS:          0
cpu0_L1I AVERAGE MISS LATENCY: 11.29 cycles
cpu0_L2C TOTAL        ACCESS:    1381158 HIT:     924769 MISS:     456389
cpu0_L2C LOAD         ACCESS:    1124749 HIT:     723111 MISS:     401638
cpu0_L2C RFO          ACCESS:      63764 HIT:      31460 MISS:      32304
cpu0_L2C PREFETCH     ACCESS:          0 HIT:          0 MISS:          0
cpu0_L2C WRITE        ACCESS:     169857 HIT:     166305 MISS:       3552
cpu0_L2C TRANSLATION  ACCESS:      22788 HIT:       3893 MISS:      18895
cpu0_L2C PREFETCH REQUESTED:          0 ISSUED:          0 USEFUL:          0 USELESS:          0
cpu0_L2C AVERAGE MISS LATENCY: 265.6 cycles
cpu0_STLB TOTAL        ACCESS:     507378 HIT:     484585 MISS:      22793
cpu0_STLB LOAD         ACCESS:     507378 HIT:     484585 MISS:      22793
cpu0_STLB RFO          ACCESS:          0 HIT:          0 MISS:          0
cpu0_STLB PREFETCH     ACCESS:          0 HIT:          0 MISS:          0
cpu0_STLB WRITE        ACCESS:          0 HIT:          0 MISS:          0
cpu0_STLB TRANSLATION  ACCESS:          0 HIT:          0 MISS:          0
cpu0_STLB PREFETCH REQUESTED:          0 ISSUED:          0 USEFUL:          0 USELESS:          0
cpu0_STLB AVERAGE MISS LATENCY: 332.9 cycles

DRAM Statistics

Channel 0 RQ ROW_BUFFER_HIT:      53086
  ROW_BUFFER_MISS:     165855
 AVG DBUS CONGESTED CYCLE: 3.71
WQ ROW_BUFFER_HIT: Channel 0 
  ROW_BUFFER_MISS:       2561
  FULL:       3126
