WARNING: physical memory size is smaller than virtual memory size.

*** ChampSim Multicore Out-of-Order Simulator ***
Warmup Instructions: 50000000
Simulation Instructions: 600000000
Number of CPUs: 1
Page size: 4096

Off-chip DRAM Size: 4 GiB Channels: 1 Width: 64-bit Data Race: 3200 MT/s
Heartbeat CPU 0 instructions: 10000001 cycles: 2500318 heartbeat IPC: 3.999 cumulative IPC: 3.999 (Simulation time: 00 hr 00 min 52 sec)
Heartbeat CPU 0 instructions: 20000002 cycles: 5037110 heartbeat IPC: 3.942 cumulative IPC: 3.971 (Simulation time: 00 hr 01 min 42 sec)
Heartbeat CPU 0 instructions: 30000002 cycles: 7537110 heartbeat IPC: 4 cumulative IPC: 3.98 (Simulation time: 00 hr 02 min 26 sec)
Heartbeat CPU 0 instructions: 40000002 cycles: 10037110 heartbeat IPC: 4 cumulative IPC: 3.985 (Simulation time: 00 hr 03 min 16 sec)
Heartbeat CPU 0 instructions: 50000002 cycles: 12537110 heartbeat IPC: 4 cumulative IPC: 3.988 (Simulation time: 00 hr 04 min 04 sec)
Warmup finished CPU 0 instructions: 50000002 cycles: 12537111 cumulative IPC: 3.988 (Simulation time: 00 hr 04 min 04 sec)
Warmup complete CPU 0 instructions: 50000002 cycles: 12537111 cumulative IPC: 3.988 (Simulation time: 00 hr 04 min 04 sec)
Heartbeat CPU 0 instructions: 60000000 cycles: 17679109 heartbeat IPC: 1.945 cumulative IPC: 1.945 (Simulation time: 00 hr 05 min 21 sec)
Heartbeat CPU 0 instructions: 70000002 cycles: 22553033 heartbeat IPC: 2.052 cumulative IPC: 1.997 (Simulation time: 00 hr 06 min 30 sec)
Heartbeat CPU 0 instructions: 80000001 cycles: 27895772 heartbeat IPC: 1.872 cumulative IPC: 1.953 (Simulation time: 00 hr 07 min 42 sec)
Heartbeat CPU 0 instructions: 90000001 cycles: 32757793 heartbeat IPC: 2.057 cumulative IPC: 1.978 (Simulation time: 00 hr 08 min 54 sec)
Heartbeat CPU 0 instructions: 100000000 cycles: 37852626 heartbeat IPC: 1.963 cumulative IPC: 1.975 (Simulation time: 00 hr 09 min 58 sec)
Heartbeat CPU 0 instructions: 110000000 cycles: 42722692 heartbeat IPC: 2.053 cumulative IPC: 1.988 (Simulation time: 00 hr 11 min 00 sec)
Heartbeat CPU 0 instructions: 120000001 cycles: 47895702 heartbeat IPC: 1.933 cumulative IPC: 1.98 (Simulation time: 00 hr 12 min 10 sec)
Heartbeat CPU 0 instructions: 130000001 cycles: 53028771 heartbeat IPC: 1.948 cumulative IPC: 1.976 (Simulation time: 00 hr 13 min 19 sec)
Heartbeat CPU 0 instructions: 140000001 cycles: 58309941 heartbeat IPC: 1.894 cumulative IPC: 1.966 (Simulation time: 00 hr 14 min 29 sec)
Heartbeat CPU 0 instructions: 150000001 cycles: 63604224 heartbeat IPC: 1.889 cumulative IPC: 1.958 (Simulation time: 00 hr 15 min 39 sec)
Heartbeat CPU 0 instructions: 160000004 cycles: 68772447 heartbeat IPC: 1.935 cumulative IPC: 1.956 (Simulation time: 00 hr 16 min 48 sec)
Heartbeat CPU 0 instructions: 170000000 cycles: 77520054 heartbeat IPC: 1.143 cumulative IPC: 1.847 (Simulation time: 00 hr 18 min 25 sec)
Heartbeat CPU 0 instructions: 180000004 cycles: 86105160 heartbeat IPC: 1.165 cumulative IPC: 1.767 (Simulation time: 00 hr 20 min 04 sec)
Heartbeat CPU 0 instructions: 190000001 cycles: 95858818 heartbeat IPC: 1.025 cumulative IPC: 1.68 (Simulation time: 00 hr 21 min 46 sec)
Heartbeat CPU 0 instructions: 200000003 cycles: 100575744 heartbeat IPC: 2.12 cumulative IPC: 1.704 (Simulation time: 00 hr 22 min 47 sec)
Heartbeat CPU 0 instructions: 210000001 cycles: 105451006 heartbeat IPC: 2.051 cumulative IPC: 1.722 (Simulation time: 00 hr 23 min 50 sec)
Heartbeat CPU 0 instructions: 220000000 cycles: 110256720 heartbeat IPC: 2.081 cumulative IPC: 1.74 (Simulation time: 00 hr 24 min 52 sec)
Heartbeat CPU 0 instructions: 230000002 cycles: 115490321 heartbeat IPC: 1.911 cumulative IPC: 1.748 (Simulation time: 00 hr 25 min 56 sec)
Heartbeat CPU 0 instructions: 240000000 cycles: 120289698 heartbeat IPC: 2.084 cumulative IPC: 1.763 (Simulation time: 00 hr 26 min 59 sec)
Heartbeat CPU 0 instructions: 250000000 cycles: 125396332 heartbeat IPC: 1.958 cumulative IPC: 1.772 (Simulation time: 00 hr 28 min 03 sec)
Heartbeat CPU 0 instructions: 260000000 cycles: 130370072 heartbeat IPC: 2.011 cumulative IPC: 1.782 (Simulation time: 00 hr 29 min 06 sec)
Heartbeat CPU 0 instructions: 270000002 cycles: 135219101 heartbeat IPC: 2.062 cumulative IPC: 1.793 (Simulation time: 00 hr 30 min 09 sec)
Heartbeat CPU 0 instructions: 280000002 cycles: 140086453 heartbeat IPC: 2.055 cumulative IPC: 1.803 (Simulation time: 00 hr 31 min 12 sec)
Heartbeat CPU 0 instructions: 290000001 cycles: 145414973 heartbeat IPC: 1.877 cumulative IPC: 1.806 (Simulation time: 00 hr 32 min 18 sec)
Heartbeat CPU 0 instructions: 300000003 cycles: 150404519 heartbeat IPC: 2.004 cumulative IPC: 1.813 (Simulation time: 00 hr 33 min 27 sec)
Heartbeat CPU 0 instructions: 310000001 cycles: 155634012 heartbeat IPC: 1.912 cumulative IPC: 1.817 (Simulation time: 00 hr 34 min 38 sec)
Heartbeat CPU 0 instructions: 320000003 cycles: 160787666 heartbeat IPC: 1.94 cumulative IPC: 1.821 (Simulation time: 00 hr 35 min 48 sec)
Heartbeat CPU 0 instructions: 330000003 cycles: 166007017 heartbeat IPC: 1.916 cumulative IPC: 1.824 (Simulation time: 00 hr 36 min 58 sec)
Heartbeat CPU 0 instructions: 340000000 cycles: 174689579 heartbeat IPC: 1.152 cumulative IPC: 1.788 (Simulation time: 00 hr 38 min 29 sec)
Heartbeat CPU 0 instructions: 350000000 cycles: 183724017 heartbeat IPC: 1.107 cumulative IPC: 1.752 (Simulation time: 00 hr 40 min 09 sec)
Heartbeat CPU 0 instructions: 360000004 cycles: 193523823 heartbeat IPC: 1.02 cumulative IPC: 1.713 (Simulation time: 00 hr 41 min 51 sec)
Heartbeat CPU 0 instructions: 370000000 cycles: 197903412 heartbeat IPC: 2.283 cumulative IPC: 1.726 (Simulation time: 00 hr 42 min 52 sec)
Heartbeat CPU 0 instructions: 380000001 cycles: 202787133 heartbeat IPC: 2.048 cumulative IPC: 1.735 (Simulation time: 00 hr 43 min 56 sec)
Heartbeat CPU 0 instructions: 390000002 cycles: 207588531 heartbeat IPC: 2.083 cumulative IPC: 1.743 (Simulation time: 00 hr 45 min 00 sec)
Heartbeat CPU 0 instructions: 400000004 cycles: 212506059 heartbeat IPC: 2.034 cumulative IPC: 1.75 (Simulation time: 00 hr 46 min 04 sec)
Heartbeat CPU 0 instructions: 410000000 cycles: 217192801 heartbeat IPC: 2.134 cumulative IPC: 1.759 (Simulation time: 00 hr 47 min 07 sec)
Heartbeat CPU 0 instructions: 420000000 cycles: 222226953 heartbeat IPC: 1.986 cumulative IPC: 1.765 (Simulation time: 00 hr 48 min 12 sec)
Heartbeat CPU 0 instructions: 430000001 cycles: 226660288 heartbeat IPC: 2.256 cumulative IPC: 1.775 (Simulation time: 00 hr 49 min 14 sec)
Heartbeat CPU 0 instructions: 440000000 cycles: 231978102 heartbeat IPC: 1.88 cumulative IPC: 1.777 (Simulation time: 00 hr 50 min 20 sec)
Heartbeat CPU 0 instructions: 450000002 cycles: 236609924 heartbeat IPC: 2.159 cumulative IPC: 1.785 (Simulation time: 00 hr 51 min 22 sec)
Heartbeat CPU 0 instructions: 460000000 cycles: 241372120 heartbeat IPC: 2.1 cumulative IPC: 1.792 (Simulation time: 00 hr 52 min 25 sec)
Heartbeat CPU 0 instructions: 470000000 cycles: 246316213 heartbeat IPC: 2.023 cumulative IPC: 1.797 (Simulation time: 00 hr 53 min 28 sec)
Heartbeat CPU 0 instructions: 480000003 cycles: 251053265 heartbeat IPC: 2.111 cumulative IPC: 1.803 (Simulation time: 00 hr 54 min 31 sec)
Heartbeat CPU 0 instructions: 490000000 cycles: 255640830 heartbeat IPC: 2.18 cumulative IPC: 1.81 (Simulation time: 00 hr 55 min 32 sec)
Heartbeat CPU 0 instructions: 500000000 cycles: 260632741 heartbeat IPC: 2.003 cumulative IPC: 1.814 (Simulation time: 00 hr 56 min 36 sec)
Heartbeat CPU 0 instructions: 510000003 cycles: 266197260 heartbeat IPC: 1.797 cumulative IPC: 1.813 (Simulation time: 00 hr 57 min 43 sec)
Heartbeat CPU 0 instructions: 520000001 cycles: 270843828 heartbeat IPC: 2.152 cumulative IPC: 1.82 (Simulation time: 00 hr 58 min 49 sec)
Heartbeat CPU 0 instructions: 530000002 cycles: 275942478 heartbeat IPC: 1.961 cumulative IPC: 1.822 (Simulation time: 00 hr 59 min 58 sec)
Heartbeat CPU 0 instructions: 540000000 cycles: 281020773 heartbeat IPC: 1.969 cumulative IPC: 1.825 (Simulation time: 01 hr 01 min 08 sec)
Heartbeat CPU 0 instructions: 550000001 cycles: 285792970 heartbeat IPC: 2.095 cumulative IPC: 1.83 (Simulation time: 01 hr 02 min 16 sec)
Heartbeat CPU 0 instructions: 560000000 cycles: 290943918 heartbeat IPC: 1.941 cumulative IPC: 1.832 (Simulation time: 01 hr 03 min 26 sec)
Heartbeat CPU 0 instructions: 570000004 cycles: 297373175 heartbeat IPC: 1.555 cumulative IPC: 1.826 (Simulation time: 01 hr 04 min 48 sec)
Heartbeat CPU 0 instructions: 580000003 cycles: 307159762 heartbeat IPC: 1.022 cumulative IPC: 1.799 (Simulation time: 01 hr 06 min 36 sec)
Heartbeat CPU 0 instructions: 590000002 cycles: 318571535 heartbeat IPC: 0.8763 cumulative IPC: 1.765 (Simulation time: 01 hr 08 min 39 sec)
Heartbeat CPU 0 instructions: 600000000 cycles: 323073212 heartbeat IPC: 2.221 cumulative IPC: 1.771 (Simulation time: 01 hr 09 min 44 sec)
Heartbeat CPU 0 instructions: 610000002 cycles: 327536945 heartbeat IPC: 2.24 cumulative IPC: 1.778 (Simulation time: 01 hr 10 min 51 sec)
Heartbeat CPU 0 instructions: 620000000 cycles: 332322665 heartbeat IPC: 2.09 cumulative IPC: 1.782 (Simulation time: 01 hr 11 min 59 sec)
Heartbeat CPU 0 instructions: 630000002 cycles: 337378890 heartbeat IPC: 1.978 cumulative IPC: 1.785 (Simulation time: 01 hr 13 min 11 sec)
Heartbeat CPU 0 instructions: 640000001 cycles: 342219911 heartbeat IPC: 2.066 cumulative IPC: 1.79 (Simulation time: 01 hr 14 min 19 sec)
Heartbeat CPU 0 instructions: 650000000 cycles: 346761641 heartbeat IPC: 2.202 cumulative IPC: 1.795 (Simulation time: 01 hr 15 min 27 sec)
Simulation finished CPU 0 instructions: 600000001 cycles: 334224532 cumulative IPC: 1.795 (Simulation time: 01 hr 15 min 27 sec)
Simulation complete CPU 0 instructions: 600000001 cycles: 334224532 cumulative IPC: 1.795 (Simulation time: 01 hr 15 min 27 sec)

ChampSim completed all CPUs

=== Simulation ===
CPU 0 runs traces/400.perlbench-41B.champsimtrace.xz
Region of Interest Statistics

CPU 0 cumulative IPC: 1.795 instructions: 600000001 cycles: 334224532
CPU 0 Branch Prediction Accuracy: 93.95% MPKI: 12.5 Average ROB Occupancy at Mispredict: 29.52
Branch type MPKI
BRANCH_DIRECT_JUMP: 0.0123
BRANCH_INDIRECT: 0.323
BRANCH_CONDITIONAL: 12
BRANCH_DIRECT_CALL: 0.0043
BRANCH_INDIRECT_CALL: 0.2
BRANCH_RETURN: 0.00828

LLC TOTAL        ACCESS:     595766 HIT:     398400 MISS:     197366
LLC LOAD         ACCESS:     403685 HIT:     232939 MISS:     170746
LLC RFO          ACCESS:      32561 HIT:      26354 MISS:       6207
LLC PREFETCH     ACCESS:      54603 HIT:      42867 MISS:      11736
LLC WRITE        ACCESS:      85866 HIT:      85849 MISS:         17
LLC TRANSLATION  ACCESS:      19051 HIT:      10391 MISS:       8660
LLC PREFETCH REQUESTED:      54603 ISSUED:      54603 USEFUL:       5356 USELESS:       5051
LLC AVERAGE MISS LATENCY: 491.8 cycles
cpu0_DTLB TOTAL        ACCESS:  153697661 HIT:  153020153 MISS:     677508
cpu0_DTLB LOAD         ACCESS:  153697661 HIT:  153020153 MISS:     677508
cpu0_DTLB RFO          ACCESS:          0 HIT:          0 MISS:          0
cpu0_DTLB PREFETCH     ACCESS:          0 HIT:          0 MISS:          0
cpu0_DTLB WRITE        ACCESS:          0 HIT:          0 MISS:          0
cpu0_DTLB TRANSLATION  ACCESS:          0 HIT:          0 MISS:          0
cpu0_DTLB PREFETCH REQUESTED:          0 ISSUED:          0 USEFUL:          0 USELESS:          0
cpu0_DTLB AVERAGE MISS LATENCY: 13.13 cycles
cpu0_ITLB TOTAL        ACCESS:    4839540 HIT:    4781702 MISS:      57838
cpu0_ITLB LOAD         ACCESS:    4839540 HIT:    4781702 MISS:      57838
cpu0_ITLB RFO          ACCESS:          0 HIT:          0 MISS:          0
cpu0_ITLB PREFETCH     ACCESS:          0 HIT:          0 MISS:          0
cpu0_ITLB WRITE        ACCESS:          0 HIT:          0 MISS:          0
cpu0_ITLB TRANSLATION  ACCESS:          0 HIT:          0 MISS:          0
cpu0_ITLB PREFETCH REQUESTED:          0 ISSUED:          0 USEFUL:          0 USELESS:          0
cpu0_ITLB AVERAGE MISS LATENCY: 6.488 cycles
cpu0_L1D TOTAL        ACCESS:  200310352 HIT:  198606652 MISS:    1703700
cpu0_L1D LOAD         ACCESS:  117067520 HIT:  115734474 MISS:    1333046
cpu0_L1D RFO          ACCESS:          0 HIT:          0 MISS:          0
cpu0_L1D PREFETCH     ACCESS:          0 HIT:          0 MISS:          0
cpu0_L1D WRITE        ACCESS:   83218370 HIT:   82871141 MISS:     347229
cpu0_L1D TRANSLATION  ACCESS:      24462 HIT:       1037 MISS:      23425
cpu0_L1D PREFETCH REQUESTED:          0 ISSUED:          0 USEFUL:          0 USELESS:          0
cpu0_L1D AVERAGE MISS LATENCY: 60.58 cycles
cpu0_L1I TOTAL        ACCESS:    5581816 HIT:    4820337 MISS:     761479
cpu0_L1I LOAD         ACCESS:    5581816 HIT:    4820337 MISS:     761479
cpu0_L1I RFO          ACCESS:          0 HIT:          0 MISS:          0
cpu0_L1I PREFETCH     ACCESS:          0 HIT:          0 MISS:          0
cpu0_L1I WRITE        ACCESS:          0 HIT:          0 MISS:          0
cpu0_L1I TRANSLATION  ACCESS:          0 HIT:          0 MISS:          0
cpu0_L1I PREFETCH REQUESTED:          0 ISSUED:          0 USEFUL:          0 USELESS:          0
cpu0_L1I AVERAGE MISS LATENCY: 9.93 cycles
cpu0_L2C TOTAL        ACCESS:    1668147 HIT:    1211030 MISS:     457117
cpu0_L2C LOAD         ACCESS:    1317130 HIT:     913445 MISS:     403685
cpu0_L2C RFO          ACCESS:      88607 HIT:      56046 MISS:      32561
cpu0_L2C PREFETCH     ACCESS:          0 HIT:          0 MISS:          0
cpu0_L2C WRITE        ACCESS:     239065 HIT:     237245 MISS:       1820
cpu0_L2C TRANSLATION  ACCESS:      23345 HIT:       4294 MISS:      19051
cpu0_L2C PREFETCH REQUESTED:          0 ISSUED:          0 USEFUL:          0 USELESS:          0
cpu0_L2C AVERAGE MISS LATENCY: 218.4 cycles
cpu0_STLB TOTAL        ACCESS:     505245 HIT:     482455 MISS:      22790
cpu0_STLB LOAD         ACCESS:     505245 HIT:     482455 MISS:      22790
cpu0_STLB RFO          ACCESS:          0 HIT:          0 MISS:          0
cpu0_STLB PREFETCH     ACCESS:          0 HIT:          0 MISS:          0
cpu0_STLB WRITE        ACCESS:          0 HIT:          0 MISS:          0
cpu0_STLB TRANSLATION  ACCESS:          0 HIT:          0 MISS:          0
cpu0_STLB PREFETCH REQUESTED:          0 ISSUED:          0 USEFUL:          0 USELESS:          0
cpu0_STLB AVERAGE MISS LATENCY: 262.6 cycles

DRAM Statistics

Channel 0 RQ ROW_BUFFER_HIT:      50905
  ROW_BUFFER_MISS:     144634
 AVG DBUS CONGESTED CYCLE: 3.708
WQ ROW_BUFFER_HIT: Channel 0 
  ROW_BUFFER_MISS:       3722
  FULL:       3852
