WARNING: physical memory size is smaller than virtual memory size.

*** ChampSim Multicore Out-of-Order Simulator ***
Warmup Instructions: 50000000
Simulation Instructions: 600000000
Number of CPUs: 1
Page size: 4096

Off-chip DRAM Size: 4 GiB Channels: 1 Width: 64-bit Data Race: 3200 MT/s
Heartbeat CPU 0 instructions: 10000000 cycles: 2500061 heartbeat IPC: 4 cumulative IPC: 4 (Simulation time: 00 hr 00 min 49 sec)
Heartbeat CPU 0 instructions: 20000000 cycles: 5000061 heartbeat IPC: 4 cumulative IPC: 4 (Simulation time: 00 hr 01 min 41 sec)
Heartbeat CPU 0 instructions: 30000000 cycles: 7500061 heartbeat IPC: 4 cumulative IPC: 4 (Simulation time: 00 hr 02 min 40 sec)
Heartbeat CPU 0 instructions: 40000000 cycles: 10000061 heartbeat IPC: 4 cumulative IPC: 4 (Simulation time: 00 hr 03 min 39 sec)
Heartbeat CPU 0 instructions: 50000000 cycles: 12500061 heartbeat IPC: 4 cumulative IPC: 4 (Simulation time: 00 hr 04 min 43 sec)
Warmup finished CPU 0 instructions: 50000000 cycles: 12500062 cumulative IPC: 4 (Simulation time: 00 hr 04 min 43 sec)
Warmup complete CPU 0 instructions: 50000000 cycles: 12500062 cumulative IPC: 4 (Simulation time: 00 hr 04 min 43 sec)
Heartbeat CPU 0 instructions: 60000002 cycles: 16906981 heartbeat IPC: 2.269 cumulative IPC: 2.269 (Simulation time: 00 hr 06 min 09 sec)
Heartbeat CPU 0 instructions: 70000003 cycles: 21887535 heartbeat IPC: 2.008 cumulative IPC: 2.13 (Simulation time: 00 hr 07 min 40 sec)
Heartbeat CPU 0 instructions: 80000001 cycles: 27229088 heartbeat IPC: 1.872 cumulative IPC: 2.037 (Simulation time: 00 hr 09 min 10 sec)
Heartbeat CPU 0 instructions: 90000000 cycles: 31525396 heartbeat IPC: 2.328 cumulative IPC: 2.102 (Simulation time: 00 hr 10 min 34 sec)
Heartbeat CPU 0 instructions: 100000003 cycles: 36377115 heartbeat IPC: 2.061 cumulative IPC: 2.094 (Simulation time: 00 hr 11 min 59 sec)
Heartbeat CPU 0 instructions: 110000002 cycles: 41244754 heartbeat IPC: 2.054 cumulative IPC: 2.087 (Simulation time: 00 hr 13 min 26 sec)
Heartbeat CPU 0 instructions: 120000001 cycles: 46238023 heartbeat IPC: 2.003 cumulative IPC: 2.075 (Simulation time: 00 hr 15 min 12 sec)
Heartbeat CPU 0 instructions: 130000003 cycles: 50804474 heartbeat IPC: 2.19 cumulative IPC: 2.089 (Simulation time: 00 hr 16 min 59 sec)
Heartbeat CPU 0 instructions: 140000002 cycles: 55692287 heartbeat IPC: 2.046 cumulative IPC: 2.084 (Simulation time: 00 hr 18 min 47 sec)
Heartbeat CPU 0 instructions: 150000001 cycles: 60357159 heartbeat IPC: 2.144 cumulative IPC: 2.09 (Simulation time: 00 hr 20 min 37 sec)
Heartbeat CPU 0 instructions: 160000000 cycles: 64993046 heartbeat IPC: 2.157 cumulative IPC: 2.096 (Simulation time: 00 hr 22 min 30 sec)
Heartbeat CPU 0 instructions: 170000000 cycles: 70321999 heartbeat IPC: 1.877 cumulative IPC: 2.075 (Simulation time: 00 hr 24 min 32 sec)
Heartbeat CPU 0 instructions: 180000001 cycles: 76039062 heartbeat IPC: 1.749 cumulative IPC: 2.046 (Simulation time: 00 hr 25 min 53 sec)
Heartbeat CPU 0 instructions: 190000002 cycles: 80507077 heartbeat IPC: 2.238 cumulative IPC: 2.059 (Simulation time: 00 hr 26 min 45 sec)
Heartbeat CPU 0 instructions: 200000002 cycles: 85405744 heartbeat IPC: 2.041 cumulative IPC: 2.057 (Simulation time: 00 hr 27 min 39 sec)
Heartbeat CPU 0 instructions: 210000000 cycles: 90406939 heartbeat IPC: 2 cumulative IPC: 2.054 (Simulation time: 00 hr 28 min 34 sec)
Heartbeat CPU 0 instructions: 220000001 cycles: 95328887 heartbeat IPC: 2.032 cumulative IPC: 2.052 (Simulation time: 00 hr 29 min 28 sec)
Heartbeat CPU 0 instructions: 230000002 cycles: 100572590 heartbeat IPC: 1.907 cumulative IPC: 2.044 (Simulation time: 00 hr 30 min 23 sec)
Heartbeat CPU 0 instructions: 240000001 cycles: 105534872 heartbeat IPC: 2.015 cumulative IPC: 2.042 (Simulation time: 00 hr 31 min 18 sec)
Heartbeat CPU 0 instructions: 250000003 cycles: 110709476 heartbeat IPC: 1.933 cumulative IPC: 2.036 (Simulation time: 00 hr 32 min 16 sec)
Heartbeat CPU 0 instructions: 260000001 cycles: 115568184 heartbeat IPC: 2.058 cumulative IPC: 2.037 (Simulation time: 00 hr 33 min 14 sec)
Heartbeat CPU 0 instructions: 270000000 cycles: 123277870 heartbeat IPC: 1.297 cumulative IPC: 1.986 (Simulation time: 00 hr 34 min 32 sec)
Heartbeat CPU 0 instructions: 280000000 cycles: 134879356 heartbeat IPC: 0.862 cumulative IPC: 1.879 (Simulation time: 00 hr 36 min 14 sec)
Heartbeat CPU 0 instructions: 290000001 cycles: 145072852 heartbeat IPC: 0.981 cumulative IPC: 1.81 (Simulation time: 00 hr 37 min 44 sec)
Heartbeat CPU 0 instructions: 300000003 cycles: 152636709 heartbeat IPC: 1.322 cumulative IPC: 1.784 (Simulation time: 00 hr 39 min 04 sec)
Heartbeat CPU 0 instructions: 310000004 cycles: 163669639 heartbeat IPC: 0.9064 cumulative IPC: 1.72 (Simulation time: 00 hr 40 min 41 sec)
Heartbeat CPU 0 instructions: 320000004 cycles: 169351787 heartbeat IPC: 1.76 cumulative IPC: 1.721 (Simulation time: 00 hr 41 min 42 sec)
Heartbeat CPU 0 instructions: 330000000 cycles: 174652219 heartbeat IPC: 1.887 cumulative IPC: 1.727 (Simulation time: 00 hr 42 min 43 sec)
Heartbeat CPU 0 instructions: 340000001 cycles: 179887044 heartbeat IPC: 1.91 cumulative IPC: 1.733 (Simulation time: 00 hr 43 min 44 sec)
Heartbeat CPU 0 instructions: 350000000 cycles: 185325063 heartbeat IPC: 1.839 cumulative IPC: 1.736 (Simulation time: 00 hr 44 min 42 sec)
Heartbeat CPU 0 instructions: 360000003 cycles: 190511168 heartbeat IPC: 1.928 cumulative IPC: 1.741 (Simulation time: 00 hr 45 min 40 sec)
Heartbeat CPU 0 instructions: 370000001 cycles: 195600043 heartbeat IPC: 1.965 cumulative IPC: 1.748 (Simulation time: 00 hr 46 min 39 sec)
Heartbeat CPU 0 instructions: 380000004 cycles: 200958914 heartbeat IPC: 1.866 cumulative IPC: 1.751 (Simulation time: 00 hr 47 min 39 sec)
Heartbeat CPU 0 instructions: 390000002 cycles: 206380727 heartbeat IPC: 1.844 cumulative IPC: 1.754 (Simulation time: 00 hr 48 min 36 sec)
Heartbeat CPU 0 instructions: 400000000 cycles: 211889628 heartbeat IPC: 1.815 cumulative IPC: 1.755 (Simulation time: 00 hr 49 min 36 sec)
Heartbeat CPU 0 instructions: 410000000 cycles: 220458521 heartbeat IPC: 1.167 cumulative IPC: 1.731 (Simulation time: 00 hr 51 min 00 sec)
Heartbeat CPU 0 instructions: 420000001 cycles: 232493884 heartbeat IPC: 0.8309 cumulative IPC: 1.682 (Simulation time: 00 hr 52 min 44 sec)
Heartbeat CPU 0 instructions: 430000000 cycles: 240904415 heartbeat IPC: 1.189 cumulative IPC: 1.664 (Simulation time: 00 hr 54 min 11 sec)
Heartbeat CPU 0 instructions: 440000002 cycles: 248655689 heartbeat IPC: 1.29 cumulative IPC: 1.651 (Simulation time: 00 hr 55 min 29 sec)
Heartbeat CPU 0 instructions: 450000003 cycles: 256030508 heartbeat IPC: 1.356 cumulative IPC: 1.643 (Simulation time: 00 hr 56 min 46 sec)
Heartbeat CPU 0 instructions: 460000002 cycles: 267686939 heartbeat IPC: 0.8579 cumulative IPC: 1.607 (Simulation time: 00 hr 58 min 29 sec)
Heartbeat CPU 0 instructions: 470000000 cycles: 277818144 heartbeat IPC: 0.987 cumulative IPC: 1.583 (Simulation time: 00 hr 59 min 58 sec)
Heartbeat CPU 0 instructions: 480000000 cycles: 283332542 heartbeat IPC: 1.813 cumulative IPC: 1.588 (Simulation time: 01 hr 01 min 02 sec)
Heartbeat CPU 0 instructions: 490000001 cycles: 289097467 heartbeat IPC: 1.735 cumulative IPC: 1.591 (Simulation time: 01 hr 02 min 09 sec)
Heartbeat CPU 0 instructions: 500000002 cycles: 294740620 heartbeat IPC: 1.772 cumulative IPC: 1.594 (Simulation time: 01 hr 03 min 09 sec)
Heartbeat CPU 0 instructions: 510000000 cycles: 300455784 heartbeat IPC: 1.75 cumulative IPC: 1.597 (Simulation time: 01 hr 04 min 09 sec)
Heartbeat CPU 0 instructions: 520000000 cycles: 306232861 heartbeat IPC: 1.731 cumulative IPC: 1.6 (Simulation time: 01 hr 05 min 11 sec)
Heartbeat CPU 0 instructions: 530000001 cycles: 318959019 heartbeat IPC: 0.7858 cumulative IPC: 1.566 (Simulation time: 01 hr 06 min 56 sec)
Heartbeat CPU 0 instructions: 540000000 cycles: 330713094 heartbeat IPC: 0.8508 cumulative IPC: 1.54 (Simulation time: 01 hr 08 min 36 sec)
Heartbeat CPU 0 instructions: 550000002 cycles: 344466187 heartbeat IPC: 0.7271 cumulative IPC: 1.506 (Simulation time: 01 hr 10 min 27 sec)
Heartbeat CPU 0 instructions: 560000004 cycles: 349321070 heartbeat IPC: 2.06 cumulative IPC: 1.514 (Simulation time: 01 hr 11 min 23 sec)
Heartbeat CPU 0 instructions: 570000001 cycles: 353731032 heartbeat IPC: 2.268 cumulative IPC: 1.524 (Simulation time: 01 hr 12 min 19 sec)
Heartbeat CPU 0 instructions: 580000003 cycles: 357975694 heartbeat IPC: 2.356 cumulative IPC: 1.534 (Simulation time: 01 hr 13 min 07 sec)
Heartbeat CPU 0 instructions: 590000001 cycles: 362877626 heartbeat IPC: 2.04 cumulative IPC: 1.541 (Simulation time: 01 hr 13 min 59 sec)
Heartbeat CPU 0 instructions: 600000003 cycles: 367517525 heartbeat IPC: 2.155 cumulative IPC: 1.549 (Simulation time: 01 hr 14 min 47 sec)
Heartbeat CPU 0 instructions: 610000001 cycles: 372377581 heartbeat IPC: 2.058 cumulative IPC: 1.556 (Simulation time: 01 hr 15 min 30 sec)
Heartbeat CPU 0 instructions: 620000000 cycles: 377445171 heartbeat IPC: 1.973 cumulative IPC: 1.562 (Simulation time: 01 hr 16 min 06 sec)
Heartbeat CPU 0 instructions: 630000002 cycles: 381692271 heartbeat IPC: 2.355 cumulative IPC: 1.571 (Simulation time: 01 hr 16 min 32 sec)
Heartbeat CPU 0 instructions: 640000004 cycles: 387014955 heartbeat IPC: 1.879 cumulative IPC: 1.575 (Simulation time: 01 hr 16 min 56 sec)
Heartbeat CPU 0 instructions: 650000001 cycles: 391778866 heartbeat IPC: 2.099 cumulative IPC: 1.582 (Simulation time: 01 hr 17 min 16 sec)
Simulation finished CPU 0 instructions: 600000001 cycles: 379278805 cumulative IPC: 1.582 (Simulation time: 01 hr 17 min 16 sec)
Simulation complete CPU 0 instructions: 600000001 cycles: 379278805 cumulative IPC: 1.582 (Simulation time: 01 hr 17 min 16 sec)

ChampSim completed all CPUs

=== Simulation ===
CPU 0 runs traces/400.perlbench-50B.champsimtrace.xz
Region of Interest Statistics

CPU 0 cumulative IPC: 1.582 instructions: 600000001 cycles: 379278805
CPU 0 Branch Prediction Accuracy: 93.83% MPKI: 12.71 Average ROB Occupancy at Mispredict: 29.47
Branch type MPKI
BRANCH_DIRECT_JUMP: 0.0176
BRANCH_INDIRECT: 0.38
BRANCH_CONDITIONAL: 11.9
BRANCH_DIRECT_CALL: 0.0067
BRANCH_INDIRECT_CALL: 0.431
BRANCH_RETURN: 0.0161

LLC TOTAL        ACCESS:     856005 HIT:     510204 MISS:     345801
LLC LOAD         ACCESS:     587268 HIT:     314421 MISS:     272847
LLC RFO          ACCESS:      48279 HIT:      28020 MISS:      20259
LLC PREFETCH     ACCESS:      66712 HIT:      36039 MISS:      30673
LLC WRITE        ACCESS:     131743 HIT:     121196 MISS:      10547
LLC TRANSLATION  ACCESS:      22003 HIT:      10528 MISS:      11475
LLC PREFETCH REQUESTED:      66712 ISSUED:      66712 USEFUL:      18731 USELESS:       6693
LLC AVERAGE MISS LATENCY: 523.8 cycles
cpu0_DTLB TOTAL        ACCESS:  156766122 HIT:  155464507 MISS:    1301615
cpu0_DTLB LOAD         ACCESS:  156766122 HIT:  155464507 MISS:    1301615
cpu0_DTLB RFO          ACCESS:          0 HIT:          0 MISS:          0
cpu0_DTLB PREFETCH     ACCESS:          0 HIT:          0 MISS:          0
cpu0_DTLB WRITE        ACCESS:          0 HIT:          0 MISS:          0
cpu0_DTLB TRANSLATION  ACCESS:          0 HIT:          0 MISS:          0
cpu0_DTLB PREFETCH REQUESTED:          0 ISSUED:          0 USEFUL:          0 USELESS:          0
cpu0_DTLB AVERAGE MISS LATENCY: 11.9 cycles
cpu0_ITLB TOTAL        ACCESS:    8933312 HIT:    8734722 MISS:     198590
cpu0_ITLB LOAD         ACCESS:    8933312 HIT:    8734722 MISS:     198590
cpu0_ITLB RFO          ACCESS:          0 HIT:          0 MISS:          0
cpu0_ITLB PREFETCH     ACCESS:          0 HIT:          0 MISS:          0
cpu0_ITLB WRITE        ACCESS:          0 HIT:          0 MISS:          0
cpu0_ITLB TRANSLATION  ACCESS:          0 HIT:          0 MISS:          0
cpu0_ITLB PREFETCH REQUESTED:          0 ISSUED:          0 USEFUL:          0 USELESS:          0
cpu0_ITLB AVERAGE MISS LATENCY: 3.082 cycles
cpu0_L1D TOTAL        ACCESS:  203621307 HIT:  200735939 MISS:    2885368
cpu0_L1D LOAD         ACCESS:  117944598 HIT:  115574350 MISS:    2370248
cpu0_L1D RFO          ACCESS:          0 HIT:          0 MISS:          0
cpu0_L1D PREFETCH     ACCESS:          0 HIT:          0 MISS:          0
cpu0_L1D WRITE        ACCESS:   85648167 HIT:   85159590 MISS:     488577
cpu0_L1D TRANSLATION  ACCESS:      28542 HIT:       1999 MISS:      26543
cpu0_L1D PREFETCH REQUESTED:          0 ISSUED:          0 USEFUL:          0 USELESS:          0
cpu0_L1D AVERAGE MISS LATENCY: 61.52 cycles
cpu0_L1I TOTAL        ACCESS:   10371833 HIT:    8574916 MISS:    1796917
cpu0_L1I LOAD         ACCESS:   10371833 HIT:    8574916 MISS:    1796917
cpu0_L1I RFO          ACCESS:          0 HIT:          0 MISS:          0
cpu0_L1I PREFETCH     ACCESS:          0 HIT:          0 MISS:          0
cpu0_L1I WRITE        ACCESS:          0 HIT:          0 MISS:          0
cpu0_L1I TRANSLATION  ACCESS:          0 HIT:          0 MISS:          0
cpu0_L1I PREFETCH REQUESTED:          0 ISSUED:          0 USEFUL:          0 USELESS:          0
cpu0_L1I AVERAGE MISS LATENCY: 11.75 cycles
cpu0_L2C TOTAL        ACCESS:    3235323 HIT:    2570875 MISS:     664448
cpu0_L2C LOAD         ACCESS:    2711706 HIT:    2124438 MISS:     587268
cpu0_L2C RFO          ACCESS:     133680 HIT:      85401 MISS:      48279
cpu0_L2C PREFETCH     ACCESS:          0 HIT:          0 MISS:          0
cpu0_L2C WRITE        ACCESS:     363472 HIT:     356574 MISS:       6898
cpu0_L2C TRANSLATION  ACCESS:      26465 HIT:       4462 MISS:      22003
cpu0_L2C PREFETCH REQUESTED:          0 ISSUED:          0 USEFUL:          0 USELESS:          0
cpu0_L2C AVERAGE MISS LATENCY: 265.8 cycles
cpu0_STLB TOTAL        ACCESS:    1009222 HIT:     982530 MISS:      26692
cpu0_STLB LOAD         ACCESS:    1009222 HIT:     982530 MISS:      26692
cpu0_STLB RFO          ACCESS:          0 HIT:          0 MISS:          0
cpu0_STLB PREFETCH     ACCESS:          0 HIT:          0 MISS:          0
cpu0_STLB WRITE        ACCESS:          0 HIT:          0 MISS:          0
cpu0_STLB TRANSLATION  ACCESS:          0 HIT:          0 MISS:          0
cpu0_STLB PREFETCH REQUESTED:          0 ISSUED:          0 USEFUL:          0 USELESS:          0
cpu0_STLB AVERAGE MISS LATENCY: 359.9 cycles

DRAM Statistics

Channel 0 RQ ROW_BUFFER_HIT:      66415
  ROW_BUFFER_MISS:     263381
 AVG DBUS CONGESTED CYCLE: 3.81
WQ ROW_BUFFER_HIT: Channel 0 
  ROW_BUFFER_MISS:       9701
  FULL:      37573
