WARNING: physical memory size is smaller than virtual memory size.

*** ChampSim Multicore Out-of-Order Simulator ***
Warmup Instructions: 50000000
Simulation Instructions: 600000000
Number of CPUs: 1
Page size: 4096

Off-chip DRAM Size: 4 GiB Channels: 1 Width: 64-bit Data Race: 3200 MT/s
Heartbeat CPU 0 instructions: 10000000 cycles: 2500061 heartbeat IPC: 4 cumulative IPC: 4 (Simulation time: 00 hr 03 min 18 sec)
Heartbeat CPU 0 instructions: 20000000 cycles: 5000061 heartbeat IPC: 4 cumulative IPC: 4 (Simulation time: 00 hr 06 min 36 sec)
Heartbeat CPU 0 instructions: 30000000 cycles: 7500061 heartbeat IPC: 4 cumulative IPC: 4 (Simulation time: 00 hr 09 min 47 sec)
Heartbeat CPU 0 instructions: 40000000 cycles: 10000061 heartbeat IPC: 4 cumulative IPC: 4 (Simulation time: 00 hr 12 min 56 sec)
Heartbeat CPU 0 instructions: 50000000 cycles: 12500061 heartbeat IPC: 4 cumulative IPC: 4 (Simulation time: 00 hr 16 min 07 sec)
Warmup finished CPU 0 instructions: 50000000 cycles: 12500062 cumulative IPC: 4 (Simulation time: 00 hr 16 min 07 sec)
Warmup complete CPU 0 instructions: 50000000 cycles: 12500062 cumulative IPC: 4 (Simulation time: 00 hr 16 min 07 sec)
Heartbeat CPU 0 instructions: 60000002 cycles: 16444688 heartbeat IPC: 2.535 cumulative IPC: 2.535 (Simulation time: 00 hr 20 min 32 sec)
Heartbeat CPU 0 instructions: 70000003 cycles: 20760893 heartbeat IPC: 2.317 cumulative IPC: 2.421 (Simulation time: 00 hr 25 min 04 sec)
Heartbeat CPU 0 instructions: 80000003 cycles: 25229157 heartbeat IPC: 2.238 cumulative IPC: 2.357 (Simulation time: 00 hr 29 min 41 sec)
Heartbeat CPU 0 instructions: 90000000 cycles: 28920814 heartbeat IPC: 2.709 cumulative IPC: 2.436 (Simulation time: 00 hr 33 min 55 sec)
Heartbeat CPU 0 instructions: 100000003 cycles: 32818788 heartbeat IPC: 2.565 cumulative IPC: 2.461 (Simulation time: 00 hr 38 min 15 sec)
Heartbeat CPU 0 instructions: 110000002 cycles: 36920325 heartbeat IPC: 2.438 cumulative IPC: 2.457 (Simulation time: 00 hr 42 min 40 sec)
Heartbeat CPU 0 instructions: 120000001 cycles: 40635683 heartbeat IPC: 2.692 cumulative IPC: 2.488 (Simulation time: 00 hr 46 min 55 sec)
Heartbeat CPU 0 instructions: 130000003 cycles: 44404658 heartbeat IPC: 2.653 cumulative IPC: 2.507 (Simulation time: 00 hr 51 min 11 sec)
Heartbeat CPU 0 instructions: 140000002 cycles: 48538024 heartbeat IPC: 2.419 cumulative IPC: 2.497 (Simulation time: 00 hr 55 min 43 sec)
Heartbeat CPU 0 instructions: 150000001 cycles: 52589949 heartbeat IPC: 2.468 cumulative IPC: 2.494 (Simulation time: 01 hr 00 min 09 sec)
Heartbeat CPU 0 instructions: 160000000 cycles: 56247531 heartbeat IPC: 2.734 cumulative IPC: 2.514 (Simulation time: 01 hr 04 min 24 sec)
Heartbeat CPU 0 instructions: 170000001 cycles: 60421737 heartbeat IPC: 2.396 cumulative IPC: 2.504 (Simulation time: 01 hr 08 min 54 sec)
Heartbeat CPU 0 instructions: 180000001 cycles: 63882371 heartbeat IPC: 2.89 cumulative IPC: 2.53 (Simulation time: 01 hr 13 min 03 sec)
Heartbeat CPU 0 instructions: 190000002 cycles: 67465761 heartbeat IPC: 2.791 cumulative IPC: 2.547 (Simulation time: 01 hr 17 min 21 sec)
Heartbeat CPU 0 instructions: 200000002 cycles: 71249161 heartbeat IPC: 2.643 cumulative IPC: 2.553 (Simulation time: 01 hr 21 min 41 sec)
Heartbeat CPU 0 instructions: 210000000 cycles: 74888079 heartbeat IPC: 2.748 cumulative IPC: 2.565 (Simulation time: 01 hr 25 min 56 sec)
Heartbeat CPU 0 instructions: 220000001 cycles: 78754029 heartbeat IPC: 2.587 cumulative IPC: 2.566 (Simulation time: 01 hr 30 min 17 sec)
Heartbeat CPU 0 instructions: 230000002 cycles: 82594747 heartbeat IPC: 2.604 cumulative IPC: 2.568 (Simulation time: 01 hr 34 min 37 sec)
Heartbeat CPU 0 instructions: 240000001 cycles: 86801493 heartbeat IPC: 2.377 cumulative IPC: 2.557 (Simulation time: 01 hr 39 min 08 sec)
Heartbeat CPU 0 instructions: 250000003 cycles: 91366485 heartbeat IPC: 2.191 cumulative IPC: 2.536 (Simulation time: 01 hr 43 min 44 sec)
Heartbeat CPU 0 instructions: 260000000 cycles: 95158973 heartbeat IPC: 2.637 cumulative IPC: 2.541 (Simulation time: 01 hr 48 min 04 sec)
Heartbeat CPU 0 instructions: 270000003 cycles: 102228918 heartbeat IPC: 1.414 cumulative IPC: 2.452 (Simulation time: 01 hr 54 min 19 sec)
Heartbeat CPU 0 instructions: 280000000 cycles: 112933249 heartbeat IPC: 0.9342 cumulative IPC: 2.29 (Simulation time: 02 hr 02 min 57 sec)
Heartbeat CPU 0 instructions: 290000000 cycles: 124074228 heartbeat IPC: 0.8976 cumulative IPC: 2.151 (Simulation time: 02 hr 11 min 53 sec)
Heartbeat CPU 0 instructions: 300000003 cycles: 132418060 heartbeat IPC: 1.198 cumulative IPC: 2.085 (Simulation time: 02 hr 19 min 18 sec)
Heartbeat CPU 0 instructions: 310000004 cycles: 144500002 heartbeat IPC: 0.8277 cumulative IPC: 1.97 (Simulation time: 02 hr 28 min 56 sec)
Heartbeat CPU 0 instructions: 320000004 cycles: 150051320 heartbeat IPC: 1.801 cumulative IPC: 1.963 (Simulation time: 02 hr 34 min 29 sec)
Heartbeat CPU 0 instructions: 330000000 cycles: 154123490 heartbeat IPC: 2.456 cumulative IPC: 1.977 (Simulation time: 02 hr 39 min 03 sec)
Heartbeat CPU 0 instructions: 340000001 cycles: 158292031 heartbeat IPC: 2.399 cumulative IPC: 1.989 (Simulation time: 02 hr 43 min 36 sec)
Heartbeat CPU 0 instructions: 350000004 cycles: 162410413 heartbeat IPC: 2.428 cumulative IPC: 2.001 (Simulation time: 02 hr 48 min 09 sec)
Heartbeat CPU 0 instructions: 360000003 cycles: 166167182 heartbeat IPC: 2.662 cumulative IPC: 2.017 (Simulation time: 02 hr 52 min 31 sec)
Heartbeat CPU 0 instructions: 370000001 cycles: 169838031 heartbeat IPC: 2.724 cumulative IPC: 2.034 (Simulation time: 02 hr 56 min 52 sec)
Heartbeat CPU 0 instructions: 380000004 cycles: 173376259 heartbeat IPC: 2.826 cumulative IPC: 2.051 (Simulation time: 03 hr 01 min 09 sec)
Heartbeat CPU 0 instructions: 390000002 cycles: 176965311 heartbeat IPC: 2.786 cumulative IPC: 2.067 (Simulation time: 03 hr 05 min 35 sec)
Heartbeat CPU 0 instructions: 400000000 cycles: 180821505 heartbeat IPC: 2.593 cumulative IPC: 2.079 (Simulation time: 03 hr 10 min 01 sec)
Heartbeat CPU 0 instructions: 410000000 cycles: 187012489 heartbeat IPC: 1.615 cumulative IPC: 2.063 (Simulation time: 03 hr 15 min 55 sec)
Heartbeat CPU 0 instructions: 420000003 cycles: 194784432 heartbeat IPC: 1.287 cumulative IPC: 2.03 (Simulation time: 03 hr 22 min 49 sec)
Heartbeat CPU 0 instructions: 430000000 cycles: 203243004 heartbeat IPC: 1.182 cumulative IPC: 1.992 (Simulation time: 03 hr 30 min 17 sec)
Heartbeat CPU 0 instructions: 440000004 cycles: 211295280 heartbeat IPC: 1.242 cumulative IPC: 1.962 (Simulation time: 03 hr 37 min 24 sec)
Heartbeat CPU 0 instructions: 450000001 cycles: 219084614 heartbeat IPC: 1.284 cumulative IPC: 1.936 (Simulation time: 03 hr 44 min 22 sec)
Heartbeat CPU 0 instructions: 460000002 cycles: 231231531 heartbeat IPC: 0.8233 cumulative IPC: 1.874 (Simulation time: 03 hr 53 min 51 sec)
Heartbeat CPU 0 instructions: 470000003 cycles: 241520281 heartbeat IPC: 0.9719 cumulative IPC: 1.834 (Simulation time: 04 hr 02 min 16 sec)
Heartbeat CPU 0 instructions: 480000003 cycles: 245764100 heartbeat IPC: 2.356 cumulative IPC: 1.843 (Simulation time: 04 hr 06 min 55 sec)
Heartbeat CPU 0 instructions: 490000001 cycles: 249926522 heartbeat IPC: 2.402 cumulative IPC: 1.853 (Simulation time: 04 hr 11 min 33 sec)
Heartbeat CPU 0 instructions: 500000002 cycles: 253705787 heartbeat IPC: 2.646 cumulative IPC: 1.866 (Simulation time: 04 hr 15 min 54 sec)
Heartbeat CPU 0 instructions: 510000000 cycles: 257235314 heartbeat IPC: 2.833 cumulative IPC: 1.88 (Simulation time: 04 hr 20 min 10 sec)
Heartbeat CPU 0 instructions: 520000000 cycles: 260886175 heartbeat IPC: 2.739 cumulative IPC: 1.892 (Simulation time: 04 hr 24 min 27 sec)
Heartbeat CPU 0 instructions: 530000001 cycles: 269245382 heartbeat IPC: 1.196 cumulative IPC: 1.87 (Simulation time: 04 hr 31 min 52 sec)
Heartbeat CPU 0 instructions: 540000000 cycles: 279316596 heartbeat IPC: 0.9929 cumulative IPC: 1.836 (Simulation time: 04 hr 40 min 30 sec)
Heartbeat CPU 0 instructions: 550000004 cycles: 292105278 heartbeat IPC: 0.7819 cumulative IPC: 1.788 (Simulation time: 04 hr 50 min 52 sec)
Heartbeat CPU 0 instructions: 560000004 cycles: 296498980 heartbeat IPC: 2.276 cumulative IPC: 1.796 (Simulation time: 04 hr 55 min 45 sec)
Heartbeat CPU 0 instructions: 570000001 cycles: 299638794 heartbeat IPC: 3.185 cumulative IPC: 1.811 (Simulation time: 05 hr 00 min 08 sec)
Heartbeat CPU 0 instructions: 580000003 cycles: 303187369 heartbeat IPC: 2.818 cumulative IPC: 1.823 (Simulation time: 05 hr 04 min 31 sec)
Heartbeat CPU 0 instructions: 590000002 cycles: 306815690 heartbeat IPC: 2.756 cumulative IPC: 1.835 (Simulation time: 05 hr 09 min 04 sec)
Heartbeat CPU 0 instructions: 600000003 cycles: 309878637 heartbeat IPC: 3.265 cumulative IPC: 1.849 (Simulation time: 05 hr 13 min 11 sec)
Heartbeat CPU 0 instructions: 610000001 cycles: 313389616 heartbeat IPC: 2.848 cumulative IPC: 1.861 (Simulation time: 05 hr 17 min 37 sec)
Heartbeat CPU 0 instructions: 620000000 cycles: 317407979 heartbeat IPC: 2.489 cumulative IPC: 1.869 (Simulation time: 05 hr 22 min 17 sec)
Heartbeat CPU 0 instructions: 630000002 cycles: 320775193 heartbeat IPC: 2.97 cumulative IPC: 1.881 (Simulation time: 05 hr 26 min 26 sec)
Heartbeat CPU 0 instructions: 640000004 cycles: 324784038 heartbeat IPC: 2.494 cumulative IPC: 1.889 (Simulation time: 05 hr 30 min 43 sec)
Heartbeat CPU 0 instructions: 650000001 cycles: 328606945 heartbeat IPC: 2.616 cumulative IPC: 1.898 (Simulation time: 05 hr 34 min 48 sec)
Simulation finished CPU 0 instructions: 600000001 cycles: 316106884 cumulative IPC: 1.898 (Simulation time: 05 hr 34 min 48 sec)
Simulation complete CPU 0 instructions: 600000001 cycles: 316106884 cumulative IPC: 1.898 (Simulation time: 05 hr 34 min 48 sec)

ChampSim completed all CPUs

=== Simulation ===
CPU 0 runs traces/400.perlbench-50B.champsimtrace.xz
Region of Interest Statistics

CPU 0 cumulative IPC: 1.898 instructions: 600000001 cycles: 316106884
CPU 0 Branch Prediction Accuracy: 96.2% MPKI: 7.839 Average ROB Occupancy at Mispredict: 43.7
Branch type MPKI
BRANCH_DIRECT_JUMP: 0.0176
BRANCH_INDIRECT: 0.38
BRANCH_CONDITIONAL: 6.99
BRANCH_DIRECT_CALL: 0.0067
BRANCH_INDIRECT_CALL: 0.431
BRANCH_RETURN: 0.0161

LLC TOTAL        ACCESS:     837006 HIT:     563742 MISS:     273264
LLC LOAD         ACCESS:     576108 HIT:     376875 MISS:     199233
LLC RFO          ACCESS:      47478 HIT:      29131 MISS:      18347
LLC PREFETCH     ACCESS:      64320 HIT:      42960 MISS:      21360
LLC WRITE        ACCESS:     127005 HIT:     107864 MISS:      19141
LLC TRANSLATION  ACCESS:      22095 HIT:       6912 MISS:      15183
LLC PREFETCH REQUESTED:      64320 ISSUED:      64320 USEFUL:      12227 USELESS:       4756
LLC AVERAGE MISS LATENCY: 480.5 cycles
cpu0_DTLB TOTAL        ACCESS:  146491450 HIT:  145185559 MISS:    1305891
cpu0_DTLB LOAD         ACCESS:  146491450 HIT:  145185559 MISS:    1305891
cpu0_DTLB RFO          ACCESS:          0 HIT:          0 MISS:          0
cpu0_DTLB PREFETCH     ACCESS:          0 HIT:          0 MISS:          0
cpu0_DTLB WRITE        ACCESS:          0 HIT:          0 MISS:          0
cpu0_DTLB TRANSLATION  ACCESS:          0 HIT:          0 MISS:          0
cpu0_DTLB PREFETCH REQUESTED:          0 ISSUED:          0 USEFUL:          0 USELESS:          0
cpu0_DTLB AVERAGE MISS LATENCY: 12.78 cycles
cpu0_ITLB TOTAL        ACCESS:    8986649 HIT:    8802159 MISS:     184490
cpu0_ITLB LOAD         ACCESS:    8986649 HIT:    8802159 MISS:     184490
cpu0_ITLB RFO          ACCESS:          0 HIT:          0 MISS:          0
cpu0_ITLB PREFETCH     ACCESS:          0 HIT:          0 MISS:          0
cpu0_ITLB WRITE        ACCESS:          0 HIT:          0 MISS:          0
cpu0_ITLB TRANSLATION  ACCESS:          0 HIT:          0 MISS:          0
cpu0_ITLB PREFETCH REQUESTED:          0 ISSUED:          0 USEFUL:          0 USELESS:          0
cpu0_ITLB AVERAGE MISS LATENCY: 3.724 cycles
cpu0_L1D TOTAL        ACCESS:  193270636 HIT:  189615185 MISS:    3655451
cpu0_L1D LOAD         ACCESS:  107424619 HIT:  104414253 MISS:    3010366
cpu0_L1D RFO          ACCESS:          0 HIT:          0 MISS:          0
cpu0_L1D PREFETCH     ACCESS:          0 HIT:          0 MISS:          0
cpu0_L1D WRITE        ACCESS:   85817496 HIT:   85199510 MISS:     617986
cpu0_L1D TRANSLATION  ACCESS:      28521 HIT:       1422 MISS:      27099
cpu0_L1D PREFETCH REQUESTED:          0 ISSUED:          0 USEFUL:          0 USELESS:          0
cpu0_L1D AVERAGE MISS LATENCY: 37 cycles
cpu0_L1I TOTAL        ACCESS:   10421013 HIT:    8659235 MISS:    1761778
cpu0_L1I LOAD         ACCESS:   10421013 HIT:    8659235 MISS:    1761778
cpu0_L1I RFO          ACCESS:          0 HIT:          0 MISS:          0
cpu0_L1I PREFETCH     ACCESS:          0 HIT:          0 MISS:          0
cpu0_L1I WRITE        ACCESS:          0 HIT:          0 MISS:          0
cpu0_L1I TRANSLATION  ACCESS:          0 HIT:          0 MISS:          0
cpu0_L1I PREFETCH REQUESTED:          0 ISSUED:          0 USEFUL:          0 USELESS:          0
cpu0_L1I AVERAGE MISS LATENCY: 14.01 cycles
cpu0_L2C TOTAL        ACCESS:    3834659 HIT:    3185844 MISS:     648815
cpu0_L2C LOAD         ACCESS:    3105037 HIT:    2528929 MISS:     576108
cpu0_L2C RFO          ACCESS:     191552 HIT:     144074 MISS:      47478
cpu0_L2C PREFETCH     ACCESS:          0 HIT:          0 MISS:          0
cpu0_L2C WRITE        ACCESS:     511043 HIT:     507909 MISS:       3134
cpu0_L2C TRANSLATION  ACCESS:      27027 HIT:       4932 MISS:      22095
cpu0_L2C PREFETCH REQUESTED:          0 ISSUED:          0 USEFUL:          0 USELESS:          0
cpu0_L2C AVERAGE MISS LATENCY: 205.8 cycles
cpu0_STLB TOTAL        ACCESS:    1008417 HIT:     981724 MISS:      26693
cpu0_STLB LOAD         ACCESS:    1008417 HIT:     981724 MISS:      26693
cpu0_STLB RFO          ACCESS:          0 HIT:          0 MISS:          0
cpu0_STLB PREFETCH     ACCESS:          0 HIT:          0 MISS:          0
cpu0_STLB WRITE        ACCESS:          0 HIT:          0 MISS:          0
cpu0_STLB TRANSLATION  ACCESS:          0 HIT:          0 MISS:          0
cpu0_STLB PREFETCH REQUESTED:          0 ISSUED:          0 USEFUL:          0 USELESS:          0
cpu0_STLB AVERAGE MISS LATENCY: 408.5 cycles

DRAM Statistics

Channel 0 RQ ROW_BUFFER_HIT:      45546
  ROW_BUFFER_MISS:     203926
 AVG DBUS CONGESTED CYCLE: 3.8
WQ ROW_BUFFER_HIT: Channel 0 
  ROW_BUFFER_MISS:       9610
  FULL:      26783
