WARNING: physical memory size is smaller than virtual memory size.

*** ChampSim Multicore Out-of-Order Simulator ***
Warmup Instructions: 50000000
Simulation Instructions: 600000000
Number of CPUs: 1
Page size: 4096

Off-chip DRAM Size: 4 GiB Channels: 1 Width: 64-bit Data Race: 3200 MT/s
Heartbeat CPU 0 instructions: 10000001 cycles: 2500318 heartbeat IPC: 3.999 cumulative IPC: 3.999 (Simulation time: 00 hr 00 min 52 sec)
Heartbeat CPU 0 instructions: 20000002 cycles: 5037135 heartbeat IPC: 3.942 cumulative IPC: 3.971 (Simulation time: 00 hr 01 min 58 sec)
Heartbeat CPU 0 instructions: 30000002 cycles: 7537135 heartbeat IPC: 4 cumulative IPC: 3.98 (Simulation time: 00 hr 02 min 57 sec)
Heartbeat CPU 0 instructions: 40000002 cycles: 10037135 heartbeat IPC: 4 cumulative IPC: 3.985 (Simulation time: 00 hr 03 min 58 sec)
Heartbeat CPU 0 instructions: 50000002 cycles: 12537135 heartbeat IPC: 4 cumulative IPC: 3.988 (Simulation time: 00 hr 04 min 57 sec)
Warmup finished CPU 0 instructions: 50000002 cycles: 12537136 cumulative IPC: 3.988 (Simulation time: 00 hr 04 min 57 sec)
Warmup complete CPU 0 instructions: 50000002 cycles: 12537136 cumulative IPC: 3.988 (Simulation time: 00 hr 04 min 57 sec)
Heartbeat CPU 0 instructions: 60000000 cycles: 17710452 heartbeat IPC: 1.933 cumulative IPC: 1.933 (Simulation time: 00 hr 06 min 14 sec)
Heartbeat CPU 0 instructions: 70000002 cycles: 22607971 heartbeat IPC: 2.042 cumulative IPC: 1.986 (Simulation time: 00 hr 07 min 26 sec)
Heartbeat CPU 0 instructions: 80000001 cycles: 27973207 heartbeat IPC: 1.864 cumulative IPC: 1.943 (Simulation time: 00 hr 08 min 38 sec)
Heartbeat CPU 0 instructions: 90000001 cycles: 32854529 heartbeat IPC: 2.049 cumulative IPC: 1.969 (Simulation time: 00 hr 09 min 52 sec)
Heartbeat CPU 0 instructions: 100000000 cycles: 37970553 heartbeat IPC: 1.955 cumulative IPC: 1.966 (Simulation time: 00 hr 11 min 11 sec)
Heartbeat CPU 0 instructions: 110000000 cycles: 42863783 heartbeat IPC: 2.044 cumulative IPC: 1.978 (Simulation time: 00 hr 12 min 38 sec)
Heartbeat CPU 0 instructions: 120000001 cycles: 48054505 heartbeat IPC: 1.927 cumulative IPC: 1.971 (Simulation time: 00 hr 14 min 19 sec)
Heartbeat CPU 0 instructions: 130000001 cycles: 53210533 heartbeat IPC: 1.939 cumulative IPC: 1.967 (Simulation time: 00 hr 15 min 50 sec)
Heartbeat CPU 0 instructions: 140000001 cycles: 58522953 heartbeat IPC: 1.882 cumulative IPC: 1.957 (Simulation time: 00 hr 17 min 07 sec)
Heartbeat CPU 0 instructions: 150000001 cycles: 63849127 heartbeat IPC: 1.878 cumulative IPC: 1.949 (Simulation time: 00 hr 18 min 23 sec)
Heartbeat CPU 0 instructions: 160000004 cycles: 69058446 heartbeat IPC: 1.92 cumulative IPC: 1.946 (Simulation time: 00 hr 19 min 34 sec)
Heartbeat CPU 0 instructions: 170000000 cycles: 79185966 heartbeat IPC: 0.9874 cumulative IPC: 1.8 (Simulation time: 00 hr 21 min 22 sec)
Heartbeat CPU 0 instructions: 180000004 cycles: 89629440 heartbeat IPC: 0.9575 cumulative IPC: 1.686 (Simulation time: 00 hr 23 min 36 sec)
Heartbeat CPU 0 instructions: 190000001 cycles: 100319476 heartbeat IPC: 0.9355 cumulative IPC: 1.595 (Simulation time: 00 hr 26 min 16 sec)
Heartbeat CPU 0 instructions: 200000003 cycles: 105091062 heartbeat IPC: 2.096 cumulative IPC: 1.621 (Simulation time: 00 hr 27 min 35 sec)
Heartbeat CPU 0 instructions: 210000001 cycles: 110013703 heartbeat IPC: 2.031 cumulative IPC: 1.641 (Simulation time: 00 hr 28 min 56 sec)
Heartbeat CPU 0 instructions: 220000000 cycles: 114846354 heartbeat IPC: 2.069 cumulative IPC: 1.662 (Simulation time: 00 hr 30 min 18 sec)
Heartbeat CPU 0 instructions: 230000002 cycles: 120167714 heartbeat IPC: 1.879 cumulative IPC: 1.672 (Simulation time: 00 hr 31 min 40 sec)
Heartbeat CPU 0 instructions: 240000000 cycles: 125014485 heartbeat IPC: 2.063 cumulative IPC: 1.689 (Simulation time: 00 hr 32 min 54 sec)
Heartbeat CPU 0 instructions: 250000000 cycles: 130169399 heartbeat IPC: 1.94 cumulative IPC: 1.7 (Simulation time: 00 hr 34 min 06 sec)
Heartbeat CPU 0 instructions: 260000000 cycles: 135195058 heartbeat IPC: 1.99 cumulative IPC: 1.712 (Simulation time: 00 hr 35 min 21 sec)
Heartbeat CPU 0 instructions: 270000002 cycles: 140086936 heartbeat IPC: 2.044 cumulative IPC: 1.725 (Simulation time: 00 hr 36 min 56 sec)
Heartbeat CPU 0 instructions: 280000002 cycles: 145001464 heartbeat IPC: 2.035 cumulative IPC: 1.736 (Simulation time: 00 hr 38 min 33 sec)
Heartbeat CPU 0 instructions: 290000001 cycles: 150363130 heartbeat IPC: 1.865 cumulative IPC: 1.741 (Simulation time: 00 hr 40 min 02 sec)
Heartbeat CPU 0 instructions: 300000003 cycles: 155422180 heartbeat IPC: 1.977 cumulative IPC: 1.75 (Simulation time: 00 hr 41 min 20 sec)
Heartbeat CPU 0 instructions: 310000001 cycles: 160718432 heartbeat IPC: 1.888 cumulative IPC: 1.755 (Simulation time: 00 hr 42 min 41 sec)
Heartbeat CPU 0 instructions: 320000003 cycles: 165925305 heartbeat IPC: 1.921 cumulative IPC: 1.76 (Simulation time: 00 hr 44 min 00 sec)
Heartbeat CPU 0 instructions: 330000003 cycles: 171225875 heartbeat IPC: 1.887 cumulative IPC: 1.764 (Simulation time: 00 hr 45 min 13 sec)
Heartbeat CPU 0 instructions: 340000000 cycles: 181493367 heartbeat IPC: 0.9739 cumulative IPC: 1.716 (Simulation time: 00 hr 47 min 03 sec)
Heartbeat CPU 0 instructions: 350000000 cycles: 192505998 heartbeat IPC: 0.908 cumulative IPC: 1.667 (Simulation time: 00 hr 49 min 11 sec)
Heartbeat CPU 0 instructions: 360000004 cycles: 203192441 heartbeat IPC: 0.9358 cumulative IPC: 1.626 (Simulation time: 00 hr 51 min 37 sec)
Heartbeat CPU 0 instructions: 370000000 cycles: 207606017 heartbeat IPC: 2.266 cumulative IPC: 1.64 (Simulation time: 00 hr 52 min 58 sec)
Heartbeat CPU 0 instructions: 380000001 cycles: 212528473 heartbeat IPC: 2.032 cumulative IPC: 1.65 (Simulation time: 00 hr 54 min 18 sec)
Heartbeat CPU 0 instructions: 390000002 cycles: 217354314 heartbeat IPC: 2.072 cumulative IPC: 1.66 (Simulation time: 00 hr 55 min 38 sec)
Heartbeat CPU 0 instructions: 400000004 cycles: 222291341 heartbeat IPC: 2.026 cumulative IPC: 1.669 (Simulation time: 00 hr 56 min 56 sec)
Heartbeat CPU 0 instructions: 410000000 cycles: 227017278 heartbeat IPC: 2.116 cumulative IPC: 1.678 (Simulation time: 00 hr 58 min 10 sec)
Heartbeat CPU 0 instructions: 420000000 cycles: 232144610 heartbeat IPC: 1.95 cumulative IPC: 1.685 (Simulation time: 00 hr 59 min 26 sec)
Heartbeat CPU 0 instructions: 430000001 cycles: 236606780 heartbeat IPC: 2.241 cumulative IPC: 1.696 (Simulation time: 01 hr 00 min 36 sec)
Heartbeat CPU 0 instructions: 440000000 cycles: 241959099 heartbeat IPC: 1.868 cumulative IPC: 1.7 (Simulation time: 01 hr 01 min 58 sec)
Heartbeat CPU 0 instructions: 450000002 cycles: 246626349 heartbeat IPC: 2.143 cumulative IPC: 1.709 (Simulation time: 01 hr 03 min 23 sec)
Heartbeat CPU 0 instructions: 460000000 cycles: 251419107 heartbeat IPC: 2.086 cumulative IPC: 1.716 (Simulation time: 01 hr 04 min 53 sec)
Heartbeat CPU 0 instructions: 470000000 cycles: 256397206 heartbeat IPC: 2.009 cumulative IPC: 1.722 (Simulation time: 01 hr 06 min 21 sec)
Heartbeat CPU 0 instructions: 480000003 cycles: 261179221 heartbeat IPC: 2.091 cumulative IPC: 1.729 (Simulation time: 01 hr 07 min 36 sec)
Heartbeat CPU 0 instructions: 490000000 cycles: 265785721 heartbeat IPC: 2.171 cumulative IPC: 1.737 (Simulation time: 01 hr 08 min 51 sec)
Heartbeat CPU 0 instructions: 500000000 cycles: 270806632 heartbeat IPC: 1.992 cumulative IPC: 1.742 (Simulation time: 01 hr 10 min 13 sec)
Heartbeat CPU 0 instructions: 510000003 cycles: 276423339 heartbeat IPC: 1.78 cumulative IPC: 1.743 (Simulation time: 01 hr 11 min 38 sec)
Heartbeat CPU 0 instructions: 520000001 cycles: 281112644 heartbeat IPC: 2.133 cumulative IPC: 1.75 (Simulation time: 01 hr 12 min 49 sec)
Heartbeat CPU 0 instructions: 530000002 cycles: 286244425 heartbeat IPC: 1.949 cumulative IPC: 1.754 (Simulation time: 01 hr 13 min 58 sec)
Heartbeat CPU 0 instructions: 540000000 cycles: 291361653 heartbeat IPC: 1.954 cumulative IPC: 1.757 (Simulation time: 01 hr 15 min 16 sec)
Heartbeat CPU 0 instructions: 550000001 cycles: 296167476 heartbeat IPC: 2.081 cumulative IPC: 1.763 (Simulation time: 01 hr 16 min 54 sec)
Heartbeat CPU 0 instructions: 560000000 cycles: 301377253 heartbeat IPC: 1.919 cumulative IPC: 1.766 (Simulation time: 01 hr 18 min 34 sec)
Heartbeat CPU 0 instructions: 570000004 cycles: 308458859 heartbeat IPC: 1.412 cumulative IPC: 1.757 (Simulation time: 01 hr 20 min 18 sec)
Heartbeat CPU 0 instructions: 580000003 cycles: 319936567 heartbeat IPC: 0.8713 cumulative IPC: 1.724 (Simulation time: 01 hr 22 min 56 sec)
Heartbeat CPU 0 instructions: 590000002 cycles: 333141260 heartbeat IPC: 0.7573 cumulative IPC: 1.684 (Simulation time: 01 hr 25 min 27 sec)
Heartbeat CPU 0 instructions: 600000000 cycles: 337714735 heartbeat IPC: 2.187 cumulative IPC: 1.691 (Simulation time: 01 hr 26 min 38 sec)
Heartbeat CPU 0 instructions: 610000002 cycles: 342205293 heartbeat IPC: 2.227 cumulative IPC: 1.699 (Simulation time: 01 hr 27 min 45 sec)
Heartbeat CPU 0 instructions: 620000000 cycles: 347011901 heartbeat IPC: 2.08 cumulative IPC: 1.704 (Simulation time: 01 hr 29 min 05 sec)
Heartbeat CPU 0 instructions: 630000002 cycles: 352097374 heartbeat IPC: 1.966 cumulative IPC: 1.708 (Simulation time: 01 hr 30 min 53 sec)
Heartbeat CPU 0 instructions: 640000001 cycles: 356949063 heartbeat IPC: 2.061 cumulative IPC: 1.713 (Simulation time: 01 hr 32 min 30 sec)
Heartbeat CPU 0 instructions: 650000000 cycles: 361506128 heartbeat IPC: 2.194 cumulative IPC: 1.719 (Simulation time: 01 hr 33 min 47 sec)
Simulation finished CPU 0 instructions: 600000001 cycles: 348968994 cumulative IPC: 1.719 (Simulation time: 01 hr 33 min 47 sec)
Simulation complete CPU 0 instructions: 600000001 cycles: 348968994 cumulative IPC: 1.719 (Simulation time: 01 hr 33 min 47 sec)

ChampSim completed all CPUs

=== Simulation ===
CPU 0 runs traces/400.perlbench-41B.champsimtrace.xz
Region of Interest Statistics

CPU 0 cumulative IPC: 1.719 instructions: 600000001 cycles: 348968994
CPU 0 Branch Prediction Accuracy: 93.95% MPKI: 12.5 Average ROB Occupancy at Mispredict: 29.6
Branch type MPKI
BRANCH_DIRECT_JUMP: 0.0123
BRANCH_INDIRECT: 0.323
BRANCH_CONDITIONAL: 12
BRANCH_DIRECT_CALL: 0.0043
BRANCH_INDIRECT_CALL: 0.2
BRANCH_RETURN: 0.00828

LLC TOTAL        ACCESS:     595323 HIT:     319863 MISS:     275460
LLC LOAD         ACCESS:     402523 HIT:     179894 MISS:     222629
LLC RFO          ACCESS:      32453 HIT:      17939 MISS:      14514
LLC PREFETCH     ACCESS:      55008 HIT:      27159 MISS:      27849
LLC WRITE        ACCESS:      86396 HIT:      86245 MISS:        151
LLC TRANSLATION  ACCESS:      18943 HIT:       8626 MISS:      10317
LLC PREFETCH REQUESTED:      55008 ISSUED:      55008 USEFUL:      17398 USELESS:       6941
LLC AVERAGE MISS LATENCY: 568.3 cycles
cpu0_DTLB TOTAL        ACCESS:  153681995 HIT:  153004678 MISS:     677317
cpu0_DTLB LOAD         ACCESS:  153681995 HIT:  153004678 MISS:     677317
cpu0_DTLB RFO          ACCESS:          0 HIT:          0 MISS:          0
cpu0_DTLB PREFETCH     ACCESS:          0 HIT:          0 MISS:          0
cpu0_DTLB WRITE        ACCESS:          0 HIT:          0 MISS:          0
cpu0_DTLB TRANSLATION  ACCESS:          0 HIT:          0 MISS:          0
cpu0_DTLB PREFETCH REQUESTED:          0 ISSUED:          0 USEFUL:          0 USELESS:          0
cpu0_DTLB AVERAGE MISS LATENCY: 15.86 cycles
cpu0_ITLB TOTAL        ACCESS:    4836646 HIT:    4778770 MISS:      57876
cpu0_ITLB LOAD         ACCESS:    4836646 HIT:    4778770 MISS:      57876
cpu0_ITLB RFO          ACCESS:          0 HIT:          0 MISS:          0
cpu0_ITLB PREFETCH     ACCESS:          0 HIT:          0 MISS:          0
cpu0_ITLB WRITE        ACCESS:          0 HIT:          0 MISS:          0
cpu0_ITLB TRANSLATION  ACCESS:          0 HIT:          0 MISS:          0
cpu0_ITLB PREFETCH REQUESTED:          0 ISSUED:          0 USEFUL:          0 USELESS:          0
cpu0_ITLB AVERAGE MISS LATENCY: 7.427 cycles
cpu0_L1D TOTAL        ACCESS:  200299812 HIT:  198946701 MISS:    1353111
cpu0_L1D LOAD         ACCESS:  117055743 HIT:  116018040 MISS:    1037703
cpu0_L1D RFO          ACCESS:          0 HIT:          0 MISS:          0
cpu0_L1D PREFETCH     ACCESS:          0 HIT:          0 MISS:          0
cpu0_L1D WRITE        ACCESS:   83219611 HIT:   82927089 MISS:     292522
cpu0_L1D TRANSLATION  ACCESS:      24458 HIT:       1572 MISS:      22886
cpu0_L1D PREFETCH REQUESTED:          0 ISSUED:          0 USEFUL:          0 USELESS:          0
cpu0_L1D AVERAGE MISS LATENCY: 108.3 cycles
cpu0_L1I TOTAL        ACCESS:    5579044 HIT:    4817480 MISS:     761564
cpu0_L1I LOAD         ACCESS:    5579044 HIT:    4817480 MISS:     761564
cpu0_L1I RFO          ACCESS:          0 HIT:          0 MISS:          0
cpu0_L1I PREFETCH     ACCESS:          0 HIT:          0 MISS:          0
cpu0_L1I WRITE        ACCESS:          0 HIT:          0 MISS:          0
cpu0_L1I TRANSLATION  ACCESS:          0 HIT:          0 MISS:          0
cpu0_L1I PREFETCH REQUESTED:          0 ISSUED:          0 USEFUL:          0 USELESS:          0
cpu0_L1I AVERAGE MISS LATENCY: 12.86 cycles
cpu0_L2C TOTAL        ACCESS:    1382435 HIT:     924850 MISS:     457585
cpu0_L2C LOAD         ACCESS:    1125628 HIT:     723105 MISS:     402523
cpu0_L2C RFO          ACCESS:      63899 HIT:      31446 MISS:      32453
cpu0_L2C PREFETCH     ACCESS:          0 HIT:          0 MISS:          0
cpu0_L2C WRITE        ACCESS:     170101 HIT:     166435 MISS:       3666
cpu0_L2C TRANSLATION  ACCESS:      22807 HIT:       3864 MISS:      18943
cpu0_L2C PREFETCH REQUESTED:          0 ISSUED:          0 USEFUL:          0 USELESS:          0
cpu0_L2C AVERAGE MISS LATENCY: 324.6 cycles
cpu0_STLB TOTAL        ACCESS:     505102 HIT:     482312 MISS:      22790
cpu0_STLB LOAD         ACCESS:     505102 HIT:     482312 MISS:      22790
cpu0_STLB RFO          ACCESS:          0 HIT:          0 MISS:          0
cpu0_STLB PREFETCH     ACCESS:          0 HIT:          0 MISS:          0
cpu0_STLB WRITE        ACCESS:          0 HIT:          0 MISS:          0
cpu0_STLB TRANSLATION  ACCESS:          0 HIT:          0 MISS:          0
cpu0_STLB PREFETCH REQUESTED:          0 ISSUED:          0 USEFUL:          0 USELESS:          0
cpu0_STLB AVERAGE MISS LATENCY: 350.5 cycles

DRAM Statistics

Channel 0 RQ ROW_BUFFER_HIT:      47842
  ROW_BUFFER_MISS:     222352
 AVG DBUS CONGESTED CYCLE: 3.817
WQ ROW_BUFFER_HIT: Channel 0 
  ROW_BUFFER_MISS:       7175
  FULL:      31511
