WARNING: physical memory size is smaller than virtual memory size.

*** ChampSim Multicore Out-of-Order Simulator ***
Warmup Instructions: 50000000
Simulation Instructions: 600000000
Number of CPUs: 1
Page size: 4096

Off-chip DRAM Size: 4 GiB Channels: 1 Width: 64-bit Data Race: 3200 MT/s
Heartbeat CPU 0 instructions: 10000000 cycles: 2500061 heartbeat IPC: 4 cumulative IPC: 4 (Simulation time: 00 hr 00 min 27 sec)
Heartbeat CPU 0 instructions: 20000000 cycles: 5000061 heartbeat IPC: 4 cumulative IPC: 4 (Simulation time: 00 hr 00 min 57 sec)
Heartbeat CPU 0 instructions: 30000000 cycles: 7500061 heartbeat IPC: 4 cumulative IPC: 4 (Simulation time: 00 hr 01 min 30 sec)
Heartbeat CPU 0 instructions: 40000000 cycles: 10000061 heartbeat IPC: 4 cumulative IPC: 4 (Simulation time: 00 hr 02 min 09 sec)
Heartbeat CPU 0 instructions: 50000000 cycles: 12500061 heartbeat IPC: 4 cumulative IPC: 4 (Simulation time: 00 hr 02 min 50 sec)
Warmup finished CPU 0 instructions: 50000000 cycles: 12500062 cumulative IPC: 4 (Simulation time: 00 hr 02 min 50 sec)
Warmup complete CPU 0 instructions: 50000000 cycles: 12500062 cumulative IPC: 4 (Simulation time: 00 hr 02 min 50 sec)
Heartbeat CPU 0 instructions: 60000002 cycles: 16444320 heartbeat IPC: 2.535 cumulative IPC: 2.535 (Simulation time: 00 hr 03 min 58 sec)
Heartbeat CPU 0 instructions: 70000003 cycles: 20759823 heartbeat IPC: 2.317 cumulative IPC: 2.421 (Simulation time: 00 hr 05 min 12 sec)
Heartbeat CPU 0 instructions: 80000003 cycles: 25227591 heartbeat IPC: 2.238 cumulative IPC: 2.357 (Simulation time: 00 hr 06 min 29 sec)
Heartbeat CPU 0 instructions: 90000000 cycles: 28919011 heartbeat IPC: 2.709 cumulative IPC: 2.436 (Simulation time: 00 hr 07 min 39 sec)
Heartbeat CPU 0 instructions: 100000003 cycles: 32816151 heartbeat IPC: 2.566 cumulative IPC: 2.461 (Simulation time: 00 hr 08 min 48 sec)
Heartbeat CPU 0 instructions: 110000002 cycles: 36917375 heartbeat IPC: 2.438 cumulative IPC: 2.457 (Simulation time: 00 hr 09 min 55 sec)
Heartbeat CPU 0 instructions: 120000001 cycles: 40633193 heartbeat IPC: 2.691 cumulative IPC: 2.488 (Simulation time: 00 hr 10 min 57 sec)
Heartbeat CPU 0 instructions: 130000003 cycles: 44403228 heartbeat IPC: 2.652 cumulative IPC: 2.508 (Simulation time: 00 hr 12 min 01 sec)
Heartbeat CPU 0 instructions: 140000002 cycles: 48536109 heartbeat IPC: 2.42 cumulative IPC: 2.497 (Simulation time: 00 hr 13 min 07 sec)
Heartbeat CPU 0 instructions: 150000001 cycles: 52588514 heartbeat IPC: 2.468 cumulative IPC: 2.494 (Simulation time: 00 hr 14 min 16 sec)
Heartbeat CPU 0 instructions: 160000000 cycles: 56246657 heartbeat IPC: 2.734 cumulative IPC: 2.514 (Simulation time: 00 hr 15 min 22 sec)
Heartbeat CPU 0 instructions: 170000001 cycles: 60420087 heartbeat IPC: 2.396 cumulative IPC: 2.504 (Simulation time: 00 hr 16 min 30 sec)
Heartbeat CPU 0 instructions: 180000001 cycles: 63879893 heartbeat IPC: 2.89 cumulative IPC: 2.53 (Simulation time: 00 hr 17 min 30 sec)
Heartbeat CPU 0 instructions: 190000002 cycles: 67463337 heartbeat IPC: 2.791 cumulative IPC: 2.547 (Simulation time: 00 hr 18 min 29 sec)
Heartbeat CPU 0 instructions: 200000002 cycles: 71247240 heartbeat IPC: 2.643 cumulative IPC: 2.553 (Simulation time: 00 hr 19 min 27 sec)
Heartbeat CPU 0 instructions: 210000000 cycles: 74886058 heartbeat IPC: 2.748 cumulative IPC: 2.565 (Simulation time: 00 hr 20 min 25 sec)
Heartbeat CPU 0 instructions: 220000001 cycles: 78751209 heartbeat IPC: 2.587 cumulative IPC: 2.566 (Simulation time: 00 hr 21 min 23 sec)
Heartbeat CPU 0 instructions: 230000002 cycles: 82591682 heartbeat IPC: 2.604 cumulative IPC: 2.568 (Simulation time: 00 hr 22 min 20 sec)
Heartbeat CPU 0 instructions: 240000001 cycles: 86797519 heartbeat IPC: 2.378 cumulative IPC: 2.557 (Simulation time: 00 hr 23 min 21 sec)
Heartbeat CPU 0 instructions: 250000003 cycles: 91362760 heartbeat IPC: 2.19 cumulative IPC: 2.536 (Simulation time: 00 hr 24 min 26 sec)
Heartbeat CPU 0 instructions: 260000000 cycles: 95157972 heartbeat IPC: 2.635 cumulative IPC: 2.541 (Simulation time: 00 hr 25 min 25 sec)
Heartbeat CPU 0 instructions: 270000003 cycles: 102363913 heartbeat IPC: 1.388 cumulative IPC: 2.448 (Simulation time: 00 hr 26 min 50 sec)
Heartbeat CPU 0 instructions: 280000000 cycles: 113806758 heartbeat IPC: 0.8739 cumulative IPC: 2.27 (Simulation time: 00 hr 28 min 49 sec)
Heartbeat CPU 0 instructions: 290000000 cycles: 123993348 heartbeat IPC: 0.9817 cumulative IPC: 2.153 (Simulation time: 00 hr 30 min 33 sec)
Heartbeat CPU 0 instructions: 300000003 cycles: 131436556 heartbeat IPC: 1.344 cumulative IPC: 2.102 (Simulation time: 00 hr 32 min 01 sec)
Heartbeat CPU 0 instructions: 310000004 cycles: 142416265 heartbeat IPC: 0.9108 cumulative IPC: 2.001 (Simulation time: 00 hr 34 min 22 sec)
Heartbeat CPU 0 instructions: 320000004 cycles: 147472574 heartbeat IPC: 1.978 cumulative IPC: 2 (Simulation time: 00 hr 35 min 52 sec)
Heartbeat CPU 0 instructions: 330000000 cycles: 151546669 heartbeat IPC: 2.455 cumulative IPC: 2.014 (Simulation time: 00 hr 37 min 06 sec)
Heartbeat CPU 0 instructions: 340000001 cycles: 155884040 heartbeat IPC: 2.306 cumulative IPC: 2.023 (Simulation time: 00 hr 38 min 18 sec)
Heartbeat CPU 0 instructions: 350000004 cycles: 160361971 heartbeat IPC: 2.233 cumulative IPC: 2.029 (Simulation time: 00 hr 39 min 30 sec)
Heartbeat CPU 0 instructions: 360000003 cycles: 164524137 heartbeat IPC: 2.403 cumulative IPC: 2.039 (Simulation time: 00 hr 40 min 39 sec)
Heartbeat CPU 0 instructions: 370000001 cycles: 168584730 heartbeat IPC: 2.463 cumulative IPC: 2.05 (Simulation time: 00 hr 41 min 43 sec)
Heartbeat CPU 0 instructions: 380000004 cycles: 172496574 heartbeat IPC: 2.556 cumulative IPC: 2.063 (Simulation time: 00 hr 42 min 49 sec)
Heartbeat CPU 0 instructions: 390000002 cycles: 176597577 heartbeat IPC: 2.438 cumulative IPC: 2.072 (Simulation time: 00 hr 43 min 56 sec)
Heartbeat CPU 0 instructions: 400000000 cycles: 180987079 heartbeat IPC: 2.278 cumulative IPC: 2.077 (Simulation time: 00 hr 45 min 06 sec)
Heartbeat CPU 0 instructions: 410000000 cycles: 188971132 heartbeat IPC: 1.252 cumulative IPC: 2.04 (Simulation time: 00 hr 47 min 12 sec)
Heartbeat CPU 0 instructions: 420000003 cycles: 200405354 heartbeat IPC: 0.8746 cumulative IPC: 1.969 (Simulation time: 00 hr 49 min 47 sec)
Heartbeat CPU 0 instructions: 430000000 cycles: 208339980 heartbeat IPC: 1.26 cumulative IPC: 1.94 (Simulation time: 00 hr 51 min 39 sec)
Heartbeat CPU 0 instructions: 440000004 cycles: 215120855 heartbeat IPC: 1.475 cumulative IPC: 1.925 (Simulation time: 00 hr 53 min 14 sec)
Heartbeat CPU 0 instructions: 450000000 cycles: 221953416 heartbeat IPC: 1.464 cumulative IPC: 1.91 (Simulation time: 00 hr 54 min 53 sec)
Heartbeat CPU 0 instructions: 460000002 cycles: 232856424 heartbeat IPC: 0.9172 cumulative IPC: 1.861 (Simulation time: 00 hr 56 min 54 sec)
Heartbeat CPU 0 instructions: 470000003 cycles: 242442592 heartbeat IPC: 1.043 cumulative IPC: 1.827 (Simulation time: 00 hr 58 min 42 sec)
Heartbeat CPU 0 instructions: 480000003 cycles: 246737239 heartbeat IPC: 2.328 cumulative IPC: 1.836 (Simulation time: 01 hr 00 min 03 sec)
Heartbeat CPU 0 instructions: 490000001 cycles: 251486863 heartbeat IPC: 2.105 cumulative IPC: 1.841 (Simulation time: 01 hr 01 min 29 sec)
Heartbeat CPU 0 instructions: 500000002 cycles: 255974289 heartbeat IPC: 2.228 cumulative IPC: 1.848 (Simulation time: 01 hr 02 min 46 sec)
Heartbeat CPU 0 instructions: 510000000 cycles: 260251372 heartbeat IPC: 2.338 cumulative IPC: 1.857 (Simulation time: 01 hr 03 min 58 sec)
Heartbeat CPU 0 instructions: 520000000 cycles: 264722716 heartbeat IPC: 2.236 cumulative IPC: 1.863 (Simulation time: 01 hr 05 min 08 sec)
Heartbeat CPU 0 instructions: 530000001 cycles: 276712928 heartbeat IPC: 0.834 cumulative IPC: 1.817 (Simulation time: 01 hr 07 min 16 sec)
Heartbeat CPU 0 instructions: 540000000 cycles: 288245329 heartbeat IPC: 0.8671 cumulative IPC: 1.777 (Simulation time: 01 hr 09 min 27 sec)
Heartbeat CPU 0 instructions: 550000004 cycles: 300898998 heartbeat IPC: 0.7903 cumulative IPC: 1.734 (Simulation time: 01 hr 11 min 48 sec)
Heartbeat CPU 0 instructions: 560000004 cycles: 305201030 heartbeat IPC: 2.324 cumulative IPC: 1.742 (Simulation time: 01 hr 13 min 17 sec)
Heartbeat CPU 0 instructions: 570000001 cycles: 308329508 heartbeat IPC: 3.196 cumulative IPC: 1.758 (Simulation time: 01 hr 14 min 31 sec)
Heartbeat CPU 0 instructions: 580000003 cycles: 311874430 heartbeat IPC: 2.821 cumulative IPC: 1.77 (Simulation time: 01 hr 15 min 40 sec)
Heartbeat CPU 0 instructions: 590000002 cycles: 315500796 heartbeat IPC: 2.758 cumulative IPC: 1.782 (Simulation time: 01 hr 16 min 47 sec)
Heartbeat CPU 0 instructions: 600000003 cycles: 318565866 heartbeat IPC: 3.263 cumulative IPC: 1.797 (Simulation time: 01 hr 17 min 51 sec)
Heartbeat CPU 0 instructions: 610000001 cycles: 322075815 heartbeat IPC: 2.849 cumulative IPC: 1.809 (Simulation time: 01 hr 18 min 56 sec)
Heartbeat CPU 0 instructions: 620000000 cycles: 326091623 heartbeat IPC: 2.49 cumulative IPC: 1.818 (Simulation time: 01 hr 20 min 05 sec)
Heartbeat CPU 0 instructions: 630000002 cycles: 329459642 heartbeat IPC: 2.969 cumulative IPC: 1.83 (Simulation time: 01 hr 21 min 12 sec)
Heartbeat CPU 0 instructions: 640000004 cycles: 333473821 heartbeat IPC: 2.491 cumulative IPC: 1.838 (Simulation time: 01 hr 22 min 20 sec)
Heartbeat CPU 0 instructions: 650000001 cycles: 337298582 heartbeat IPC: 2.615 cumulative IPC: 1.847 (Simulation time: 01 hr 23 min 27 sec)
Simulation finished CPU 0 instructions: 600000001 cycles: 324798521 cumulative IPC: 1.847 (Simulation time: 01 hr 23 min 27 sec)
Simulation complete CPU 0 instructions: 600000001 cycles: 324798521 cumulative IPC: 1.847 (Simulation time: 01 hr 23 min 27 sec)

ChampSim completed all CPUs

=== Simulation ===
CPU 0 runs traces/400.perlbench-50B.champsimtrace.xz
Region of Interest Statistics

CPU 0 cumulative IPC: 1.847 instructions: 600000001 cycles: 324798521
CPU 0 Branch Prediction Accuracy: 96.2% MPKI: 7.839 Average ROB Occupancy at Mispredict: 43.62
Branch type MPKI
BRANCH_DIRECT_JUMP: 0.0176
BRANCH_INDIRECT: 0.38
BRANCH_CONDITIONAL: 6.99
BRANCH_DIRECT_CALL: 0.0067
BRANCH_INDIRECT_CALL: 0.431
BRANCH_RETURN: 0.0161

LLC TOTAL        ACCESS:     847372 HIT:     523009 MISS:     324363
LLC LOAD         ACCESS:     582539 HIT:     321117 MISS:     261422
LLC RFO          ACCESS:      47417 HIT:      26581 MISS:      20836
LLC PREFETCH     ACCESS:      65449 HIT:      35901 MISS:      29548
LLC WRITE        ACCESS:     130126 HIT:     129624 MISS:        502
LLC TRANSLATION  ACCESS:      21841 HIT:       9786 MISS:      12055
LLC PREFETCH REQUESTED:      65449 ISSUED:      65449 USEFUL:      18459 USELESS:       6724
LLC AVERAGE MISS LATENCY: 552.7 cycles
cpu0_DTLB TOTAL        ACCESS:  146488718 HIT:  145185076 MISS:    1303642
cpu0_DTLB LOAD         ACCESS:  146488718 HIT:  145185076 MISS:    1303642
cpu0_DTLB RFO          ACCESS:          0 HIT:          0 MISS:          0
cpu0_DTLB PREFETCH     ACCESS:          0 HIT:          0 MISS:          0
cpu0_DTLB WRITE        ACCESS:          0 HIT:          0 MISS:          0
cpu0_DTLB TRANSLATION  ACCESS:          0 HIT:          0 MISS:          0
cpu0_DTLB PREFETCH REQUESTED:          0 ISSUED:          0 USEFUL:          0 USELESS:          0
cpu0_DTLB AVERAGE MISS LATENCY: 11.97 cycles
cpu0_ITLB TOTAL        ACCESS:    8990732 HIT:    8806163 MISS:     184569
cpu0_ITLB LOAD         ACCESS:    8990732 HIT:    8806163 MISS:     184569
cpu0_ITLB RFO          ACCESS:          0 HIT:          0 MISS:          0
cpu0_ITLB PREFETCH     ACCESS:          0 HIT:          0 MISS:          0
cpu0_ITLB WRITE        ACCESS:          0 HIT:          0 MISS:          0
cpu0_ITLB TRANSLATION  ACCESS:          0 HIT:          0 MISS:          0
cpu0_ITLB PREFETCH REQUESTED:          0 ISSUED:          0 USEFUL:          0 USELESS:          0
cpu0_ITLB AVERAGE MISS LATENCY: 3.561 cycles
cpu0_L1D TOTAL        ACCESS:  193289874 HIT:  190408070 MISS:    2881804
cpu0_L1D LOAD         ACCESS:  107443514 HIT:  105073153 MISS:    2370361
cpu0_L1D RFO          ACCESS:          0 HIT:          0 MISS:          0
cpu0_L1D PREFETCH     ACCESS:          0 HIT:          0 MISS:          0
cpu0_L1D WRITE        ACCESS:   85817839 HIT:   85332900 MISS:     484939
cpu0_L1D TRANSLATION  ACCESS:      28521 HIT:       2017 MISS:      26504
cpu0_L1D PREFETCH REQUESTED:          0 ISSUED:          0 USEFUL:          0 USELESS:          0
cpu0_L1D AVERAGE MISS LATENCY: 60.83 cycles
cpu0_L1I TOTAL        ACCESS:   10424480 HIT:    8662066 MISS:    1762414
cpu0_L1I LOAD         ACCESS:   10424480 HIT:    8662066 MISS:    1762414
cpu0_L1I RFO          ACCESS:          0 HIT:          0 MISS:          0
cpu0_L1I PREFETCH     ACCESS:          0 HIT:          0 MISS:          0
cpu0_L1I WRITE        ACCESS:          0 HIT:          0 MISS:          0
cpu0_L1I TRANSLATION  ACCESS:          0 HIT:          0 MISS:          0
cpu0_L1I PREFETCH REQUESTED:          0 ISSUED:          0 USEFUL:          0 USELESS:          0
cpu0_L1I AVERAGE MISS LATENCY: 12.01 cycles
cpu0_L2C TOTAL        ACCESS:    3232236 HIT:    2574369 MISS:     657867
cpu0_L2C LOAD         ACCESS:    2710060 HIT:    2127520 MISS:     582540
cpu0_L2C RFO          ACCESS:     133271 HIT:      85854 MISS:      47417
cpu0_L2C PREFETCH     ACCESS:          0 HIT:          0 MISS:          0
cpu0_L2C WRITE        ACCESS:     362466 HIT:     356397 MISS:       6069
cpu0_L2C TRANSLATION  ACCESS:      26439 HIT:       4598 MISS:      21841
cpu0_L2C PREFETCH REQUESTED:          0 ISSUED:          0 USEFUL:          0 USELESS:          0
cpu0_L2C AVERAGE MISS LATENCY: 266.1 cycles
cpu0_STLB TOTAL        ACCESS:    1008718 HIT:     982024 MISS:      26694
cpu0_STLB LOAD         ACCESS:    1008718 HIT:     982024 MISS:      26694
cpu0_STLB RFO          ACCESS:          0 HIT:          0 MISS:          0
cpu0_STLB PREFETCH     ACCESS:          0 HIT:          0 MISS:          0
cpu0_STLB WRITE        ACCESS:          0 HIT:          0 MISS:          0
cpu0_STLB TRANSLATION  ACCESS:          0 HIT:          0 MISS:          0
cpu0_STLB PREFETCH REQUESTED:          0 ISSUED:          0 USEFUL:          0 USELESS:          0
cpu0_STLB AVERAGE MISS LATENCY: 366.6 cycles

DRAM Statistics

Channel 0 RQ ROW_BUFFER_HIT:      61461
  ROW_BUFFER_MISS:     256947
 AVG DBUS CONGESTED CYCLE: 3.822
WQ ROW_BUFFER_HIT: Channel 0 
  ROW_BUFFER_MISS:       8634
  FULL:      40433
