WARNING: physical memory size is smaller than virtual memory size.

*** ChampSim Multicore Out-of-Order Simulator ***
Warmup Instructions: 50000000
Simulation Instructions: 600000000
Number of CPUs: 1
Page size: 4096

CPU 0 Tage branch predictor
Off-chip DRAM Size: 4 GiB Channels: 1 Width: 64-bit Data Race: 3200 MT/s
Heartbeat CPU 0 instructions: 10000000 cycles: 2500061 heartbeat IPC: 4 cumulative IPC: 4 (Simulation time: 00 hr 01 min 02 sec)
Heartbeat CPU 0 instructions: 20000000 cycles: 5000061 heartbeat IPC: 4 cumulative IPC: 4 (Simulation time: 00 hr 02 min 10 sec)
Heartbeat CPU 0 instructions: 30000000 cycles: 7500061 heartbeat IPC: 4 cumulative IPC: 4 (Simulation time: 00 hr 03 min 15 sec)
Heartbeat CPU 0 instructions: 40000000 cycles: 10000061 heartbeat IPC: 4 cumulative IPC: 4 (Simulation time: 00 hr 04 min 21 sec)
Heartbeat CPU 0 instructions: 50000000 cycles: 12500061 heartbeat IPC: 4 cumulative IPC: 4 (Simulation time: 00 hr 05 min 20 sec)
Warmup finished CPU 0 instructions: 50000000 cycles: 12500062 cumulative IPC: 4 (Simulation time: 00 hr 05 min 20 sec)
Warmup complete CPU 0 instructions: 50000000 cycles: 12500062 cumulative IPC: 4 (Simulation time: 00 hr 05 min 20 sec)
Heartbeat CPU 0 instructions: 60000004 cycles: 15504211 heartbeat IPC: 3.329 cumulative IPC: 3.329 (Simulation time: 00 hr 06 min 33 sec)
Heartbeat CPU 0 instructions: 70000003 cycles: 18370187 heartbeat IPC: 3.489 cumulative IPC: 3.407 (Simulation time: 00 hr 08 min 06 sec)
Heartbeat CPU 0 instructions: 80000002 cycles: 21381308 heartbeat IPC: 3.321 cumulative IPC: 3.378 (Simulation time: 00 hr 09 min 34 sec)
Heartbeat CPU 0 instructions: 90000000 cycles: 24099104 heartbeat IPC: 3.679 cumulative IPC: 3.449 (Simulation time: 00 hr 10 min 56 sec)
Heartbeat CPU 0 instructions: 100000003 cycles: 26855682 heartbeat IPC: 3.628 cumulative IPC: 3.483 (Simulation time: 00 hr 12 min 08 sec)
Heartbeat CPU 0 instructions: 110000001 cycles: 29753191 heartbeat IPC: 3.451 cumulative IPC: 3.478 (Simulation time: 00 hr 13 min 17 sec)
Heartbeat CPU 0 instructions: 120000001 cycles: 32469614 heartbeat IPC: 3.681 cumulative IPC: 3.505 (Simulation time: 00 hr 14 min 31 sec)
Heartbeat CPU 0 instructions: 130000003 cycles: 35368912 heartbeat IPC: 3.449 cumulative IPC: 3.498 (Simulation time: 00 hr 15 min 43 sec)
Heartbeat CPU 0 instructions: 140000002 cycles: 38202933 heartbeat IPC: 3.529 cumulative IPC: 3.502 (Simulation time: 00 hr 16 min 53 sec)
Heartbeat CPU 0 instructions: 150000001 cycles: 40973175 heartbeat IPC: 3.61 cumulative IPC: 3.512 (Simulation time: 00 hr 17 min 59 sec)
Heartbeat CPU 0 instructions: 160000000 cycles: 43890705 heartbeat IPC: 3.428 cumulative IPC: 3.504 (Simulation time: 00 hr 19 min 07 sec)
Heartbeat CPU 0 instructions: 170000001 cycles: 46818939 heartbeat IPC: 3.415 cumulative IPC: 3.497 (Simulation time: 00 hr 20 min 31 sec)
Heartbeat CPU 0 instructions: 180000000 cycles: 49609778 heartbeat IPC: 3.583 cumulative IPC: 3.503 (Simulation time: 00 hr 22 min 02 sec)
Heartbeat CPU 0 instructions: 190000002 cycles: 52317790 heartbeat IPC: 3.693 cumulative IPC: 3.516 (Simulation time: 00 hr 23 min 27 sec)
Heartbeat CPU 0 instructions: 200000002 cycles: 55138349 heartbeat IPC: 3.545 cumulative IPC: 3.518 (Simulation time: 00 hr 24 min 43 sec)
Heartbeat CPU 0 instructions: 210000000 cycles: 58030352 heartbeat IPC: 3.458 cumulative IPC: 3.514 (Simulation time: 00 hr 25 min 56 sec)
Heartbeat CPU 0 instructions: 220000001 cycles: 60782145 heartbeat IPC: 3.634 cumulative IPC: 3.521 (Simulation time: 00 hr 27 min 09 sec)
Heartbeat CPU 0 instructions: 230000002 cycles: 63671555 heartbeat IPC: 3.461 cumulative IPC: 3.518 (Simulation time: 00 hr 28 min 24 sec)
Heartbeat CPU 0 instructions: 240000004 cycles: 66622481 heartbeat IPC: 3.389 cumulative IPC: 3.511 (Simulation time: 00 hr 29 min 35 sec)
Heartbeat CPU 0 instructions: 250000003 cycles: 69512801 heartbeat IPC: 3.46 cumulative IPC: 3.508 (Simulation time: 00 hr 30 min 45 sec)
Heartbeat CPU 0 instructions: 260000001 cycles: 72297083 heartbeat IPC: 3.592 cumulative IPC: 3.512 (Simulation time: 00 hr 31 min 54 sec)
Heartbeat CPU 0 instructions: 270000002 cycles: 78141820 heartbeat IPC: 1.711 cumulative IPC: 3.352 (Simulation time: 00 hr 33 min 42 sec)
Heartbeat CPU 0 instructions: 280000000 cycles: 87713725 heartbeat IPC: 1.045 cumulative IPC: 3.058 (Simulation time: 00 hr 36 min 16 sec)
Heartbeat CPU 0 instructions: 290000000 cycles: 95683524 heartbeat IPC: 1.255 cumulative IPC: 2.885 (Simulation time: 00 hr 38 min 14 sec)
Heartbeat CPU 0 instructions: 300000003 cycles: 100913958 heartbeat IPC: 1.912 cumulative IPC: 2.828 (Simulation time: 00 hr 39 min 52 sec)
Heartbeat CPU 0 instructions: 310000001 cycles: 109364487 heartbeat IPC: 1.183 cumulative IPC: 2.684 (Simulation time: 00 hr 41 min 54 sec)
Heartbeat CPU 0 instructions: 320000004 cycles: 113159831 heartbeat IPC: 2.635 cumulative IPC: 2.682 (Simulation time: 00 hr 43 min 11 sec)
Heartbeat CPU 0 instructions: 330000000 cycles: 116312508 heartbeat IPC: 3.172 cumulative IPC: 2.697 (Simulation time: 00 hr 44 min 23 sec)
Heartbeat CPU 0 instructions: 340000001 cycles: 119455208 heartbeat IPC: 3.182 cumulative IPC: 2.711 (Simulation time: 00 hr 45 min 52 sec)
Heartbeat CPU 0 instructions: 350000000 cycles: 122791820 heartbeat IPC: 2.997 cumulative IPC: 2.72 (Simulation time: 00 hr 47 min 31 sec)
Heartbeat CPU 0 instructions: 360000004 cycles: 125923124 heartbeat IPC: 3.194 cumulative IPC: 2.733 (Simulation time: 00 hr 48 min 51 sec)
Heartbeat CPU 0 instructions: 370000001 cycles: 129008324 heartbeat IPC: 3.241 cumulative IPC: 2.747 (Simulation time: 00 hr 50 min 08 sec)
Heartbeat CPU 0 instructions: 380000004 cycles: 132117183 heartbeat IPC: 3.217 cumulative IPC: 2.759 (Simulation time: 00 hr 51 min 29 sec)
Heartbeat CPU 0 instructions: 390000002 cycles: 135341312 heartbeat IPC: 3.102 cumulative IPC: 2.768 (Simulation time: 00 hr 52 min 50 sec)
Heartbeat CPU 0 instructions: 400000000 cycles: 138633391 heartbeat IPC: 3.038 cumulative IPC: 2.775 (Simulation time: 00 hr 54 min 07 sec)
Heartbeat CPU 0 instructions: 410000000 cycles: 144924751 heartbeat IPC: 1.589 cumulative IPC: 2.719 (Simulation time: 00 hr 55 min 47 sec)
Heartbeat CPU 0 instructions: 420000003 cycles: 153785887 heartbeat IPC: 1.129 cumulative IPC: 2.619 (Simulation time: 00 hr 58 min 09 sec)
Heartbeat CPU 0 instructions: 430000004 cycles: 159260796 heartbeat IPC: 1.827 cumulative IPC: 2.589 (Simulation time: 01 hr 00 min 17 sec)
Heartbeat CPU 0 instructions: 440000004 cycles: 164403182 heartbeat IPC: 1.945 cumulative IPC: 2.567 (Simulation time: 01 hr 02 min 04 sec)
Heartbeat CPU 0 instructions: 450000000 cycles: 169264724 heartbeat IPC: 2.057 cumulative IPC: 2.552 (Simulation time: 01 hr 03 min 48 sec)
Heartbeat CPU 0 instructions: 460000002 cycles: 177528164 heartbeat IPC: 1.21 cumulative IPC: 2.484 (Simulation time: 01 hr 06 min 00 sec)
Heartbeat CPU 0 instructions: 470000003 cycles: 185061391 heartbeat IPC: 1.327 cumulative IPC: 2.434 (Simulation time: 01 hr 07 min 56 sec)
Heartbeat CPU 0 instructions: 480000000 cycles: 188435226 heartbeat IPC: 2.964 cumulative IPC: 2.444 (Simulation time: 01 hr 09 min 09 sec)
Heartbeat CPU 0 instructions: 490000001 cycles: 192040324 heartbeat IPC: 2.774 cumulative IPC: 2.451 (Simulation time: 01 hr 10 min 33 sec)
Heartbeat CPU 0 instructions: 500000002 cycles: 195506489 heartbeat IPC: 2.885 cumulative IPC: 2.459 (Simulation time: 01 hr 12 min 16 sec)
Heartbeat CPU 0 instructions: 510000000 cycles: 198959260 heartbeat IPC: 2.896 cumulative IPC: 2.467 (Simulation time: 01 hr 13 min 51 sec)
Heartbeat CPU 0 instructions: 520000000 cycles: 202434952 heartbeat IPC: 2.877 cumulative IPC: 2.475 (Simulation time: 01 hr 15 min 17 sec)
Heartbeat CPU 0 instructions: 530000001 cycles: 211609130 heartbeat IPC: 1.09 cumulative IPC: 2.411 (Simulation time: 01 hr 17 min 42 sec)
Heartbeat CPU 0 instructions: 540000000 cycles: 220223821 heartbeat IPC: 1.161 cumulative IPC: 2.359 (Simulation time: 01 hr 19 min 56 sec)
Heartbeat CPU 0 instructions: 550000004 cycles: 230220079 heartbeat IPC: 1 cumulative IPC: 2.297 (Simulation time: 01 hr 22 min 17 sec)
Heartbeat CPU 0 instructions: 560000004 cycles: 233795148 heartbeat IPC: 2.797 cumulative IPC: 2.305 (Simulation time: 01 hr 23 min 32 sec)
Heartbeat CPU 0 instructions: 570000002 cycles: 236616027 heartbeat IPC: 3.545 cumulative IPC: 2.32 (Simulation time: 01 hr 25 min 03 sec)
Heartbeat CPU 0 instructions: 580000000 cycles: 239540808 heartbeat IPC: 3.419 cumulative IPC: 2.334 (Simulation time: 01 hr 26 min 33 sec)
Heartbeat CPU 0 instructions: 590000001 cycles: 242466543 heartbeat IPC: 3.418 cumulative IPC: 2.348 (Simulation time: 01 hr 27 min 52 sec)
Heartbeat CPU 0 instructions: 600000003 cycles: 245160537 heartbeat IPC: 3.712 cumulative IPC: 2.364 (Simulation time: 01 hr 29 min 07 sec)
Heartbeat CPU 0 instructions: 610000001 cycles: 248024346 heartbeat IPC: 3.492 cumulative IPC: 2.378 (Simulation time: 01 hr 30 min 24 sec)
Heartbeat CPU 0 instructions: 620000004 cycles: 250975104 heartbeat IPC: 3.389 cumulative IPC: 2.39 (Simulation time: 01 hr 31 min 36 sec)
Heartbeat CPU 0 instructions: 630000002 cycles: 253786031 heartbeat IPC: 3.558 cumulative IPC: 2.404 (Simulation time: 01 hr 32 min 48 sec)
Heartbeat CPU 0 instructions: 640000004 cycles: 256833788 heartbeat IPC: 3.281 cumulative IPC: 2.415 (Simulation time: 01 hr 34 min 09 sec)
Heartbeat CPU 0 instructions: 650000001 cycles: 259544918 heartbeat IPC: 3.688 cumulative IPC: 2.429 (Simulation time: 01 hr 35 min 36 sec)
Simulation finished CPU 0 instructions: 600000001 cycles: 247044857 cumulative IPC: 2.429 (Simulation time: 01 hr 35 min 36 sec)
Simulation complete CPU 0 instructions: 600000001 cycles: 247044857 cumulative IPC: 2.429 (Simulation time: 01 hr 35 min 36 sec)

ChampSim completed all CPUs

=== Simulation ===
CPU 0 runs traces/400.perlbench-50B.champsimtrace.xz
Region of Interest Statistics

CPU 0 cumulative IPC: 2.429 instructions: 600000001 cycles: 247044857
CPU 0 Branch Prediction Accuracy: 99.01% MPKI: 2.04 Average ROB Occupancy at Mispredict: 94.72
Branch type MPKI
BRANCH_DIRECT_JUMP: 0.0176
BRANCH_INDIRECT: 0.38
BRANCH_CONDITIONAL: 1.19
BRANCH_DIRECT_CALL: 0.0067
BRANCH_INDIRECT_CALL: 0.431
BRANCH_RETURN: 0.0161

LLC TOTAL        ACCESS:     769991 HIT:     457085 MISS:     312906
LLC LOAD         ACCESS:     573140 HIT:     297750 MISS:     275390
LLC RFO          ACCESS:      46607 HIT:      25939 MISS:      20668
LLC PREFETCH     ACCESS:          0 HIT:          0 MISS:          0
LLC WRITE        ACCESS:     128219 HIT:     123730 MISS:       4489
LLC TRANSLATION  ACCESS:      22025 HIT:       9666 MISS:      12359
LLC PREFETCH REQUESTED:          0 ISSUED:          0 USEFUL:          0 USELESS:          0
LLC AVERAGE MISS LATENCY: 594.8 cycles
cpu0_DTLB TOTAL        ACCESS:  133205987 HIT:  131853414 MISS:    1352573
cpu0_DTLB LOAD         ACCESS:  133205987 HIT:  131853414 MISS:    1352573
cpu0_DTLB RFO          ACCESS:          0 HIT:          0 MISS:          0
cpu0_DTLB PREFETCH     ACCESS:          0 HIT:          0 MISS:          0
cpu0_DTLB WRITE        ACCESS:          0 HIT:          0 MISS:          0
cpu0_DTLB TRANSLATION  ACCESS:          0 HIT:          0 MISS:          0
cpu0_DTLB PREFETCH REQUESTED:          0 ISSUED:          0 USEFUL:          0 USELESS:          0
cpu0_DTLB AVERAGE MISS LATENCY: 12.01 cycles
cpu0_ITLB TOTAL        ACCESS:    8999550 HIT:    8790059 MISS:     209491
cpu0_ITLB LOAD         ACCESS:    8999550 HIT:    8790059 MISS:     209491
cpu0_ITLB RFO          ACCESS:          0 HIT:          0 MISS:          0
cpu0_ITLB PREFETCH     ACCESS:          0 HIT:          0 MISS:          0
cpu0_ITLB WRITE        ACCESS:          0 HIT:          0 MISS:          0
cpu0_ITLB TRANSLATION  ACCESS:          0 HIT:          0 MISS:          0
cpu0_ITLB PREFETCH REQUESTED:          0 ISSUED:          0 USEFUL:          0 USELESS:          0
cpu0_ITLB AVERAGE MISS LATENCY: 2.998 cycles
cpu0_L1D TOTAL        ACCESS:  178254999 HIT:  175253893 MISS:    3001106
cpu0_L1D LOAD         ACCESS:   92737506 HIT:   90269698 MISS:    2467808
cpu0_L1D RFO          ACCESS:          0 HIT:          0 MISS:          0
cpu0_L1D PREFETCH     ACCESS:          0 HIT:          0 MISS:          0
cpu0_L1D WRITE        ACCESS:   85488964 HIT:   84982184 MISS:     506780
cpu0_L1D TRANSLATION  ACCESS:      28529 HIT:       2011 MISS:      26518
cpu0_L1D PREFETCH REQUESTED:          0 ISSUED:          0 USEFUL:          0 USELESS:          0
cpu0_L1D AVERAGE MISS LATENCY: 63.92 cycles
cpu0_L1I TOTAL        ACCESS:   10518517 HIT:    8620247 MISS:    1898270
cpu0_L1I LOAD         ACCESS:   10518517 HIT:    8620247 MISS:    1898270
cpu0_L1I RFO          ACCESS:          0 HIT:          0 MISS:          0
cpu0_L1I PREFETCH     ACCESS:          0 HIT:          0 MISS:          0
cpu0_L1I WRITE        ACCESS:          0 HIT:          0 MISS:          0
cpu0_L1I TRANSLATION  ACCESS:          0 HIT:          0 MISS:          0
cpu0_L1I PREFETCH REQUESTED:          0 ISSUED:          0 USEFUL:          0 USELESS:          0
cpu0_L1I AVERAGE MISS LATENCY: 10.54 cycles
cpu0_L2C TOTAL        ACCESS:    3235992 HIT:    2588278 MISS:     647714
cpu0_L2C LOAD         ACCESS:    2709082 HIT:    2135941 MISS:     573141
cpu0_L2C RFO          ACCESS:     135549 HIT:      88941 MISS:      46608
cpu0_L2C PREFETCH     ACCESS:          0 HIT:          0 MISS:          0
cpu0_L2C WRITE        ACCESS:     364921 HIT:     358981 MISS:       5940
cpu0_L2C TRANSLATION  ACCESS:      26440 HIT:       4415 MISS:      22025
cpu0_L2C PREFETCH REQUESTED:          0 ISSUED:          0 USEFUL:          0 USELESS:          0
cpu0_L2C AVERAGE MISS LATENCY: 307.6 cycles
cpu0_STLB TOTAL        ACCESS:    1009673 HIT:     982983 MISS:      26690
cpu0_STLB LOAD         ACCESS:    1009673 HIT:     982983 MISS:      26690
cpu0_STLB RFO          ACCESS:          0 HIT:          0 MISS:          0
cpu0_STLB PREFETCH     ACCESS:          0 HIT:          0 MISS:          0
cpu0_STLB WRITE        ACCESS:          0 HIT:          0 MISS:          0
cpu0_STLB TRANSLATION  ACCESS:          0 HIT:          0 MISS:          0
cpu0_STLB PREFETCH REQUESTED:          0 ISSUED:          0 USEFUL:          0 USELESS:          0
cpu0_STLB AVERAGE MISS LATENCY: 408.3 cycles

DRAM Statistics

Channel 0 RQ ROW_BUFFER_HIT:      62357
  ROW_BUFFER_MISS:     246009
 AVG DBUS CONGESTED CYCLE: 3.83
WQ ROW_BUFFER_HIT: Channel 0 
  ROW_BUFFER_MISS:       6497
  FULL:      39525
