WARNING: physical memory size is smaller than virtual memory size.

*** ChampSim Multicore Out-of-Order Simulator ***
Warmup Instructions: 50000000
Simulation Instructions: 600000000
Number of CPUs: 1
Page size: 4096

CPU 0 Tage branch predictor
Off-chip DRAM Size: 4 GiB Channels: 1 Width: 64-bit Data Race: 3200 MT/s
Heartbeat CPU 0 instructions: 10000001 cycles: 2500318 heartbeat IPC: 3.999 cumulative IPC: 3.999 (Simulation time: 00 hr 01 min 01 sec)
Heartbeat CPU 0 instructions: 20000002 cycles: 5037133 heartbeat IPC: 3.942 cumulative IPC: 3.971 (Simulation time: 00 hr 02 min 03 sec)
Heartbeat CPU 0 instructions: 30000002 cycles: 7537133 heartbeat IPC: 4 cumulative IPC: 3.98 (Simulation time: 00 hr 02 min 59 sec)
Heartbeat CPU 0 instructions: 40000002 cycles: 10037133 heartbeat IPC: 4 cumulative IPC: 3.985 (Simulation time: 00 hr 03 min 59 sec)
Heartbeat CPU 0 instructions: 50000002 cycles: 12537133 heartbeat IPC: 4 cumulative IPC: 3.988 (Simulation time: 00 hr 05 min 02 sec)
Warmup finished CPU 0 instructions: 50000002 cycles: 12537134 cumulative IPC: 3.988 (Simulation time: 00 hr 05 min 02 sec)
Warmup complete CPU 0 instructions: 50000002 cycles: 12537134 cumulative IPC: 3.988 (Simulation time: 00 hr 05 min 02 sec)
Heartbeat CPU 0 instructions: 60000001 cycles: 15510726 heartbeat IPC: 3.363 cumulative IPC: 3.363 (Simulation time: 00 hr 06 min 34 sec)
Heartbeat CPU 0 instructions: 70000004 cycles: 18581666 heartbeat IPC: 3.256 cumulative IPC: 3.309 (Simulation time: 00 hr 08 min 02 sec)
Heartbeat CPU 0 instructions: 80000001 cycles: 21628989 heartbeat IPC: 3.282 cumulative IPC: 3.3 (Simulation time: 00 hr 09 min 27 sec)
Heartbeat CPU 0 instructions: 90000001 cycles: 24575327 heartbeat IPC: 3.394 cumulative IPC: 3.323 (Simulation time: 00 hr 10 min 44 sec)
Heartbeat CPU 0 instructions: 100000000 cycles: 27491365 heartbeat IPC: 3.429 cumulative IPC: 3.344 (Simulation time: 00 hr 12 min 05 sec)
Heartbeat CPU 0 instructions: 110000000 cycles: 30437119 heartbeat IPC: 3.395 cumulative IPC: 3.352 (Simulation time: 00 hr 13 min 22 sec)
Heartbeat CPU 0 instructions: 120000001 cycles: 33410719 heartbeat IPC: 3.363 cumulative IPC: 3.354 (Simulation time: 00 hr 14 min 36 sec)
Heartbeat CPU 0 instructions: 130000001 cycles: 36268390 heartbeat IPC: 3.499 cumulative IPC: 3.371 (Simulation time: 00 hr 15 min 47 sec)
Heartbeat CPU 0 instructions: 140000001 cycles: 39314484 heartbeat IPC: 3.283 cumulative IPC: 3.361 (Simulation time: 00 hr 16 min 58 sec)
Heartbeat CPU 0 instructions: 150000001 cycles: 42327554 heartbeat IPC: 3.319 cumulative IPC: 3.357 (Simulation time: 00 hr 18 min 23 sec)
Heartbeat CPU 0 instructions: 160000004 cycles: 45342058 heartbeat IPC: 3.317 cumulative IPC: 3.353 (Simulation time: 00 hr 20 min 03 sec)
Heartbeat CPU 0 instructions: 170000000 cycles: 52882794 heartbeat IPC: 1.326 cumulative IPC: 2.974 (Simulation time: 00 hr 22 min 19 sec)
Heartbeat CPU 0 instructions: 180000004 cycles: 61125802 heartbeat IPC: 1.213 cumulative IPC: 2.676 (Simulation time: 00 hr 24 min 42 sec)
Heartbeat CPU 0 instructions: 190000001 cycles: 69203990 heartbeat IPC: 1.238 cumulative IPC: 2.471 (Simulation time: 00 hr 26 min 52 sec)
Heartbeat CPU 0 instructions: 200000004 cycles: 72168016 heartbeat IPC: 3.374 cumulative IPC: 2.515 (Simulation time: 00 hr 28 min 03 sec)
Heartbeat CPU 0 instructions: 210000001 cycles: 75127501 heartbeat IPC: 3.379 cumulative IPC: 2.556 (Simulation time: 00 hr 29 min 10 sec)
Heartbeat CPU 0 instructions: 220000000 cycles: 78019798 heartbeat IPC: 3.457 cumulative IPC: 2.596 (Simulation time: 00 hr 30 min 12 sec)
Heartbeat CPU 0 instructions: 230000002 cycles: 81042304 heartbeat IPC: 3.309 cumulative IPC: 2.628 (Simulation time: 00 hr 31 min 28 sec)
Heartbeat CPU 0 instructions: 240000003 cycles: 84074469 heartbeat IPC: 3.298 cumulative IPC: 2.656 (Simulation time: 00 hr 33 min 07 sec)
Heartbeat CPU 0 instructions: 250000000 cycles: 87099890 heartbeat IPC: 3.305 cumulative IPC: 2.682 (Simulation time: 00 hr 34 min 40 sec)
Heartbeat CPU 0 instructions: 260000002 cycles: 90069481 heartbeat IPC: 3.367 cumulative IPC: 2.709 (Simulation time: 00 hr 35 min 59 sec)
Heartbeat CPU 0 instructions: 270000002 cycles: 92982995 heartbeat IPC: 3.432 cumulative IPC: 2.735 (Simulation time: 00 hr 37 min 13 sec)
Heartbeat CPU 0 instructions: 280000002 cycles: 95867337 heartbeat IPC: 3.467 cumulative IPC: 2.76 (Simulation time: 00 hr 38 min 36 sec)
Heartbeat CPU 0 instructions: 290000002 cycles: 98830253 heartbeat IPC: 3.375 cumulative IPC: 2.781 (Simulation time: 00 hr 39 min 52 sec)
Heartbeat CPU 0 instructions: 300000003 cycles: 101727805 heartbeat IPC: 3.451 cumulative IPC: 2.803 (Simulation time: 00 hr 41 min 06 sec)
Heartbeat CPU 0 instructions: 310000001 cycles: 104766621 heartbeat IPC: 3.291 cumulative IPC: 2.819 (Simulation time: 00 hr 42 min 18 sec)
Heartbeat CPU 0 instructions: 320000003 cycles: 107776299 heartbeat IPC: 3.323 cumulative IPC: 2.835 (Simulation time: 00 hr 43 min 24 sec)
Heartbeat CPU 0 instructions: 330000003 cycles: 110766629 heartbeat IPC: 3.344 cumulative IPC: 2.85 (Simulation time: 00 hr 44 min 35 sec)
Heartbeat CPU 0 instructions: 340000000 cycles: 118515516 heartbeat IPC: 1.291 cumulative IPC: 2.736 (Simulation time: 00 hr 46 min 55 sec)
Heartbeat CPU 0 instructions: 350000000 cycles: 126993313 heartbeat IPC: 1.18 cumulative IPC: 2.621 (Simulation time: 00 hr 49 min 25 sec)
Heartbeat CPU 0 instructions: 360000004 cycles: 135124877 heartbeat IPC: 1.23 cumulative IPC: 2.529 (Simulation time: 00 hr 51 min 34 sec)
Heartbeat CPU 0 instructions: 370000000 cycles: 138093067 heartbeat IPC: 3.369 cumulative IPC: 2.549 (Simulation time: 00 hr 52 min 49 sec)
Heartbeat CPU 0 instructions: 380000003 cycles: 141014228 heartbeat IPC: 3.423 cumulative IPC: 2.569 (Simulation time: 00 hr 54 min 00 sec)
Heartbeat CPU 0 instructions: 390000002 cycles: 143992139 heartbeat IPC: 3.358 cumulative IPC: 2.586 (Simulation time: 00 hr 55 min 08 sec)
Heartbeat CPU 0 instructions: 400000004 cycles: 146894163 heartbeat IPC: 3.446 cumulative IPC: 2.605 (Simulation time: 00 hr 56 min 12 sec)
Heartbeat CPU 0 instructions: 410000002 cycles: 149834417 heartbeat IPC: 3.401 cumulative IPC: 2.622 (Simulation time: 00 hr 57 min 15 sec)
Heartbeat CPU 0 instructions: 420000003 cycles: 152942722 heartbeat IPC: 3.217 cumulative IPC: 2.635 (Simulation time: 00 hr 58 min 22 sec)
Heartbeat CPU 0 instructions: 430000001 cycles: 155952309 heartbeat IPC: 3.323 cumulative IPC: 2.65 (Simulation time: 00 hr 59 min 45 sec)
Heartbeat CPU 0 instructions: 440000004 cycles: 159086737 heartbeat IPC: 3.19 cumulative IPC: 2.661 (Simulation time: 01 hr 01 min 23 sec)
Heartbeat CPU 0 instructions: 450000002 cycles: 162011139 heartbeat IPC: 3.42 cumulative IPC: 2.676 (Simulation time: 01 hr 02 min 48 sec)
Heartbeat CPU 0 instructions: 460000000 cycles: 164943779 heartbeat IPC: 3.41 cumulative IPC: 2.69 (Simulation time: 01 hr 04 min 05 sec)
Heartbeat CPU 0 instructions: 470000001 cycles: 167798118 heartbeat IPC: 3.503 cumulative IPC: 2.705 (Simulation time: 01 hr 05 min 20 sec)
Heartbeat CPU 0 instructions: 480000003 cycles: 170845163 heartbeat IPC: 3.282 cumulative IPC: 2.716 (Simulation time: 01 hr 06 min 39 sec)
Heartbeat CPU 0 instructions: 490000004 cycles: 173674782 heartbeat IPC: 3.534 cumulative IPC: 2.731 (Simulation time: 01 hr 07 min 51 sec)
Heartbeat CPU 0 instructions: 500000004 cycles: 176661187 heartbeat IPC: 3.349 cumulative IPC: 2.742 (Simulation time: 01 hr 09 min 04 sec)
Heartbeat CPU 0 instructions: 510000003 cycles: 179678530 heartbeat IPC: 3.314 cumulative IPC: 2.752 (Simulation time: 01 hr 10 min 14 sec)
Heartbeat CPU 0 instructions: 520000001 cycles: 182566114 heartbeat IPC: 3.463 cumulative IPC: 2.764 (Simulation time: 01 hr 11 min 23 sec)
Heartbeat CPU 0 instructions: 530000001 cycles: 185566951 heartbeat IPC: 3.332 cumulative IPC: 2.774 (Simulation time: 01 hr 12 min 28 sec)
Heartbeat CPU 0 instructions: 540000000 cycles: 188525857 heartbeat IPC: 3.38 cumulative IPC: 2.784 (Simulation time: 01 hr 13 min 34 sec)
Heartbeat CPU 0 instructions: 550000001 cycles: 191509271 heartbeat IPC: 3.352 cumulative IPC: 2.794 (Simulation time: 01 hr 14 min 38 sec)
Heartbeat CPU 0 instructions: 560000000 cycles: 194591376 heartbeat IPC: 3.245 cumulative IPC: 2.801 (Simulation time: 01 hr 15 min 42 sec)
Heartbeat CPU 0 instructions: 570000004 cycles: 199771383 heartbeat IPC: 1.931 cumulative IPC: 2.777 (Simulation time: 01 hr 17 min 03 sec)
Heartbeat CPU 0 instructions: 580000003 cycles: 208568416 heartbeat IPC: 1.137 cumulative IPC: 2.704 (Simulation time: 01 hr 18 min 55 sec)
Heartbeat CPU 0 instructions: 590000002 cycles: 219057390 heartbeat IPC: 0.9534 cumulative IPC: 2.615 (Simulation time: 01 hr 21 min 03 sec)
Heartbeat CPU 0 instructions: 600000004 cycles: 222115805 heartbeat IPC: 3.27 cumulative IPC: 2.624 (Simulation time: 01 hr 22 min 07 sec)
Heartbeat CPU 0 instructions: 610000002 cycles: 225082204 heartbeat IPC: 3.371 cumulative IPC: 2.635 (Simulation time: 01 hr 23 min 11 sec)
Heartbeat CPU 0 instructions: 620000001 cycles: 227857522 heartbeat IPC: 3.603 cumulative IPC: 2.647 (Simulation time: 01 hr 24 min 15 sec)
Heartbeat CPU 0 instructions: 630000002 cycles: 230829064 heartbeat IPC: 3.365 cumulative IPC: 2.657 (Simulation time: 01 hr 25 min 19 sec)
Heartbeat CPU 0 instructions: 640000004 cycles: 233778839 heartbeat IPC: 3.39 cumulative IPC: 2.667 (Simulation time: 01 hr 26 min 23 sec)
Heartbeat CPU 0 instructions: 650000000 cycles: 236527811 heartbeat IPC: 3.638 cumulative IPC: 2.679 (Simulation time: 01 hr 27 min 26 sec)
Simulation finished CPU 0 instructions: 600000001 cycles: 223990679 cumulative IPC: 2.679 (Simulation time: 01 hr 27 min 26 sec)
Simulation complete CPU 0 instructions: 600000001 cycles: 223990679 cumulative IPC: 2.679 (Simulation time: 01 hr 27 min 26 sec)

ChampSim completed all CPUs

=== Simulation ===
CPU 0 runs traces/400.perlbench-41B.champsimtrace.xz
Region of Interest Statistics

CPU 0 cumulative IPC: 2.679 instructions: 600000001 cycles: 223990679
CPU 0 Branch Prediction Accuracy: 99.19% MPKI: 1.684 Average ROB Occupancy at Mispredict: 102.1
Branch type MPKI
BRANCH_DIRECT_JUMP: 0.0123
BRANCH_INDIRECT: 0.323
BRANCH_CONDITIONAL: 1.14
BRANCH_DIRECT_CALL: 0.0043
BRANCH_INDIRECT_CALL: 0.2
BRANCH_RETURN: 0.00828

LLC TOTAL        ACCESS:     539465 HIT:     280031 MISS:     259434
LLC LOAD         ACCESS:     402562 HIT:     167340 MISS:     235222
LLC RFO          ACCESS:      32332 HIT:      18254 MISS:      14078
LLC PREFETCH     ACCESS:          0 HIT:          0 MISS:          0
LLC WRITE        ACCESS:      85730 HIT:      85615 MISS:        115
LLC TRANSLATION  ACCESS:      18841 HIT:       8822 MISS:      10019
LLC PREFETCH REQUESTED:          0 ISSUED:          0 USEFUL:          0 USELESS:          0
LLC AVERAGE MISS LATENCY: 630.5 cycles
cpu0_DTLB TOTAL        ACCESS:  129764642 HIT:  129060940 MISS:     703702
cpu0_DTLB LOAD         ACCESS:  129764642 HIT:  129060940 MISS:     703702
cpu0_DTLB RFO          ACCESS:          0 HIT:          0 MISS:          0
cpu0_DTLB PREFETCH     ACCESS:          0 HIT:          0 MISS:          0
cpu0_DTLB WRITE        ACCESS:          0 HIT:          0 MISS:          0
cpu0_DTLB TRANSLATION  ACCESS:          0 HIT:          0 MISS:          0
cpu0_DTLB PREFETCH REQUESTED:          0 ISSUED:          0 USEFUL:          0 USELESS:          0
cpu0_DTLB AVERAGE MISS LATENCY: 15.33 cycles
cpu0_ITLB TOTAL        ACCESS:    4877227 HIT:    4815050 MISS:      62177
cpu0_ITLB LOAD         ACCESS:    4877227 HIT:    4815050 MISS:      62177
cpu0_ITLB RFO          ACCESS:          0 HIT:          0 MISS:          0
cpu0_ITLB PREFETCH     ACCESS:          0 HIT:          0 MISS:          0
cpu0_ITLB WRITE        ACCESS:          0 HIT:          0 MISS:          0
cpu0_ITLB TRANSLATION  ACCESS:          0 HIT:          0 MISS:          0
cpu0_ITLB PREFETCH REQUESTED:          0 ISSUED:          0 USEFUL:          0 USELESS:          0
cpu0_ITLB AVERAGE MISS LATENCY: 6.861 cycles
cpu0_L1D TOTAL        ACCESS:  174360107 HIT:  172932508 MISS:    1427599
cpu0_L1D LOAD         ACCESS:   91339508 HIT:   90236252 MISS:    1103256
cpu0_L1D RFO          ACCESS:          0 HIT:          0 MISS:          0
cpu0_L1D PREFETCH     ACCESS:          0 HIT:          0 MISS:          0
cpu0_L1D WRITE        ACCESS:   82996139 HIT:   82694654 MISS:     301485
cpu0_L1D TRANSLATION  ACCESS:      24460 HIT:       1602 MISS:      22858
cpu0_L1D PREFETCH REQUESTED:          0 ISSUED:          0 USEFUL:          0 USELESS:          0
cpu0_L1D AVERAGE MISS LATENCY: 113.3 cycles
cpu0_L1I TOTAL        ACCESS:    5656122 HIT:    4851057 MISS:     805065
cpu0_L1I LOAD         ACCESS:    5656122 HIT:    4851057 MISS:     805065
cpu0_L1I RFO          ACCESS:          0 HIT:          0 MISS:          0
cpu0_L1I PREFETCH     ACCESS:          0 HIT:          0 MISS:          0
cpu0_L1I WRITE        ACCESS:          0 HIT:          0 MISS:          0
cpu0_L1I TRANSLATION  ACCESS:          0 HIT:          0 MISS:          0
cpu0_L1I PREFETCH REQUESTED:          0 ISSUED:          0 USEFUL:          0 USELESS:          0
cpu0_L1I AVERAGE MISS LATENCY: 11.66 cycles
cpu0_L2C TOTAL        ACCESS:    1381541 HIT:     924136 MISS:     457405
cpu0_L2C LOAD         ACCESS:    1124045 HIT:     721482 MISS:     402563
cpu0_L2C RFO          ACCESS:      64483 HIT:      32151 MISS:      32332
cpu0_L2C PREFETCH     ACCESS:          0 HIT:          0 MISS:          0
cpu0_L2C WRITE        ACCESS:     170231 HIT:     166562 MISS:       3669
cpu0_L2C TRANSLATION  ACCESS:      22782 HIT:       3941 MISS:      18841
cpu0_L2C PREFETCH REQUESTED:          0 ISSUED:          0 USEFUL:          0 USELESS:          0
cpu0_L2C AVERAGE MISS LATENCY: 378 cycles
cpu0_STLB TOTAL        ACCESS:     508969 HIT:     486183 MISS:      22786
cpu0_STLB LOAD         ACCESS:     508969 HIT:     486183 MISS:      22786
cpu0_STLB RFO          ACCESS:          0 HIT:          0 MISS:          0
cpu0_STLB PREFETCH     ACCESS:          0 HIT:          0 MISS:          0
cpu0_STLB WRITE        ACCESS:          0 HIT:          0 MISS:          0
cpu0_STLB TRANSLATION  ACCESS:          0 HIT:          0 MISS:          0
cpu0_STLB PREFETCH REQUESTED:          0 ISSUED:          0 USEFUL:          0 USELESS:          0
cpu0_STLB AVERAGE MISS LATENCY: 368.5 cycles

DRAM Statistics

Channel 0 RQ ROW_BUFFER_HIT:      48405
  ROW_BUFFER_MISS:     210892
 AVG DBUS CONGESTED CYCLE: 3.831
WQ ROW_BUFFER_HIT: Channel 0 
  ROW_BUFFER_MISS:       4838
  FULL:      32046
