WARNING: physical memory size is smaller than virtual memory size.

*** ChampSim Multicore Out-of-Order Simulator ***
Warmup Instructions: 50000000
Simulation Instructions: 600000000
Number of CPUs: 1
Page size: 4096

Off-chip DRAM Size: 4 GiB Channels: 1 Width: 64-bit Data Race: 3200 MT/s
Heartbeat CPU 0 instructions: 10000000 cycles: 2500061 heartbeat IPC: 4 cumulative IPC: 4 (Simulation time: 00 hr 00 min 47 sec)
Heartbeat CPU 0 instructions: 20000000 cycles: 5000061 heartbeat IPC: 4 cumulative IPC: 4 (Simulation time: 00 hr 01 min 30 sec)
Heartbeat CPU 0 instructions: 30000000 cycles: 7500061 heartbeat IPC: 4 cumulative IPC: 4 (Simulation time: 00 hr 02 min 11 sec)
Heartbeat CPU 0 instructions: 40000000 cycles: 10000061 heartbeat IPC: 4 cumulative IPC: 4 (Simulation time: 00 hr 02 min 55 sec)
Heartbeat CPU 0 instructions: 50000000 cycles: 12500061 heartbeat IPC: 4 cumulative IPC: 4 (Simulation time: 00 hr 03 min 42 sec)
Warmup finished CPU 0 instructions: 50000000 cycles: 12500062 cumulative IPC: 4 (Simulation time: 00 hr 03 min 42 sec)
Warmup complete CPU 0 instructions: 50000000 cycles: 12500062 cumulative IPC: 4 (Simulation time: 00 hr 03 min 42 sec)
Heartbeat CPU 0 instructions: 60000002 cycles: 16446623 heartbeat IPC: 2.534 cumulative IPC: 2.534 (Simulation time: 00 hr 04 min 47 sec)
Heartbeat CPU 0 instructions: 70000003 cycles: 20770663 heartbeat IPC: 2.313 cumulative IPC: 2.418 (Simulation time: 00 hr 05 min 56 sec)
Heartbeat CPU 0 instructions: 80000003 cycles: 25247437 heartbeat IPC: 2.234 cumulative IPC: 2.353 (Simulation time: 00 hr 07 min 04 sec)
Heartbeat CPU 0 instructions: 90000000 cycles: 28939876 heartbeat IPC: 2.708 cumulative IPC: 2.433 (Simulation time: 00 hr 08 min 05 sec)
Heartbeat CPU 0 instructions: 100000003 cycles: 32843908 heartbeat IPC: 2.561 cumulative IPC: 2.458 (Simulation time: 00 hr 09 min 11 sec)
Heartbeat CPU 0 instructions: 110000002 cycles: 36950135 heartbeat IPC: 2.435 cumulative IPC: 2.454 (Simulation time: 00 hr 10 min 21 sec)
Heartbeat CPU 0 instructions: 120000001 cycles: 40668359 heartbeat IPC: 2.689 cumulative IPC: 2.485 (Simulation time: 00 hr 11 min 19 sec)
Heartbeat CPU 0 instructions: 130000003 cycles: 44444328 heartbeat IPC: 2.648 cumulative IPC: 2.504 (Simulation time: 00 hr 12 min 15 sec)
Heartbeat CPU 0 instructions: 140000002 cycles: 48579315 heartbeat IPC: 2.418 cumulative IPC: 2.495 (Simulation time: 00 hr 13 min 12 sec)
Heartbeat CPU 0 instructions: 150000001 cycles: 52632664 heartbeat IPC: 2.467 cumulative IPC: 2.492 (Simulation time: 00 hr 14 min 08 sec)
Heartbeat CPU 0 instructions: 160000000 cycles: 56291651 heartbeat IPC: 2.733 cumulative IPC: 2.512 (Simulation time: 00 hr 15 min 01 sec)
Heartbeat CPU 0 instructions: 170000001 cycles: 60472265 heartbeat IPC: 2.392 cumulative IPC: 2.501 (Simulation time: 00 hr 15 min 55 sec)
Heartbeat CPU 0 instructions: 180000001 cycles: 63937266 heartbeat IPC: 2.886 cumulative IPC: 2.527 (Simulation time: 00 hr 16 min 45 sec)
Heartbeat CPU 0 instructions: 190000002 cycles: 67527991 heartbeat IPC: 2.785 cumulative IPC: 2.544 (Simulation time: 00 hr 17 min 38 sec)
Heartbeat CPU 0 instructions: 200000002 cycles: 71313371 heartbeat IPC: 2.642 cumulative IPC: 2.55 (Simulation time: 00 hr 18 min 31 sec)
Heartbeat CPU 0 instructions: 210000000 cycles: 74955304 heartbeat IPC: 2.746 cumulative IPC: 2.562 (Simulation time: 00 hr 19 min 22 sec)
Heartbeat CPU 0 instructions: 220000001 cycles: 78829096 heartbeat IPC: 2.581 cumulative IPC: 2.563 (Simulation time: 00 hr 20 min 15 sec)
Heartbeat CPU 0 instructions: 230000002 cycles: 82672692 heartbeat IPC: 2.602 cumulative IPC: 2.565 (Simulation time: 00 hr 21 min 07 sec)
Heartbeat CPU 0 instructions: 240000001 cycles: 86884508 heartbeat IPC: 2.374 cumulative IPC: 2.554 (Simulation time: 00 hr 22 min 02 sec)
Heartbeat CPU 0 instructions: 250000003 cycles: 91457630 heartbeat IPC: 2.187 cumulative IPC: 2.533 (Simulation time: 00 hr 22 min 57 sec)
Heartbeat CPU 0 instructions: 260000000 cycles: 95254458 heartbeat IPC: 2.634 cumulative IPC: 2.538 (Simulation time: 00 hr 23 min 50 sec)
Heartbeat CPU 0 instructions: 270000003 cycles: 102379693 heartbeat IPC: 1.403 cumulative IPC: 2.448 (Simulation time: 00 hr 25 min 04 sec)
Heartbeat CPU 0 instructions: 280000000 cycles: 113131005 heartbeat IPC: 0.9301 cumulative IPC: 2.286 (Simulation time: 00 hr 26 min 45 sec)
Heartbeat CPU 0 instructions: 290000000 cycles: 122858903 heartbeat IPC: 1.028 cumulative IPC: 2.175 (Simulation time: 00 hr 28 min 20 sec)
Heartbeat CPU 0 instructions: 300000003 cycles: 130121450 heartbeat IPC: 1.377 cumulative IPC: 2.125 (Simulation time: 00 hr 29 min 40 sec)
Heartbeat CPU 0 instructions: 310000004 cycles: 140260052 heartbeat IPC: 0.9863 cumulative IPC: 2.035 (Simulation time: 00 hr 31 min 20 sec)
Heartbeat CPU 0 instructions: 320000004 cycles: 145212800 heartbeat IPC: 2.019 cumulative IPC: 2.034 (Simulation time: 00 hr 32 min 23 sec)
Heartbeat CPU 0 instructions: 330000000 cycles: 149284584 heartbeat IPC: 2.456 cumulative IPC: 2.047 (Simulation time: 00 hr 33 min 19 sec)
Heartbeat CPU 0 instructions: 340000001 cycles: 153587457 heartbeat IPC: 2.324 cumulative IPC: 2.055 (Simulation time: 00 hr 34 min 15 sec)
Heartbeat CPU 0 instructions: 350000004 cycles: 158037471 heartbeat IPC: 2.247 cumulative IPC: 2.061 (Simulation time: 00 hr 35 min 13 sec)
Heartbeat CPU 0 instructions: 360000003 cycles: 162184532 heartbeat IPC: 2.411 cumulative IPC: 2.071 (Simulation time: 00 hr 36 min 09 sec)
Heartbeat CPU 0 instructions: 370000001 cycles: 166230555 heartbeat IPC: 2.472 cumulative IPC: 2.082 (Simulation time: 00 hr 37 min 03 sec)
Heartbeat CPU 0 instructions: 380000004 cycles: 170131615 heartbeat IPC: 2.563 cumulative IPC: 2.093 (Simulation time: 00 hr 37 min 58 sec)
Heartbeat CPU 0 instructions: 390000002 cycles: 174192776 heartbeat IPC: 2.462 cumulative IPC: 2.103 (Simulation time: 00 hr 38 min 53 sec)
Heartbeat CPU 0 instructions: 400000000 cycles: 178550495 heartbeat IPC: 2.295 cumulative IPC: 2.108 (Simulation time: 00 hr 39 min 50 sec)
Heartbeat CPU 0 instructions: 410000000 cycles: 185473043 heartbeat IPC: 1.445 cumulative IPC: 2.081 (Simulation time: 00 hr 41 min 05 sec)
Heartbeat CPU 0 instructions: 420000003 cycles: 195713821 heartbeat IPC: 0.9765 cumulative IPC: 2.019 (Simulation time: 00 hr 42 min 42 sec)
Heartbeat CPU 0 instructions: 430000000 cycles: 202319584 heartbeat IPC: 1.514 cumulative IPC: 2.002 (Simulation time: 00 hr 43 min 59 sec)
Heartbeat CPU 0 instructions: 440000004 cycles: 208514904 heartbeat IPC: 1.614 cumulative IPC: 1.99 (Simulation time: 00 hr 45 min 12 sec)
Heartbeat CPU 0 instructions: 450000001 cycles: 215009390 heartbeat IPC: 1.54 cumulative IPC: 1.975 (Simulation time: 00 hr 46 min 26 sec)
Heartbeat CPU 0 instructions: 460000002 cycles: 224346872 heartbeat IPC: 1.071 cumulative IPC: 1.935 (Simulation time: 00 hr 48 min 00 sec)
Heartbeat CPU 0 instructions: 470000003 cycles: 233140858 heartbeat IPC: 1.137 cumulative IPC: 1.904 (Simulation time: 00 hr 49 min 29 sec)
Heartbeat CPU 0 instructions: 480000003 cycles: 237376069 heartbeat IPC: 2.361 cumulative IPC: 1.912 (Simulation time: 00 hr 50 min 25 sec)
Heartbeat CPU 0 instructions: 490000001 cycles: 242101694 heartbeat IPC: 2.116 cumulative IPC: 1.916 (Simulation time: 00 hr 51 min 24 sec)
Heartbeat CPU 0 instructions: 500000002 cycles: 246520481 heartbeat IPC: 2.263 cumulative IPC: 1.923 (Simulation time: 00 hr 52 min 22 sec)
Heartbeat CPU 0 instructions: 510000000 cycles: 250775988 heartbeat IPC: 2.35 cumulative IPC: 1.931 (Simulation time: 00 hr 53 min 18 sec)
Heartbeat CPU 0 instructions: 520000000 cycles: 255233697 heartbeat IPC: 2.243 cumulative IPC: 1.936 (Simulation time: 00 hr 54 min 16 sec)
Heartbeat CPU 0 instructions: 530000001 cycles: 265013943 heartbeat IPC: 1.022 cumulative IPC: 1.901 (Simulation time: 00 hr 55 min 50 sec)
Heartbeat CPU 0 instructions: 540000000 cycles: 274467084 heartbeat IPC: 1.058 cumulative IPC: 1.87 (Simulation time: 00 hr 57 min 24 sec)
Heartbeat CPU 0 instructions: 550000004 cycles: 285657768 heartbeat IPC: 0.8936 cumulative IPC: 1.83 (Simulation time: 00 hr 59 min 10 sec)
Heartbeat CPU 0 instructions: 560000004 cycles: 289760025 heartbeat IPC: 2.438 cumulative IPC: 1.839 (Simulation time: 01 hr 00 min 04 sec)
Heartbeat CPU 0 instructions: 570000001 cycles: 292885944 heartbeat IPC: 3.199 cumulative IPC: 1.855 (Simulation time: 01 hr 00 min 54 sec)
Heartbeat CPU 0 instructions: 580000003 cycles: 296425328 heartbeat IPC: 2.825 cumulative IPC: 1.867 (Simulation time: 01 hr 01 min 45 sec)
Heartbeat CPU 0 instructions: 590000002 cycles: 300046987 heartbeat IPC: 2.761 cumulative IPC: 1.878 (Simulation time: 01 hr 02 min 37 sec)
Heartbeat CPU 0 instructions: 600000003 cycles: 303110493 heartbeat IPC: 3.264 cumulative IPC: 1.893 (Simulation time: 01 hr 03 min 26 sec)
Heartbeat CPU 0 instructions: 610000001 cycles: 306616139 heartbeat IPC: 2.853 cumulative IPC: 1.904 (Simulation time: 01 hr 04 min 17 sec)
Heartbeat CPU 0 instructions: 620000000 cycles: 310632579 heartbeat IPC: 2.49 cumulative IPC: 1.912 (Simulation time: 01 hr 05 min 10 sec)
Heartbeat CPU 0 instructions: 630000002 cycles: 313998166 heartbeat IPC: 2.971 cumulative IPC: 1.924 (Simulation time: 01 hr 05 min 59 sec)
Heartbeat CPU 0 instructions: 640000004 cycles: 318008026 heartbeat IPC: 2.494 cumulative IPC: 1.931 (Simulation time: 01 hr 06 min 52 sec)
Heartbeat CPU 0 instructions: 650000001 cycles: 321832050 heartbeat IPC: 2.615 cumulative IPC: 1.94 (Simulation time: 01 hr 07 min 42 sec)
Simulation finished CPU 0 instructions: 600000001 cycles: 309331989 cumulative IPC: 1.94 (Simulation time: 01 hr 07 min 42 sec)
Simulation complete CPU 0 instructions: 600000001 cycles: 309331989 cumulative IPC: 1.94 (Simulation time: 01 hr 07 min 42 sec)

ChampSim completed all CPUs

=== Simulation ===
CPU 0 runs traces/400.perlbench-50B.champsimtrace.xz
Region of Interest Statistics

CPU 0 cumulative IPC: 1.94 instructions: 600000001 cycles: 309331989
CPU 0 Branch Prediction Accuracy: 96.2% MPKI: 7.839 Average ROB Occupancy at Mispredict: 43.54
Branch type MPKI
BRANCH_DIRECT_JUMP: 0.0176
BRANCH_INDIRECT: 0.38
BRANCH_CONDITIONAL: 6.99
BRANCH_DIRECT_CALL: 0.0067
BRANCH_INDIRECT_CALL: 0.431
BRANCH_RETURN: 0.0161

LLC TOTAL        ACCESS:     783597 HIT:     534771 MISS:     248826
LLC LOAD         ACCESS:     585860 HIT:     362347 MISS:     223513
LLC RFO          ACCESS:      47495 HIT:      32400 MISS:      15095
LLC PREFETCH     ACCESS:          0 HIT:          0 MISS:          0
LLC WRITE        ACCESS:     128283 HIT:     128254 MISS:         29
LLC TRANSLATION  ACCESS:      21959 HIT:      11770 MISS:      10189
LLC PREFETCH REQUESTED:          0 ISSUED:          0 USEFUL:          0 USELESS:          0
LLC AVERAGE MISS LATENCY: 522.7 cycles
cpu0_DTLB TOTAL        ACCESS:  146517374 HIT:  145211463 MISS:    1305911
cpu0_DTLB LOAD         ACCESS:  146517374 HIT:  145211463 MISS:    1305911
cpu0_DTLB RFO          ACCESS:          0 HIT:          0 MISS:          0
cpu0_DTLB PREFETCH     ACCESS:          0 HIT:          0 MISS:          0
cpu0_DTLB WRITE        ACCESS:          0 HIT:          0 MISS:          0
cpu0_DTLB TRANSLATION  ACCESS:          0 HIT:          0 MISS:          0
cpu0_DTLB PREFETCH REQUESTED:          0 ISSUED:          0 USEFUL:          0 USELESS:          0
cpu0_DTLB AVERAGE MISS LATENCY: 10.78 cycles
cpu0_ITLB TOTAL        ACCESS:    8990872 HIT:    8806296 MISS:     184576
cpu0_ITLB LOAD         ACCESS:    8990872 HIT:    8806296 MISS:     184576
cpu0_ITLB RFO          ACCESS:          0 HIT:          0 MISS:          0
cpu0_ITLB PREFETCH     ACCESS:          0 HIT:          0 MISS:          0
cpu0_ITLB WRITE        ACCESS:          0 HIT:          0 MISS:          0
cpu0_ITLB TRANSLATION  ACCESS:          0 HIT:          0 MISS:          0
cpu0_ITLB PREFETCH REQUESTED:          0 ISSUED:          0 USEFUL:          0 USELESS:          0
cpu0_ITLB AVERAGE MISS LATENCY: 3.1 cycles
cpu0_L1D TOTAL        ACCESS:  193289385 HIT:  189631899 MISS:    3657486
cpu0_L1D LOAD         ACCESS:  107443966 HIT:  104433530 MISS:    3010436
cpu0_L1D RFO          ACCESS:          0 HIT:          0 MISS:          0
cpu0_L1D PREFETCH     ACCESS:          0 HIT:          0 MISS:          0
cpu0_L1D WRITE        ACCESS:   85816895 HIT:   85196946 MISS:     619949
cpu0_L1D TRANSLATION  ACCESS:      28524 HIT:       1423 MISS:      27101
cpu0_L1D PREFETCH REQUESTED:          0 ISSUED:          0 USEFUL:          0 USELESS:          0
cpu0_L1D AVERAGE MISS LATENCY: 41.48 cycles
cpu0_L1I TOTAL        ACCESS:   10425004 HIT:    8662462 MISS:    1762542
cpu0_L1I LOAD         ACCESS:   10425004 HIT:    8662462 MISS:    1762542
cpu0_L1I RFO          ACCESS:          0 HIT:          0 MISS:          0
cpu0_L1I PREFETCH     ACCESS:          0 HIT:          0 MISS:          0
cpu0_L1I WRITE        ACCESS:          0 HIT:          0 MISS:          0
cpu0_L1I TRANSLATION  ACCESS:          0 HIT:          0 MISS:          0
cpu0_L1I PREFETCH REQUESTED:          0 ISSUED:          0 USEFUL:          0 USELESS:          0
cpu0_L1I AVERAGE MISS LATENCY: 9.765 cycles
cpu0_L2C TOTAL        ACCESS:    3834605 HIT:    3176066 MISS:     658539
cpu0_L2C LOAD         ACCESS:    3104915 HIT:    2519055 MISS:     585860
cpu0_L2C RFO          ACCESS:     191558 HIT:     144063 MISS:      47495
cpu0_L2C PREFETCH     ACCESS:          0 HIT:          0 MISS:          0
cpu0_L2C WRITE        ACCESS:     511094 HIT:     507869 MISS:       3225
cpu0_L2C TRANSLATION  ACCESS:      27038 HIT:       5079 MISS:      21959
cpu0_L2C PREFETCH REQUESTED:          0 ISSUED:          0 USEFUL:          0 USELESS:          0
cpu0_L2C AVERAGE MISS LATENCY: 217.8 cycles
cpu0_STLB TOTAL        ACCESS:    1008746 HIT:     982052 MISS:      26694
cpu0_STLB LOAD         ACCESS:    1008746 HIT:     982052 MISS:      26694
cpu0_STLB RFO          ACCESS:          0 HIT:          0 MISS:          0
cpu0_STLB PREFETCH     ACCESS:          0 HIT:          0 MISS:          0
cpu0_STLB WRITE        ACCESS:          0 HIT:          0 MISS:          0
cpu0_STLB TRANSLATION  ACCESS:          0 HIT:          0 MISS:          0
cpu0_STLB PREFETCH REQUESTED:          0 ISSUED:          0 USEFUL:          0 USELESS:          0
cpu0_STLB AVERAGE MISS LATENCY: 303.9 cycles

DRAM Statistics

Channel 0 RQ ROW_BUFFER_HIT:      57235
  ROW_BUFFER_MISS:     191560
 AVG DBUS CONGESTED CYCLE: 3.76
WQ ROW_BUFFER_HIT: Channel 0 
  ROW_BUFFER_MISS:       6508
  FULL:      18518
