WARNING: physical memory size is smaller than virtual memory size.

*** ChampSim Multicore Out-of-Order Simulator ***
Warmup Instructions: 50000000
Simulation Instructions: 600000000
Number of CPUs: 1
Page size: 4096

Off-chip DRAM Size: 4 GiB Channels: 1 Width: 64-bit Data Race: 3200 MT/s
Heartbeat CPU 0 instructions: 10000000 cycles: 2500061 heartbeat IPC: 4 cumulative IPC: 4 (Simulation time: 00 hr 00 min 54 sec)
Heartbeat CPU 0 instructions: 20000000 cycles: 5000061 heartbeat IPC: 4 cumulative IPC: 4 (Simulation time: 00 hr 01 min 47 sec)
Heartbeat CPU 0 instructions: 30000000 cycles: 7500061 heartbeat IPC: 4 cumulative IPC: 4 (Simulation time: 00 hr 02 min 42 sec)
Heartbeat CPU 0 instructions: 40000000 cycles: 10000061 heartbeat IPC: 4 cumulative IPC: 4 (Simulation time: 00 hr 03 min 34 sec)
Heartbeat CPU 0 instructions: 50000000 cycles: 12500061 heartbeat IPC: 4 cumulative IPC: 4 (Simulation time: 00 hr 04 min 24 sec)
Warmup finished CPU 0 instructions: 50000000 cycles: 12500062 cumulative IPC: 4 (Simulation time: 00 hr 04 min 24 sec)
Warmup complete CPU 0 instructions: 50000000 cycles: 12500062 cumulative IPC: 4 (Simulation time: 00 hr 04 min 24 sec)
Heartbeat CPU 0 instructions: 60000002 cycles: 16906981 heartbeat IPC: 2.269 cumulative IPC: 2.269 (Simulation time: 00 hr 05 min 37 sec)
Heartbeat CPU 0 instructions: 70000003 cycles: 21887535 heartbeat IPC: 2.008 cumulative IPC: 2.13 (Simulation time: 00 hr 06 min 47 sec)
Heartbeat CPU 0 instructions: 80000001 cycles: 27229088 heartbeat IPC: 1.872 cumulative IPC: 2.037 (Simulation time: 00 hr 07 min 59 sec)
Heartbeat CPU 0 instructions: 90000000 cycles: 31525396 heartbeat IPC: 2.328 cumulative IPC: 2.102 (Simulation time: 00 hr 09 min 17 sec)
Heartbeat CPU 0 instructions: 100000003 cycles: 36377115 heartbeat IPC: 2.061 cumulative IPC: 2.094 (Simulation time: 00 hr 10 min 51 sec)
Heartbeat CPU 0 instructions: 110000002 cycles: 41244754 heartbeat IPC: 2.054 cumulative IPC: 2.087 (Simulation time: 00 hr 12 min 10 sec)
Heartbeat CPU 0 instructions: 120000001 cycles: 46238023 heartbeat IPC: 2.003 cumulative IPC: 2.075 (Simulation time: 00 hr 13 min 23 sec)
Heartbeat CPU 0 instructions: 130000003 cycles: 50804474 heartbeat IPC: 2.19 cumulative IPC: 2.089 (Simulation time: 00 hr 14 min 30 sec)
Heartbeat CPU 0 instructions: 140000002 cycles: 55692287 heartbeat IPC: 2.046 cumulative IPC: 2.084 (Simulation time: 00 hr 15 min 43 sec)
Heartbeat CPU 0 instructions: 150000001 cycles: 60357159 heartbeat IPC: 2.144 cumulative IPC: 2.09 (Simulation time: 00 hr 17 min 00 sec)
Heartbeat CPU 0 instructions: 160000000 cycles: 64993046 heartbeat IPC: 2.157 cumulative IPC: 2.096 (Simulation time: 00 hr 18 min 13 sec)
Heartbeat CPU 0 instructions: 170000000 cycles: 70321999 heartbeat IPC: 1.877 cumulative IPC: 2.075 (Simulation time: 00 hr 19 min 29 sec)
Heartbeat CPU 0 instructions: 180000001 cycles: 76039062 heartbeat IPC: 1.749 cumulative IPC: 2.046 (Simulation time: 00 hr 20 min 46 sec)
Heartbeat CPU 0 instructions: 190000002 cycles: 80507077 heartbeat IPC: 2.238 cumulative IPC: 2.059 (Simulation time: 00 hr 22 min 09 sec)
Heartbeat CPU 0 instructions: 200000002 cycles: 85405744 heartbeat IPC: 2.041 cumulative IPC: 2.057 (Simulation time: 00 hr 23 min 45 sec)
Heartbeat CPU 0 instructions: 210000000 cycles: 90406939 heartbeat IPC: 2 cumulative IPC: 2.054 (Simulation time: 00 hr 25 min 10 sec)
Heartbeat CPU 0 instructions: 220000001 cycles: 95328347 heartbeat IPC: 2.032 cumulative IPC: 2.052 (Simulation time: 00 hr 26 min 25 sec)
Heartbeat CPU 0 instructions: 230000002 cycles: 100572050 heartbeat IPC: 1.907 cumulative IPC: 2.044 (Simulation time: 00 hr 27 min 41 sec)
Heartbeat CPU 0 instructions: 240000001 cycles: 105534322 heartbeat IPC: 2.015 cumulative IPC: 2.042 (Simulation time: 00 hr 28 min 56 sec)
Heartbeat CPU 0 instructions: 250000003 cycles: 110709391 heartbeat IPC: 1.932 cumulative IPC: 2.036 (Simulation time: 00 hr 30 min 12 sec)
Heartbeat CPU 0 instructions: 260000001 cycles: 115565124 heartbeat IPC: 2.059 cumulative IPC: 2.038 (Simulation time: 00 hr 31 min 27 sec)
Heartbeat CPU 0 instructions: 270000000 cycles: 123249925 heartbeat IPC: 1.301 cumulative IPC: 1.986 (Simulation time: 00 hr 33 min 04 sec)
Heartbeat CPU 0 instructions: 280000000 cycles: 134106891 heartbeat IPC: 0.9211 cumulative IPC: 1.891 (Simulation time: 00 hr 35 min 24 sec)
Heartbeat CPU 0 instructions: 290000001 cycles: 144579947 heartbeat IPC: 0.9548 cumulative IPC: 1.817 (Simulation time: 00 hr 37 min 44 sec)
Heartbeat CPU 0 instructions: 300000003 cycles: 153265849 heartbeat IPC: 1.151 cumulative IPC: 1.776 (Simulation time: 00 hr 39 min 35 sec)
Heartbeat CPU 0 instructions: 310000004 cycles: 165897281 heartbeat IPC: 0.7917 cumulative IPC: 1.695 (Simulation time: 00 hr 42 min 01 sec)
Heartbeat CPU 0 instructions: 320000004 cycles: 172298772 heartbeat IPC: 1.562 cumulative IPC: 1.69 (Simulation time: 00 hr 43 min 37 sec)
Heartbeat CPU 0 instructions: 330000000 cycles: 177591215 heartbeat IPC: 1.889 cumulative IPC: 1.696 (Simulation time: 00 hr 44 min 57 sec)
Heartbeat CPU 0 instructions: 340000001 cycles: 182854864 heartbeat IPC: 1.9 cumulative IPC: 1.702 (Simulation time: 00 hr 46 min 13 sec)
Heartbeat CPU 0 instructions: 350000000 cycles: 188327128 heartbeat IPC: 1.827 cumulative IPC: 1.706 (Simulation time: 00 hr 47 min 45 sec)
Heartbeat CPU 0 instructions: 360000003 cycles: 193520937 heartbeat IPC: 1.925 cumulative IPC: 1.713 (Simulation time: 00 hr 49 min 27 sec)
Heartbeat CPU 0 instructions: 370000001 cycles: 198565023 heartbeat IPC: 1.983 cumulative IPC: 1.72 (Simulation time: 00 hr 50 min 54 sec)
Heartbeat CPU 0 instructions: 380000004 cycles: 203883924 heartbeat IPC: 1.88 cumulative IPC: 1.724 (Simulation time: 00 hr 52 min 15 sec)
Heartbeat CPU 0 instructions: 390000002 cycles: 209348770 heartbeat IPC: 1.83 cumulative IPC: 1.727 (Simulation time: 00 hr 53 min 35 sec)
Heartbeat CPU 0 instructions: 400000000 cycles: 214923922 heartbeat IPC: 1.794 cumulative IPC: 1.729 (Simulation time: 00 hr 55 min 03 sec)
Heartbeat CPU 0 instructions: 410000000 cycles: 223691306 heartbeat IPC: 1.141 cumulative IPC: 1.705 (Simulation time: 00 hr 56 min 54 sec)
Heartbeat CPU 0 instructions: 420000001 cycles: 235099202 heartbeat IPC: 0.8766 cumulative IPC: 1.662 (Simulation time: 00 hr 58 min 53 sec)
Heartbeat CPU 0 instructions: 430000000 cycles: 243627417 heartbeat IPC: 1.173 cumulative IPC: 1.644 (Simulation time: 01 hr 00 min 50 sec)
Heartbeat CPU 0 instructions: 440000002 cycles: 252359395 heartbeat IPC: 1.145 cumulative IPC: 1.626 (Simulation time: 01 hr 03 min 07 sec)
Heartbeat CPU 0 instructions: 450000000 cycles: 260345132 heartbeat IPC: 1.252 cumulative IPC: 1.614 (Simulation time: 01 hr 04 min 57 sec)
Heartbeat CPU 0 instructions: 460000002 cycles: 273295620 heartbeat IPC: 0.7722 cumulative IPC: 1.572 (Simulation time: 01 hr 07 min 29 sec)
Heartbeat CPU 0 instructions: 470000000 cycles: 284780305 heartbeat IPC: 0.8707 cumulative IPC: 1.543 (Simulation time: 01 hr 09 min 49 sec)
Heartbeat CPU 0 instructions: 480000000 cycles: 290313867 heartbeat IPC: 1.807 cumulative IPC: 1.548 (Simulation time: 01 hr 11 min 10 sec)
Heartbeat CPU 0 instructions: 490000001 cycles: 295940634 heartbeat IPC: 1.777 cumulative IPC: 1.552 (Simulation time: 01 hr 12 min 29 sec)
Heartbeat CPU 0 instructions: 500000002 cycles: 301485441 heartbeat IPC: 1.803 cumulative IPC: 1.557 (Simulation time: 01 hr 13 min 59 sec)
Heartbeat CPU 0 instructions: 510000000 cycles: 307070579 heartbeat IPC: 1.79 cumulative IPC: 1.562 (Simulation time: 01 hr 15 min 46 sec)
Heartbeat CPU 0 instructions: 520000000 cycles: 312729479 heartbeat IPC: 1.767 cumulative IPC: 1.565 (Simulation time: 01 hr 17 min 22 sec)
Heartbeat CPU 0 instructions: 530000001 cycles: 325234502 heartbeat IPC: 0.7997 cumulative IPC: 1.535 (Simulation time: 01 hr 19 min 56 sec)
Heartbeat CPU 0 instructions: 540000000 cycles: 336930338 heartbeat IPC: 0.855 cumulative IPC: 1.51 (Simulation time: 01 hr 22 min 22 sec)
Heartbeat CPU 0 instructions: 550000002 cycles: 351453384 heartbeat IPC: 0.6886 cumulative IPC: 1.475 (Simulation time: 01 hr 25 min 04 sec)
Heartbeat CPU 0 instructions: 560000004 cycles: 356534549 heartbeat IPC: 1.968 cumulative IPC: 1.482 (Simulation time: 01 hr 26 min 22 sec)
Heartbeat CPU 0 instructions: 570000001 cycles: 360946760 heartbeat IPC: 2.266 cumulative IPC: 1.492 (Simulation time: 01 hr 27 min 48 sec)
Heartbeat CPU 0 instructions: 580000003 cycles: 365199191 heartbeat IPC: 2.352 cumulative IPC: 1.503 (Simulation time: 01 hr 29 min 18 sec)
Heartbeat CPU 0 instructions: 590000001 cycles: 370104826 heartbeat IPC: 2.038 cumulative IPC: 1.51 (Simulation time: 01 hr 30 min 47 sec)
Heartbeat CPU 0 instructions: 600000003 cycles: 374747636 heartbeat IPC: 2.154 cumulative IPC: 1.518 (Simulation time: 01 hr 32 min 08 sec)
Heartbeat CPU 0 instructions: 610000001 cycles: 379609868 heartbeat IPC: 2.057 cumulative IPC: 1.525 (Simulation time: 01 hr 33 min 29 sec)
Heartbeat CPU 0 instructions: 620000000 cycles: 384676606 heartbeat IPC: 1.974 cumulative IPC: 1.532 (Simulation time: 01 hr 34 min 54 sec)
Heartbeat CPU 0 instructions: 630000002 cycles: 388923421 heartbeat IPC: 2.355 cumulative IPC: 1.541 (Simulation time: 01 hr 36 min 10 sec)
Heartbeat CPU 0 instructions: 640000004 cycles: 394239105 heartbeat IPC: 1.881 cumulative IPC: 1.546 (Simulation time: 01 hr 37 min 31 sec)
Heartbeat CPU 0 instructions: 650000001 cycles: 398998944 heartbeat IPC: 2.101 cumulative IPC: 1.552 (Simulation time: 01 hr 38 min 51 sec)
Simulation finished CPU 0 instructions: 600000001 cycles: 386498883 cumulative IPC: 1.552 (Simulation time: 01 hr 38 min 51 sec)
Simulation complete CPU 0 instructions: 600000001 cycles: 386498883 cumulative IPC: 1.552 (Simulation time: 01 hr 38 min 51 sec)

ChampSim completed all CPUs

=== Simulation ===
CPU 0 runs traces/400.perlbench-50B.champsimtrace.xz
Region of Interest Statistics

CPU 0 cumulative IPC: 1.552 instructions: 600000001 cycles: 386498883
CPU 0 Branch Prediction Accuracy: 93.83% MPKI: 12.71 Average ROB Occupancy at Mispredict: 29.54
Branch type MPKI
BRANCH_DIRECT_JUMP: 0.0176
BRANCH_INDIRECT: 0.38
BRANCH_CONDITIONAL: 11.9
BRANCH_DIRECT_CALL: 0.0067
BRANCH_INDIRECT_CALL: 0.431
BRANCH_RETURN: 0.0161

LLC TOTAL        ACCESS:     855645 HIT:     489756 MISS:     365889
LLC LOAD         ACCESS:     587378 HIT:     299453 MISS:     287925
LLC RFO          ACCESS:      48302 HIT:      32096 MISS:      16206
LLC PREFETCH     ACCESS:      66475 HIT:      46022 MISS:      20453
LLC WRITE        ACCESS:     131527 HIT:     107564 MISS:      23963
LLC TRANSLATION  ACCESS:      21963 HIT:       4621 MISS:      17342
LLC PREFETCH REQUESTED:      66475 ISSUED:      66475 USEFUL:       9421 USELESS:       7303
LLC AVERAGE MISS LATENCY: 469.2 cycles
cpu0_DTLB TOTAL        ACCESS:  156764097 HIT:  155462222 MISS:    1301875
cpu0_DTLB LOAD         ACCESS:  156764097 HIT:  155462222 MISS:    1301875
cpu0_DTLB RFO          ACCESS:          0 HIT:          0 MISS:          0
cpu0_DTLB PREFETCH     ACCESS:          0 HIT:          0 MISS:          0
cpu0_DTLB WRITE        ACCESS:          0 HIT:          0 MISS:          0
cpu0_DTLB TRANSLATION  ACCESS:          0 HIT:          0 MISS:          0
cpu0_DTLB PREFETCH REQUESTED:          0 ISSUED:          0 USEFUL:          0 USELESS:          0
cpu0_DTLB AVERAGE MISS LATENCY: 14.24 cycles
cpu0_ITLB TOTAL        ACCESS:    8933997 HIT:    8735461 MISS:     198536
cpu0_ITLB LOAD         ACCESS:    8933997 HIT:    8735461 MISS:     198536
cpu0_ITLB RFO          ACCESS:          0 HIT:          0 MISS:          0
cpu0_ITLB PREFETCH     ACCESS:          0 HIT:          0 MISS:          0
cpu0_ITLB WRITE        ACCESS:          0 HIT:          0 MISS:          0
cpu0_ITLB TRANSLATION  ACCESS:          0 HIT:          0 MISS:          0
cpu0_ITLB PREFETCH REQUESTED:          0 ISSUED:          0 USEFUL:          0 USELESS:          0
cpu0_ITLB AVERAGE MISS LATENCY: 3.494 cycles
cpu0_L1D TOTAL        ACCESS:  203616857 HIT:  200743669 MISS:    2873188
cpu0_L1D LOAD         ACCESS:  117939260 HIT:  115569537 MISS:    2369723
cpu0_L1D RFO          ACCESS:          0 HIT:          0 MISS:          0
cpu0_L1D PREFETCH     ACCESS:          0 HIT:          0 MISS:          0
cpu0_L1D WRITE        ACCESS:   85649060 HIT:   85172146 MISS:     476914
cpu0_L1D TRANSLATION  ACCESS:      28537 HIT:       1986 MISS:      26551
cpu0_L1D PREFETCH REQUESTED:          0 ISSUED:          0 USEFUL:          0 USELESS:          0
cpu0_L1D AVERAGE MISS LATENCY: 58.28 cycles
cpu0_L1I TOTAL        ACCESS:   10372480 HIT:    8576055 MISS:    1796425
cpu0_L1I LOAD         ACCESS:   10372480 HIT:    8576055 MISS:    1796425
cpu0_L1I RFO          ACCESS:          0 HIT:          0 MISS:          0
cpu0_L1I PREFETCH     ACCESS:          0 HIT:          0 MISS:          0
cpu0_L1I WRITE        ACCESS:          0 HIT:          0 MISS:          0
cpu0_L1I TRANSLATION  ACCESS:          0 HIT:          0 MISS:          0
cpu0_L1I PREFETCH REQUESTED:          0 ISSUED:          0 USEFUL:          0 USELESS:          0
cpu0_L1I AVERAGE MISS LATENCY: 16.81 cycles
cpu0_L2C TOTAL        ACCESS:    3235217 HIT:    2570803 MISS:     664414
cpu0_L2C LOAD         ACCESS:    2711701 HIT:    2124323 MISS:     587378
cpu0_L2C RFO          ACCESS:     133670 HIT:      85368 MISS:      48302
cpu0_L2C PREFETCH     ACCESS:          0 HIT:          0 MISS:          0
cpu0_L2C WRITE        ACCESS:     363382 HIT:     356611 MISS:       6771
cpu0_L2C TRANSLATION  ACCESS:      26464 HIT:       4501 MISS:      21963
cpu0_L2C PREFETCH REQUESTED:          0 ISSUED:          0 USEFUL:          0 USELESS:          0
cpu0_L2C AVERAGE MISS LATENCY: 263.6 cycles
cpu0_STLB TOTAL        ACCESS:    1009249 HIT:     982558 MISS:      26691
cpu0_STLB LOAD         ACCESS:    1009249 HIT:     982558 MISS:      26691
cpu0_STLB RFO          ACCESS:          0 HIT:          0 MISS:          0
cpu0_STLB PREFETCH     ACCESS:          0 HIT:          0 MISS:          0
cpu0_STLB WRITE        ACCESS:          0 HIT:          0 MISS:          0
cpu0_STLB TRANSLATION  ACCESS:          0 HIT:          0 MISS:          0
cpu0_STLB PREFETCH REQUESTED:          0 ISSUED:          0 USEFUL:          0 USELESS:          0
cpu0_STLB AVERAGE MISS LATENCY: 479.2 cycles

DRAM Statistics

Channel 0 RQ ROW_BUFFER_HIT:      71278
  ROW_BUFFER_MISS:     265667
 AVG DBUS CONGESTED CYCLE: 3.763
WQ ROW_BUFFER_HIT: Channel 0 
  ROW_BUFFER_MISS:      10113
  FULL:      21952
