WARNING: physical memory size is smaller than virtual memory size.

*** ChampSim Multicore Out-of-Order Simulator ***
Warmup Instructions: 50000000
Simulation Instructions: 600000000
Number of CPUs: 1
Page size: 4096

Off-chip DRAM Size: 4 GiB Channels: 1 Width: 64-bit Data Race: 3200 MT/s
Heartbeat CPU 0 instructions: 10000000 cycles: 2500061 heartbeat IPC: 4 cumulative IPC: 4 (Simulation time: 00 hr 03 min 22 sec)
Heartbeat CPU 0 instructions: 20000000 cycles: 5000061 heartbeat IPC: 4 cumulative IPC: 4 (Simulation time: 00 hr 06 min 30 sec)
Heartbeat CPU 0 instructions: 30000000 cycles: 7500061 heartbeat IPC: 4 cumulative IPC: 4 (Simulation time: 00 hr 09 min 47 sec)
Heartbeat CPU 0 instructions: 40000000 cycles: 10000061 heartbeat IPC: 4 cumulative IPC: 4 (Simulation time: 00 hr 12 min 55 sec)
Heartbeat CPU 0 instructions: 50000000 cycles: 12500061 heartbeat IPC: 4 cumulative IPC: 4 (Simulation time: 00 hr 16 min 00 sec)
Warmup finished CPU 0 instructions: 50000000 cycles: 12500062 cumulative IPC: 4 (Simulation time: 00 hr 16 min 00 sec)
Warmup complete CPU 0 instructions: 50000000 cycles: 12500062 cumulative IPC: 4 (Simulation time: 00 hr 16 min 00 sec)
Heartbeat CPU 0 instructions: 60000002 cycles: 16911341 heartbeat IPC: 2.267 cumulative IPC: 2.267 (Simulation time: 00 hr 20 min 23 sec)
Heartbeat CPU 0 instructions: 70000003 cycles: 21897820 heartbeat IPC: 2.005 cumulative IPC: 2.128 (Simulation time: 00 hr 24 min 58 sec)
Heartbeat CPU 0 instructions: 80000001 cycles: 27247190 heartbeat IPC: 1.869 cumulative IPC: 2.034 (Simulation time: 00 hr 29 min 28 sec)
Heartbeat CPU 0 instructions: 90000000 cycles: 31546012 heartbeat IPC: 2.326 cumulative IPC: 2.1 (Simulation time: 00 hr 33 min 18 sec)
Heartbeat CPU 0 instructions: 100000003 cycles: 36406147 heartbeat IPC: 2.058 cumulative IPC: 2.092 (Simulation time: 00 hr 37 min 20 sec)
Heartbeat CPU 0 instructions: 110000002 cycles: 41284204 heartbeat IPC: 2.05 cumulative IPC: 2.084 (Simulation time: 00 hr 41 min 12 sec)
Heartbeat CPU 0 instructions: 120000001 cycles: 46280693 heartbeat IPC: 2.001 cumulative IPC: 2.072 (Simulation time: 00 hr 45 min 10 sec)
Heartbeat CPU 0 instructions: 130000003 cycles: 50851474 heartbeat IPC: 2.188 cumulative IPC: 2.086 (Simulation time: 00 hr 48 min 57 sec)
Heartbeat CPU 0 instructions: 140000002 cycles: 55744742 heartbeat IPC: 2.044 cumulative IPC: 2.081 (Simulation time: 00 hr 52 min 49 sec)
Heartbeat CPU 0 instructions: 150000001 cycles: 60416524 heartbeat IPC: 2.141 cumulative IPC: 2.087 (Simulation time: 00 hr 56 min 38 sec)
Heartbeat CPU 0 instructions: 160000000 cycles: 65057180 heartbeat IPC: 2.155 cumulative IPC: 2.093 (Simulation time: 01 hr 00 min 24 sec)
Heartbeat CPU 0 instructions: 170000000 cycles: 70394497 heartbeat IPC: 1.874 cumulative IPC: 2.073 (Simulation time: 01 hr 04 min 29 sec)
Heartbeat CPU 0 instructions: 180000001 cycles: 76116472 heartbeat IPC: 1.748 cumulative IPC: 2.043 (Simulation time: 01 hr 08 min 47 sec)
Heartbeat CPU 0 instructions: 190000002 cycles: 80593267 heartbeat IPC: 2.234 cumulative IPC: 2.056 (Simulation time: 01 hr 12 min 33 sec)
Heartbeat CPU 0 instructions: 200000002 cycles: 85503685 heartbeat IPC: 2.036 cumulative IPC: 2.055 (Simulation time: 01 hr 16 min 29 sec)
Heartbeat CPU 0 instructions: 210000000 cycles: 90509961 heartbeat IPC: 1.997 cumulative IPC: 2.051 (Simulation time: 01 hr 20 min 43 sec)
Heartbeat CPU 0 instructions: 220000001 cycles: 95435925 heartbeat IPC: 2.03 cumulative IPC: 2.05 (Simulation time: 01 hr 24 min 59 sec)
Heartbeat CPU 0 instructions: 230000002 cycles: 100684992 heartbeat IPC: 1.905 cumulative IPC: 2.041 (Simulation time: 01 hr 29 min 30 sec)
Heartbeat CPU 0 instructions: 240000001 cycles: 105652106 heartbeat IPC: 2.013 cumulative IPC: 2.04 (Simulation time: 01 hr 33 min 51 sec)
Heartbeat CPU 0 instructions: 250000003 cycles: 110840378 heartbeat IPC: 1.927 cumulative IPC: 2.034 (Simulation time: 01 hr 38 min 15 sec)
Heartbeat CPU 0 instructions: 260000001 cycles: 115702940 heartbeat IPC: 2.057 cumulative IPC: 2.035 (Simulation time: 01 hr 42 min 29 sec)
Heartbeat CPU 0 instructions: 270000000 cycles: 123412770 heartbeat IPC: 1.297 cumulative IPC: 1.984 (Simulation time: 01 hr 48 min 15 sec)
Heartbeat CPU 0 instructions: 280000000 cycles: 134301278 heartbeat IPC: 0.9184 cumulative IPC: 1.888 (Simulation time: 01 hr 55 min 56 sec)
Heartbeat CPU 0 instructions: 290000001 cycles: 143610121 heartbeat IPC: 1.074 cumulative IPC: 1.831 (Simulation time: 02 hr 02 min 49 sec)
Heartbeat CPU 0 instructions: 300000003 cycles: 151005302 heartbeat IPC: 1.352 cumulative IPC: 1.805 (Simulation time: 02 hr 08 min 48 sec)
Heartbeat CPU 0 instructions: 310000004 cycles: 161425296 heartbeat IPC: 0.9597 cumulative IPC: 1.746 (Simulation time: 02 hr 16 min 23 sec)
Heartbeat CPU 0 instructions: 320000004 cycles: 167027375 heartbeat IPC: 1.785 cumulative IPC: 1.747 (Simulation time: 02 hr 21 min 20 sec)
Heartbeat CPU 0 instructions: 330000000 cycles: 172303681 heartbeat IPC: 1.895 cumulative IPC: 1.752 (Simulation time: 02 hr 25 min 53 sec)
Heartbeat CPU 0 instructions: 340000001 cycles: 177394819 heartbeat IPC: 1.964 cumulative IPC: 1.759 (Simulation time: 02 hr 30 min 16 sec)
Heartbeat CPU 0 instructions: 350000000 cycles: 182711848 heartbeat IPC: 1.881 cumulative IPC: 1.763 (Simulation time: 02 hr 34 min 50 sec)
Heartbeat CPU 0 instructions: 360000003 cycles: 187790918 heartbeat IPC: 1.969 cumulative IPC: 1.768 (Simulation time: 02 hr 39 min 10 sec)
Heartbeat CPU 0 instructions: 370000001 cycles: 192815053 heartbeat IPC: 1.99 cumulative IPC: 1.775 (Simulation time: 02 hr 43 min 26 sec)
Heartbeat CPU 0 instructions: 380000004 cycles: 198115999 heartbeat IPC: 1.886 cumulative IPC: 1.778 (Simulation time: 02 hr 47 min 48 sec)
Heartbeat CPU 0 instructions: 390000002 cycles: 203424540 heartbeat IPC: 1.884 cumulative IPC: 1.781 (Simulation time: 02 hr 51 min 53 sec)
Heartbeat CPU 0 instructions: 400000000 cycles: 208833323 heartbeat IPC: 1.849 cumulative IPC: 1.783 (Simulation time: 02 hr 55 min 54 sec)
Heartbeat CPU 0 instructions: 410000000 cycles: 216009747 heartbeat IPC: 1.393 cumulative IPC: 1.769 (Simulation time: 03 hr 00 min 47 sec)
Heartbeat CPU 0 instructions: 420000001 cycles: 225450819 heartbeat IPC: 1.059 cumulative IPC: 1.737 (Simulation time: 03 hr 06 min 51 sec)
Heartbeat CPU 0 instructions: 430000000 cycles: 232146706 heartbeat IPC: 1.493 cumulative IPC: 1.73 (Simulation time: 03 hr 11 min 48 sec)
Heartbeat CPU 0 instructions: 440000002 cycles: 238715062 heartbeat IPC: 1.522 cumulative IPC: 1.724 (Simulation time: 03 hr 16 min 34 sec)
Heartbeat CPU 0 instructions: 450000000 cycles: 245192751 heartbeat IPC: 1.544 cumulative IPC: 1.719 (Simulation time: 03 hr 21 min 18 sec)
Heartbeat CPU 0 instructions: 460000002 cycles: 254113462 heartbeat IPC: 1.121 cumulative IPC: 1.697 (Simulation time: 03 hr 27 min 11 sec)
Heartbeat CPU 0 instructions: 470000000 cycles: 263352175 heartbeat IPC: 1.082 cumulative IPC: 1.674 (Simulation time: 03 hr 33 min 09 sec)
Heartbeat CPU 0 instructions: 480000000 cycles: 268700391 heartbeat IPC: 1.87 cumulative IPC: 1.678 (Simulation time: 03 hr 37 min 10 sec)
Heartbeat CPU 0 instructions: 490000001 cycles: 274242984 heartbeat IPC: 1.804 cumulative IPC: 1.681 (Simulation time: 03 hr 41 min 21 sec)
Heartbeat CPU 0 instructions: 500000002 cycles: 279701661 heartbeat IPC: 1.832 cumulative IPC: 1.684 (Simulation time: 03 hr 45 min 30 sec)
Heartbeat CPU 0 instructions: 510000000 cycles: 285266620 heartbeat IPC: 1.797 cumulative IPC: 1.686 (Simulation time: 03 hr 49 min 38 sec)
Heartbeat CPU 0 instructions: 520000000 cycles: 290883706 heartbeat IPC: 1.78 cumulative IPC: 1.688 (Simulation time: 03 hr 53 min 39 sec)
Heartbeat CPU 0 instructions: 530000001 cycles: 300007122 heartbeat IPC: 1.096 cumulative IPC: 1.67 (Simulation time: 03 hr 59 min 09 sec)
Heartbeat CPU 0 instructions: 540000000 cycles: 308491787 heartbeat IPC: 1.179 cumulative IPC: 1.655 (Simulation time: 04 hr 04 min 24 sec)
Heartbeat CPU 0 instructions: 550000002 cycles: 319475967 heartbeat IPC: 0.9104 cumulative IPC: 1.629 (Simulation time: 04 hr 09 min 53 sec)
Heartbeat CPU 0 instructions: 560000004 cycles: 324178930 heartbeat IPC: 2.126 cumulative IPC: 1.636 (Simulation time: 04 hr 12 min 26 sec)
Heartbeat CPU 0 instructions: 570000001 cycles: 328581613 heartbeat IPC: 2.271 cumulative IPC: 1.645 (Simulation time: 04 hr 14 min 54 sec)
Heartbeat CPU 0 instructions: 580000003 cycles: 332805420 heartbeat IPC: 2.368 cumulative IPC: 1.655 (Simulation time: 04 hr 17 min 02 sec)
Heartbeat CPU 0 instructions: 590000001 cycles: 337699280 heartbeat IPC: 2.043 cumulative IPC: 1.661 (Simulation time: 04 hr 18 min 54 sec)
Heartbeat CPU 0 instructions: 600000003 cycles: 342333006 heartbeat IPC: 2.158 cumulative IPC: 1.668 (Simulation time: 04 hr 20 min 17 sec)
Heartbeat CPU 0 instructions: 610000001 cycles: 347186032 heartbeat IPC: 2.061 cumulative IPC: 1.673 (Simulation time: 04 hr 21 min 27 sec)
Heartbeat CPU 0 instructions: 620000000 cycles: 352247761 heartbeat IPC: 1.976 cumulative IPC: 1.678 (Simulation time: 04 hr 22 min 20 sec)
Heartbeat CPU 0 instructions: 630000002 cycles: 356492110 heartbeat IPC: 2.356 cumulative IPC: 1.686 (Simulation time: 04 hr 22 min 56 sec)
Heartbeat CPU 0 instructions: 640000004 cycles: 361808138 heartbeat IPC: 1.881 cumulative IPC: 1.689 (Simulation time: 04 hr 23 min 31 sec)
Heartbeat CPU 0 instructions: 650000001 cycles: 366569332 heartbeat IPC: 2.1 cumulative IPC: 1.695 (Simulation time: 04 hr 23 min 54 sec)
Simulation finished CPU 0 instructions: 600000001 cycles: 354069271 cumulative IPC: 1.695 (Simulation time: 04 hr 23 min 54 sec)
Simulation complete CPU 0 instructions: 600000001 cycles: 354069271 cumulative IPC: 1.695 (Simulation time: 04 hr 23 min 54 sec)

ChampSim completed all CPUs

=== Simulation ===
CPU 0 runs traces/400.perlbench-50B.champsimtrace.xz
Region of Interest Statistics

CPU 0 cumulative IPC: 1.695 instructions: 600000001 cycles: 354069271
CPU 0 Branch Prediction Accuracy: 93.83% MPKI: 12.71 Average ROB Occupancy at Mispredict: 29.37
Branch type MPKI
BRANCH_DIRECT_JUMP: 0.0176
BRANCH_INDIRECT: 0.38
BRANCH_CONDITIONAL: 11.9
BRANCH_DIRECT_CALL: 0.0067
BRANCH_INDIRECT_CALL: 0.431
BRANCH_RETURN: 0.0161

LLC TOTAL        ACCESS:     784930 HIT:     554111 MISS:     230819
LLC LOAD         ACCESS:     587174 HIT:     376205 MISS:     210969
LLC RFO          ACCESS:      47461 HIT:      38299 MISS:       9162
LLC PREFETCH     ACCESS:          0 HIT:          0 MISS:          0
LLC WRITE        ACCESS:     128217 HIT:     128020 MISS:        197
LLC TRANSLATION  ACCESS:      22078 HIT:      11587 MISS:      10491
LLC PREFETCH REQUESTED:          0 ISSUED:          0 USEFUL:          0 USELESS:          0
LLC AVERAGE MISS LATENCY: 459.8 cycles
cpu0_DTLB TOTAL        ACCESS:  156785868 HIT:  155484569 MISS:    1301299
cpu0_DTLB LOAD         ACCESS:  156785868 HIT:  155484569 MISS:    1301299
cpu0_DTLB RFO          ACCESS:          0 HIT:          0 MISS:          0
cpu0_DTLB PREFETCH     ACCESS:          0 HIT:          0 MISS:          0
cpu0_DTLB WRITE        ACCESS:          0 HIT:          0 MISS:          0
cpu0_DTLB TRANSLATION  ACCESS:          0 HIT:          0 MISS:          0
cpu0_DTLB PREFETCH REQUESTED:          0 ISSUED:          0 USEFUL:          0 USELESS:          0
cpu0_DTLB AVERAGE MISS LATENCY: 10.76 cycles
cpu0_ITLB TOTAL        ACCESS:    8933077 HIT:    8734488 MISS:     198589
cpu0_ITLB LOAD         ACCESS:    8933077 HIT:    8734488 MISS:     198589
cpu0_ITLB RFO          ACCESS:          0 HIT:          0 MISS:          0
cpu0_ITLB PREFETCH     ACCESS:          0 HIT:          0 MISS:          0
cpu0_ITLB WRITE        ACCESS:          0 HIT:          0 MISS:          0
cpu0_ITLB TRANSLATION  ACCESS:          0 HIT:          0 MISS:          0
cpu0_ITLB PREFETCH REQUESTED:          0 ISSUED:          0 USEFUL:          0 USELESS:          0
cpu0_ITLB AVERAGE MISS LATENCY: 2.779 cycles
cpu0_L1D TOTAL        ACCESS:  203629999 HIT:  199980417 MISS:    3649582
cpu0_L1D LOAD         ACCESS:  117953431 HIT:  114944675 MISS:    3008756
cpu0_L1D RFO          ACCESS:          0 HIT:          0 MISS:          0
cpu0_L1D PREFETCH     ACCESS:          0 HIT:          0 MISS:          0
cpu0_L1D WRITE        ACCESS:   85648025 HIT:   85034335 MISS:     613690
cpu0_L1D TRANSLATION  ACCESS:      28543 HIT:       1407 MISS:      27136
cpu0_L1D PREFETCH REQUESTED:          0 ISSUED:          0 USEFUL:          0 USELESS:          0
cpu0_L1D AVERAGE MISS LATENCY: 35.51 cycles
cpu0_L1I TOTAL        ACCESS:   10371730 HIT:    8574214 MISS:    1797516
cpu0_L1I LOAD         ACCESS:   10371730 HIT:    8574214 MISS:    1797516
cpu0_L1I RFO          ACCESS:          0 HIT:          0 MISS:          0
cpu0_L1I PREFETCH     ACCESS:          0 HIT:          0 MISS:          0
cpu0_L1I WRITE        ACCESS:          0 HIT:          0 MISS:          0
cpu0_L1I TRANSLATION  ACCESS:          0 HIT:          0 MISS:          0
cpu0_L1I PREFETCH REQUESTED:          0 ISSUED:          0 USEFUL:          0 USELESS:          0
cpu0_L1I AVERAGE MISS LATENCY: 9.427 cycles
cpu0_L2C TOTAL        ACCESS:    3837186 HIT:    3177231 MISS:     659955
cpu0_L2C LOAD         ACCESS:    3106400 HIT:    2519226 MISS:     587174
cpu0_L2C RFO          ACCESS:     191775 HIT:     144314 MISS:      47461
cpu0_L2C PREFETCH     ACCESS:          0 HIT:          0 MISS:          0
cpu0_L2C WRITE        ACCESS:     511956 HIT:     508714 MISS:       3242
cpu0_L2C TRANSLATION  ACCESS:      27055 HIT:       4977 MISS:      22078
cpu0_L2C PREFETCH REQUESTED:          0 ISSUED:          0 USEFUL:          0 USELESS:          0
cpu0_L2C AVERAGE MISS LATENCY: 181.1 cycles
cpu0_STLB TOTAL        ACCESS:    1009267 HIT:     982574 MISS:      26693
cpu0_STLB LOAD         ACCESS:    1009267 HIT:     982574 MISS:      26693
cpu0_STLB RFO          ACCESS:          0 HIT:          0 MISS:          0
cpu0_STLB PREFETCH     ACCESS:          0 HIT:          0 MISS:          0
cpu0_STLB WRITE        ACCESS:          0 HIT:          0 MISS:          0
cpu0_STLB TRANSLATION  ACCESS:          0 HIT:          0 MISS:          0
cpu0_STLB PREFETCH REQUESTED:          0 ISSUED:          0 USEFUL:          0 USELESS:          0
cpu0_STLB AVERAGE MISS LATENCY: 298.5 cycles

DRAM Statistics

Channel 0 RQ ROW_BUFFER_HIT:      75771
  ROW_BUFFER_MISS:     154851
 AVG DBUS CONGESTED CYCLE: 3.682
WQ ROW_BUFFER_HIT: Channel 0 
  ROW_BUFFER_MISS:        330
  FULL:        273
