WARNING: physical memory size is smaller than virtual memory size.

*** ChampSim Multicore Out-of-Order Simulator ***
Warmup Instructions: 50000000
Simulation Instructions: 600000000
Number of CPUs: 1
Page size: 4096

Off-chip DRAM Size: 4 GiB Channels: 1 Width: 64-bit Data Race: 3200 MT/s
Heartbeat CPU 0 instructions: 10000000 cycles: 2500061 heartbeat IPC: 4 cumulative IPC: 4 (Simulation time: 00 hr 01 min 02 sec)
Heartbeat CPU 0 instructions: 20000000 cycles: 5000061 heartbeat IPC: 4 cumulative IPC: 4 (Simulation time: 00 hr 02 min 02 sec)
Heartbeat CPU 0 instructions: 30000000 cycles: 7500061 heartbeat IPC: 4 cumulative IPC: 4 (Simulation time: 00 hr 02 min 54 sec)
Heartbeat CPU 0 instructions: 40000000 cycles: 10000061 heartbeat IPC: 4 cumulative IPC: 4 (Simulation time: 00 hr 03 min 48 sec)
Heartbeat CPU 0 instructions: 50000000 cycles: 12500061 heartbeat IPC: 4 cumulative IPC: 4 (Simulation time: 00 hr 04 min 38 sec)
Warmup finished CPU 0 instructions: 50000000 cycles: 12500062 cumulative IPC: 4 (Simulation time: 00 hr 04 min 38 sec)
Warmup complete CPU 0 instructions: 50000000 cycles: 12500062 cumulative IPC: 4 (Simulation time: 00 hr 04 min 38 sec)
Heartbeat CPU 0 instructions: 60000002 cycles: 16910921 heartbeat IPC: 2.267 cumulative IPC: 2.267 (Simulation time: 00 hr 05 min 59 sec)
Heartbeat CPU 0 instructions: 70000003 cycles: 21896816 heartbeat IPC: 2.006 cumulative IPC: 2.128 (Simulation time: 00 hr 07 min 19 sec)
Heartbeat CPU 0 instructions: 80000001 cycles: 27246155 heartbeat IPC: 1.869 cumulative IPC: 2.034 (Simulation time: 00 hr 08 min 33 sec)
Heartbeat CPU 0 instructions: 90000000 cycles: 31544699 heartbeat IPC: 2.326 cumulative IPC: 2.1 (Simulation time: 00 hr 09 min 43 sec)
Heartbeat CPU 0 instructions: 100000003 cycles: 36404102 heartbeat IPC: 2.058 cumulative IPC: 2.092 (Simulation time: 00 hr 11 min 11 sec)
Heartbeat CPU 0 instructions: 110000002 cycles: 41281735 heartbeat IPC: 2.05 cumulative IPC: 2.085 (Simulation time: 00 hr 12 min 39 sec)
Heartbeat CPU 0 instructions: 120000001 cycles: 46278078 heartbeat IPC: 2.001 cumulative IPC: 2.072 (Simulation time: 00 hr 14 min 07 sec)
Heartbeat CPU 0 instructions: 130000003 cycles: 50848441 heartbeat IPC: 2.188 cumulative IPC: 2.086 (Simulation time: 00 hr 15 min 23 sec)
Heartbeat CPU 0 instructions: 140000002 cycles: 55741837 heartbeat IPC: 2.044 cumulative IPC: 2.081 (Simulation time: 00 hr 16 min 39 sec)
Heartbeat CPU 0 instructions: 150000001 cycles: 60413534 heartbeat IPC: 2.141 cumulative IPC: 2.087 (Simulation time: 00 hr 17 min 54 sec)
Heartbeat CPU 0 instructions: 160000000 cycles: 65054061 heartbeat IPC: 2.155 cumulative IPC: 2.093 (Simulation time: 00 hr 19 min 05 sec)
Heartbeat CPU 0 instructions: 170000000 cycles: 70390892 heartbeat IPC: 1.874 cumulative IPC: 2.073 (Simulation time: 00 hr 20 min 23 sec)
Heartbeat CPU 0 instructions: 180000001 cycles: 76112662 heartbeat IPC: 1.748 cumulative IPC: 2.044 (Simulation time: 00 hr 21 min 40 sec)
Heartbeat CPU 0 instructions: 190000002 cycles: 80589282 heartbeat IPC: 2.234 cumulative IPC: 2.056 (Simulation time: 00 hr 22 min 51 sec)
Heartbeat CPU 0 instructions: 200000002 cycles: 85498894 heartbeat IPC: 2.037 cumulative IPC: 2.055 (Simulation time: 00 hr 24 min 20 sec)
Heartbeat CPU 0 instructions: 210000000 cycles: 90504729 heartbeat IPC: 1.998 cumulative IPC: 2.051 (Simulation time: 00 hr 25 min 56 sec)
Heartbeat CPU 0 instructions: 220000001 cycles: 95430990 heartbeat IPC: 2.03 cumulative IPC: 2.05 (Simulation time: 00 hr 27 min 20 sec)
Heartbeat CPU 0 instructions: 230000002 cycles: 100679862 heartbeat IPC: 1.905 cumulative IPC: 2.041 (Simulation time: 00 hr 28 min 42 sec)
Heartbeat CPU 0 instructions: 240000001 cycles: 105646577 heartbeat IPC: 2.013 cumulative IPC: 2.04 (Simulation time: 00 hr 29 min 58 sec)
Heartbeat CPU 0 instructions: 250000003 cycles: 110834460 heartbeat IPC: 1.928 cumulative IPC: 2.034 (Simulation time: 00 hr 31 min 18 sec)
Heartbeat CPU 0 instructions: 260000001 cycles: 115697724 heartbeat IPC: 2.056 cumulative IPC: 2.035 (Simulation time: 00 hr 32 min 35 sec)
Heartbeat CPU 0 instructions: 270000000 cycles: 123489614 heartbeat IPC: 1.283 cumulative IPC: 1.982 (Simulation time: 00 hr 34 min 14 sec)
Heartbeat CPU 0 instructions: 280000000 cycles: 135625995 heartbeat IPC: 0.824 cumulative IPC: 1.868 (Simulation time: 00 hr 36 min 28 sec)
Heartbeat CPU 0 instructions: 290000001 cycles: 146257977 heartbeat IPC: 0.9406 cumulative IPC: 1.794 (Simulation time: 00 hr 39 min 05 sec)
Heartbeat CPU 0 instructions: 300000003 cycles: 153822205 heartbeat IPC: 1.322 cumulative IPC: 1.769 (Simulation time: 00 hr 41 min 01 sec)
Heartbeat CPU 0 instructions: 310000004 cycles: 165287605 heartbeat IPC: 0.8722 cumulative IPC: 1.702 (Simulation time: 00 hr 43 min 29 sec)
Heartbeat CPU 0 instructions: 320000004 cycles: 171029459 heartbeat IPC: 1.742 cumulative IPC: 1.703 (Simulation time: 00 hr 44 min 54 sec)
Heartbeat CPU 0 instructions: 330000000 cycles: 176333315 heartbeat IPC: 1.885 cumulative IPC: 1.709 (Simulation time: 00 hr 46 min 09 sec)
Heartbeat CPU 0 instructions: 340000001 cycles: 181542114 heartbeat IPC: 1.92 cumulative IPC: 1.716 (Simulation time: 00 hr 47 min 21 sec)
Heartbeat CPU 0 instructions: 350000000 cycles: 186988968 heartbeat IPC: 1.836 cumulative IPC: 1.719 (Simulation time: 00 hr 48 min 48 sec)
Heartbeat CPU 0 instructions: 360000003 cycles: 192192368 heartbeat IPC: 1.922 cumulative IPC: 1.725 (Simulation time: 00 hr 50 min 22 sec)
Heartbeat CPU 0 instructions: 370000001 cycles: 197318822 heartbeat IPC: 1.951 cumulative IPC: 1.731 (Simulation time: 00 hr 51 min 55 sec)
Heartbeat CPU 0 instructions: 380000004 cycles: 202721604 heartbeat IPC: 1.851 cumulative IPC: 1.735 (Simulation time: 00 hr 53 min 21 sec)
Heartbeat CPU 0 instructions: 390000002 cycles: 208168380 heartbeat IPC: 1.836 cumulative IPC: 1.738 (Simulation time: 00 hr 54 min 48 sec)
Heartbeat CPU 0 instructions: 400000000 cycles: 213708833 heartbeat IPC: 1.805 cumulative IPC: 1.739 (Simulation time: 00 hr 56 min 15 sec)
Heartbeat CPU 0 instructions: 410000000 cycles: 222097488 heartbeat IPC: 1.192 cumulative IPC: 1.718 (Simulation time: 00 hr 58 min 04 sec)
Heartbeat CPU 0 instructions: 420000001 cycles: 233615256 heartbeat IPC: 0.8682 cumulative IPC: 1.673 (Simulation time: 01 hr 00 min 21 sec)
Heartbeat CPU 0 instructions: 430000000 cycles: 241379645 heartbeat IPC: 1.288 cumulative IPC: 1.66 (Simulation time: 01 hr 02 min 39 sec)
Heartbeat CPU 0 instructions: 440000002 cycles: 248791855 heartbeat IPC: 1.349 cumulative IPC: 1.651 (Simulation time: 01 hr 04 min 38 sec)
Heartbeat CPU 0 instructions: 450000000 cycles: 255778552 heartbeat IPC: 1.431 cumulative IPC: 1.644 (Simulation time: 01 hr 06 min 25 sec)
Heartbeat CPU 0 instructions: 460000002 cycles: 267023134 heartbeat IPC: 0.8893 cumulative IPC: 1.611 (Simulation time: 01 hr 08 min 50 sec)
Heartbeat CPU 0 instructions: 470000000 cycles: 277287044 heartbeat IPC: 0.9743 cumulative IPC: 1.586 (Simulation time: 01 hr 10 min 54 sec)
Heartbeat CPU 0 instructions: 480000000 cycles: 282776122 heartbeat IPC: 1.822 cumulative IPC: 1.591 (Simulation time: 01 hr 12 min 10 sec)
Heartbeat CPU 0 instructions: 490000001 cycles: 288570020 heartbeat IPC: 1.726 cumulative IPC: 1.594 (Simulation time: 01 hr 13 min 35 sec)
Heartbeat CPU 0 instructions: 500000002 cycles: 294241951 heartbeat IPC: 1.763 cumulative IPC: 1.597 (Simulation time: 01 hr 15 min 21 sec)
Heartbeat CPU 0 instructions: 510000000 cycles: 300010479 heartbeat IPC: 1.734 cumulative IPC: 1.6 (Simulation time: 01 hr 17 min 04 sec)
Heartbeat CPU 0 instructions: 520000000 cycles: 305851866 heartbeat IPC: 1.712 cumulative IPC: 1.602 (Simulation time: 01 hr 18 min 36 sec)
Heartbeat CPU 0 instructions: 530000001 cycles: 317730072 heartbeat IPC: 0.8419 cumulative IPC: 1.573 (Simulation time: 01 hr 21 min 04 sec)
Heartbeat CPU 0 instructions: 540000000 cycles: 328807365 heartbeat IPC: 0.9027 cumulative IPC: 1.549 (Simulation time: 01 hr 23 min 18 sec)
Heartbeat CPU 0 instructions: 550000002 cycles: 342051870 heartbeat IPC: 0.755 cumulative IPC: 1.517 (Simulation time: 01 hr 25 min 40 sec)
Heartbeat CPU 0 instructions: 560000004 cycles: 346929060 heartbeat IPC: 2.05 cumulative IPC: 1.525 (Simulation time: 01 hr 26 min 59 sec)
Heartbeat CPU 0 instructions: 570000001 cycles: 351340411 heartbeat IPC: 2.267 cumulative IPC: 1.535 (Simulation time: 01 hr 28 min 38 sec)
Heartbeat CPU 0 instructions: 580000003 cycles: 355584445 heartbeat IPC: 2.356 cumulative IPC: 1.545 (Simulation time: 01 hr 30 min 03 sec)
Heartbeat CPU 0 instructions: 590000001 cycles: 360491762 heartbeat IPC: 2.038 cumulative IPC: 1.552 (Simulation time: 01 hr 31 min 27 sec)
Heartbeat CPU 0 instructions: 600000003 cycles: 365136323 heartbeat IPC: 2.153 cumulative IPC: 1.56 (Simulation time: 01 hr 32 min 47 sec)
Heartbeat CPU 0 instructions: 610000001 cycles: 369998081 heartbeat IPC: 2.057 cumulative IPC: 1.566 (Simulation time: 01 hr 34 min 07 sec)
Heartbeat CPU 0 instructions: 620000000 cycles: 375065751 heartbeat IPC: 1.973 cumulative IPC: 1.572 (Simulation time: 01 hr 35 min 21 sec)
Heartbeat CPU 0 instructions: 630000002 cycles: 379313330 heartbeat IPC: 2.354 cumulative IPC: 1.581 (Simulation time: 01 hr 36 min 37 sec)
Heartbeat CPU 0 instructions: 640000004 cycles: 384636732 heartbeat IPC: 1.878 cumulative IPC: 1.585 (Simulation time: 01 hr 38 min 19 sec)
Heartbeat CPU 0 instructions: 650000001 cycles: 389399164 heartbeat IPC: 2.1 cumulative IPC: 1.592 (Simulation time: 01 hr 39 min 53 sec)
Simulation finished CPU 0 instructions: 600000001 cycles: 376899103 cumulative IPC: 1.592 (Simulation time: 01 hr 39 min 53 sec)
Simulation complete CPU 0 instructions: 600000001 cycles: 376899103 cumulative IPC: 1.592 (Simulation time: 01 hr 39 min 53 sec)

ChampSim completed all CPUs

=== Simulation ===
CPU 0 runs traces/400.perlbench-50B.champsimtrace.xz
Region of Interest Statistics

CPU 0 cumulative IPC: 1.592 instructions: 600000001 cycles: 376899103
CPU 0 Branch Prediction Accuracy: 93.83% MPKI: 12.71 Average ROB Occupancy at Mispredict: 29.49
Branch type MPKI
BRANCH_DIRECT_JUMP: 0.0176
BRANCH_INDIRECT: 0.38
BRANCH_CONDITIONAL: 11.9
BRANCH_DIRECT_CALL: 0.0067
BRANCH_INDIRECT_CALL: 0.431
BRANCH_RETURN: 0.0161

LLC TOTAL        ACCESS:     784595 HIT:     472411 MISS:     312184
LLC LOAD         ACCESS:     584984 HIT:     310150 MISS:     274834
LLC RFO          ACCESS:      47310 HIT:      26687 MISS:      20623
LLC PREFETCH     ACCESS:          0 HIT:          0 MISS:          0
LLC WRITE        ACCESS:     130382 HIT:     126179 MISS:       4203
LLC TRANSLATION  ACCESS:      21919 HIT:       9395 MISS:      12524
LLC PREFETCH REQUESTED:          0 ISSUED:          0 USEFUL:          0 USELESS:          0
LLC AVERAGE MISS LATENCY: 535.9 cycles
cpu0_DTLB TOTAL        ACCESS:  156756014 HIT:  155454446 MISS:    1301568
cpu0_DTLB LOAD         ACCESS:  156756014 HIT:  155454446 MISS:    1301568
cpu0_DTLB RFO          ACCESS:          0 HIT:          0 MISS:          0
cpu0_DTLB PREFETCH     ACCESS:          0 HIT:          0 MISS:          0
cpu0_DTLB WRITE        ACCESS:          0 HIT:          0 MISS:          0
cpu0_DTLB TRANSLATION  ACCESS:          0 HIT:          0 MISS:          0
cpu0_DTLB PREFETCH REQUESTED:          0 ISSUED:          0 USEFUL:          0 USELESS:          0
cpu0_DTLB AVERAGE MISS LATENCY: 12.41 cycles
cpu0_ITLB TOTAL        ACCESS:    8932426 HIT:    8733764 MISS:     198662
cpu0_ITLB LOAD         ACCESS:    8932426 HIT:    8733764 MISS:     198662
cpu0_ITLB RFO          ACCESS:          0 HIT:          0 MISS:          0
cpu0_ITLB PREFETCH     ACCESS:          0 HIT:          0 MISS:          0
cpu0_ITLB WRITE        ACCESS:          0 HIT:          0 MISS:          0
cpu0_ITLB TRANSLATION  ACCESS:          0 HIT:          0 MISS:          0
cpu0_ITLB PREFETCH REQUESTED:          0 ISSUED:          0 USEFUL:          0 USELESS:          0
cpu0_ITLB AVERAGE MISS LATENCY: 3.299 cycles
cpu0_L1D TOTAL        ACCESS:  203610615 HIT:  200719158 MISS:    2891457
cpu0_L1D LOAD         ACCESS:  117934270 HIT:  115558875 MISS:    2375395
cpu0_L1D RFO          ACCESS:          0 HIT:          0 MISS:          0
cpu0_L1D PREFETCH     ACCESS:          0 HIT:          0 MISS:          0
cpu0_L1D WRITE        ACCESS:   85647805 HIT:   85158291 MISS:     489514
cpu0_L1D TRANSLATION  ACCESS:      28540 HIT:       1992 MISS:      26548
cpu0_L1D PREFETCH REQUESTED:          0 ISSUED:          0 USEFUL:          0 USELESS:          0
cpu0_L1D AVERAGE MISS LATENCY: 62.96 cycles
cpu0_L1I TOTAL        ACCESS:   10371069 HIT:    8573603 MISS:    1797466
cpu0_L1I LOAD         ACCESS:   10371069 HIT:    8573603 MISS:    1797466
cpu0_L1I RFO          ACCESS:          0 HIT:          0 MISS:          0
cpu0_L1I PREFETCH     ACCESS:          0 HIT:          0 MISS:          0
cpu0_L1I WRITE        ACCESS:          0 HIT:          0 MISS:          0
cpu0_L1I TRANSLATION  ACCESS:          0 HIT:          0 MISS:          0
cpu0_L1I PREFETCH REQUESTED:          0 ISSUED:          0 USEFUL:          0 USELESS:          0
cpu0_L1I AVERAGE MISS LATENCY: 11.24 cycles
cpu0_L2C TOTAL        ACCESS:    3235219 HIT:    2574391 MISS:     660828
cpu0_L2C LOAD         ACCESS:    2711676 HIT:    2126692 MISS:     584984
cpu0_L2C RFO          ACCESS:     133677 HIT:      86367 MISS:      47310
cpu0_L2C PREFETCH     ACCESS:          0 HIT:          0 MISS:          0
cpu0_L2C WRITE        ACCESS:     363402 HIT:     356787 MISS:       6615
cpu0_L2C TRANSLATION  ACCESS:      26464 HIT:       4545 MISS:      21919
cpu0_L2C PREFETCH REQUESTED:          0 ISSUED:          0 USEFUL:          0 USELESS:          0
cpu0_L2C AVERAGE MISS LATENCY: 273.4 cycles
cpu0_STLB TOTAL        ACCESS:    1009205 HIT:     982515 MISS:      26690
cpu0_STLB LOAD         ACCESS:    1009205 HIT:     982515 MISS:      26690
cpu0_STLB RFO          ACCESS:          0 HIT:          0 MISS:          0
cpu0_STLB PREFETCH     ACCESS:          0 HIT:          0 MISS:          0
cpu0_STLB WRITE        ACCESS:          0 HIT:          0 MISS:          0
cpu0_STLB TRANSLATION  ACCESS:          0 HIT:          0 MISS:          0
cpu0_STLB PREFETCH REQUESTED:          0 ISSUED:          0 USEFUL:          0 USELESS:          0
cpu0_STLB AVERAGE MISS LATENCY: 386.7 cycles

DRAM Statistics

Channel 0 RQ ROW_BUFFER_HIT:      55329
  ROW_BUFFER_MISS:     252594
 AVG DBUS CONGESTED CYCLE: 3.799
WQ ROW_BUFFER_HIT: Channel 0 
  ROW_BUFFER_MISS:       9400
  FULL:      36812
