WARNING: physical memory size is smaller than virtual memory size.

*** ChampSim Multicore Out-of-Order Simulator ***
Warmup Instructions: 50000000
Simulation Instructions: 600000000
Number of CPUs: 1
Page size: 4096

CPU 0 Tage branch predictor
Off-chip DRAM Size: 4 GiB Channels: 1 Width: 64-bit Data Race: 3200 MT/s
Heartbeat CPU 0 instructions: 10000000 cycles: 2500061 heartbeat IPC: 4 cumulative IPC: 4 (Simulation time: 00 hr 01 min 12 sec)
Heartbeat CPU 0 instructions: 20000000 cycles: 5000061 heartbeat IPC: 4 cumulative IPC: 4 (Simulation time: 00 hr 02 min 28 sec)
Heartbeat CPU 0 instructions: 30000000 cycles: 7500061 heartbeat IPC: 4 cumulative IPC: 4 (Simulation time: 00 hr 03 min 39 sec)
Heartbeat CPU 0 instructions: 40000000 cycles: 10000061 heartbeat IPC: 4 cumulative IPC: 4 (Simulation time: 00 hr 04 min 50 sec)
Heartbeat CPU 0 instructions: 50000000 cycles: 12500061 heartbeat IPC: 4 cumulative IPC: 4 (Simulation time: 00 hr 06 min 01 sec)
Warmup finished CPU 0 instructions: 50000000 cycles: 12500062 cumulative IPC: 4 (Simulation time: 00 hr 06 min 01 sec)
Warmup complete CPU 0 instructions: 50000000 cycles: 12500062 cumulative IPC: 4 (Simulation time: 00 hr 06 min 01 sec)
Heartbeat CPU 0 instructions: 60000004 cycles: 15504211 heartbeat IPC: 3.329 cumulative IPC: 3.329 (Simulation time: 00 hr 07 min 23 sec)
Heartbeat CPU 0 instructions: 70000003 cycles: 18370187 heartbeat IPC: 3.489 cumulative IPC: 3.407 (Simulation time: 00 hr 08 min 48 sec)
Heartbeat CPU 0 instructions: 80000002 cycles: 21381308 heartbeat IPC: 3.321 cumulative IPC: 3.378 (Simulation time: 00 hr 10 min 12 sec)
Heartbeat CPU 0 instructions: 90000000 cycles: 24099104 heartbeat IPC: 3.679 cumulative IPC: 3.449 (Simulation time: 00 hr 11 min 45 sec)
Heartbeat CPU 0 instructions: 100000003 cycles: 26855682 heartbeat IPC: 3.628 cumulative IPC: 3.483 (Simulation time: 00 hr 13 min 27 sec)
Heartbeat CPU 0 instructions: 110000001 cycles: 29753191 heartbeat IPC: 3.451 cumulative IPC: 3.478 (Simulation time: 00 hr 15 min 12 sec)
Heartbeat CPU 0 instructions: 120000001 cycles: 32469614 heartbeat IPC: 3.681 cumulative IPC: 3.505 (Simulation time: 00 hr 16 min 59 sec)
Heartbeat CPU 0 instructions: 130000003 cycles: 35368912 heartbeat IPC: 3.449 cumulative IPC: 3.498 (Simulation time: 00 hr 18 min 49 sec)
Heartbeat CPU 0 instructions: 140000002 cycles: 38202933 heartbeat IPC: 3.529 cumulative IPC: 3.502 (Simulation time: 00 hr 20 min 38 sec)
Heartbeat CPU 0 instructions: 150000001 cycles: 40973175 heartbeat IPC: 3.61 cumulative IPC: 3.512 (Simulation time: 00 hr 22 min 28 sec)
Heartbeat CPU 0 instructions: 160000000 cycles: 43890705 heartbeat IPC: 3.428 cumulative IPC: 3.504 (Simulation time: 00 hr 23 min 17 sec)
Heartbeat CPU 0 instructions: 170000001 cycles: 46818939 heartbeat IPC: 3.415 cumulative IPC: 3.497 (Simulation time: 00 hr 24 min 09 sec)
Heartbeat CPU 0 instructions: 180000000 cycles: 49609778 heartbeat IPC: 3.583 cumulative IPC: 3.503 (Simulation time: 00 hr 25 min 00 sec)
Heartbeat CPU 0 instructions: 190000002 cycles: 52317790 heartbeat IPC: 3.693 cumulative IPC: 3.516 (Simulation time: 00 hr 25 min 52 sec)
Heartbeat CPU 0 instructions: 200000002 cycles: 55138349 heartbeat IPC: 3.545 cumulative IPC: 3.518 (Simulation time: 00 hr 26 min 43 sec)
Heartbeat CPU 0 instructions: 210000000 cycles: 58030352 heartbeat IPC: 3.458 cumulative IPC: 3.514 (Simulation time: 00 hr 27 min 34 sec)
Heartbeat CPU 0 instructions: 220000001 cycles: 60782145 heartbeat IPC: 3.634 cumulative IPC: 3.521 (Simulation time: 00 hr 28 min 26 sec)
Heartbeat CPU 0 instructions: 230000002 cycles: 63672199 heartbeat IPC: 3.46 cumulative IPC: 3.518 (Simulation time: 00 hr 29 min 19 sec)
Heartbeat CPU 0 instructions: 240000004 cycles: 66623126 heartbeat IPC: 3.389 cumulative IPC: 3.511 (Simulation time: 00 hr 30 min 15 sec)
Heartbeat CPU 0 instructions: 250000003 cycles: 69513446 heartbeat IPC: 3.46 cumulative IPC: 3.508 (Simulation time: 00 hr 31 min 11 sec)
Heartbeat CPU 0 instructions: 260000001 cycles: 72297713 heartbeat IPC: 3.592 cumulative IPC: 3.512 (Simulation time: 00 hr 32 min 07 sec)
Heartbeat CPU 0 instructions: 270000002 cycles: 78128025 heartbeat IPC: 1.715 cumulative IPC: 3.352 (Simulation time: 00 hr 33 min 21 sec)
Heartbeat CPU 0 instructions: 280000000 cycles: 87381916 heartbeat IPC: 1.081 cumulative IPC: 3.072 (Simulation time: 00 hr 34 min 57 sec)
Heartbeat CPU 0 instructions: 290000000 cycles: 95093979 heartbeat IPC: 1.297 cumulative IPC: 2.906 (Simulation time: 00 hr 36 min 26 sec)
Heartbeat CPU 0 instructions: 300000003 cycles: 100306057 heartbeat IPC: 1.919 cumulative IPC: 2.847 (Simulation time: 00 hr 37 min 37 sec)
Heartbeat CPU 0 instructions: 310000001 cycles: 108377703 heartbeat IPC: 1.239 cumulative IPC: 2.712 (Simulation time: 00 hr 39 min 07 sec)
Heartbeat CPU 0 instructions: 320000004 cycles: 112151421 heartbeat IPC: 2.65 cumulative IPC: 2.709 (Simulation time: 00 hr 40 min 11 sec)
Heartbeat CPU 0 instructions: 330000000 cycles: 115306909 heartbeat IPC: 3.169 cumulative IPC: 2.724 (Simulation time: 00 hr 41 min 08 sec)
Heartbeat CPU 0 instructions: 340000001 cycles: 118486698 heartbeat IPC: 3.145 cumulative IPC: 2.736 (Simulation time: 00 hr 42 min 02 sec)
Heartbeat CPU 0 instructions: 350000000 cycles: 121830852 heartbeat IPC: 2.99 cumulative IPC: 2.744 (Simulation time: 00 hr 42 min 59 sec)
Heartbeat CPU 0 instructions: 360000004 cycles: 124980388 heartbeat IPC: 3.175 cumulative IPC: 2.756 (Simulation time: 00 hr 43 min 57 sec)
Heartbeat CPU 0 instructions: 370000001 cycles: 128062630 heartbeat IPC: 3.244 cumulative IPC: 2.769 (Simulation time: 00 hr 44 min 52 sec)
Heartbeat CPU 0 instructions: 380000004 cycles: 131161260 heartbeat IPC: 3.227 cumulative IPC: 2.781 (Simulation time: 00 hr 45 min 45 sec)
Heartbeat CPU 0 instructions: 390000002 cycles: 134395605 heartbeat IPC: 3.092 cumulative IPC: 2.789 (Simulation time: 00 hr 46 min 41 sec)
Heartbeat CPU 0 instructions: 400000000 cycles: 137688854 heartbeat IPC: 3.037 cumulative IPC: 2.796 (Simulation time: 00 hr 47 min 41 sec)
Heartbeat CPU 0 instructions: 410000000 cycles: 144155061 heartbeat IPC: 1.547 cumulative IPC: 2.734 (Simulation time: 00 hr 49 min 00 sec)
Heartbeat CPU 0 instructions: 420000003 cycles: 153590095 heartbeat IPC: 1.06 cumulative IPC: 2.622 (Simulation time: 00 hr 50 min 42 sec)
Heartbeat CPU 0 instructions: 430000004 cycles: 159673942 heartbeat IPC: 1.644 cumulative IPC: 2.582 (Simulation time: 00 hr 52 min 03 sec)
Heartbeat CPU 0 instructions: 440000004 cycles: 165067350 heartbeat IPC: 1.854 cumulative IPC: 2.556 (Simulation time: 00 hr 53 min 16 sec)
Heartbeat CPU 0 instructions: 450000003 cycles: 170341949 heartbeat IPC: 1.896 cumulative IPC: 2.534 (Simulation time: 00 hr 54 min 32 sec)
Heartbeat CPU 0 instructions: 460000002 cycles: 179040269 heartbeat IPC: 1.15 cumulative IPC: 2.462 (Simulation time: 00 hr 56 min 07 sec)
Heartbeat CPU 0 instructions: 470000003 cycles: 186366969 heartbeat IPC: 1.365 cumulative IPC: 2.416 (Simulation time: 00 hr 57 min 33 sec)
Heartbeat CPU 0 instructions: 480000000 cycles: 189766187 heartbeat IPC: 2.942 cumulative IPC: 2.426 (Simulation time: 00 hr 58 min 36 sec)
Heartbeat CPU 0 instructions: 490000001 cycles: 193378404 heartbeat IPC: 2.768 cumulative IPC: 2.433 (Simulation time: 00 hr 59 min 38 sec)
Heartbeat CPU 0 instructions: 500000002 cycles: 196840307 heartbeat IPC: 2.889 cumulative IPC: 2.441 (Simulation time: 01 hr 00 min 34 sec)
Heartbeat CPU 0 instructions: 510000000 cycles: 200276131 heartbeat IPC: 2.911 cumulative IPC: 2.45 (Simulation time: 01 hr 01 min 32 sec)
Heartbeat CPU 0 instructions: 520000000 cycles: 203743945 heartbeat IPC: 2.884 cumulative IPC: 2.458 (Simulation time: 01 hr 02 min 30 sec)
Heartbeat CPU 0 instructions: 530000001 cycles: 213689852 heartbeat IPC: 1.005 cumulative IPC: 2.386 (Simulation time: 01 hr 04 min 10 sec)
Heartbeat CPU 0 instructions: 540000000 cycles: 223073957 heartbeat IPC: 1.066 cumulative IPC: 2.327 (Simulation time: 01 hr 05 min 46 sec)
Heartbeat CPU 0 instructions: 550000004 cycles: 233642593 heartbeat IPC: 0.9462 cumulative IPC: 2.261 (Simulation time: 01 hr 07 min 32 sec)
Heartbeat CPU 0 instructions: 560000004 cycles: 237170554 heartbeat IPC: 2.834 cumulative IPC: 2.27 (Simulation time: 01 hr 08 min 28 sec)
Heartbeat CPU 0 instructions: 570000002 cycles: 239993616 heartbeat IPC: 3.542 cumulative IPC: 2.286 (Simulation time: 01 hr 09 min 23 sec)
Heartbeat CPU 0 instructions: 580000000 cycles: 242911953 heartbeat IPC: 3.427 cumulative IPC: 2.3 (Simulation time: 01 hr 10 min 13 sec)
Heartbeat CPU 0 instructions: 590000001 cycles: 245837785 heartbeat IPC: 3.418 cumulative IPC: 2.314 (Simulation time: 01 hr 11 min 01 sec)
Heartbeat CPU 0 instructions: 600000003 cycles: 248529369 heartbeat IPC: 3.715 cumulative IPC: 2.33 (Simulation time: 01 hr 11 min 48 sec)
Heartbeat CPU 0 instructions: 610000001 cycles: 251393500 heartbeat IPC: 3.491 cumulative IPC: 2.344 (Simulation time: 01 hr 12 min 30 sec)
Heartbeat CPU 0 instructions: 620000004 cycles: 254344299 heartbeat IPC: 3.389 cumulative IPC: 2.357 (Simulation time: 01 hr 13 min 05 sec)
Heartbeat CPU 0 instructions: 630000002 cycles: 257155109 heartbeat IPC: 3.558 cumulative IPC: 2.371 (Simulation time: 01 hr 13 min 33 sec)
Heartbeat CPU 0 instructions: 640000004 cycles: 260202220 heartbeat IPC: 3.282 cumulative IPC: 2.382 (Simulation time: 01 hr 13 min 57 sec)
Heartbeat CPU 0 instructions: 650000001 cycles: 262912979 heartbeat IPC: 3.689 cumulative IPC: 2.396 (Simulation time: 01 hr 14 min 17 sec)
Simulation finished CPU 0 instructions: 600000001 cycles: 250412918 cumulative IPC: 2.396 (Simulation time: 01 hr 14 min 17 sec)
Simulation complete CPU 0 instructions: 600000001 cycles: 250412918 cumulative IPC: 2.396 (Simulation time: 01 hr 14 min 17 sec)

ChampSim completed all CPUs

=== Simulation ===
CPU 0 runs traces/400.perlbench-50B.champsimtrace.xz
Region of Interest Statistics

CPU 0 cumulative IPC: 2.396 instructions: 600000001 cycles: 250412918
CPU 0 Branch Prediction Accuracy: 99.01% MPKI: 2.04 Average ROB Occupancy at Mispredict: 94.79
Branch type MPKI
BRANCH_DIRECT_JUMP: 0.0176
BRANCH_INDIRECT: 0.38
BRANCH_CONDITIONAL: 1.19
BRANCH_DIRECT_CALL: 0.0067
BRANCH_INDIRECT_CALL: 0.431
BRANCH_RETURN: 0.0161

LLC TOTAL        ACCESS:     770061 HIT:     441103 MISS:     328958
LLC LOAD         ACCESS:     573178 HIT:     285931 MISS:     287247
LLC RFO          ACCESS:      46631 HIT:      26654 MISS:      19977
LLC PREFETCH     ACCESS:          0 HIT:          0 MISS:          0
LLC WRITE        ACCESS:     128264 HIT:     117603 MISS:      10661
LLC TRANSLATION  ACCESS:      21988 HIT:      10915 MISS:      11073
LLC PREFETCH REQUESTED:          0 ISSUED:          0 USEFUL:          0 USELESS:          0
LLC AVERAGE MISS LATENCY: 572.6 cycles
cpu0_DTLB TOTAL        ACCESS:  133220920 HIT:  131867622 MISS:    1353298
cpu0_DTLB LOAD         ACCESS:  133220920 HIT:  131867622 MISS:    1353298
cpu0_DTLB RFO          ACCESS:          0 HIT:          0 MISS:          0
cpu0_DTLB PREFETCH     ACCESS:          0 HIT:          0 MISS:          0
cpu0_DTLB WRITE        ACCESS:          0 HIT:          0 MISS:          0
cpu0_DTLB TRANSLATION  ACCESS:          0 HIT:          0 MISS:          0
cpu0_DTLB PREFETCH REQUESTED:          0 ISSUED:          0 USEFUL:          0 USELESS:          0
cpu0_DTLB AVERAGE MISS LATENCY: 11.39 cycles
cpu0_ITLB TOTAL        ACCESS:    9000299 HIT:    8790765 MISS:     209534
cpu0_ITLB LOAD         ACCESS:    9000299 HIT:    8790765 MISS:     209534
cpu0_ITLB RFO          ACCESS:          0 HIT:          0 MISS:          0
cpu0_ITLB PREFETCH     ACCESS:          0 HIT:          0 MISS:          0
cpu0_ITLB WRITE        ACCESS:          0 HIT:          0 MISS:          0
cpu0_ITLB TRANSLATION  ACCESS:          0 HIT:          0 MISS:          0
cpu0_ITLB PREFETCH REQUESTED:          0 ISSUED:          0 USEFUL:          0 USELESS:          0
cpu0_ITLB AVERAGE MISS LATENCY: 2.804 cycles
cpu0_L1D TOTAL        ACCESS:  178263292 HIT:  175260413 MISS:    3002879
cpu0_L1D LOAD         ACCESS:   92745166 HIT:   90274657 MISS:    2470509
cpu0_L1D RFO          ACCESS:          0 HIT:          0 MISS:          0
cpu0_L1D PREFETCH     ACCESS:          0 HIT:          0 MISS:          0
cpu0_L1D WRITE        ACCESS:   85489601 HIT:   84983748 MISS:     505853
cpu0_L1D TRANSLATION  ACCESS:      28525 HIT:       2008 MISS:      26517
cpu0_L1D PREFETCH REQUESTED:          0 ISSUED:          0 USEFUL:          0 USELESS:          0
cpu0_L1D AVERAGE MISS LATENCY: 64.47 cycles
cpu0_L1I TOTAL        ACCESS:   10519150 HIT:    8621318 MISS:    1897832
cpu0_L1I LOAD         ACCESS:   10519150 HIT:    8621318 MISS:    1897832
cpu0_L1I RFO          ACCESS:          0 HIT:          0 MISS:          0
cpu0_L1I PREFETCH     ACCESS:          0 HIT:          0 MISS:          0
cpu0_L1I WRITE        ACCESS:          0 HIT:          0 MISS:          0
cpu0_L1I TRANSLATION  ACCESS:          0 HIT:          0 MISS:          0
cpu0_L1I PREFETCH REQUESTED:          0 ISSUED:          0 USEFUL:          0 USELESS:          0
cpu0_L1I AVERAGE MISS LATENCY: 10.87 cycles
cpu0_L2C TOTAL        ACCESS:    3235978 HIT:    2588212 MISS:     647766
cpu0_L2C LOAD         ACCESS:    2709063 HIT:    2135883 MISS:     573180
cpu0_L2C RFO          ACCESS:     135559 HIT:      88927 MISS:      46632
cpu0_L2C PREFETCH     ACCESS:          0 HIT:          0 MISS:          0
cpu0_L2C WRITE        ACCESS:     364913 HIT:     358947 MISS:       5966
cpu0_L2C TRANSLATION  ACCESS:      26443 HIT:       4455 MISS:      21988
cpu0_L2C PREFETCH REQUESTED:          0 ISSUED:          0 USEFUL:          0 USELESS:          0
cpu0_L2C AVERAGE MISS LATENCY: 311.1 cycles
cpu0_STLB TOTAL        ACCESS:    1009764 HIT:     983073 MISS:      26691
cpu0_STLB LOAD         ACCESS:    1009764 HIT:     983073 MISS:      26691
cpu0_STLB RFO          ACCESS:          0 HIT:          0 MISS:          0
cpu0_STLB PREFETCH     ACCESS:          0 HIT:          0 MISS:          0
cpu0_STLB WRITE        ACCESS:          0 HIT:          0 MISS:          0
cpu0_STLB TRANSLATION  ACCESS:          0 HIT:          0 MISS:          0
cpu0_STLB PREFETCH REQUESTED:          0 ISSUED:          0 USEFUL:          0 USELESS:          0
cpu0_STLB AVERAGE MISS LATENCY: 374.5 cycles

DRAM Statistics

Channel 0 RQ ROW_BUFFER_HIT:      67228
  ROW_BUFFER_MISS:     251009
 AVG DBUS CONGESTED CYCLE: 3.822
WQ ROW_BUFFER_HIT: Channel 0 
  ROW_BUFFER_MISS:       7361
  FULL:      36699
