WARNING: physical memory size is smaller than virtual memory size.

*** ChampSim Multicore Out-of-Order Simulator ***
Warmup Instructions: 50000000
Simulation Instructions: 600000000
Number of CPUs: 1
Page size: 4096

Off-chip DRAM Size: 4 GiB Channels: 1 Width: 64-bit Data Race: 3200 MT/s
Heartbeat CPU 0 instructions: 10000001 cycles: 2500318 heartbeat IPC: 3.999 cumulative IPC: 3.999 (Simulation time: 00 hr 00 min 58 sec)
Heartbeat CPU 0 instructions: 20000002 cycles: 5037135 heartbeat IPC: 3.942 cumulative IPC: 3.971 (Simulation time: 00 hr 01 min 55 sec)
Heartbeat CPU 0 instructions: 30000002 cycles: 7537135 heartbeat IPC: 4 cumulative IPC: 3.98 (Simulation time: 00 hr 02 min 46 sec)
Heartbeat CPU 0 instructions: 40000002 cycles: 10037135 heartbeat IPC: 4 cumulative IPC: 3.985 (Simulation time: 00 hr 03 min 34 sec)
Heartbeat CPU 0 instructions: 50000002 cycles: 12537135 heartbeat IPC: 4 cumulative IPC: 3.988 (Simulation time: 00 hr 04 min 20 sec)
Warmup finished CPU 0 instructions: 50000002 cycles: 12537136 cumulative IPC: 3.988 (Simulation time: 00 hr 04 min 20 sec)
Warmup complete CPU 0 instructions: 50000002 cycles: 12537136 cumulative IPC: 3.988 (Simulation time: 00 hr 04 min 20 sec)
Heartbeat CPU 0 instructions: 60000000 cycles: 17146685 heartbeat IPC: 2.169 cumulative IPC: 2.169 (Simulation time: 00 hr 05 min 35 sec)
Heartbeat CPU 0 instructions: 70000004 cycles: 21416066 heartbeat IPC: 2.342 cumulative IPC: 2.253 (Simulation time: 00 hr 07 min 01 sec)
Heartbeat CPU 0 instructions: 80000001 cycles: 26006977 heartbeat IPC: 2.178 cumulative IPC: 2.227 (Simulation time: 00 hr 08 min 39 sec)
Heartbeat CPU 0 instructions: 90000001 cycles: 30133097 heartbeat IPC: 2.424 cumulative IPC: 2.273 (Simulation time: 00 hr 10 min 04 sec)
Heartbeat CPU 0 instructions: 100000000 cycles: 34189847 heartbeat IPC: 2.465 cumulative IPC: 2.309 (Simulation time: 00 hr 11 min 20 sec)
Heartbeat CPU 0 instructions: 110000000 cycles: 38429385 heartbeat IPC: 2.359 cumulative IPC: 2.317 (Simulation time: 00 hr 12 min 42 sec)
Heartbeat CPU 0 instructions: 120000001 cycles: 42435145 heartbeat IPC: 2.496 cumulative IPC: 2.341 (Simulation time: 00 hr 13 min 52 sec)
Heartbeat CPU 0 instructions: 130000001 cycles: 46167131 heartbeat IPC: 2.68 cumulative IPC: 2.379 (Simulation time: 00 hr 14 min 58 sec)
Heartbeat CPU 0 instructions: 140000001 cycles: 50327545 heartbeat IPC: 2.404 cumulative IPC: 2.382 (Simulation time: 00 hr 16 min 07 sec)
Heartbeat CPU 0 instructions: 150000001 cycles: 54525576 heartbeat IPC: 2.382 cumulative IPC: 2.382 (Simulation time: 00 hr 17 min 16 sec)
Heartbeat CPU 0 instructions: 160000004 cycles: 58937923 heartbeat IPC: 2.266 cumulative IPC: 2.371 (Simulation time: 00 hr 18 min 27 sec)
Heartbeat CPU 0 instructions: 170000000 cycles: 68611262 heartbeat IPC: 1.034 cumulative IPC: 2.14 (Simulation time: 00 hr 20 min 30 sec)
Heartbeat CPU 0 instructions: 180000004 cycles: 79255665 heartbeat IPC: 0.9395 cumulative IPC: 1.948 (Simulation time: 00 hr 22 min 55 sec)
Heartbeat CPU 0 instructions: 190000001 cycles: 89412188 heartbeat IPC: 0.9846 cumulative IPC: 1.821 (Simulation time: 00 hr 25 min 07 sec)
Heartbeat CPU 0 instructions: 200000004 cycles: 93189480 heartbeat IPC: 2.647 cumulative IPC: 1.86 (Simulation time: 00 hr 26 min 23 sec)
Heartbeat CPU 0 instructions: 210000001 cycles: 97108642 heartbeat IPC: 2.552 cumulative IPC: 1.892 (Simulation time: 00 hr 27 min 37 sec)
Heartbeat CPU 0 instructions: 220000000 cycles: 101068873 heartbeat IPC: 2.525 cumulative IPC: 1.92 (Simulation time: 00 hr 28 min 48 sec)
Heartbeat CPU 0 instructions: 230000002 cycles: 105745631 heartbeat IPC: 2.138 cumulative IPC: 1.931 (Simulation time: 00 hr 30 min 01 sec)
Heartbeat CPU 0 instructions: 240000000 cycles: 109936706 heartbeat IPC: 2.386 cumulative IPC: 1.951 (Simulation time: 00 hr 31 min 09 sec)
Heartbeat CPU 0 instructions: 250000000 cycles: 114255443 heartbeat IPC: 2.315 cumulative IPC: 1.966 (Simulation time: 00 hr 32 min 17 sec)
Heartbeat CPU 0 instructions: 260000000 cycles: 118445626 heartbeat IPC: 2.387 cumulative IPC: 1.983 (Simulation time: 00 hr 33 min 35 sec)
Heartbeat CPU 0 instructions: 270000002 cycles: 122297844 heartbeat IPC: 2.596 cumulative IPC: 2.004 (Simulation time: 00 hr 35 min 05 sec)
Heartbeat CPU 0 instructions: 280000002 cycles: 126473858 heartbeat IPC: 2.395 cumulative IPC: 2.019 (Simulation time: 00 hr 36 min 29 sec)
Heartbeat CPU 0 instructions: 290000001 cycles: 130368111 heartbeat IPC: 2.568 cumulative IPC: 2.037 (Simulation time: 00 hr 37 min 45 sec)
Heartbeat CPU 0 instructions: 300000003 cycles: 134199353 heartbeat IPC: 2.61 cumulative IPC: 2.055 (Simulation time: 00 hr 38 min 55 sec)
Heartbeat CPU 0 instructions: 310000001 cycles: 138329824 heartbeat IPC: 2.421 cumulative IPC: 2.067 (Simulation time: 00 hr 40 min 08 sec)
Heartbeat CPU 0 instructions: 320000003 cycles: 142410681 heartbeat IPC: 2.45 cumulative IPC: 2.079 (Simulation time: 00 hr 41 min 22 sec)
Heartbeat CPU 0 instructions: 330000003 cycles: 146825217 heartbeat IPC: 2.265 cumulative IPC: 2.085 (Simulation time: 00 hr 42 min 36 sec)
Heartbeat CPU 0 instructions: 340000000 cycles: 156753012 heartbeat IPC: 1.007 cumulative IPC: 2.011 (Simulation time: 00 hr 44 min 36 sec)
Heartbeat CPU 0 instructions: 350000000 cycles: 167760876 heartbeat IPC: 0.9084 cumulative IPC: 1.933 (Simulation time: 00 hr 46 min 37 sec)
Heartbeat CPU 0 instructions: 360000004 cycles: 177869105 heartbeat IPC: 0.9893 cumulative IPC: 1.875 (Simulation time: 00 hr 48 min 30 sec)
Heartbeat CPU 0 instructions: 370000000 cycles: 181313976 heartbeat IPC: 2.903 cumulative IPC: 1.896 (Simulation time: 00 hr 49 min 27 sec)
Heartbeat CPU 0 instructions: 380000001 cycles: 184733109 heartbeat IPC: 2.925 cumulative IPC: 1.916 (Simulation time: 00 hr 50 min 26 sec)
Heartbeat CPU 0 instructions: 390000004 cycles: 188475922 heartbeat IPC: 2.672 cumulative IPC: 1.932 (Simulation time: 00 hr 51 min 27 sec)
Heartbeat CPU 0 instructions: 400000004 cycles: 192287872 heartbeat IPC: 2.623 cumulative IPC: 1.947 (Simulation time: 00 hr 52 min 28 sec)
Heartbeat CPU 0 instructions: 410000001 cycles: 195944084 heartbeat IPC: 2.735 cumulative IPC: 1.963 (Simulation time: 00 hr 53 min 28 sec)
Heartbeat CPU 0 instructions: 420000003 cycles: 199977963 heartbeat IPC: 2.479 cumulative IPC: 1.974 (Simulation time: 00 hr 54 min 30 sec)
Heartbeat CPU 0 instructions: 430000001 cycles: 203634950 heartbeat IPC: 2.734 cumulative IPC: 1.989 (Simulation time: 00 hr 55 min 31 sec)
Heartbeat CPU 0 instructions: 440000004 cycles: 207717614 heartbeat IPC: 2.449 cumulative IPC: 1.998 (Simulation time: 00 hr 56 min 32 sec)
Heartbeat CPU 0 instructions: 450000002 cycles: 211453589 heartbeat IPC: 2.677 cumulative IPC: 2.011 (Simulation time: 00 hr 57 min 30 sec)
Heartbeat CPU 0 instructions: 460000000 cycles: 215121841 heartbeat IPC: 2.726 cumulative IPC: 2.024 (Simulation time: 00 hr 58 min 27 sec)
Heartbeat CPU 0 instructions: 470000000 cycles: 218590047 heartbeat IPC: 2.883 cumulative IPC: 2.038 (Simulation time: 00 hr 59 min 22 sec)
Heartbeat CPU 0 instructions: 480000003 cycles: 222409927 heartbeat IPC: 2.618 cumulative IPC: 2.049 (Simulation time: 01 hr 00 min 19 sec)
Heartbeat CPU 0 instructions: 490000000 cycles: 226043461 heartbeat IPC: 2.752 cumulative IPC: 2.061 (Simulation time: 01 hr 01 min 15 sec)
Heartbeat CPU 0 instructions: 500000000 cycles: 229739653 heartbeat IPC: 2.705 cumulative IPC: 2.072 (Simulation time: 01 hr 02 min 13 sec)
Heartbeat CPU 0 instructions: 510000003 cycles: 233381945 heartbeat IPC: 2.746 cumulative IPC: 2.083 (Simulation time: 01 hr 03 min 10 sec)
Heartbeat CPU 0 instructions: 520000001 cycles: 236799800 heartbeat IPC: 2.926 cumulative IPC: 2.096 (Simulation time: 01 hr 03 min 56 sec)
Heartbeat CPU 0 instructions: 530000002 cycles: 240468997 heartbeat IPC: 2.725 cumulative IPC: 2.106 (Simulation time: 01 hr 04 min 39 sec)
Heartbeat CPU 0 instructions: 540000000 cycles: 244003568 heartbeat IPC: 2.829 cumulative IPC: 2.117 (Simulation time: 01 hr 05 min 22 sec)
Heartbeat CPU 0 instructions: 550000001 cycles: 247700662 heartbeat IPC: 2.705 cumulative IPC: 2.126 (Simulation time: 01 hr 06 min 05 sec)
Heartbeat CPU 0 instructions: 560000000 cycles: 251671426 heartbeat IPC: 2.518 cumulative IPC: 2.133 (Simulation time: 01 hr 06 min 49 sec)
Heartbeat CPU 0 instructions: 570000004 cycles: 257988285 heartbeat IPC: 1.583 cumulative IPC: 2.119 (Simulation time: 01 hr 07 min 46 sec)
Heartbeat CPU 0 instructions: 580000003 cycles: 269335859 heartbeat IPC: 0.8812 cumulative IPC: 2.064 (Simulation time: 01 hr 09 min 12 sec)
Heartbeat CPU 0 instructions: 590000002 cycles: 282317003 heartbeat IPC: 0.7703 cumulative IPC: 2.002 (Simulation time: 01 hr 10 min 54 sec)
Heartbeat CPU 0 instructions: 600000000 cycles: 286068866 heartbeat IPC: 2.665 cumulative IPC: 2.011 (Simulation time: 01 hr 11 min 39 sec)
Heartbeat CPU 0 instructions: 610000000 cycles: 289928324 heartbeat IPC: 2.591 cumulative IPC: 2.019 (Simulation time: 01 hr 12 min 25 sec)
Heartbeat CPU 0 instructions: 620000001 cycles: 293362093 heartbeat IPC: 2.912 cumulative IPC: 2.03 (Simulation time: 01 hr 13 min 09 sec)
Heartbeat CPU 0 instructions: 630000002 cycles: 297639637 heartbeat IPC: 2.338 cumulative IPC: 2.034 (Simulation time: 01 hr 13 min 57 sec)
Heartbeat CPU 0 instructions: 640000001 cycles: 301538293 heartbeat IPC: 2.565 cumulative IPC: 2.042 (Simulation time: 01 hr 14 min 43 sec)
Heartbeat CPU 0 instructions: 650000000 cycles: 305291632 heartbeat IPC: 2.664 cumulative IPC: 2.049 (Simulation time: 01 hr 15 min 28 sec)
Simulation finished CPU 0 instructions: 600000001 cycles: 292754498 cumulative IPC: 2.049 (Simulation time: 01 hr 15 min 28 sec)
Simulation complete CPU 0 instructions: 600000001 cycles: 292754498 cumulative IPC: 2.049 (Simulation time: 01 hr 15 min 28 sec)

ChampSim completed all CPUs

=== Simulation ===
CPU 0 runs traces/400.perlbench-41B.champsimtrace.xz
Region of Interest Statistics

CPU 0 cumulative IPC: 2.049 instructions: 600000001 cycles: 292754498
CPU 0 Branch Prediction Accuracy: 96.56% MPKI: 7.112 Average ROB Occupancy at Mispredict: 47.34
Branch type MPKI
BRANCH_DIRECT_JUMP: 0.0123
BRANCH_INDIRECT: 0.323
BRANCH_CONDITIONAL: 6.56
BRANCH_DIRECT_CALL: 0.0043
BRANCH_INDIRECT_CALL: 0.2
BRANCH_RETURN: 0.00828

LLC TOTAL        ACCESS:     592506 HIT:     319034 MISS:     273472
LLC LOAD         ACCESS:     401853 HIT:     181954 MISS:     219899
LLC RFO          ACCESS:      32413 HIT:      16509 MISS:      15904
LLC PREFETCH     ACCESS:      53540 HIT:      26392 MISS:      27148
LLC WRITE        ACCESS:      85751 HIT:      85350 MISS:        401
LLC TRANSLATION  ACCESS:      18949 HIT:       8829 MISS:      10120
LLC PREFETCH REQUESTED:      53540 ISSUED:      53540 USEFUL:      16862 USELESS:       6917
LLC AVERAGE MISS LATENCY: 580.7 cycles
cpu0_DTLB TOTAL        ACCESS:  141902062 HIT:  141216041 MISS:     686021
cpu0_DTLB LOAD         ACCESS:  141902062 HIT:  141216041 MISS:     686021
cpu0_DTLB RFO          ACCESS:          0 HIT:          0 MISS:          0
cpu0_DTLB PREFETCH     ACCESS:          0 HIT:          0 MISS:          0
cpu0_DTLB WRITE        ACCESS:          0 HIT:          0 MISS:          0
cpu0_DTLB TRANSLATION  ACCESS:          0 HIT:          0 MISS:          0
cpu0_DTLB PREFETCH REQUESTED:          0 ISSUED:          0 USEFUL:          0 USELESS:          0
cpu0_DTLB AVERAGE MISS LATENCY: 15.1 cycles
cpu0_ITLB TOTAL        ACCESS:    4861059 HIT:    4807920 MISS:      53139
cpu0_ITLB LOAD         ACCESS:    4861059 HIT:    4807920 MISS:      53139
cpu0_ITLB RFO          ACCESS:          0 HIT:          0 MISS:          0
cpu0_ITLB PREFETCH     ACCESS:          0 HIT:          0 MISS:          0
cpu0_ITLB WRITE        ACCESS:          0 HIT:          0 MISS:          0
cpu0_ITLB TRANSLATION  ACCESS:          0 HIT:          0 MISS:          0
cpu0_ITLB PREFETCH REQUESTED:          0 ISSUED:          0 USEFUL:          0 USELESS:          0
cpu0_ITLB AVERAGE MISS LATENCY: 8.19 cycles
cpu0_L1D TOTAL        ACCESS:  188568042 HIT:  187209637 MISS:    1358405
cpu0_L1D LOAD         ACCESS:  105200252 HIT:  104155833 MISS:    1044419
cpu0_L1D RFO          ACCESS:          0 HIT:          0 MISS:          0
cpu0_L1D PREFETCH     ACCESS:          0 HIT:          0 MISS:          0
cpu0_L1D WRITE        ACCESS:   83343330 HIT:   83052203 MISS:     291127
cpu0_L1D TRANSLATION  ACCESS:      24460 HIT:       1601 MISS:      22859
cpu0_L1D PREFETCH REQUESTED:          0 ISSUED:          0 USEFUL:          0 USELESS:          0
cpu0_L1D AVERAGE MISS LATENCY: 109.2 cycles
cpu0_L1I TOTAL        ACCESS:    5598872 HIT:    4855190 MISS:     743682
cpu0_L1I LOAD         ACCESS:    5598872 HIT:    4855190 MISS:     743682
cpu0_L1I RFO          ACCESS:          0 HIT:          0 MISS:          0
cpu0_L1I PREFETCH     ACCESS:          0 HIT:          0 MISS:          0
cpu0_L1I WRITE        ACCESS:          0 HIT:          0 MISS:          0
cpu0_L1I TRANSLATION  ACCESS:          0 HIT:          0 MISS:          0
cpu0_L1I PREFETCH REQUESTED:          0 ISSUED:          0 USEFUL:          0 USELESS:          0
cpu0_L1I AVERAGE MISS LATENCY: 12.58 cycles
cpu0_L2C TOTAL        ACCESS:    1380728 HIT:     923896 MISS:     456832
cpu0_L2C LOAD         ACCESS:    1124719 HIT:     722866 MISS:     401853
cpu0_L2C RFO          ACCESS:      63797 HIT:      31384 MISS:      32413
cpu0_L2C PREFETCH     ACCESS:          0 HIT:          0 MISS:          0
cpu0_L2C WRITE        ACCESS:     169420 HIT:     165803 MISS:       3617
cpu0_L2C TRANSLATION  ACCESS:      22792 HIT:       3843 MISS:      18949
cpu0_L2C PREFETCH REQUESTED:          0 ISSUED:          0 USEFUL:          0 USELESS:          0
cpu0_L2C AVERAGE MISS LATENCY: 330.4 cycles
cpu0_STLB TOTAL        ACCESS:     507343 HIT:     484549 MISS:      22794
cpu0_STLB LOAD         ACCESS:     507343 HIT:     484549 MISS:      22794
cpu0_STLB RFO          ACCESS:          0 HIT:          0 MISS:          0
cpu0_STLB PREFETCH     ACCESS:          0 HIT:          0 MISS:          0
cpu0_STLB WRITE        ACCESS:          0 HIT:          0 MISS:          0
cpu0_STLB TRANSLATION  ACCESS:          0 HIT:          0 MISS:          0
cpu0_STLB PREFETCH REQUESTED:          0 ISSUED:          0 USEFUL:          0 USELESS:          0
cpu0_STLB AVERAGE MISS LATENCY: 336.2 cycles

DRAM Statistics

Channel 0 RQ ROW_BUFFER_HIT:      48368
  ROW_BUFFER_MISS:     219704
 AVG DBUS CONGESTED CYCLE: 3.822
WQ ROW_BUFFER_HIT: Channel 0 
  ROW_BUFFER_MISS:       7098
  FULL:      33065
