WARNING: physical memory size is smaller than virtual memory size.

*** ChampSim Multicore Out-of-Order Simulator ***
Warmup Instructions: 50000000
Simulation Instructions: 600000000
Number of CPUs: 1
Page size: 4096

CPU 0 Tage branch predictor
Off-chip DRAM Size: 4 GiB Channels: 1 Width: 64-bit Data Race: 3200 MT/s
Heartbeat CPU 0 instructions: 10000000 cycles: 2500061 heartbeat IPC: 4 cumulative IPC: 4 (Simulation time: 00 hr 00 min 59 sec)
Heartbeat CPU 0 instructions: 20000000 cycles: 5000061 heartbeat IPC: 4 cumulative IPC: 4 (Simulation time: 00 hr 02 min 05 sec)
Heartbeat CPU 0 instructions: 30000000 cycles: 7500061 heartbeat IPC: 4 cumulative IPC: 4 (Simulation time: 00 hr 03 min 21 sec)
Heartbeat CPU 0 instructions: 40000000 cycles: 10000061 heartbeat IPC: 4 cumulative IPC: 4 (Simulation time: 00 hr 04 min 36 sec)
Heartbeat CPU 0 instructions: 50000000 cycles: 12500061 heartbeat IPC: 4 cumulative IPC: 4 (Simulation time: 00 hr 05 min 47 sec)
Warmup finished CPU 0 instructions: 50000000 cycles: 12500062 cumulative IPC: 4 (Simulation time: 00 hr 05 min 47 sec)
Warmup complete CPU 0 instructions: 50000000 cycles: 12500062 cumulative IPC: 4 (Simulation time: 00 hr 05 min 47 sec)
Heartbeat CPU 0 instructions: 60000004 cycles: 15503575 heartbeat IPC: 3.329 cumulative IPC: 3.329 (Simulation time: 00 hr 07 min 05 sec)
Heartbeat CPU 0 instructions: 70000003 cycles: 18381992 heartbeat IPC: 3.474 cumulative IPC: 3.4 (Simulation time: 00 hr 08 min 18 sec)
Heartbeat CPU 0 instructions: 80000002 cycles: 21404034 heartbeat IPC: 3.309 cumulative IPC: 3.369 (Simulation time: 00 hr 09 min 29 sec)
Heartbeat CPU 0 instructions: 90000000 cycles: 24126115 heartbeat IPC: 3.674 cumulative IPC: 3.441 (Simulation time: 00 hr 10 min 37 sec)
Heartbeat CPU 0 instructions: 100000003 cycles: 26892056 heartbeat IPC: 3.615 cumulative IPC: 3.474 (Simulation time: 00 hr 11 min 49 sec)
Heartbeat CPU 0 instructions: 110000001 cycles: 29797837 heartbeat IPC: 3.441 cumulative IPC: 3.469 (Simulation time: 00 hr 13 min 08 sec)
Heartbeat CPU 0 instructions: 120000001 cycles: 32521809 heartbeat IPC: 3.671 cumulative IPC: 3.496 (Simulation time: 00 hr 14 min 39 sec)
Heartbeat CPU 0 instructions: 130000003 cycles: 35424102 heartbeat IPC: 3.446 cumulative IPC: 3.49 (Simulation time: 00 hr 16 min 06 sec)
Heartbeat CPU 0 instructions: 140000002 cycles: 38262157 heartbeat IPC: 3.524 cumulative IPC: 3.494 (Simulation time: 00 hr 17 min 24 sec)
Heartbeat CPU 0 instructions: 150000001 cycles: 41035668 heartbeat IPC: 3.606 cumulative IPC: 3.504 (Simulation time: 00 hr 18 min 37 sec)
Heartbeat CPU 0 instructions: 160000000 cycles: 43951271 heartbeat IPC: 3.43 cumulative IPC: 3.497 (Simulation time: 00 hr 19 min 49 sec)
Heartbeat CPU 0 instructions: 170000001 cycles: 46882275 heartbeat IPC: 3.412 cumulative IPC: 3.49 (Simulation time: 00 hr 20 min 59 sec)
Heartbeat CPU 0 instructions: 180000000 cycles: 49679951 heartbeat IPC: 3.574 cumulative IPC: 3.497 (Simulation time: 00 hr 22 min 02 sec)
Heartbeat CPU 0 instructions: 190000002 cycles: 52388898 heartbeat IPC: 3.691 cumulative IPC: 3.51 (Simulation time: 00 hr 23 min 14 sec)
Heartbeat CPU 0 instructions: 200000002 cycles: 55217664 heartbeat IPC: 3.535 cumulative IPC: 3.511 (Simulation time: 00 hr 24 min 45 sec)
Heartbeat CPU 0 instructions: 210000000 cycles: 58117407 heartbeat IPC: 3.449 cumulative IPC: 3.507 (Simulation time: 00 hr 26 min 13 sec)
Heartbeat CPU 0 instructions: 220000001 cycles: 60881772 heartbeat IPC: 3.617 cumulative IPC: 3.514 (Simulation time: 00 hr 27 min 31 sec)
Heartbeat CPU 0 instructions: 230000002 cycles: 63775955 heartbeat IPC: 3.455 cumulative IPC: 3.51 (Simulation time: 00 hr 28 min 44 sec)
Heartbeat CPU 0 instructions: 240000004 cycles: 66736386 heartbeat IPC: 3.378 cumulative IPC: 3.503 (Simulation time: 00 hr 29 min 59 sec)
Heartbeat CPU 0 instructions: 250000003 cycles: 69642378 heartbeat IPC: 3.441 cumulative IPC: 3.5 (Simulation time: 00 hr 31 min 12 sec)
Heartbeat CPU 0 instructions: 260000001 cycles: 72433817 heartbeat IPC: 3.582 cumulative IPC: 3.504 (Simulation time: 00 hr 32 min 20 sec)
Heartbeat CPU 0 instructions: 270000002 cycles: 77916254 heartbeat IPC: 1.824 cumulative IPC: 3.363 (Simulation time: 00 hr 33 min 48 sec)
Heartbeat CPU 0 instructions: 280000000 cycles: 86572255 heartbeat IPC: 1.155 cumulative IPC: 3.105 (Simulation time: 00 hr 35 min 40 sec)
Heartbeat CPU 0 instructions: 290000000 cycles: 93912956 heartbeat IPC: 1.362 cumulative IPC: 2.948 (Simulation time: 00 hr 37 min 46 sec)
Heartbeat CPU 0 instructions: 300000003 cycles: 99087148 heartbeat IPC: 1.933 cumulative IPC: 2.887 (Simulation time: 00 hr 39 min 39 sec)
Heartbeat CPU 0 instructions: 310000001 cycles: 107351874 heartbeat IPC: 1.21 cumulative IPC: 2.741 (Simulation time: 00 hr 41 min 57 sec)
Heartbeat CPU 0 instructions: 320000004 cycles: 111119779 heartbeat IPC: 2.654 cumulative IPC: 2.738 (Simulation time: 00 hr 43 min 25 sec)
Heartbeat CPU 0 instructions: 330000000 cycles: 114311015 heartbeat IPC: 3.134 cumulative IPC: 2.75 (Simulation time: 00 hr 44 min 46 sec)
Heartbeat CPU 0 instructions: 340000001 cycles: 117508468 heartbeat IPC: 3.127 cumulative IPC: 2.762 (Simulation time: 00 hr 46 min 03 sec)
Heartbeat CPU 0 instructions: 350000000 cycles: 120856695 heartbeat IPC: 2.987 cumulative IPC: 2.769 (Simulation time: 00 hr 47 min 19 sec)
Heartbeat CPU 0 instructions: 360000004 cycles: 124015743 heartbeat IPC: 3.166 cumulative IPC: 2.78 (Simulation time: 00 hr 48 min 30 sec)
Heartbeat CPU 0 instructions: 370000001 cycles: 127122022 heartbeat IPC: 3.219 cumulative IPC: 2.792 (Simulation time: 00 hr 49 min 54 sec)
Heartbeat CPU 0 instructions: 380000004 cycles: 130248912 heartbeat IPC: 3.198 cumulative IPC: 2.803 (Simulation time: 00 hr 51 min 31 sec)
Heartbeat CPU 0 instructions: 390000002 cycles: 133507354 heartbeat IPC: 3.069 cumulative IPC: 2.81 (Simulation time: 00 hr 53 min 02 sec)
Heartbeat CPU 0 instructions: 400000000 cycles: 136826421 heartbeat IPC: 3.013 cumulative IPC: 2.815 (Simulation time: 00 hr 54 min 25 sec)
Heartbeat CPU 0 instructions: 410000000 cycles: 142799591 heartbeat IPC: 1.674 cumulative IPC: 2.763 (Simulation time: 00 hr 56 min 13 sec)
Heartbeat CPU 0 instructions: 420000003 cycles: 151337542 heartbeat IPC: 1.171 cumulative IPC: 2.665 (Simulation time: 00 hr 58 min 29 sec)
Heartbeat CPU 0 instructions: 430000004 cycles: 156732010 heartbeat IPC: 1.854 cumulative IPC: 2.635 (Simulation time: 01 hr 00 min 09 sec)
Heartbeat CPU 0 instructions: 440000004 cycles: 161633411 heartbeat IPC: 2.04 cumulative IPC: 2.615 (Simulation time: 01 hr 01 min 39 sec)
Heartbeat CPU 0 instructions: 450000000 cycles: 166326231 heartbeat IPC: 2.131 cumulative IPC: 2.6 (Simulation time: 01 hr 03 min 19 sec)
Heartbeat CPU 0 instructions: 460000002 cycles: 174539121 heartbeat IPC: 1.218 cumulative IPC: 2.53 (Simulation time: 01 hr 05 min 55 sec)
Heartbeat CPU 0 instructions: 470000003 cycles: 182066298 heartbeat IPC: 1.329 cumulative IPC: 2.477 (Simulation time: 01 hr 08 min 10 sec)
Heartbeat CPU 0 instructions: 480000000 cycles: 185491216 heartbeat IPC: 2.92 cumulative IPC: 2.486 (Simulation time: 01 hr 09 min 33 sec)
Heartbeat CPU 0 instructions: 490000001 cycles: 189151704 heartbeat IPC: 2.732 cumulative IPC: 2.491 (Simulation time: 01 hr 10 min 59 sec)
Heartbeat CPU 0 instructions: 500000002 cycles: 192647440 heartbeat IPC: 2.861 cumulative IPC: 2.498 (Simulation time: 01 hr 12 min 19 sec)
Heartbeat CPU 0 instructions: 510000000 cycles: 196125723 heartbeat IPC: 2.875 cumulative IPC: 2.505 (Simulation time: 01 hr 13 min 36 sec)
Heartbeat CPU 0 instructions: 520000000 cycles: 199656588 heartbeat IPC: 2.832 cumulative IPC: 2.511 (Simulation time: 01 hr 14 min 49 sec)
Heartbeat CPU 0 instructions: 530000001 cycles: 208271092 heartbeat IPC: 1.161 cumulative IPC: 2.452 (Simulation time: 01 hr 17 min 17 sec)
Heartbeat CPU 0 instructions: 540000000 cycles: 216655635 heartbeat IPC: 1.193 cumulative IPC: 2.4 (Simulation time: 01 hr 19 min 53 sec)
Heartbeat CPU 0 instructions: 550000004 cycles: 226665743 heartbeat IPC: 0.999 cumulative IPC: 2.335 (Simulation time: 01 hr 22 min 29 sec)
Heartbeat CPU 0 instructions: 560000004 cycles: 230216580 heartbeat IPC: 2.816 cumulative IPC: 2.342 (Simulation time: 01 hr 23 min 57 sec)
Heartbeat CPU 0 instructions: 570000002 cycles: 233042823 heartbeat IPC: 3.538 cumulative IPC: 2.358 (Simulation time: 01 hr 25 min 13 sec)
Heartbeat CPU 0 instructions: 580000000 cycles: 235974633 heartbeat IPC: 3.411 cumulative IPC: 2.372 (Simulation time: 01 hr 26 min 24 sec)
Heartbeat CPU 0 instructions: 590000001 cycles: 238912480 heartbeat IPC: 3.404 cumulative IPC: 2.385 (Simulation time: 01 hr 27 min 32 sec)
Heartbeat CPU 0 instructions: 600000003 cycles: 241614221 heartbeat IPC: 3.701 cumulative IPC: 2.401 (Simulation time: 01 hr 28 min 39 sec)
Heartbeat CPU 0 instructions: 610000001 cycles: 244487543 heartbeat IPC: 3.48 cumulative IPC: 2.414 (Simulation time: 01 hr 29 min 53 sec)
Heartbeat CPU 0 instructions: 620000004 cycles: 247446891 heartbeat IPC: 3.379 cumulative IPC: 2.426 (Simulation time: 01 hr 31 min 29 sec)
Heartbeat CPU 0 instructions: 630000002 cycles: 250259134 heartbeat IPC: 3.556 cumulative IPC: 2.439 (Simulation time: 01 hr 33 min 01 sec)
Heartbeat CPU 0 instructions: 640000004 cycles: 253309745 heartbeat IPC: 3.278 cumulative IPC: 2.45 (Simulation time: 01 hr 34 min 21 sec)
Heartbeat CPU 0 instructions: 650000001 cycles: 256017440 heartbeat IPC: 3.693 cumulative IPC: 2.464 (Simulation time: 01 hr 35 min 34 sec)
Simulation finished CPU 0 instructions: 600000001 cycles: 243517379 cumulative IPC: 2.464 (Simulation time: 01 hr 35 min 34 sec)
Simulation complete CPU 0 instructions: 600000001 cycles: 243517379 cumulative IPC: 2.464 (Simulation time: 01 hr 35 min 34 sec)

ChampSim completed all CPUs

=== Simulation ===
CPU 0 runs traces/400.perlbench-50B.champsimtrace.xz
Region of Interest Statistics

CPU 0 cumulative IPC: 2.464 instructions: 600000001 cycles: 243517379
CPU 0 Branch Prediction Accuracy: 99.01% MPKI: 2.04 Average ROB Occupancy at Mispredict: 94
Branch type MPKI
BRANCH_DIRECT_JUMP: 0.0176
BRANCH_INDIRECT: 0.38
BRANCH_CONDITIONAL: 1.19
BRANCH_DIRECT_CALL: 0.0067
BRANCH_INDIRECT_CALL: 0.431
BRANCH_RETURN: 0.0161

LLC TOTAL        ACCESS:    1367406 HIT:     880181 MISS:     487225
LLC LOAD         ACCESS:     583828 HIT:     363474 MISS:     220354
LLC RFO          ACCESS:      47392 HIT:      28941 MISS:      18451
LLC PREFETCH     ACCESS:     583828 HIT:     349144 MISS:     234684
LLC WRITE        ACCESS:     130295 HIT:     129650 MISS:        645
LLC TRANSLATION  ACCESS:      22063 HIT:       8972 MISS:      13091
LLC PREFETCH REQUESTED:     583828 ISSUED:     583828 USEFUL:      84727 USELESS:      86746
LLC AVERAGE MISS LATENCY: 627.2 cycles
cpu0_DTLB TOTAL        ACCESS:  133221297 HIT:  131868373 MISS:    1352924
cpu0_DTLB LOAD         ACCESS:  133221297 HIT:  131868373 MISS:    1352924
cpu0_DTLB RFO          ACCESS:          0 HIT:          0 MISS:          0
cpu0_DTLB PREFETCH     ACCESS:          0 HIT:          0 MISS:          0
cpu0_DTLB WRITE        ACCESS:          0 HIT:          0 MISS:          0
cpu0_DTLB TRANSLATION  ACCESS:          0 HIT:          0 MISS:          0
cpu0_DTLB PREFETCH REQUESTED:          0 ISSUED:          0 USEFUL:          0 USELESS:          0
cpu0_DTLB AVERAGE MISS LATENCY: 12.99 cycles
cpu0_ITLB TOTAL        ACCESS:    8990801 HIT:    8781227 MISS:     209574
cpu0_ITLB LOAD         ACCESS:    8990801 HIT:    8781227 MISS:     209574
cpu0_ITLB RFO          ACCESS:          0 HIT:          0 MISS:          0
cpu0_ITLB PREFETCH     ACCESS:          0 HIT:          0 MISS:          0
cpu0_ITLB WRITE        ACCESS:          0 HIT:          0 MISS:          0
cpu0_ITLB TRANSLATION  ACCESS:          0 HIT:          0 MISS:          0
cpu0_ITLB PREFETCH REQUESTED:          0 ISSUED:          0 USEFUL:          0 USELESS:          0
cpu0_ITLB AVERAGE MISS LATENCY: 3.245 cycles
cpu0_L1D TOTAL        ACCESS:  178284170 HIT:  175296934 MISS:    2987236
cpu0_L1D LOAD         ACCESS:   92765920 HIT:   90311352 MISS:    2454568
cpu0_L1D RFO          ACCESS:          0 HIT:          0 MISS:          0
cpu0_L1D PREFETCH     ACCESS:          0 HIT:          0 MISS:          0
cpu0_L1D WRITE        ACCESS:   85489720 HIT:   84983571 MISS:     506149
cpu0_L1D TRANSLATION  ACCESS:      28530 HIT:       2011 MISS:      26519
cpu0_L1D PREFETCH REQUESTED:          0 ISSUED:          0 USEFUL:          0 USELESS:          0
cpu0_L1D AVERAGE MISS LATENCY: 61.77 cycles
cpu0_L1I TOTAL        ACCESS:   10510218 HIT:    8613390 MISS:    1896828
cpu0_L1I LOAD         ACCESS:   10510218 HIT:    8613390 MISS:    1896828
cpu0_L1I RFO          ACCESS:          0 HIT:          0 MISS:          0
cpu0_L1I PREFETCH     ACCESS:          0 HIT:          0 MISS:          0
cpu0_L1I WRITE        ACCESS:          0 HIT:          0 MISS:          0
cpu0_L1I TRANSLATION  ACCESS:          0 HIT:          0 MISS:          0
cpu0_L1I PREFETCH REQUESTED:          0 ISSUED:          0 USEFUL:          0 USELESS:          0
cpu0_L1I AVERAGE MISS LATENCY: 9.982 cycles
cpu0_L2C TOTAL        ACCESS:    3235988 HIT:    2576227 MISS:     659761
cpu0_L2C LOAD         ACCESS:    2709074 HIT:    2125244 MISS:     583830
cpu0_L2C RFO          ACCESS:     135565 HIT:      88173 MISS:      47392
cpu0_L2C PREFETCH     ACCESS:          0 HIT:          0 MISS:          0
cpu0_L2C WRITE        ACCESS:     364913 HIT:     358437 MISS:       6476
cpu0_L2C TRANSLATION  ACCESS:      26436 HIT:       4373 MISS:      22063
cpu0_L2C PREFETCH REQUESTED:          0 ISSUED:          0 USEFUL:          0 USELESS:          0
cpu0_L2C AVERAGE MISS LATENCY: 285.7 cycles
cpu0_STLB TOTAL        ACCESS:    1009868 HIT:     983178 MISS:      26690
cpu0_STLB LOAD         ACCESS:    1009868 HIT:     983178 MISS:      26690
cpu0_STLB RFO          ACCESS:          0 HIT:          0 MISS:          0
cpu0_STLB PREFETCH     ACCESS:          0 HIT:          0 MISS:          0
cpu0_STLB WRITE        ACCESS:          0 HIT:          0 MISS:          0
cpu0_STLB TRANSLATION  ACCESS:          0 HIT:          0 MISS:          0
cpu0_STLB PREFETCH REQUESTED:          0 ISSUED:          0 USEFUL:          0 USELESS:          0
cpu0_STLB AVERAGE MISS LATENCY: 461 cycles

DRAM Statistics

Channel 0 RQ ROW_BUFFER_HIT:      89369
  ROW_BUFFER_MISS:     313750
 AVG DBUS CONGESTED CYCLE: 3.892
WQ ROW_BUFFER_HIT: Channel 0 
  ROW_BUFFER_MISS:       4273
  FULL:      40706
