WARNING: physical memory size is smaller than virtual memory size.

*** ChampSim Multicore Out-of-Order Simulator ***
Warmup Instructions: 50000000
Simulation Instructions: 600000000
Number of CPUs: 1
Page size: 4096

Off-chip DRAM Size: 4 GiB Channels: 1 Width: 64-bit Data Race: 3200 MT/s
Heartbeat CPU 0 instructions: 10000001 cycles: 2500319 heartbeat IPC: 3.999 cumulative IPC: 3.999 (Simulation time: 00 hr 00 min 35 sec)
Heartbeat CPU 0 instructions: 20000002 cycles: 5037128 heartbeat IPC: 3.942 cumulative IPC: 3.971 (Simulation time: 00 hr 01 min 22 sec)
Heartbeat CPU 0 instructions: 30000002 cycles: 7537128 heartbeat IPC: 4 cumulative IPC: 3.98 (Simulation time: 00 hr 02 min 10 sec)
Heartbeat CPU 0 instructions: 40000002 cycles: 10037128 heartbeat IPC: 4 cumulative IPC: 3.985 (Simulation time: 00 hr 03 min 07 sec)
Heartbeat CPU 0 instructions: 50000002 cycles: 12537128 heartbeat IPC: 4 cumulative IPC: 3.988 (Simulation time: 00 hr 04 min 08 sec)
Warmup finished CPU 0 instructions: 50000002 cycles: 12537129 cumulative IPC: 3.988 (Simulation time: 00 hr 04 min 08 sec)
Warmup complete CPU 0 instructions: 50000002 cycles: 12537129 cumulative IPC: 3.988 (Simulation time: 00 hr 04 min 08 sec)
Heartbeat CPU 0 instructions: 60000000 cycles: 17711584 heartbeat IPC: 1.933 cumulative IPC: 1.933 (Simulation time: 00 hr 05 min 41 sec)
Heartbeat CPU 0 instructions: 70000002 cycles: 22609471 heartbeat IPC: 2.042 cumulative IPC: 1.986 (Simulation time: 00 hr 07 min 14 sec)
Heartbeat CPU 0 instructions: 80000001 cycles: 27969036 heartbeat IPC: 1.866 cumulative IPC: 1.944 (Simulation time: 00 hr 08 min 48 sec)
Heartbeat CPU 0 instructions: 90000001 cycles: 32845552 heartbeat IPC: 2.051 cumulative IPC: 1.97 (Simulation time: 00 hr 10 min 16 sec)
Heartbeat CPU 0 instructions: 100000000 cycles: 37958676 heartbeat IPC: 1.956 cumulative IPC: 1.967 (Simulation time: 00 hr 11 min 47 sec)
Heartbeat CPU 0 instructions: 110000000 cycles: 42840838 heartbeat IPC: 2.048 cumulative IPC: 1.98 (Simulation time: 00 hr 13 min 13 sec)
Heartbeat CPU 0 instructions: 120000001 cycles: 48036015 heartbeat IPC: 1.925 cumulative IPC: 1.972 (Simulation time: 00 hr 14 min 43 sec)
Heartbeat CPU 0 instructions: 130000001 cycles: 53190449 heartbeat IPC: 1.94 cumulative IPC: 1.968 (Simulation time: 00 hr 16 min 35 sec)
Heartbeat CPU 0 instructions: 140000001 cycles: 58513601 heartbeat IPC: 1.879 cumulative IPC: 1.958 (Simulation time: 00 hr 18 min 30 sec)
Heartbeat CPU 0 instructions: 150000001 cycles: 63839397 heartbeat IPC: 1.878 cumulative IPC: 1.949 (Simulation time: 00 hr 20 min 26 sec)
Heartbeat CPU 0 instructions: 160000004 cycles: 69055503 heartbeat IPC: 1.917 cumulative IPC: 1.946 (Simulation time: 00 hr 22 min 22 sec)
Heartbeat CPU 0 instructions: 170000000 cycles: 79833924 heartbeat IPC: 0.9278 cumulative IPC: 1.783 (Simulation time: 00 hr 25 min 36 sec)
Heartbeat CPU 0 instructions: 180000004 cycles: 91263280 heartbeat IPC: 0.8749 cumulative IPC: 1.651 (Simulation time: 00 hr 27 min 38 sec)
Heartbeat CPU 0 instructions: 190000001 cycles: 102640360 heartbeat IPC: 0.879 cumulative IPC: 1.554 (Simulation time: 00 hr 29 min 13 sec)
Heartbeat CPU 0 instructions: 200000003 cycles: 107441082 heartbeat IPC: 2.083 cumulative IPC: 1.581 (Simulation time: 00 hr 30 min 08 sec)
Heartbeat CPU 0 instructions: 210000001 cycles: 112393744 heartbeat IPC: 2.019 cumulative IPC: 1.602 (Simulation time: 00 hr 31 min 03 sec)
Heartbeat CPU 0 instructions: 220000000 cycles: 117244399 heartbeat IPC: 2.062 cumulative IPC: 1.624 (Simulation time: 00 hr 31 min 57 sec)
Heartbeat CPU 0 instructions: 230000002 cycles: 122617283 heartbeat IPC: 1.861 cumulative IPC: 1.635 (Simulation time: 00 hr 32 min 56 sec)
Heartbeat CPU 0 instructions: 240000000 cycles: 127504638 heartbeat IPC: 2.046 cumulative IPC: 1.653 (Simulation time: 00 hr 33 min 53 sec)
Heartbeat CPU 0 instructions: 250000000 cycles: 132692802 heartbeat IPC: 1.927 cumulative IPC: 1.665 (Simulation time: 00 hr 34 min 55 sec)
Heartbeat CPU 0 instructions: 260000000 cycles: 137752940 heartbeat IPC: 1.976 cumulative IPC: 1.677 (Simulation time: 00 hr 35 min 55 sec)
Heartbeat CPU 0 instructions: 270000002 cycles: 142659441 heartbeat IPC: 2.038 cumulative IPC: 1.691 (Simulation time: 00 hr 36 min 54 sec)
Heartbeat CPU 0 instructions: 280000002 cycles: 147593574 heartbeat IPC: 2.027 cumulative IPC: 1.703 (Simulation time: 00 hr 37 min 50 sec)
Heartbeat CPU 0 instructions: 290000001 cycles: 152982398 heartbeat IPC: 1.856 cumulative IPC: 1.709 (Simulation time: 00 hr 38 min 46 sec)
Heartbeat CPU 0 instructions: 300000003 cycles: 158078162 heartbeat IPC: 1.962 cumulative IPC: 1.718 (Simulation time: 00 hr 39 min 45 sec)
Heartbeat CPU 0 instructions: 310000001 cycles: 163406624 heartbeat IPC: 1.877 cumulative IPC: 1.723 (Simulation time: 00 hr 40 min 43 sec)
Heartbeat CPU 0 instructions: 320000003 cycles: 168645151 heartbeat IPC: 1.909 cumulative IPC: 1.73 (Simulation time: 00 hr 41 min 39 sec)
Heartbeat CPU 0 instructions: 330000003 cycles: 173983243 heartbeat IPC: 1.873 cumulative IPC: 1.734 (Simulation time: 00 hr 42 min 36 sec)
Heartbeat CPU 0 instructions: 340000000 cycles: 185369093 heartbeat IPC: 0.8783 cumulative IPC: 1.678 (Simulation time: 00 hr 44 min 16 sec)
Heartbeat CPU 0 instructions: 350000000 cycles: 197073431 heartbeat IPC: 0.8544 cumulative IPC: 1.626 (Simulation time: 00 hr 45 min 56 sec)
Heartbeat CPU 0 instructions: 360000004 cycles: 208628274 heartbeat IPC: 0.8654 cumulative IPC: 1.581 (Simulation time: 00 hr 47 min 35 sec)
Heartbeat CPU 0 instructions: 370000000 cycles: 213059574 heartbeat IPC: 2.257 cumulative IPC: 1.596 (Simulation time: 00 hr 48 min 30 sec)
Heartbeat CPU 0 instructions: 380000001 cycles: 218012969 heartbeat IPC: 2.019 cumulative IPC: 1.606 (Simulation time: 00 hr 49 min 23 sec)
Heartbeat CPU 0 instructions: 390000002 cycles: 222854689 heartbeat IPC: 2.065 cumulative IPC: 1.617 (Simulation time: 00 hr 50 min 18 sec)
Heartbeat CPU 0 instructions: 400000004 cycles: 227801879 heartbeat IPC: 2.021 cumulative IPC: 1.626 (Simulation time: 00 hr 51 min 17 sec)
Heartbeat CPU 0 instructions: 410000000 cycles: 232558873 heartbeat IPC: 2.102 cumulative IPC: 1.636 (Simulation time: 00 hr 52 min 15 sec)
Heartbeat CPU 0 instructions: 420000000 cycles: 237788343 heartbeat IPC: 1.912 cumulative IPC: 1.643 (Simulation time: 00 hr 53 min 13 sec)
Heartbeat CPU 0 instructions: 430000001 cycles: 242281808 heartbeat IPC: 2.225 cumulative IPC: 1.654 (Simulation time: 00 hr 54 min 07 sec)
Heartbeat CPU 0 instructions: 440000000 cycles: 247661575 heartbeat IPC: 1.859 cumulative IPC: 1.659 (Simulation time: 00 hr 55 min 08 sec)
Heartbeat CPU 0 instructions: 450000002 cycles: 252349594 heartbeat IPC: 2.133 cumulative IPC: 1.668 (Simulation time: 00 hr 56 min 04 sec)
Heartbeat CPU 0 instructions: 460000000 cycles: 257164319 heartbeat IPC: 2.077 cumulative IPC: 1.676 (Simulation time: 00 hr 56 min 59 sec)
Heartbeat CPU 0 instructions: 470000000 cycles: 262165218 heartbeat IPC: 2 cumulative IPC: 1.683 (Simulation time: 00 hr 57 min 57 sec)
Heartbeat CPU 0 instructions: 480000003 cycles: 267015266 heartbeat IPC: 2.062 cumulative IPC: 1.69 (Simulation time: 00 hr 58 min 55 sec)
Heartbeat CPU 0 instructions: 490000000 cycles: 271641186 heartbeat IPC: 2.162 cumulative IPC: 1.698 (Simulation time: 00 hr 59 min 50 sec)
Heartbeat CPU 0 instructions: 500000000 cycles: 276682212 heartbeat IPC: 1.984 cumulative IPC: 1.704 (Simulation time: 01 hr 00 min 45 sec)
Heartbeat CPU 0 instructions: 510000003 cycles: 282409871 heartbeat IPC: 1.746 cumulative IPC: 1.705 (Simulation time: 01 hr 01 min 47 sec)
Heartbeat CPU 0 instructions: 520000001 cycles: 287127638 heartbeat IPC: 2.12 cumulative IPC: 1.712 (Simulation time: 01 hr 02 min 47 sec)
Heartbeat CPU 0 instructions: 530000002 cycles: 292330935 heartbeat IPC: 1.922 cumulative IPC: 1.716 (Simulation time: 01 hr 03 min 46 sec)
Heartbeat CPU 0 instructions: 540000000 cycles: 297466543 heartbeat IPC: 1.947 cumulative IPC: 1.72 (Simulation time: 01 hr 04 min 42 sec)
Heartbeat CPU 0 instructions: 550000001 cycles: 302293924 heartbeat IPC: 2.072 cumulative IPC: 1.726 (Simulation time: 01 hr 05 min 37 sec)
Heartbeat CPU 0 instructions: 560000000 cycles: 307647126 heartbeat IPC: 1.868 cumulative IPC: 1.728 (Simulation time: 01 hr 06 min 35 sec)
Heartbeat CPU 0 instructions: 570000004 cycles: 315045021 heartbeat IPC: 1.352 cumulative IPC: 1.719 (Simulation time: 01 hr 07 min 46 sec)
Heartbeat CPU 0 instructions: 580000003 cycles: 327785537 heartbeat IPC: 0.7849 cumulative IPC: 1.681 (Simulation time: 01 hr 09 min 30 sec)
Heartbeat CPU 0 instructions: 590000002 cycles: 342212792 heartbeat IPC: 0.6931 cumulative IPC: 1.638 (Simulation time: 01 hr 11 min 24 sec)
Heartbeat CPU 0 instructions: 600000000 cycles: 346828825 heartbeat IPC: 2.166 cumulative IPC: 1.645 (Simulation time: 01 hr 12 min 18 sec)
Heartbeat CPU 0 instructions: 610000002 cycles: 351339567 heartbeat IPC: 2.217 cumulative IPC: 1.653 (Simulation time: 01 hr 13 min 12 sec)
Heartbeat CPU 0 instructions: 620000000 cycles: 356157480 heartbeat IPC: 2.076 cumulative IPC: 1.659 (Simulation time: 01 hr 14 min 05 sec)
Heartbeat CPU 0 instructions: 630000002 cycles: 361263605 heartbeat IPC: 1.958 cumulative IPC: 1.663 (Simulation time: 01 hr 14 min 57 sec)
Heartbeat CPU 0 instructions: 640000001 cycles: 366126283 heartbeat IPC: 2.056 cumulative IPC: 1.669 (Simulation time: 01 hr 15 min 48 sec)
Heartbeat CPU 0 instructions: 650000000 cycles: 370690678 heartbeat IPC: 2.191 cumulative IPC: 1.675 (Simulation time: 01 hr 16 min 29 sec)
Simulation finished CPU 0 instructions: 600000001 cycles: 358153551 cumulative IPC: 1.675 (Simulation time: 01 hr 16 min 29 sec)
Simulation complete CPU 0 instructions: 600000001 cycles: 358153551 cumulative IPC: 1.675 (Simulation time: 01 hr 16 min 29 sec)

ChampSim completed all CPUs

=== Simulation ===
CPU 0 runs traces/400.perlbench-41B.champsimtrace.xz
Region of Interest Statistics

CPU 0 cumulative IPC: 1.675 instructions: 600000001 cycles: 358153551
CPU 0 Branch Prediction Accuracy: 93.95% MPKI: 12.5 Average ROB Occupancy at Mispredict: 29.61
Branch type MPKI
BRANCH_DIRECT_JUMP: 0.0123
BRANCH_INDIRECT: 0.323
BRANCH_CONDITIONAL: 12
BRANCH_DIRECT_CALL: 0.0043
BRANCH_INDIRECT_CALL: 0.2
BRANCH_RETURN: 0.00828

LLC TOTAL        ACCESS:     937945 HIT:     431917 MISS:     506028
LLC LOAD         ACCESS:     400115 HIT:     169878 MISS:     230237
LLC RFO          ACCESS:      32687 HIT:      15813 MISS:      16874
LLC PREFETCH     ACCESS:     400115 HIT:     166824 MISS:     233291
LLC WRITE        ACCESS:      86159 HIT:      72447 MISS:      13712
LLC TRANSLATION  ACCESS:      18869 HIT:       6955 MISS:      11914
LLC PREFETCH REQUESTED:     400115 ISSUED:     400115 USEFUL:      55295 USELESS:      52224
LLC AVERAGE MISS LATENCY: 559.4 cycles
cpu0_DTLB TOTAL        ACCESS:  153668504 HIT:  152990576 MISS:     677928
cpu0_DTLB LOAD         ACCESS:  153668504 HIT:  152990576 MISS:     677928
cpu0_DTLB RFO          ACCESS:          0 HIT:          0 MISS:          0
cpu0_DTLB PREFETCH     ACCESS:          0 HIT:          0 MISS:          0
cpu0_DTLB WRITE        ACCESS:          0 HIT:          0 MISS:          0
cpu0_DTLB TRANSLATION  ACCESS:          0 HIT:          0 MISS:          0
cpu0_DTLB PREFETCH REQUESTED:          0 ISSUED:          0 USEFUL:          0 USELESS:          0
cpu0_DTLB AVERAGE MISS LATENCY: 18.86 cycles
cpu0_ITLB TOTAL        ACCESS:    4833849 HIT:    4775951 MISS:      57898
cpu0_ITLB LOAD         ACCESS:    4833849 HIT:    4775951 MISS:      57898
cpu0_ITLB RFO          ACCESS:          0 HIT:          0 MISS:          0
cpu0_ITLB PREFETCH     ACCESS:          0 HIT:          0 MISS:          0
cpu0_ITLB WRITE        ACCESS:          0 HIT:          0 MISS:          0
cpu0_ITLB TRANSLATION  ACCESS:          0 HIT:          0 MISS:          0
cpu0_ITLB PREFETCH REQUESTED:          0 ISSUED:          0 USEFUL:          0 USELESS:          0
cpu0_ITLB AVERAGE MISS LATENCY: 8.504 cycles
cpu0_L1D TOTAL        ACCESS:  200287339 HIT:  198916843 MISS:    1370496
cpu0_L1D LOAD         ACCESS:  117043555 HIT:  115989512 MISS:    1054043
cpu0_L1D RFO          ACCESS:          0 HIT:          0 MISS:          0
cpu0_L1D PREFETCH     ACCESS:          0 HIT:          0 MISS:          0
cpu0_L1D WRITE        ACCESS:   83219326 HIT:   82925759 MISS:     293567
cpu0_L1D TRANSLATION  ACCESS:      24458 HIT:       1572 MISS:      22886
cpu0_L1D PREFETCH REQUESTED:          0 ISSUED:          0 USEFUL:          0 USELESS:          0
cpu0_L1D AVERAGE MISS LATENCY: 118.7 cycles
cpu0_L1I TOTAL        ACCESS:    5576338 HIT:    4814982 MISS:     761356
cpu0_L1I LOAD         ACCESS:    5576338 HIT:    4814982 MISS:     761356
cpu0_L1I RFO          ACCESS:          0 HIT:          0 MISS:          0
cpu0_L1I PREFETCH     ACCESS:          0 HIT:          0 MISS:          0
cpu0_L1I WRITE        ACCESS:          0 HIT:          0 MISS:          0
cpu0_L1I TRANSLATION  ACCESS:          0 HIT:          0 MISS:          0
cpu0_L1I PREFETCH REQUESTED:          0 ISSUED:          0 USEFUL:          0 USELESS:          0
cpu0_L1I AVERAGE MISS LATENCY: 15.74 cycles
cpu0_L2C TOTAL        ACCESS:    1382388 HIT:     927193 MISS:     455195
cpu0_L2C LOAD         ACCESS:    1125644 HIT:     725529 MISS:     400115
cpu0_L2C RFO          ACCESS:      63893 HIT:      31206 MISS:      32687
cpu0_L2C PREFETCH     ACCESS:          0 HIT:          0 MISS:          0
cpu0_L2C WRITE        ACCESS:     170044 HIT:     166520 MISS:       3524
cpu0_L2C TRANSLATION  ACCESS:      22807 HIT:       3938 MISS:      18869
cpu0_L2C PREFETCH REQUESTED:          0 ISSUED:          0 USEFUL:          0 USELESS:          0
cpu0_L2C AVERAGE MISS LATENCY: 367.9 cycles
cpu0_STLB TOTAL        ACCESS:     505171 HIT:     482382 MISS:      22789
cpu0_STLB LOAD         ACCESS:     505171 HIT:     482382 MISS:      22789
cpu0_STLB RFO          ACCESS:          0 HIT:          0 MISS:          0
cpu0_STLB PREFETCH     ACCESS:          0 HIT:          0 MISS:          0
cpu0_STLB WRITE        ACCESS:          0 HIT:          0 MISS:          0
cpu0_STLB TRANSLATION  ACCESS:          0 HIT:          0 MISS:          0
cpu0_STLB PREFETCH REQUESTED:          0 ISSUED:          0 USEFUL:          0 USELESS:          0
cpu0_STLB AVERAGE MISS LATENCY: 446.2 cycles

DRAM Statistics

Channel 0 RQ ROW_BUFFER_HIT:      84464
  ROW_BUFFER_MISS:     340129
 AVG DBUS CONGESTED CYCLE: 3.866
WQ ROW_BUFFER_HIT: Channel 0 
  ROW_BUFFER_MISS:       6425
  FULL:      39766
