WARNING: physical memory size is smaller than virtual memory size.

*** ChampSim Multicore Out-of-Order Simulator ***
Warmup Instructions: 50000000
Simulation Instructions: 600000000
Number of CPUs: 1
Page size: 4096

CPU 0 Tage branch predictor
Off-chip DRAM Size: 4 GiB Channels: 1 Width: 64-bit Data Race: 3200 MT/s
Heartbeat CPU 0 instructions: 10000001 cycles: 2500318 heartbeat IPC: 3.999 cumulative IPC: 3.999 (Simulation time: 00 hr 01 min 18 sec)
Heartbeat CPU 0 instructions: 20000002 cycles: 5037140 heartbeat IPC: 3.942 cumulative IPC: 3.971 (Simulation time: 00 hr 02 min 31 sec)
Heartbeat CPU 0 instructions: 30000002 cycles: 7537140 heartbeat IPC: 4 cumulative IPC: 3.98 (Simulation time: 00 hr 03 min 32 sec)
Heartbeat CPU 0 instructions: 40000002 cycles: 10037140 heartbeat IPC: 4 cumulative IPC: 3.985 (Simulation time: 00 hr 04 min 30 sec)
Heartbeat CPU 0 instructions: 50000002 cycles: 12537140 heartbeat IPC: 4 cumulative IPC: 3.988 (Simulation time: 00 hr 05 min 32 sec)
Warmup finished CPU 0 instructions: 50000002 cycles: 12537141 cumulative IPC: 3.988 (Simulation time: 00 hr 05 min 32 sec)
Warmup complete CPU 0 instructions: 50000002 cycles: 12537141 cumulative IPC: 3.988 (Simulation time: 00 hr 05 min 32 sec)
Heartbeat CPU 0 instructions: 60000001 cycles: 15531573 heartbeat IPC: 3.34 cumulative IPC: 3.34 (Simulation time: 00 hr 06 min 53 sec)
Heartbeat CPU 0 instructions: 70000004 cycles: 18624907 heartbeat IPC: 3.233 cumulative IPC: 3.285 (Simulation time: 00 hr 08 min 06 sec)
Heartbeat CPU 0 instructions: 80000001 cycles: 21689898 heartbeat IPC: 3.263 cumulative IPC: 3.278 (Simulation time: 00 hr 09 min 18 sec)
Heartbeat CPU 0 instructions: 90000001 cycles: 24651727 heartbeat IPC: 3.376 cumulative IPC: 3.302 (Simulation time: 00 hr 10 min 31 sec)
Heartbeat CPU 0 instructions: 100000000 cycles: 27584453 heartbeat IPC: 3.41 cumulative IPC: 3.323 (Simulation time: 00 hr 11 min 56 sec)
Heartbeat CPU 0 instructions: 110000000 cycles: 30548983 heartbeat IPC: 3.373 cumulative IPC: 3.331 (Simulation time: 00 hr 13 min 33 sec)
Heartbeat CPU 0 instructions: 120000001 cycles: 33540254 heartbeat IPC: 3.343 cumulative IPC: 3.333 (Simulation time: 00 hr 14 min 56 sec)
Heartbeat CPU 0 instructions: 130000001 cycles: 36419611 heartbeat IPC: 3.473 cumulative IPC: 3.35 (Simulation time: 00 hr 16 min 14 sec)
Heartbeat CPU 0 instructions: 140000001 cycles: 39494774 heartbeat IPC: 3.252 cumulative IPC: 3.339 (Simulation time: 00 hr 17 min 31 sec)
Heartbeat CPU 0 instructions: 150000001 cycles: 42525123 heartbeat IPC: 3.3 cumulative IPC: 3.335 (Simulation time: 00 hr 18 min 54 sec)
Heartbeat CPU 0 instructions: 160000004 cycles: 45566008 heartbeat IPC: 3.289 cumulative IPC: 3.33 (Simulation time: 00 hr 20 min 08 sec)
Heartbeat CPU 0 instructions: 170000000 cycles: 52029480 heartbeat IPC: 1.547 cumulative IPC: 3.039 (Simulation time: 00 hr 21 min 55 sec)
Heartbeat CPU 0 instructions: 180000004 cycles: 59407895 heartbeat IPC: 1.355 cumulative IPC: 2.774 (Simulation time: 00 hr 23 min 42 sec)
Heartbeat CPU 0 instructions: 190000001 cycles: 68887492 heartbeat IPC: 1.055 cumulative IPC: 2.484 (Simulation time: 00 hr 26 min 06 sec)
Heartbeat CPU 0 instructions: 200000004 cycles: 71866728 heartbeat IPC: 3.357 cumulative IPC: 2.528 (Simulation time: 00 hr 27 min 34 sec)
Heartbeat CPU 0 instructions: 210000001 cycles: 74834927 heartbeat IPC: 3.369 cumulative IPC: 2.568 (Simulation time: 00 hr 28 min 53 sec)
Heartbeat CPU 0 instructions: 220000000 cycles: 77732266 heartbeat IPC: 3.451 cumulative IPC: 2.608 (Simulation time: 00 hr 30 min 06 sec)
Heartbeat CPU 0 instructions: 230000002 cycles: 80775632 heartbeat IPC: 3.286 cumulative IPC: 2.638 (Simulation time: 00 hr 31 min 20 sec)
Heartbeat CPU 0 instructions: 240000003 cycles: 83836734 heartbeat IPC: 3.267 cumulative IPC: 2.665 (Simulation time: 00 hr 32 min 41 sec)
Heartbeat CPU 0 instructions: 250000000 cycles: 86876215 heartbeat IPC: 3.29 cumulative IPC: 2.69 (Simulation time: 00 hr 33 min 57 sec)
Heartbeat CPU 0 instructions: 260000002 cycles: 89866128 heartbeat IPC: 3.345 cumulative IPC: 2.716 (Simulation time: 00 hr 35 min 07 sec)
Heartbeat CPU 0 instructions: 270000002 cycles: 92791914 heartbeat IPC: 3.418 cumulative IPC: 2.741 (Simulation time: 00 hr 36 min 15 sec)
Heartbeat CPU 0 instructions: 280000002 cycles: 95699145 heartbeat IPC: 3.44 cumulative IPC: 2.766 (Simulation time: 00 hr 37 min 25 sec)
Heartbeat CPU 0 instructions: 290000002 cycles: 98675684 heartbeat IPC: 3.36 cumulative IPC: 2.786 (Simulation time: 00 hr 38 min 55 sec)
Heartbeat CPU 0 instructions: 300000003 cycles: 101603807 heartbeat IPC: 3.415 cumulative IPC: 2.807 (Simulation time: 00 hr 40 min 23 sec)
Heartbeat CPU 0 instructions: 310000001 cycles: 104664944 heartbeat IPC: 3.267 cumulative IPC: 2.822 (Simulation time: 00 hr 41 min 43 sec)
Heartbeat CPU 0 instructions: 320000003 cycles: 107689282 heartbeat IPC: 3.307 cumulative IPC: 2.838 (Simulation time: 00 hr 42 min 58 sec)
Heartbeat CPU 0 instructions: 330000003 cycles: 110710444 heartbeat IPC: 3.31 cumulative IPC: 2.852 (Simulation time: 00 hr 44 min 10 sec)
Heartbeat CPU 0 instructions: 340000000 cycles: 117444441 heartbeat IPC: 1.485 cumulative IPC: 2.764 (Simulation time: 00 hr 45 min 59 sec)
Heartbeat CPU 0 instructions: 350000000 cycles: 125303846 heartbeat IPC: 1.272 cumulative IPC: 2.66 (Simulation time: 00 hr 47 min 52 sec)
Heartbeat CPU 0 instructions: 360000004 cycles: 134451412 heartbeat IPC: 1.093 cumulative IPC: 2.543 (Simulation time: 00 hr 49 min 58 sec)
Heartbeat CPU 0 instructions: 370000000 cycles: 137432547 heartbeat IPC: 3.354 cumulative IPC: 2.562 (Simulation time: 00 hr 51 min 23 sec)
Heartbeat CPU 0 instructions: 380000003 cycles: 140361073 heartbeat IPC: 3.415 cumulative IPC: 2.582 (Simulation time: 00 hr 52 min 58 sec)
Heartbeat CPU 0 instructions: 390000002 cycles: 143344650 heartbeat IPC: 3.352 cumulative IPC: 2.599 (Simulation time: 00 hr 54 min 19 sec)
Heartbeat CPU 0 instructions: 400000004 cycles: 146253772 heartbeat IPC: 3.437 cumulative IPC: 2.617 (Simulation time: 00 hr 55 min 34 sec)
Heartbeat CPU 0 instructions: 410000002 cycles: 149211589 heartbeat IPC: 3.381 cumulative IPC: 2.634 (Simulation time: 00 hr 56 min 43 sec)
Heartbeat CPU 0 instructions: 420000003 cycles: 152364165 heartbeat IPC: 3.172 cumulative IPC: 2.646 (Simulation time: 00 hr 58 min 02 sec)
Heartbeat CPU 0 instructions: 430000001 cycles: 155406979 heartbeat IPC: 3.286 cumulative IPC: 2.66 (Simulation time: 00 hr 59 min 17 sec)
Heartbeat CPU 0 instructions: 440000004 cycles: 158561082 heartbeat IPC: 3.17 cumulative IPC: 2.671 (Simulation time: 01 hr 00 min 33 sec)
Heartbeat CPU 0 instructions: 450000002 cycles: 161497637 heartbeat IPC: 3.405 cumulative IPC: 2.685 (Simulation time: 01 hr 01 min 43 sec)
Heartbeat CPU 0 instructions: 460000000 cycles: 164450279 heartbeat IPC: 3.387 cumulative IPC: 2.699 (Simulation time: 01 hr 02 min 53 sec)
Heartbeat CPU 0 instructions: 470000001 cycles: 167319358 heartbeat IPC: 3.485 cumulative IPC: 2.713 (Simulation time: 01 hr 04 min 22 sec)
Heartbeat CPU 0 instructions: 480000003 cycles: 170430029 heartbeat IPC: 3.215 cumulative IPC: 2.723 (Simulation time: 01 hr 05 min 47 sec)
Heartbeat CPU 0 instructions: 490000004 cycles: 173269091 heartbeat IPC: 3.522 cumulative IPC: 2.737 (Simulation time: 01 hr 07 min 03 sec)
Heartbeat CPU 0 instructions: 500000004 cycles: 176264045 heartbeat IPC: 3.339 cumulative IPC: 2.748 (Simulation time: 01 hr 08 min 14 sec)
Heartbeat CPU 0 instructions: 510000003 cycles: 179380468 heartbeat IPC: 3.209 cumulative IPC: 2.757 (Simulation time: 01 hr 09 min 25 sec)
Heartbeat CPU 0 instructions: 520000001 cycles: 182284891 heartbeat IPC: 3.443 cumulative IPC: 2.769 (Simulation time: 01 hr 10 min 39 sec)
Heartbeat CPU 0 instructions: 530000001 cycles: 185350648 heartbeat IPC: 3.262 cumulative IPC: 2.778 (Simulation time: 01 hr 11 min 50 sec)
Heartbeat CPU 0 instructions: 540000000 cycles: 188324481 heartbeat IPC: 3.363 cumulative IPC: 2.787 (Simulation time: 01 hr 12 min 58 sec)
Heartbeat CPU 0 instructions: 550000001 cycles: 191321610 heartbeat IPC: 3.337 cumulative IPC: 2.797 (Simulation time: 01 hr 14 min 05 sec)
Heartbeat CPU 0 instructions: 560000000 cycles: 194509782 heartbeat IPC: 3.137 cumulative IPC: 2.803 (Simulation time: 01 hr 15 min 11 sec)
Heartbeat CPU 0 instructions: 570000004 cycles: 199946311 heartbeat IPC: 1.839 cumulative IPC: 2.775 (Simulation time: 01 hr 16 min 46 sec)
Heartbeat CPU 0 instructions: 580000003 cycles: 206008306 heartbeat IPC: 1.65 cumulative IPC: 2.739 (Simulation time: 01 hr 18 min 45 sec)
Heartbeat CPU 0 instructions: 590000002 cycles: 218065249 heartbeat IPC: 0.8294 cumulative IPC: 2.627 (Simulation time: 01 hr 21 min 23 sec)
Heartbeat CPU 0 instructions: 600000004 cycles: 221213655 heartbeat IPC: 3.176 cumulative IPC: 2.636 (Simulation time: 01 hr 22 min 32 sec)
Heartbeat CPU 0 instructions: 610000002 cycles: 224190826 heartbeat IPC: 3.359 cumulative IPC: 2.646 (Simulation time: 01 hr 23 min 44 sec)
Heartbeat CPU 0 instructions: 620000001 cycles: 226967442 heartbeat IPC: 3.602 cumulative IPC: 2.658 (Simulation time: 01 hr 24 min 53 sec)
Heartbeat CPU 0 instructions: 630000002 cycles: 229944644 heartbeat IPC: 3.359 cumulative IPC: 2.668 (Simulation time: 01 hr 26 min 01 sec)
Heartbeat CPU 0 instructions: 640000004 cycles: 232898106 heartbeat IPC: 3.386 cumulative IPC: 2.677 (Simulation time: 01 hr 27 min 07 sec)
Heartbeat CPU 0 instructions: 650000000 cycles: 235653372 heartbeat IPC: 3.629 cumulative IPC: 2.689 (Simulation time: 01 hr 28 min 10 sec)
Simulation finished CPU 0 instructions: 600000001 cycles: 223116233 cumulative IPC: 2.689 (Simulation time: 01 hr 28 min 10 sec)
Simulation complete CPU 0 instructions: 600000001 cycles: 223116233 cumulative IPC: 2.689 (Simulation time: 01 hr 28 min 10 sec)

ChampSim completed all CPUs

=== Simulation ===
CPU 0 runs traces/400.perlbench-41B.champsimtrace.xz
Region of Interest Statistics

CPU 0 cumulative IPC: 2.689 instructions: 600000001 cycles: 223116233
CPU 0 Branch Prediction Accuracy: 99.19% MPKI: 1.684 Average ROB Occupancy at Mispredict: 102.2
Branch type MPKI
BRANCH_DIRECT_JUMP: 0.0123
BRANCH_INDIRECT: 0.323
BRANCH_CONDITIONAL: 1.14
BRANCH_DIRECT_CALL: 0.0043
BRANCH_INDIRECT_CALL: 0.2
BRANCH_RETURN: 0.00828

LLC TOTAL        ACCESS:     592792 HIT:     313622 MISS:     279170
LLC LOAD         ACCESS:     402470 HIT:     209631 MISS:     192839
LLC RFO          ACCESS:      32386 HIT:      16232 MISS:      16154
LLC PREFETCH     ACCESS:      53303 HIT:      29511 MISS:      23792
LLC WRITE        ACCESS:      85751 HIT:      54426 MISS:      31325
LLC TRANSLATION  ACCESS:      18882 HIT:       3822 MISS:      15060
LLC PREFETCH REQUESTED:      53303 ISSUED:      53303 USEFUL:      13129 USELESS:       7569
LLC AVERAGE MISS LATENCY: 575.5 cycles
cpu0_DTLB TOTAL        ACCESS:  129750980 HIT:  129045963 MISS:     705017
cpu0_DTLB LOAD         ACCESS:  129750980 HIT:  129045963 MISS:     705017
cpu0_DTLB RFO          ACCESS:          0 HIT:          0 MISS:          0
cpu0_DTLB PREFETCH     ACCESS:          0 HIT:          0 MISS:          0
cpu0_DTLB WRITE        ACCESS:          0 HIT:          0 MISS:          0
cpu0_DTLB TRANSLATION  ACCESS:          0 HIT:          0 MISS:          0
cpu0_DTLB PREFETCH REQUESTED:          0 ISSUED:          0 USEFUL:          0 USELESS:          0
cpu0_DTLB AVERAGE MISS LATENCY: 19.47 cycles
cpu0_ITLB TOTAL        ACCESS:    4876382 HIT:    4814180 MISS:      62202
cpu0_ITLB LOAD         ACCESS:    4876382 HIT:    4814180 MISS:      62202
cpu0_ITLB RFO          ACCESS:          0 HIT:          0 MISS:          0
cpu0_ITLB PREFETCH     ACCESS:          0 HIT:          0 MISS:          0
cpu0_ITLB WRITE        ACCESS:          0 HIT:          0 MISS:          0
cpu0_ITLB TRANSLATION  ACCESS:          0 HIT:          0 MISS:          0
cpu0_ITLB PREFETCH REQUESTED:          0 ISSUED:          0 USEFUL:          0 USELESS:          0
cpu0_ITLB AVERAGE MISS LATENCY: 6.547 cycles
cpu0_L1D TOTAL        ACCESS:  174353081 HIT:  172953383 MISS:    1399698
cpu0_L1D LOAD         ACCESS:   91330201 HIT:   90248276 MISS:    1081925
cpu0_L1D RFO          ACCESS:          0 HIT:          0 MISS:          0
cpu0_L1D PREFETCH     ACCESS:          0 HIT:          0 MISS:          0
cpu0_L1D WRITE        ACCESS:   82998422 HIT:   82703517 MISS:     294905
cpu0_L1D TRANSLATION  ACCESS:      24458 HIT:       1590 MISS:      22868
cpu0_L1D PREFETCH REQUESTED:          0 ISSUED:          0 USEFUL:          0 USELESS:          0
cpu0_L1D AVERAGE MISS LATENCY: 101.4 cycles
cpu0_L1I TOTAL        ACCESS:    5655538 HIT:    4851331 MISS:     804207
cpu0_L1I LOAD         ACCESS:    5655538 HIT:    4851331 MISS:     804207
cpu0_L1I RFO          ACCESS:          0 HIT:          0 MISS:          0
cpu0_L1I PREFETCH     ACCESS:          0 HIT:          0 MISS:          0
cpu0_L1I WRITE        ACCESS:          0 HIT:          0 MISS:          0
cpu0_L1I TRANSLATION  ACCESS:          0 HIT:          0 MISS:          0
cpu0_L1I PREFETCH REQUESTED:          0 ISSUED:          0 USEFUL:          0 USELESS:          0
cpu0_L1I AVERAGE MISS LATENCY: 17.25 cycles
cpu0_L2C TOTAL        ACCESS:    1381458 HIT:     923977 MISS:     457481
cpu0_L2C LOAD         ACCESS:    1124016 HIT:     721545 MISS:     402471
cpu0_L2C RFO          ACCESS:      64457 HIT:      32071 MISS:      32386
cpu0_L2C PREFETCH     ACCESS:          0 HIT:          0 MISS:          0
cpu0_L2C WRITE        ACCESS:     170210 HIT:     166468 MISS:       3742
cpu0_L2C TRANSLATION  ACCESS:      22775 HIT:       3893 MISS:      18882
cpu0_L2C PREFETCH REQUESTED:          0 ISSUED:          0 USEFUL:          0 USELESS:          0
cpu0_L2C AVERAGE MISS LATENCY: 335.5 cycles
cpu0_STLB TOTAL        ACCESS:     508905 HIT:     486120 MISS:      22785
cpu0_STLB LOAD         ACCESS:     508905 HIT:     486120 MISS:      22785
cpu0_STLB RFO          ACCESS:          0 HIT:          0 MISS:          0
cpu0_STLB PREFETCH     ACCESS:          0 HIT:          0 MISS:          0
cpu0_STLB WRITE        ACCESS:          0 HIT:          0 MISS:          0
cpu0_STLB TRANSLATION  ACCESS:          0 HIT:          0 MISS:          0
cpu0_STLB PREFETCH REQUESTED:          0 ISSUED:          0 USEFUL:          0 USELESS:          0
cpu0_STLB AVERAGE MISS LATENCY: 509.4 cycles

DRAM Statistics

Channel 0 RQ ROW_BUFFER_HIT:      38491
  ROW_BUFFER_MISS:     204549
 AVG DBUS CONGESTED CYCLE: 3.85
WQ ROW_BUFFER_HIT: Channel 0 
  ROW_BUFFER_MISS:       7181
  FULL:      32627
