WARNING: physical memory size is smaller than virtual memory size.

*** ChampSim Multicore Out-of-Order Simulator ***
Warmup Instructions: 50000000
Simulation Instructions: 600000000
Number of CPUs: 1
Page size: 4096

Off-chip DRAM Size: 4 GiB Channels: 1 Width: 64-bit Data Race: 3200 MT/s
Heartbeat CPU 0 instructions: 10000000 cycles: 2500061 heartbeat IPC: 4 cumulative IPC: 4 (Simulation time: 00 hr 00 min 50 sec)
Heartbeat CPU 0 instructions: 20000000 cycles: 5000061 heartbeat IPC: 4 cumulative IPC: 4 (Simulation time: 00 hr 01 min 52 sec)
Heartbeat CPU 0 instructions: 30000000 cycles: 7500061 heartbeat IPC: 4 cumulative IPC: 4 (Simulation time: 00 hr 02 min 53 sec)
Heartbeat CPU 0 instructions: 40000000 cycles: 10000061 heartbeat IPC: 4 cumulative IPC: 4 (Simulation time: 00 hr 03 min 43 sec)
Heartbeat CPU 0 instructions: 50000000 cycles: 12500061 heartbeat IPC: 4 cumulative IPC: 4 (Simulation time: 00 hr 04 min 32 sec)
Warmup finished CPU 0 instructions: 50000000 cycles: 12500062 cumulative IPC: 4 (Simulation time: 00 hr 04 min 32 sec)
Warmup complete CPU 0 instructions: 50000000 cycles: 12500062 cumulative IPC: 4 (Simulation time: 00 hr 04 min 32 sec)
Heartbeat CPU 0 instructions: 60000002 cycles: 16911341 heartbeat IPC: 2.267 cumulative IPC: 2.267 (Simulation time: 00 hr 05 min 44 sec)
Heartbeat CPU 0 instructions: 70000003 cycles: 21897820 heartbeat IPC: 2.005 cumulative IPC: 2.128 (Simulation time: 00 hr 07 min 00 sec)
Heartbeat CPU 0 instructions: 80000001 cycles: 27247190 heartbeat IPC: 1.869 cumulative IPC: 2.034 (Simulation time: 00 hr 08 min 19 sec)
Heartbeat CPU 0 instructions: 90000000 cycles: 31546012 heartbeat IPC: 2.326 cumulative IPC: 2.1 (Simulation time: 00 hr 09 min 29 sec)
Heartbeat CPU 0 instructions: 100000003 cycles: 36406147 heartbeat IPC: 2.058 cumulative IPC: 2.092 (Simulation time: 00 hr 10 min 44 sec)
Heartbeat CPU 0 instructions: 110000002 cycles: 41284204 heartbeat IPC: 2.05 cumulative IPC: 2.084 (Simulation time: 00 hr 11 min 58 sec)
Heartbeat CPU 0 instructions: 120000001 cycles: 46280693 heartbeat IPC: 2.001 cumulative IPC: 2.072 (Simulation time: 00 hr 13 min 15 sec)
Heartbeat CPU 0 instructions: 130000003 cycles: 50851474 heartbeat IPC: 2.188 cumulative IPC: 2.086 (Simulation time: 00 hr 14 min 27 sec)
Heartbeat CPU 0 instructions: 140000002 cycles: 55744742 heartbeat IPC: 2.044 cumulative IPC: 2.081 (Simulation time: 00 hr 15 min 42 sec)
Heartbeat CPU 0 instructions: 150000001 cycles: 60416524 heartbeat IPC: 2.141 cumulative IPC: 2.087 (Simulation time: 00 hr 16 min 59 sec)
Heartbeat CPU 0 instructions: 160000000 cycles: 65057180 heartbeat IPC: 2.155 cumulative IPC: 2.093 (Simulation time: 00 hr 18 min 12 sec)
Heartbeat CPU 0 instructions: 170000000 cycles: 70394497 heartbeat IPC: 1.874 cumulative IPC: 2.073 (Simulation time: 00 hr 19 min 31 sec)
Heartbeat CPU 0 instructions: 180000001 cycles: 76116472 heartbeat IPC: 1.748 cumulative IPC: 2.043 (Simulation time: 00 hr 20 min 53 sec)
Heartbeat CPU 0 instructions: 190000002 cycles: 80593267 heartbeat IPC: 2.234 cumulative IPC: 2.056 (Simulation time: 00 hr 22 min 05 sec)
Heartbeat CPU 0 instructions: 200000002 cycles: 85503685 heartbeat IPC: 2.036 cumulative IPC: 2.055 (Simulation time: 00 hr 23 min 21 sec)
Heartbeat CPU 0 instructions: 210000000 cycles: 90509961 heartbeat IPC: 1.997 cumulative IPC: 2.051 (Simulation time: 00 hr 24 min 37 sec)
Heartbeat CPU 0 instructions: 220000001 cycles: 95435925 heartbeat IPC: 2.03 cumulative IPC: 2.05 (Simulation time: 00 hr 25 min 52 sec)
Heartbeat CPU 0 instructions: 230000002 cycles: 100684992 heartbeat IPC: 1.905 cumulative IPC: 2.041 (Simulation time: 00 hr 27 min 11 sec)
Heartbeat CPU 0 instructions: 240000001 cycles: 105652106 heartbeat IPC: 2.013 cumulative IPC: 2.04 (Simulation time: 00 hr 28 min 26 sec)
Heartbeat CPU 0 instructions: 250000003 cycles: 110840378 heartbeat IPC: 1.927 cumulative IPC: 2.034 (Simulation time: 00 hr 29 min 43 sec)
Heartbeat CPU 0 instructions: 260000001 cycles: 115702940 heartbeat IPC: 2.057 cumulative IPC: 2.035 (Simulation time: 00 hr 30 min 58 sec)
Heartbeat CPU 0 instructions: 270000000 cycles: 123412770 heartbeat IPC: 1.297 cumulative IPC: 1.984 (Simulation time: 00 hr 32 min 42 sec)
Heartbeat CPU 0 instructions: 280000000 cycles: 134603058 heartbeat IPC: 0.8936 cumulative IPC: 1.884 (Simulation time: 00 hr 35 min 02 sec)
Heartbeat CPU 0 instructions: 290000001 cycles: 144836510 heartbeat IPC: 0.9772 cumulative IPC: 1.814 (Simulation time: 00 hr 37 min 12 sec)
Heartbeat CPU 0 instructions: 300000003 cycles: 152431258 heartbeat IPC: 1.317 cumulative IPC: 1.787 (Simulation time: 00 hr 39 min 00 sec)
Heartbeat CPU 0 instructions: 310000004 cycles: 163628723 heartbeat IPC: 0.8931 cumulative IPC: 1.72 (Simulation time: 00 hr 41 min 21 sec)
Heartbeat CPU 0 instructions: 320000004 cycles: 169345070 heartbeat IPC: 1.749 cumulative IPC: 1.721 (Simulation time: 00 hr 42 min 48 sec)
Heartbeat CPU 0 instructions: 330000000 cycles: 174588488 heartbeat IPC: 1.907 cumulative IPC: 1.727 (Simulation time: 00 hr 44 min 07 sec)
Heartbeat CPU 0 instructions: 340000001 cycles: 179497673 heartbeat IPC: 2.037 cumulative IPC: 1.737 (Simulation time: 00 hr 45 min 23 sec)
Heartbeat CPU 0 instructions: 350000000 cycles: 184664355 heartbeat IPC: 1.935 cumulative IPC: 1.743 (Simulation time: 00 hr 46 min 43 sec)
Heartbeat CPU 0 instructions: 360000003 cycles: 189636829 heartbeat IPC: 2.011 cumulative IPC: 1.75 (Simulation time: 00 hr 48 min 01 sec)
Heartbeat CPU 0 instructions: 370000001 cycles: 194569598 heartbeat IPC: 2.027 cumulative IPC: 1.758 (Simulation time: 00 hr 49 min 17 sec)
Heartbeat CPU 0 instructions: 380000004 cycles: 199790766 heartbeat IPC: 1.915 cumulative IPC: 1.762 (Simulation time: 00 hr 50 min 37 sec)
Heartbeat CPU 0 instructions: 390000002 cycles: 205020776 heartbeat IPC: 1.912 cumulative IPC: 1.766 (Simulation time: 00 hr 51 min 57 sec)
Heartbeat CPU 0 instructions: 400000000 cycles: 210345791 heartbeat IPC: 1.878 cumulative IPC: 1.769 (Simulation time: 00 hr 53 min 17 sec)
Heartbeat CPU 0 instructions: 410000000 cycles: 217913300 heartbeat IPC: 1.321 cumulative IPC: 1.753 (Simulation time: 00 hr 55 min 01 sec)
Heartbeat CPU 0 instructions: 420000001 cycles: 228392560 heartbeat IPC: 0.9543 cumulative IPC: 1.714 (Simulation time: 00 hr 57 min 13 sec)
Heartbeat CPU 0 instructions: 430000000 cycles: 235838446 heartbeat IPC: 1.343 cumulative IPC: 1.701 (Simulation time: 00 hr 59 min 00 sec)
Heartbeat CPU 0 instructions: 440000002 cycles: 242986557 heartbeat IPC: 1.399 cumulative IPC: 1.692 (Simulation time: 01 hr 00 min 43 sec)
Heartbeat CPU 0 instructions: 450000000 cycles: 249875336 heartbeat IPC: 1.452 cumulative IPC: 1.685 (Simulation time: 01 hr 02 min 22 sec)
Heartbeat CPU 0 instructions: 460000002 cycles: 260391337 heartbeat IPC: 0.9509 cumulative IPC: 1.654 (Simulation time: 01 hr 04 min 37 sec)
Heartbeat CPU 0 instructions: 470000000 cycles: 269822036 heartbeat IPC: 1.06 cumulative IPC: 1.632 (Simulation time: 01 hr 06 min 39 sec)
Heartbeat CPU 0 instructions: 480000000 cycles: 275054439 heartbeat IPC: 1.911 cumulative IPC: 1.638 (Simulation time: 01 hr 07 min 58 sec)
Heartbeat CPU 0 instructions: 490000001 cycles: 280470745 heartbeat IPC: 1.846 cumulative IPC: 1.642 (Simulation time: 01 hr 09 min 19 sec)
Heartbeat CPU 0 instructions: 500000002 cycles: 285928543 heartbeat IPC: 1.832 cumulative IPC: 1.646 (Simulation time: 01 hr 10 min 41 sec)
Heartbeat CPU 0 instructions: 510000000 cycles: 291508805 heartbeat IPC: 1.792 cumulative IPC: 1.649 (Simulation time: 01 hr 12 min 04 sec)
Heartbeat CPU 0 instructions: 520000000 cycles: 297133516 heartbeat IPC: 1.778 cumulative IPC: 1.651 (Simulation time: 01 hr 13 min 27 sec)
Heartbeat CPU 0 instructions: 530000001 cycles: 307905968 heartbeat IPC: 0.9283 cumulative IPC: 1.625 (Simulation time: 01 hr 15 min 42 sec)
Heartbeat CPU 0 instructions: 540000000 cycles: 318258739 heartbeat IPC: 0.9659 cumulative IPC: 1.603 (Simulation time: 01 hr 17 min 56 sec)
Heartbeat CPU 0 instructions: 550000002 cycles: 330261379 heartbeat IPC: 0.8332 cumulative IPC: 1.574 (Simulation time: 01 hr 20 min 22 sec)
Heartbeat CPU 0 instructions: 560000004 cycles: 335058621 heartbeat IPC: 2.085 cumulative IPC: 1.581 (Simulation time: 01 hr 21 min 38 sec)
Heartbeat CPU 0 instructions: 570000001 cycles: 339459095 heartbeat IPC: 2.272 cumulative IPC: 1.59 (Simulation time: 01 hr 22 min 51 sec)
Heartbeat CPU 0 instructions: 580000003 cycles: 343676537 heartbeat IPC: 2.371 cumulative IPC: 1.6 (Simulation time: 01 hr 24 min 00 sec)
Heartbeat CPU 0 instructions: 590000001 cycles: 348559537 heartbeat IPC: 2.048 cumulative IPC: 1.607 (Simulation time: 01 hr 25 min 16 sec)
Heartbeat CPU 0 instructions: 600000003 cycles: 353190927 heartbeat IPC: 2.159 cumulative IPC: 1.614 (Simulation time: 01 hr 26 min 25 sec)
Heartbeat CPU 0 instructions: 610000001 cycles: 358037612 heartbeat IPC: 2.063 cumulative IPC: 1.621 (Simulation time: 01 hr 27 min 23 sec)
Heartbeat CPU 0 instructions: 620000000 cycles: 363096101 heartbeat IPC: 1.977 cumulative IPC: 1.626 (Simulation time: 01 hr 28 min 11 sec)
Heartbeat CPU 0 instructions: 630000002 cycles: 367331469 heartbeat IPC: 2.361 cumulative IPC: 1.635 (Simulation time: 01 hr 28 min 53 sec)
Heartbeat CPU 0 instructions: 640000004 cycles: 372607727 heartbeat IPC: 1.895 cumulative IPC: 1.638 (Simulation time: 01 hr 29 min 38 sec)
Heartbeat CPU 0 instructions: 650000001 cycles: 377352449 heartbeat IPC: 2.108 cumulative IPC: 1.645 (Simulation time: 01 hr 30 min 16 sec)
Simulation finished CPU 0 instructions: 600000001 cycles: 364852388 cumulative IPC: 1.645 (Simulation time: 01 hr 30 min 16 sec)
Simulation complete CPU 0 instructions: 600000001 cycles: 364852388 cumulative IPC: 1.645 (Simulation time: 01 hr 30 min 16 sec)

ChampSim completed all CPUs

=== Simulation ===
CPU 0 runs traces/400.perlbench-50B.champsimtrace.xz
Region of Interest Statistics

CPU 0 cumulative IPC: 1.645 instructions: 600000001 cycles: 364852388
CPU 0 Branch Prediction Accuracy: 93.83% MPKI: 12.71 Average ROB Occupancy at Mispredict: 29.52
Branch type MPKI
BRANCH_DIRECT_JUMP: 0.0176
BRANCH_INDIRECT: 0.38
BRANCH_CONDITIONAL: 11.9
BRANCH_DIRECT_CALL: 0.0067
BRANCH_INDIRECT_CALL: 0.431
BRANCH_RETURN: 0.0161

LLC TOTAL        ACCESS:     785781 HIT:     544751 MISS:     241030
LLC LOAD         ACCESS:     587883 HIT:     376613 MISS:     211270
LLC RFO          ACCESS:      47592 HIT:      31102 MISS:      16490
LLC PREFETCH     ACCESS:          0 HIT:          0 MISS:          0
LLC WRITE        ACCESS:     128325 HIT:     126217 MISS:       2108
LLC TRANSLATION  ACCESS:      21981 HIT:      10819 MISS:      11162
LLC PREFETCH REQUESTED:          0 ISSUED:          0 USEFUL:          0 USELESS:          0
LLC AVERAGE MISS LATENCY: 510.6 cycles
cpu0_DTLB TOTAL        ACCESS:  156765481 HIT:  155463987 MISS:    1301494
cpu0_DTLB LOAD         ACCESS:  156765481 HIT:  155463987 MISS:    1301494
cpu0_DTLB RFO          ACCESS:          0 HIT:          0 MISS:          0
cpu0_DTLB PREFETCH     ACCESS:          0 HIT:          0 MISS:          0
cpu0_DTLB WRITE        ACCESS:          0 HIT:          0 MISS:          0
cpu0_DTLB TRANSLATION  ACCESS:          0 HIT:          0 MISS:          0
cpu0_DTLB PREFETCH REQUESTED:          0 ISSUED:          0 USEFUL:          0 USELESS:          0
cpu0_DTLB AVERAGE MISS LATENCY: 11.37 cycles
cpu0_ITLB TOTAL        ACCESS:    8932525 HIT:    8733977 MISS:     198548
cpu0_ITLB LOAD         ACCESS:    8932525 HIT:    8733977 MISS:     198548
cpu0_ITLB RFO          ACCESS:          0 HIT:          0 MISS:          0
cpu0_ITLB PREFETCH     ACCESS:          0 HIT:          0 MISS:          0
cpu0_ITLB WRITE        ACCESS:          0 HIT:          0 MISS:          0
cpu0_ITLB TRANSLATION  ACCESS:          0 HIT:          0 MISS:          0
cpu0_ITLB PREFETCH REQUESTED:          0 ISSUED:          0 USEFUL:          0 USELESS:          0
cpu0_ITLB AVERAGE MISS LATENCY: 2.996 cycles
cpu0_L1D TOTAL        ACCESS:  203606917 HIT:  199941631 MISS:    3665286
cpu0_L1D LOAD         ACCESS:  117930368 HIT:  114916547 MISS:    3013821
cpu0_L1D RFO          ACCESS:          0 HIT:          0 MISS:          0
cpu0_L1D PREFETCH     ACCESS:          0 HIT:          0 MISS:          0
cpu0_L1D WRITE        ACCESS:   85648006 HIT:   85023676 MISS:     624330
cpu0_L1D TRANSLATION  ACCESS:      28543 HIT:       1408 MISS:      27135
cpu0_L1D PREFETCH REQUESTED:          0 ISSUED:          0 USEFUL:          0 USELESS:          0
cpu0_L1D AVERAGE MISS LATENCY: 38.99 cycles
cpu0_L1I TOTAL        ACCESS:   10371182 HIT:    8573835 MISS:    1797347
cpu0_L1I LOAD         ACCESS:   10371182 HIT:    8573835 MISS:    1797347
cpu0_L1I RFO          ACCESS:          0 HIT:          0 MISS:          0
cpu0_L1I PREFETCH     ACCESS:          0 HIT:          0 MISS:          0
cpu0_L1I WRITE        ACCESS:          0 HIT:          0 MISS:          0
cpu0_L1I TRANSLATION  ACCESS:          0 HIT:          0 MISS:          0
cpu0_L1I PREFETCH REQUESTED:          0 ISSUED:          0 USEFUL:          0 USELESS:          0
cpu0_L1I AVERAGE MISS LATENCY: 11.14 cycles
cpu0_L2C TOTAL        ACCESS:    3837194 HIT:    3176476 MISS:     660718
cpu0_L2C LOAD         ACCESS:    3106403 HIT:    2518520 MISS:     587883
cpu0_L2C RFO          ACCESS:     191815 HIT:     144223 MISS:      47592
cpu0_L2C PREFETCH     ACCESS:          0 HIT:          0 MISS:          0
cpu0_L2C WRITE        ACCESS:     511922 HIT:     508660 MISS:       3262
cpu0_L2C TRANSLATION  ACCESS:      27054 HIT:       5073 MISS:      21981
cpu0_L2C PREFETCH REQUESTED:          0 ISSUED:          0 USEFUL:          0 USELESS:          0
cpu0_L2C AVERAGE MISS LATENCY: 206.5 cycles
cpu0_STLB TOTAL        ACCESS:    1009317 HIT:     982625 MISS:      26692
cpu0_STLB LOAD         ACCESS:    1009317 HIT:     982625 MISS:      26692
cpu0_STLB RFO          ACCESS:          0 HIT:          0 MISS:          0
cpu0_STLB PREFETCH     ACCESS:          0 HIT:          0 MISS:          0
cpu0_STLB WRITE        ACCESS:          0 HIT:          0 MISS:          0
cpu0_STLB TRANSLATION  ACCESS:          0 HIT:          0 MISS:          0
cpu0_STLB PREFETCH REQUESTED:          0 ISSUED:          0 USEFUL:          0 USELESS:          0
cpu0_STLB AVERAGE MISS LATENCY: 331 cycles

DRAM Statistics

Channel 0 RQ ROW_BUFFER_HIT:      44783
  ROW_BUFFER_MISS:     194108
 AVG DBUS CONGESTED CYCLE: 3.767
WQ ROW_BUFFER_HIT: Channel 0 
  ROW_BUFFER_MISS:       8778
  FULL:      23558
