WARNING: physical memory size is smaller than virtual memory size.

*** ChampSim Multicore Out-of-Order Simulator ***
Warmup Instructions: 50000000
Simulation Instructions: 600000000
Number of CPUs: 1
Page size: 4096

CPU 0 Tage branch predictor
Off-chip DRAM Size: 4 GiB Channels: 1 Width: 64-bit Data Race: 3200 MT/s
Heartbeat CPU 0 instructions: 10000001 cycles: 2500319 heartbeat IPC: 3.999 cumulative IPC: 3.999 (Simulation time: 00 hr 00 min 22 sec)
Heartbeat CPU 0 instructions: 20000002 cycles: 5037138 heartbeat IPC: 3.942 cumulative IPC: 3.971 (Simulation time: 00 hr 00 min 59 sec)
Heartbeat CPU 0 instructions: 30000002 cycles: 7537138 heartbeat IPC: 4 cumulative IPC: 3.98 (Simulation time: 00 hr 01 min 38 sec)
Heartbeat CPU 0 instructions: 40000002 cycles: 10037138 heartbeat IPC: 4 cumulative IPC: 3.985 (Simulation time: 00 hr 02 min 25 sec)
Heartbeat CPU 0 instructions: 50000002 cycles: 12537138 heartbeat IPC: 4 cumulative IPC: 3.988 (Simulation time: 00 hr 03 min 15 sec)
Warmup finished CPU 0 instructions: 50000002 cycles: 12537139 cumulative IPC: 3.988 (Simulation time: 00 hr 03 min 15 sec)
Warmup complete CPU 0 instructions: 50000002 cycles: 12537139 cumulative IPC: 3.988 (Simulation time: 00 hr 03 min 15 sec)
Heartbeat CPU 0 instructions: 60000001 cycles: 15555674 heartbeat IPC: 3.313 cumulative IPC: 3.313 (Simulation time: 00 hr 04 min 28 sec)
Heartbeat CPU 0 instructions: 70000004 cycles: 18653316 heartbeat IPC: 3.228 cumulative IPC: 3.27 (Simulation time: 00 hr 05 min 50 sec)
Heartbeat CPU 0 instructions: 80000001 cycles: 21720280 heartbeat IPC: 3.261 cumulative IPC: 3.267 (Simulation time: 00 hr 07 min 07 sec)
Heartbeat CPU 0 instructions: 90000001 cycles: 24682408 heartbeat IPC: 3.376 cumulative IPC: 3.293 (Simulation time: 00 hr 08 min 23 sec)
Heartbeat CPU 0 instructions: 100000000 cycles: 27617827 heartbeat IPC: 3.407 cumulative IPC: 3.315 (Simulation time: 00 hr 09 min 36 sec)
Heartbeat CPU 0 instructions: 110000000 cycles: 30575531 heartbeat IPC: 3.381 cumulative IPC: 3.326 (Simulation time: 00 hr 10 min 46 sec)
Heartbeat CPU 0 instructions: 120000001 cycles: 33567619 heartbeat IPC: 3.342 cumulative IPC: 3.329 (Simulation time: 00 hr 11 min 57 sec)
Heartbeat CPU 0 instructions: 130000001 cycles: 36445459 heartbeat IPC: 3.475 cumulative IPC: 3.346 (Simulation time: 00 hr 13 min 09 sec)
Heartbeat CPU 0 instructions: 140000001 cycles: 39529676 heartbeat IPC: 3.242 cumulative IPC: 3.334 (Simulation time: 00 hr 14 min 24 sec)
Heartbeat CPU 0 instructions: 150000001 cycles: 42570183 heartbeat IPC: 3.289 cumulative IPC: 3.33 (Simulation time: 00 hr 15 min 38 sec)
Heartbeat CPU 0 instructions: 160000004 cycles: 45620893 heartbeat IPC: 3.278 cumulative IPC: 3.325 (Simulation time: 00 hr 16 min 50 sec)
Heartbeat CPU 0 instructions: 170000000 cycles: 53382504 heartbeat IPC: 1.288 cumulative IPC: 2.938 (Simulation time: 00 hr 18 min 41 sec)
Heartbeat CPU 0 instructions: 180000004 cycles: 61844895 heartbeat IPC: 1.182 cumulative IPC: 2.637 (Simulation time: 00 hr 20 min 38 sec)
Heartbeat CPU 0 instructions: 190000001 cycles: 70476527 heartbeat IPC: 1.159 cumulative IPC: 2.416 (Simulation time: 00 hr 22 min 37 sec)
Heartbeat CPU 0 instructions: 200000004 cycles: 73476211 heartbeat IPC: 3.334 cumulative IPC: 2.461 (Simulation time: 00 hr 23 min 46 sec)
Heartbeat CPU 0 instructions: 210000001 cycles: 76460807 heartbeat IPC: 3.351 cumulative IPC: 2.503 (Simulation time: 00 hr 24 min 50 sec)
Heartbeat CPU 0 instructions: 220000000 cycles: 79366805 heartbeat IPC: 3.441 cumulative IPC: 2.544 (Simulation time: 00 hr 25 min 51 sec)
Heartbeat CPU 0 instructions: 230000002 cycles: 82433647 heartbeat IPC: 3.261 cumulative IPC: 2.575 (Simulation time: 00 hr 26 min 54 sec)
Heartbeat CPU 0 instructions: 240000003 cycles: 85496228 heartbeat IPC: 3.265 cumulative IPC: 2.604 (Simulation time: 00 hr 28 min 04 sec)
Heartbeat CPU 0 instructions: 250000000 cycles: 88544260 heartbeat IPC: 3.281 cumulative IPC: 2.631 (Simulation time: 00 hr 29 min 12 sec)
Heartbeat CPU 0 instructions: 260000002 cycles: 91532931 heartbeat IPC: 3.346 cumulative IPC: 2.658 (Simulation time: 00 hr 30 min 18 sec)
Heartbeat CPU 0 instructions: 270000002 cycles: 94463405 heartbeat IPC: 3.412 cumulative IPC: 2.685 (Simulation time: 00 hr 31 min 21 sec)
Heartbeat CPU 0 instructions: 280000002 cycles: 97367526 heartbeat IPC: 3.443 cumulative IPC: 2.711 (Simulation time: 00 hr 32 min 26 sec)
Heartbeat CPU 0 instructions: 290000002 cycles: 100342208 heartbeat IPC: 3.362 cumulative IPC: 2.733 (Simulation time: 00 hr 33 min 44 sec)
Heartbeat CPU 0 instructions: 300000003 cycles: 103265132 heartbeat IPC: 3.421 cumulative IPC: 2.755 (Simulation time: 00 hr 35 min 15 sec)
Heartbeat CPU 0 instructions: 310000001 cycles: 106347675 heartbeat IPC: 3.244 cumulative IPC: 2.772 (Simulation time: 00 hr 36 min 38 sec)
Heartbeat CPU 0 instructions: 320000003 cycles: 109378550 heartbeat IPC: 3.299 cumulative IPC: 2.788 (Simulation time: 00 hr 37 min 55 sec)
Heartbeat CPU 0 instructions: 330000003 cycles: 112407404 heartbeat IPC: 3.302 cumulative IPC: 2.804 (Simulation time: 00 hr 39 min 09 sec)
Heartbeat CPU 0 instructions: 340000000 cycles: 120396596 heartbeat IPC: 1.252 cumulative IPC: 2.689 (Simulation time: 00 hr 41 min 05 sec)
Heartbeat CPU 0 instructions: 350000000 cycles: 129107617 heartbeat IPC: 1.148 cumulative IPC: 2.574 (Simulation time: 00 hr 43 min 06 sec)
Heartbeat CPU 0 instructions: 360000004 cycles: 137817848 heartbeat IPC: 1.148 cumulative IPC: 2.474 (Simulation time: 00 hr 45 min 08 sec)
Heartbeat CPU 0 instructions: 370000000 cycles: 140801380 heartbeat IPC: 3.352 cumulative IPC: 2.495 (Simulation time: 00 hr 46 min 23 sec)
Heartbeat CPU 0 instructions: 380000003 cycles: 143749106 heartbeat IPC: 3.392 cumulative IPC: 2.515 (Simulation time: 00 hr 47 min 49 sec)
Heartbeat CPU 0 instructions: 390000002 cycles: 146743890 heartbeat IPC: 3.339 cumulative IPC: 2.533 (Simulation time: 00 hr 49 min 11 sec)
Heartbeat CPU 0 instructions: 400000004 cycles: 149652376 heartbeat IPC: 3.438 cumulative IPC: 2.553 (Simulation time: 00 hr 50 min 26 sec)
Heartbeat CPU 0 instructions: 410000002 cycles: 152620117 heartbeat IPC: 3.37 cumulative IPC: 2.57 (Simulation time: 00 hr 51 min 38 sec)
Heartbeat CPU 0 instructions: 420000003 cycles: 155785777 heartbeat IPC: 3.159 cumulative IPC: 2.583 (Simulation time: 00 hr 52 min 49 sec)
Heartbeat CPU 0 instructions: 430000001 cycles: 158815434 heartbeat IPC: 3.301 cumulative IPC: 2.598 (Simulation time: 00 hr 53 min 54 sec)
Heartbeat CPU 0 instructions: 440000004 cycles: 161967608 heartbeat IPC: 3.172 cumulative IPC: 2.61 (Simulation time: 00 hr 55 min 03 sec)
Heartbeat CPU 0 instructions: 450000002 cycles: 164907950 heartbeat IPC: 3.401 cumulative IPC: 2.625 (Simulation time: 00 hr 56 min 08 sec)
Heartbeat CPU 0 instructions: 460000000 cycles: 167847757 heartbeat IPC: 3.402 cumulative IPC: 2.64 (Simulation time: 00 hr 57 min 12 sec)
Heartbeat CPU 0 instructions: 470000001 cycles: 170716766 heartbeat IPC: 3.486 cumulative IPC: 2.655 (Simulation time: 00 hr 58 min 15 sec)
Heartbeat CPU 0 instructions: 480000003 cycles: 173785011 heartbeat IPC: 3.259 cumulative IPC: 2.667 (Simulation time: 00 hr 59 min 32 sec)
Heartbeat CPU 0 instructions: 490000004 cycles: 176619902 heartbeat IPC: 3.527 cumulative IPC: 2.682 (Simulation time: 01 hr 01 min 06 sec)
Heartbeat CPU 0 instructions: 500000004 cycles: 179612025 heartbeat IPC: 3.342 cumulative IPC: 2.693 (Simulation time: 01 hr 02 min 33 sec)
Heartbeat CPU 0 instructions: 510000003 cycles: 182646700 heartbeat IPC: 3.295 cumulative IPC: 2.704 (Simulation time: 01 hr 03 min 53 sec)
Heartbeat CPU 0 instructions: 520000001 cycles: 185546206 heartbeat IPC: 3.449 cumulative IPC: 2.717 (Simulation time: 01 hr 05 min 08 sec)
Heartbeat CPU 0 instructions: 530000001 cycles: 188572977 heartbeat IPC: 3.304 cumulative IPC: 2.727 (Simulation time: 01 hr 06 min 20 sec)
Heartbeat CPU 0 instructions: 540000000 cycles: 191551901 heartbeat IPC: 3.357 cumulative IPC: 2.737 (Simulation time: 01 hr 07 min 31 sec)
Heartbeat CPU 0 instructions: 550000001 cycles: 194549774 heartbeat IPC: 3.336 cumulative IPC: 2.747 (Simulation time: 01 hr 08 min 45 sec)
Heartbeat CPU 0 instructions: 560000000 cycles: 197663988 heartbeat IPC: 3.211 cumulative IPC: 2.755 (Simulation time: 01 hr 09 min 58 sec)
Heartbeat CPU 0 instructions: 570000004 cycles: 203039649 heartbeat IPC: 1.86 cumulative IPC: 2.73 (Simulation time: 01 hr 11 min 31 sec)
Heartbeat CPU 0 instructions: 580000003 cycles: 212112937 heartbeat IPC: 1.102 cumulative IPC: 2.656 (Simulation time: 01 hr 14 min 10 sec)
Heartbeat CPU 0 instructions: 590000002 cycles: 223142680 heartbeat IPC: 0.9066 cumulative IPC: 2.564 (Simulation time: 01 hr 16 min 55 sec)
Heartbeat CPU 0 instructions: 600000004 cycles: 226274462 heartbeat IPC: 3.193 cumulative IPC: 2.573 (Simulation time: 01 hr 18 min 09 sec)
Heartbeat CPU 0 instructions: 610000002 cycles: 229262171 heartbeat IPC: 3.347 cumulative IPC: 2.584 (Simulation time: 01 hr 19 min 17 sec)
Heartbeat CPU 0 instructions: 620000001 cycles: 232049877 heartbeat IPC: 3.587 cumulative IPC: 2.597 (Simulation time: 01 hr 20 min 25 sec)
Heartbeat CPU 0 instructions: 630000002 cycles: 235040876 heartbeat IPC: 3.343 cumulative IPC: 2.607 (Simulation time: 01 hr 21 min 36 sec)
Heartbeat CPU 0 instructions: 640000004 cycles: 237996631 heartbeat IPC: 3.383 cumulative IPC: 2.617 (Simulation time: 01 hr 22 min 45 sec)
Heartbeat CPU 0 instructions: 650000000 cycles: 240753740 heartbeat IPC: 3.627 cumulative IPC: 2.629 (Simulation time: 01 hr 23 min 57 sec)
Simulation finished CPU 0 instructions: 600000001 cycles: 228216603 cumulative IPC: 2.629 (Simulation time: 01 hr 23 min 57 sec)
Simulation complete CPU 0 instructions: 600000001 cycles: 228216603 cumulative IPC: 2.629 (Simulation time: 01 hr 23 min 57 sec)

ChampSim completed all CPUs

=== Simulation ===
CPU 0 runs traces/400.perlbench-41B.champsimtrace.xz
Region of Interest Statistics

CPU 0 cumulative IPC: 2.629 instructions: 600000001 cycles: 228216603
CPU 0 Branch Prediction Accuracy: 99.19% MPKI: 1.684 Average ROB Occupancy at Mispredict: 101.9
Branch type MPKI
BRANCH_DIRECT_JUMP: 0.0123
BRANCH_INDIRECT: 0.323
BRANCH_CONDITIONAL: 1.14
BRANCH_DIRECT_CALL: 0.0043
BRANCH_INDIRECT_CALL: 0.2
BRANCH_RETURN: 0.00828

LLC TOTAL        ACCESS:     937752 HIT:     493917 MISS:     443835
LLC LOAD         ACCESS:     400509 HIT:     198351 MISS:     202158
LLC RFO          ACCESS:      32351 HIT:      15276 MISS:      17075
LLC PREFETCH     ACCESS:     400509 HIT:     187458 MISS:     213051
LLC WRITE        ACCESS:      85511 HIT:      84845 MISS:        666
LLC TRANSLATION  ACCESS:      18872 HIT:       7987 MISS:      10885
LLC PREFETCH REQUESTED:     400509 ISSUED:     400509 USEFUL:      78940 USELESS:      80532
LLC AVERAGE MISS LATENCY: 673.4 cycles
cpu0_DTLB TOTAL        ACCESS:  129761723 HIT:  129058802 MISS:     702921
cpu0_DTLB LOAD         ACCESS:  129761723 HIT:  129058802 MISS:     702921
cpu0_DTLB RFO          ACCESS:          0 HIT:          0 MISS:          0
cpu0_DTLB PREFETCH     ACCESS:          0 HIT:          0 MISS:          0
cpu0_DTLB WRITE        ACCESS:          0 HIT:          0 MISS:          0
cpu0_DTLB TRANSLATION  ACCESS:          0 HIT:          0 MISS:          0
cpu0_DTLB PREFETCH REQUESTED:          0 ISSUED:          0 USEFUL:          0 USELESS:          0
cpu0_DTLB AVERAGE MISS LATENCY: 17.81 cycles
cpu0_ITLB TOTAL        ACCESS:    4870604 HIT:    4808363 MISS:      62241
cpu0_ITLB LOAD         ACCESS:    4870604 HIT:    4808363 MISS:      62241
cpu0_ITLB RFO          ACCESS:          0 HIT:          0 MISS:          0
cpu0_ITLB PREFETCH     ACCESS:          0 HIT:          0 MISS:          0
cpu0_ITLB WRITE        ACCESS:          0 HIT:          0 MISS:          0
cpu0_ITLB TRANSLATION  ACCESS:          0 HIT:          0 MISS:          0
cpu0_ITLB PREFETCH REQUESTED:          0 ISSUED:          0 USEFUL:          0 USELESS:          0
cpu0_ITLB AVERAGE MISS LATENCY: 7.513 cycles
cpu0_L1D TOTAL        ACCESS:  174364741 HIT:  172946091 MISS:    1418650
cpu0_L1D LOAD         ACCESS:   91343194 HIT:   90250683 MISS:    1092511
cpu0_L1D RFO          ACCESS:          0 HIT:          0 MISS:          0
cpu0_L1D PREFETCH     ACCESS:          0 HIT:          0 MISS:          0
cpu0_L1D WRITE        ACCESS:   82997090 HIT:   82693808 MISS:     303282
cpu0_L1D TRANSLATION  ACCESS:      24457 HIT:       1600 MISS:      22857
cpu0_L1D PREFETCH REQUESTED:          0 ISSUED:          0 USEFUL:          0 USELESS:          0
cpu0_L1D AVERAGE MISS LATENCY: 120.6 cycles
cpu0_L1I TOTAL        ACCESS:    5649921 HIT:    4845836 MISS:     804085
cpu0_L1I LOAD         ACCESS:    5649921 HIT:    4845836 MISS:     804085
cpu0_L1I RFO          ACCESS:          0 HIT:          0 MISS:          0
cpu0_L1I PREFETCH     ACCESS:          0 HIT:          0 MISS:          0
cpu0_L1I WRITE        ACCESS:          0 HIT:          0 MISS:          0
cpu0_L1I TRANSLATION  ACCESS:          0 HIT:          0 MISS:          0
cpu0_L1I PREFETCH REQUESTED:          0 ISSUED:          0 USEFUL:          0 USELESS:          0
cpu0_L1I AVERAGE MISS LATENCY: 13.36 cycles
cpu0_L2C TOTAL        ACCESS:    1381497 HIT:     926263 MISS:     455234
cpu0_L2C LOAD         ACCESS:    1123939 HIT:     723429 MISS:     400510
cpu0_L2C RFO          ACCESS:      64504 HIT:      32153 MISS:      32351
cpu0_L2C PREFETCH     ACCESS:          0 HIT:          0 MISS:          0
cpu0_L2C WRITE        ACCESS:     170278 HIT:     166777 MISS:       3501
cpu0_L2C TRANSLATION  ACCESS:      22776 HIT:       3904 MISS:      18872
cpu0_L2C PREFETCH REQUESTED:          0 ISSUED:          0 USEFUL:          0 USELESS:          0
cpu0_L2C AVERAGE MISS LATENCY: 400.6 cycles
cpu0_STLB TOTAL        ACCESS:     508732 HIT:     485949 MISS:      22783
cpu0_STLB LOAD         ACCESS:     508732 HIT:     485949 MISS:      22783
cpu0_STLB RFO          ACCESS:          0 HIT:          0 MISS:          0
cpu0_STLB PREFETCH     ACCESS:          0 HIT:          0 MISS:          0
cpu0_STLB WRITE        ACCESS:          0 HIT:          0 MISS:          0
cpu0_STLB TRANSLATION  ACCESS:          0 HIT:          0 MISS:          0
cpu0_STLB PREFETCH REQUESTED:          0 ISSUED:          0 USEFUL:          0 USELESS:          0
cpu0_STLB AVERAGE MISS LATENCY: 451.8 cycles

DRAM Statistics

Channel 0 RQ ROW_BUFFER_HIT:      71423
  ROW_BUFFER_MISS:     293408
 AVG DBUS CONGESTED CYCLE: 3.906
WQ ROW_BUFFER_HIT: Channel 0 
  ROW_BUFFER_MISS:       3786
  FULL:      43917
