WARNING: physical memory size is smaller than virtual memory size.

*** ChampSim Multicore Out-of-Order Simulator ***
Warmup Instructions: 50000000
Simulation Instructions: 600000000
Number of CPUs: 1
Page size: 4096

Off-chip DRAM Size: 4 GiB Channels: 1 Width: 64-bit Data Race: 3200 MT/s
Heartbeat CPU 0 instructions: 10000000 cycles: 2500061 heartbeat IPC: 4 cumulative IPC: 4 (Simulation time: 00 hr 01 min 02 sec)
Heartbeat CPU 0 instructions: 20000000 cycles: 5000061 heartbeat IPC: 4 cumulative IPC: 4 (Simulation time: 00 hr 01 min 57 sec)
Heartbeat CPU 0 instructions: 30000000 cycles: 7500061 heartbeat IPC: 4 cumulative IPC: 4 (Simulation time: 00 hr 02 min 48 sec)
Heartbeat CPU 0 instructions: 40000000 cycles: 10000061 heartbeat IPC: 4 cumulative IPC: 4 (Simulation time: 00 hr 03 min 37 sec)
Heartbeat CPU 0 instructions: 50000000 cycles: 12500061 heartbeat IPC: 4 cumulative IPC: 4 (Simulation time: 00 hr 04 min 26 sec)
Warmup finished CPU 0 instructions: 50000000 cycles: 12500062 cumulative IPC: 4 (Simulation time: 00 hr 04 min 26 sec)
Warmup complete CPU 0 instructions: 50000000 cycles: 12500062 cumulative IPC: 4 (Simulation time: 00 hr 04 min 26 sec)
Heartbeat CPU 0 instructions: 60000002 cycles: 16446270 heartbeat IPC: 2.534 cumulative IPC: 2.534 (Simulation time: 00 hr 05 min 32 sec)
Heartbeat CPU 0 instructions: 70000003 cycles: 20769583 heartbeat IPC: 2.313 cumulative IPC: 2.419 (Simulation time: 00 hr 06 min 36 sec)
Heartbeat CPU 0 instructions: 80000003 cycles: 25245871 heartbeat IPC: 2.234 cumulative IPC: 2.354 (Simulation time: 00 hr 07 min 50 sec)
Heartbeat CPU 0 instructions: 90000000 cycles: 28938083 heartbeat IPC: 2.708 cumulative IPC: 2.433 (Simulation time: 00 hr 09 min 12 sec)
Heartbeat CPU 0 instructions: 100000003 cycles: 32841676 heartbeat IPC: 2.562 cumulative IPC: 2.458 (Simulation time: 00 hr 10 min 34 sec)
Heartbeat CPU 0 instructions: 110000002 cycles: 36947590 heartbeat IPC: 2.436 cumulative IPC: 2.454 (Simulation time: 00 hr 11 min 52 sec)
Heartbeat CPU 0 instructions: 120000001 cycles: 40666269 heartbeat IPC: 2.689 cumulative IPC: 2.485 (Simulation time: 00 hr 13 min 01 sec)
Heartbeat CPU 0 instructions: 130000003 cycles: 44442573 heartbeat IPC: 2.648 cumulative IPC: 2.504 (Simulation time: 00 hr 14 min 07 sec)
Heartbeat CPU 0 instructions: 140000002 cycles: 48577225 heartbeat IPC: 2.419 cumulative IPC: 2.495 (Simulation time: 00 hr 15 min 21 sec)
Heartbeat CPU 0 instructions: 150000001 cycles: 52630564 heartbeat IPC: 2.467 cumulative IPC: 2.492 (Simulation time: 00 hr 16 min 34 sec)
Heartbeat CPU 0 instructions: 160000000 cycles: 56289638 heartbeat IPC: 2.733 cumulative IPC: 2.512 (Simulation time: 00 hr 17 min 41 sec)
Heartbeat CPU 0 instructions: 170000001 cycles: 60469935 heartbeat IPC: 2.392 cumulative IPC: 2.502 (Simulation time: 00 hr 18 min 50 sec)
Heartbeat CPU 0 instructions: 180000001 cycles: 63934708 heartbeat IPC: 2.886 cumulative IPC: 2.527 (Simulation time: 00 hr 19 min 52 sec)
Heartbeat CPU 0 instructions: 190000002 cycles: 67525581 heartbeat IPC: 2.785 cumulative IPC: 2.544 (Simulation time: 00 hr 21 min 03 sec)
Heartbeat CPU 0 instructions: 200000002 cycles: 71310535 heartbeat IPC: 2.642 cumulative IPC: 2.551 (Simulation time: 00 hr 22 min 32 sec)
Heartbeat CPU 0 instructions: 210000000 cycles: 74952388 heartbeat IPC: 2.746 cumulative IPC: 2.562 (Simulation time: 00 hr 23 min 58 sec)
Heartbeat CPU 0 instructions: 220000001 cycles: 78825416 heartbeat IPC: 2.582 cumulative IPC: 2.563 (Simulation time: 00 hr 25 min 14 sec)
Heartbeat CPU 0 instructions: 230000002 cycles: 82668832 heartbeat IPC: 2.602 cumulative IPC: 2.565 (Simulation time: 00 hr 26 min 20 sec)
Heartbeat CPU 0 instructions: 240000001 cycles: 86880039 heartbeat IPC: 2.375 cumulative IPC: 2.554 (Simulation time: 00 hr 27 min 26 sec)
Heartbeat CPU 0 instructions: 250000003 cycles: 91452415 heartbeat IPC: 2.187 cumulative IPC: 2.533 (Simulation time: 00 hr 28 min 38 sec)
Heartbeat CPU 0 instructions: 260000000 cycles: 95249027 heartbeat IPC: 2.634 cumulative IPC: 2.538 (Simulation time: 00 hr 29 min 44 sec)
Heartbeat CPU 0 instructions: 270000003 cycles: 102406316 heartbeat IPC: 1.397 cumulative IPC: 2.447 (Simulation time: 00 hr 31 min 14 sec)
Heartbeat CPU 0 instructions: 280000000 cycles: 113199553 heartbeat IPC: 0.9265 cumulative IPC: 2.284 (Simulation time: 00 hr 33 min 13 sec)
Heartbeat CPU 0 instructions: 290000000 cycles: 123182533 heartbeat IPC: 1.002 cumulative IPC: 2.168 (Simulation time: 00 hr 35 min 44 sec)
Heartbeat CPU 0 instructions: 300000003 cycles: 130574952 heartbeat IPC: 1.353 cumulative IPC: 2.117 (Simulation time: 00 hr 37 min 55 sec)
Heartbeat CPU 0 instructions: 310000004 cycles: 141383122 heartbeat IPC: 0.9252 cumulative IPC: 2.017 (Simulation time: 00 hr 40 min 20 sec)
Heartbeat CPU 0 instructions: 320000004 cycles: 146430190 heartbeat IPC: 1.981 cumulative IPC: 2.016 (Simulation time: 00 hr 41 min 50 sec)
Heartbeat CPU 0 instructions: 330000000 cycles: 150511703 heartbeat IPC: 2.45 cumulative IPC: 2.029 (Simulation time: 00 hr 43 min 04 sec)
Heartbeat CPU 0 instructions: 340000001 cycles: 154839967 heartbeat IPC: 2.31 cumulative IPC: 2.037 (Simulation time: 00 hr 44 min 15 sec)
Heartbeat CPU 0 instructions: 350000004 cycles: 159314206 heartbeat IPC: 2.235 cumulative IPC: 2.043 (Simulation time: 00 hr 45 min 25 sec)
Heartbeat CPU 0 instructions: 360000003 cycles: 163488812 heartbeat IPC: 2.395 cumulative IPC: 2.053 (Simulation time: 00 hr 46 min 32 sec)
Heartbeat CPU 0 instructions: 370000001 cycles: 167553516 heartbeat IPC: 2.46 cumulative IPC: 2.064 (Simulation time: 00 hr 47 min 49 sec)
Heartbeat CPU 0 instructions: 380000004 cycles: 171472965 heartbeat IPC: 2.551 cumulative IPC: 2.076 (Simulation time: 00 hr 49 min 13 sec)
Heartbeat CPU 0 instructions: 390000002 cycles: 175567191 heartbeat IPC: 2.442 cumulative IPC: 2.085 (Simulation time: 00 hr 50 min 44 sec)
Heartbeat CPU 0 instructions: 400000000 cycles: 179951468 heartbeat IPC: 2.281 cumulative IPC: 2.09 (Simulation time: 00 hr 52 min 11 sec)
Heartbeat CPU 0 instructions: 410000000 cycles: 187485237 heartbeat IPC: 1.327 cumulative IPC: 2.057 (Simulation time: 00 hr 53 min 58 sec)
Heartbeat CPU 0 instructions: 420000003 cycles: 198744383 heartbeat IPC: 0.8882 cumulative IPC: 1.987 (Simulation time: 00 hr 56 min 15 sec)
Heartbeat CPU 0 instructions: 430000000 cycles: 206474626 heartbeat IPC: 1.294 cumulative IPC: 1.959 (Simulation time: 00 hr 57 min 56 sec)
Heartbeat CPU 0 instructions: 440000004 cycles: 213139498 heartbeat IPC: 1.5 cumulative IPC: 1.944 (Simulation time: 00 hr 59 min 21 sec)
Heartbeat CPU 0 instructions: 450000000 cycles: 219968591 heartbeat IPC: 1.464 cumulative IPC: 1.928 (Simulation time: 01 hr 01 min 04 sec)
Heartbeat CPU 0 instructions: 460000002 cycles: 230745383 heartbeat IPC: 0.9279 cumulative IPC: 1.879 (Simulation time: 01 hr 03 min 48 sec)
Heartbeat CPU 0 instructions: 470000003 cycles: 239920803 heartbeat IPC: 1.09 cumulative IPC: 1.847 (Simulation time: 01 hr 06 min 01 sec)
Heartbeat CPU 0 instructions: 480000003 cycles: 244219964 heartbeat IPC: 2.326 cumulative IPC: 1.856 (Simulation time: 01 hr 07 min 27 sec)
Heartbeat CPU 0 instructions: 490000001 cycles: 248992760 heartbeat IPC: 2.095 cumulative IPC: 1.861 (Simulation time: 01 hr 08 min 52 sec)
Heartbeat CPU 0 instructions: 500000002 cycles: 253474841 heartbeat IPC: 2.231 cumulative IPC: 1.867 (Simulation time: 01 hr 10 min 09 sec)
Heartbeat CPU 0 instructions: 510000000 cycles: 257770527 heartbeat IPC: 2.328 cumulative IPC: 1.875 (Simulation time: 01 hr 11 min 24 sec)
Heartbeat CPU 0 instructions: 520000000 cycles: 262253874 heartbeat IPC: 2.23 cumulative IPC: 1.882 (Simulation time: 01 hr 12 min 32 sec)
Heartbeat CPU 0 instructions: 530000001 cycles: 273635873 heartbeat IPC: 0.8786 cumulative IPC: 1.838 (Simulation time: 01 hr 14 min 46 sec)
Heartbeat CPU 0 instructions: 540000000 cycles: 284778756 heartbeat IPC: 0.8974 cumulative IPC: 1.8 (Simulation time: 01 hr 17 min 39 sec)
Heartbeat CPU 0 instructions: 550000004 cycles: 297394005 heartbeat IPC: 0.7927 cumulative IPC: 1.755 (Simulation time: 01 hr 20 min 24 sec)
Heartbeat CPU 0 instructions: 560000004 cycles: 301575885 heartbeat IPC: 2.391 cumulative IPC: 1.764 (Simulation time: 01 hr 21 min 49 sec)
Heartbeat CPU 0 instructions: 570000001 cycles: 304707067 heartbeat IPC: 3.194 cumulative IPC: 1.78 (Simulation time: 01 hr 22 min 56 sec)
Heartbeat CPU 0 instructions: 580000003 cycles: 308255075 heartbeat IPC: 2.818 cumulative IPC: 1.792 (Simulation time: 01 hr 24 min 02 sec)
Heartbeat CPU 0 instructions: 590000002 cycles: 311882156 heartbeat IPC: 2.757 cumulative IPC: 1.804 (Simulation time: 01 hr 25 min 09 sec)
Heartbeat CPU 0 instructions: 600000003 cycles: 314951011 heartbeat IPC: 3.259 cumulative IPC: 1.818 (Simulation time: 01 hr 26 min 08 sec)
Heartbeat CPU 0 instructions: 610000001 cycles: 318462632 heartbeat IPC: 2.848 cumulative IPC: 1.83 (Simulation time: 01 hr 27 min 13 sec)
Heartbeat CPU 0 instructions: 620000000 cycles: 322480185 heartbeat IPC: 2.489 cumulative IPC: 1.839 (Simulation time: 01 hr 28 min 31 sec)
Heartbeat CPU 0 instructions: 630000002 cycles: 325847703 heartbeat IPC: 2.97 cumulative IPC: 1.851 (Simulation time: 01 hr 29 min 57 sec)
Heartbeat CPU 0 instructions: 640000004 cycles: 329863916 heartbeat IPC: 2.49 cumulative IPC: 1.859 (Simulation time: 01 hr 31 min 22 sec)
Heartbeat CPU 0 instructions: 650000001 cycles: 333688634 heartbeat IPC: 2.615 cumulative IPC: 1.868 (Simulation time: 01 hr 32 min 38 sec)
Simulation finished CPU 0 instructions: 600000001 cycles: 321188573 cumulative IPC: 1.868 (Simulation time: 01 hr 32 min 38 sec)
Simulation complete CPU 0 instructions: 600000001 cycles: 321188573 cumulative IPC: 1.868 (Simulation time: 01 hr 32 min 38 sec)

ChampSim completed all CPUs

=== Simulation ===
CPU 0 runs traces/400.perlbench-50B.champsimtrace.xz
Region of Interest Statistics

CPU 0 cumulative IPC: 1.868 instructions: 600000001 cycles: 321188573
CPU 0 Branch Prediction Accuracy: 96.2% MPKI: 7.839 Average ROB Occupancy at Mispredict: 43.6
Branch type MPKI
BRANCH_DIRECT_JUMP: 0.0176
BRANCH_INDIRECT: 0.38
BRANCH_CONDITIONAL: 6.99
BRANCH_DIRECT_CALL: 0.0067
BRANCH_INDIRECT_CALL: 0.431
BRANCH_RETURN: 0.0161

LLC TOTAL        ACCESS:     782122 HIT:     485400 MISS:     296722
LLC LOAD         ACCESS:     582714 HIT:     316843 MISS:     265871
LLC RFO          ACCESS:      47381 HIT:      28631 MISS:      18750
LLC PREFETCH     ACCESS:          0 HIT:          0 MISS:          0
LLC WRITE        ACCESS:     130115 HIT:     129943 MISS:        172
LLC TRANSLATION  ACCESS:      21912 HIT:       9983 MISS:      11929
LLC PREFETCH REQUESTED:          0 ISSUED:          0 USEFUL:          0 USELESS:          0
LLC AVERAGE MISS LATENCY: 534.7 cycles
cpu0_DTLB TOTAL        ACCESS:  146486053 HIT:  145182160 MISS:    1303893
cpu0_DTLB LOAD         ACCESS:  146486053 HIT:  145182160 MISS:    1303893
cpu0_DTLB RFO          ACCESS:          0 HIT:          0 MISS:          0
cpu0_DTLB PREFETCH     ACCESS:          0 HIT:          0 MISS:          0
cpu0_DTLB WRITE        ACCESS:          0 HIT:          0 MISS:          0
cpu0_DTLB TRANSLATION  ACCESS:          0 HIT:          0 MISS:          0
cpu0_DTLB PREFETCH REQUESTED:          0 ISSUED:          0 USEFUL:          0 USELESS:          0
cpu0_DTLB AVERAGE MISS LATENCY: 11.77 cycles
cpu0_ITLB TOTAL        ACCESS:    8990434 HIT:    8805851 MISS:     184583
cpu0_ITLB LOAD         ACCESS:    8990434 HIT:    8805851 MISS:     184583
cpu0_ITLB RFO          ACCESS:          0 HIT:          0 MISS:          0
cpu0_ITLB PREFETCH     ACCESS:          0 HIT:          0 MISS:          0
cpu0_ITLB WRITE        ACCESS:          0 HIT:          0 MISS:          0
cpu0_ITLB TRANSLATION  ACCESS:          0 HIT:          0 MISS:          0
cpu0_ITLB PREFETCH REQUESTED:          0 ISSUED:          0 USEFUL:          0 USELESS:          0
cpu0_ITLB AVERAGE MISS LATENCY: 3.534 cycles
cpu0_L1D TOTAL        ACCESS:  193283610 HIT:  190398558 MISS:    2885052
cpu0_L1D LOAD         ACCESS:  107437106 HIT:  105061811 MISS:    2375295
cpu0_L1D RFO          ACCESS:          0 HIT:          0 MISS:          0
cpu0_L1D PREFETCH     ACCESS:          0 HIT:          0 MISS:          0
cpu0_L1D WRITE        ACCESS:   85817978 HIT:   85334729 MISS:     483249
cpu0_L1D TRANSLATION  ACCESS:      28526 HIT:       2018 MISS:      26508
cpu0_L1D PREFETCH REQUESTED:          0 ISSUED:          0 USEFUL:          0 USELESS:          0
cpu0_L1D AVERAGE MISS LATENCY: 60.29 cycles
cpu0_L1I TOTAL        ACCESS:   10424356 HIT:    8661919 MISS:    1762437
cpu0_L1I LOAD         ACCESS:   10424356 HIT:    8661919 MISS:    1762437
cpu0_L1I RFO          ACCESS:          0 HIT:          0 MISS:          0
cpu0_L1I PREFETCH     ACCESS:          0 HIT:          0 MISS:          0
cpu0_L1I WRITE        ACCESS:          0 HIT:          0 MISS:          0
cpu0_L1I TRANSLATION  ACCESS:          0 HIT:          0 MISS:          0
cpu0_L1I PREFETCH REQUESTED:          0 ISSUED:          0 USEFUL:          0 USELESS:          0
cpu0_L1I AVERAGE MISS LATENCY: 10.86 cycles
cpu0_L2C TOTAL        ACCESS:    3232239 HIT:    2574084 MISS:     658155
cpu0_L2C LOAD         ACCESS:    2710056 HIT:    2127341 MISS:     582715
cpu0_L2C RFO          ACCESS:     133264 HIT:      85883 MISS:      47381
cpu0_L2C PREFETCH     ACCESS:          0 HIT:          0 MISS:          0
cpu0_L2C WRITE        ACCESS:     362474 HIT:     356327 MISS:       6147
cpu0_L2C TRANSLATION  ACCESS:      26445 HIT:       4533 MISS:      21912
cpu0_L2C PREFETCH REQUESTED:          0 ISSUED:          0 USEFUL:          0 USELESS:          0
cpu0_L2C AVERAGE MISS LATENCY: 261.3 cycles
cpu0_STLB TOTAL        ACCESS:    1008649 HIT:     981954 MISS:      26695
cpu0_STLB LOAD         ACCESS:    1008649 HIT:     981954 MISS:      26695
cpu0_STLB RFO          ACCESS:          0 HIT:          0 MISS:          0
cpu0_STLB PREFETCH     ACCESS:          0 HIT:          0 MISS:          0
cpu0_STLB WRITE        ACCESS:          0 HIT:          0 MISS:          0
cpu0_STLB TRANSLATION  ACCESS:          0 HIT:          0 MISS:          0
cpu0_STLB PREFETCH REQUESTED:          0 ISSUED:          0 USEFUL:          0 USELESS:          0
cpu0_STLB AVERAGE MISS LATENCY: 356.5 cycles

DRAM Statistics

Channel 0 RQ ROW_BUFFER_HIT:      60966
  ROW_BUFFER_MISS:     235572
 AVG DBUS CONGESTED CYCLE: 3.787
WQ ROW_BUFFER_HIT: Channel 0 
  ROW_BUFFER_MISS:       7432
  FULL:      30690
