WARNING: physical memory size is smaller than virtual memory size.

*** ChampSim Multicore Out-of-Order Simulator ***
Warmup Instructions: 50000000
Simulation Instructions: 600000000
Number of CPUs: 1
Page size: 4096

CPU 0 Tage branch predictor
Off-chip DRAM Size: 4 GiB Channels: 1 Width: 64-bit Data Race: 3200 MT/s
Heartbeat CPU 0 instructions: 10000001 cycles: 2500318 heartbeat IPC: 3.999 cumulative IPC: 3.999 (Simulation time: 00 hr 00 min 59 sec)
Heartbeat CPU 0 instructions: 20000002 cycles: 5037108 heartbeat IPC: 3.942 cumulative IPC: 3.971 (Simulation time: 00 hr 02 min 01 sec)
Heartbeat CPU 0 instructions: 30000002 cycles: 7537108 heartbeat IPC: 4 cumulative IPC: 3.98 (Simulation time: 00 hr 03 min 02 sec)
Heartbeat CPU 0 instructions: 40000002 cycles: 10037108 heartbeat IPC: 4 cumulative IPC: 3.985 (Simulation time: 00 hr 04 min 00 sec)
Heartbeat CPU 0 instructions: 50000002 cycles: 12537108 heartbeat IPC: 4 cumulative IPC: 3.988 (Simulation time: 00 hr 04 min 55 sec)
Warmup finished CPU 0 instructions: 50000002 cycles: 12537109 cumulative IPC: 3.988 (Simulation time: 00 hr 04 min 55 sec)
Warmup complete CPU 0 instructions: 50000002 cycles: 12537109 cumulative IPC: 3.988 (Simulation time: 00 hr 04 min 55 sec)
Heartbeat CPU 0 instructions: 60000001 cycles: 15500519 heartbeat IPC: 3.374 cumulative IPC: 3.374 (Simulation time: 00 hr 06 min 07 sec)
Heartbeat CPU 0 instructions: 70000004 cycles: 18558886 heartbeat IPC: 3.27 cumulative IPC: 3.321 (Simulation time: 00 hr 07 min 14 sec)
Heartbeat CPU 0 instructions: 80000001 cycles: 21594214 heartbeat IPC: 3.295 cumulative IPC: 3.312 (Simulation time: 00 hr 08 min 19 sec)
Heartbeat CPU 0 instructions: 90000001 cycles: 24531576 heartbeat IPC: 3.404 cumulative IPC: 3.335 (Simulation time: 00 hr 09 min 28 sec)
Heartbeat CPU 0 instructions: 100000000 cycles: 27434881 heartbeat IPC: 3.444 cumulative IPC: 3.356 (Simulation time: 00 hr 10 min 29 sec)
Heartbeat CPU 0 instructions: 110000000 cycles: 30371954 heartbeat IPC: 3.405 cumulative IPC: 3.364 (Simulation time: 00 hr 11 min 29 sec)
Heartbeat CPU 0 instructions: 120000001 cycles: 33333519 heartbeat IPC: 3.377 cumulative IPC: 3.366 (Simulation time: 00 hr 12 min 29 sec)
Heartbeat CPU 0 instructions: 130000001 cycles: 36177406 heartbeat IPC: 3.516 cumulative IPC: 3.384 (Simulation time: 00 hr 13 min 29 sec)
Heartbeat CPU 0 instructions: 140000001 cycles: 39202755 heartbeat IPC: 3.305 cumulative IPC: 3.375 (Simulation time: 00 hr 14 min 29 sec)
Heartbeat CPU 0 instructions: 150000001 cycles: 42196828 heartbeat IPC: 3.34 cumulative IPC: 3.372 (Simulation time: 00 hr 15 min 30 sec)
Heartbeat CPU 0 instructions: 160000004 cycles: 45190752 heartbeat IPC: 3.34 cumulative IPC: 3.369 (Simulation time: 00 hr 16 min 33 sec)
Heartbeat CPU 0 instructions: 170000000 cycles: 51559797 heartbeat IPC: 1.57 cumulative IPC: 3.075 (Simulation time: 00 hr 18 min 07 sec)
Heartbeat CPU 0 instructions: 180000004 cycles: 58093794 heartbeat IPC: 1.53 cumulative IPC: 2.854 (Simulation time: 00 hr 19 min 44 sec)
Heartbeat CPU 0 instructions: 190000001 cycles: 65276245 heartbeat IPC: 1.392 cumulative IPC: 2.655 (Simulation time: 00 hr 21 min 26 sec)
Heartbeat CPU 0 instructions: 200000004 cycles: 68198891 heartbeat IPC: 3.422 cumulative IPC: 2.695 (Simulation time: 00 hr 22 min 30 sec)
Heartbeat CPU 0 instructions: 210000001 cycles: 71122703 heartbeat IPC: 3.42 cumulative IPC: 2.731 (Simulation time: 00 hr 23 min 34 sec)
Heartbeat CPU 0 instructions: 220000000 cycles: 73996549 heartbeat IPC: 3.48 cumulative IPC: 2.766 (Simulation time: 00 hr 24 min 38 sec)
Heartbeat CPU 0 instructions: 230000002 cycles: 76956144 heartbeat IPC: 3.379 cumulative IPC: 2.794 (Simulation time: 00 hr 25 min 43 sec)
Heartbeat CPU 0 instructions: 240000003 cycles: 79951783 heartbeat IPC: 3.338 cumulative IPC: 2.818 (Simulation time: 00 hr 26 min 49 sec)
Heartbeat CPU 0 instructions: 250000000 cycles: 82932365 heartbeat IPC: 3.355 cumulative IPC: 2.841 (Simulation time: 00 hr 27 min 54 sec)
Heartbeat CPU 0 instructions: 260000002 cycles: 85863827 heartbeat IPC: 3.411 cumulative IPC: 2.864 (Simulation time: 00 hr 28 min 58 sec)
Heartbeat CPU 0 instructions: 270000002 cycles: 88742257 heartbeat IPC: 3.474 cumulative IPC: 2.887 (Simulation time: 00 hr 30 min 02 sec)
Heartbeat CPU 0 instructions: 280000002 cycles: 91598930 heartbeat IPC: 3.501 cumulative IPC: 2.909 (Simulation time: 00 hr 31 min 06 sec)
Heartbeat CPU 0 instructions: 290000002 cycles: 94524596 heartbeat IPC: 3.418 cumulative IPC: 2.927 (Simulation time: 00 hr 32 min 12 sec)
Heartbeat CPU 0 instructions: 300000003 cycles: 97370383 heartbeat IPC: 3.514 cumulative IPC: 2.947 (Simulation time: 00 hr 33 min 17 sec)
Heartbeat CPU 0 instructions: 310000001 cycles: 100351610 heartbeat IPC: 3.354 cumulative IPC: 2.961 (Simulation time: 00 hr 34 min 22 sec)
Heartbeat CPU 0 instructions: 320000003 cycles: 103319638 heartbeat IPC: 3.369 cumulative IPC: 2.974 (Simulation time: 00 hr 35 min 27 sec)
Heartbeat CPU 0 instructions: 330000003 cycles: 106255908 heartbeat IPC: 3.406 cumulative IPC: 2.988 (Simulation time: 00 hr 36 min 32 sec)
Heartbeat CPU 0 instructions: 340000000 cycles: 112639611 heartbeat IPC: 1.566 cumulative IPC: 2.897 (Simulation time: 00 hr 38 min 13 sec)
Heartbeat CPU 0 instructions: 350000000 cycles: 119408241 heartbeat IPC: 1.477 cumulative IPC: 2.807 (Simulation time: 00 hr 39 min 54 sec)
Heartbeat CPU 0 instructions: 360000004 cycles: 126639881 heartbeat IPC: 1.383 cumulative IPC: 2.717 (Simulation time: 00 hr 41 min 34 sec)
Heartbeat CPU 0 instructions: 370000000 cycles: 129580885 heartbeat IPC: 3.4 cumulative IPC: 2.734 (Simulation time: 00 hr 42 min 35 sec)
Heartbeat CPU 0 instructions: 380000003 cycles: 132473699 heartbeat IPC: 3.457 cumulative IPC: 2.751 (Simulation time: 00 hr 43 min 37 sec)
Heartbeat CPU 0 instructions: 390000002 cycles: 135429527 heartbeat IPC: 3.383 cumulative IPC: 2.767 (Simulation time: 00 hr 44 min 38 sec)
Heartbeat CPU 0 instructions: 400000004 cycles: 138319148 heartbeat IPC: 3.461 cumulative IPC: 2.783 (Simulation time: 00 hr 45 min 39 sec)
Heartbeat CPU 0 instructions: 410000002 cycles: 141227335 heartbeat IPC: 3.439 cumulative IPC: 2.797 (Simulation time: 00 hr 46 min 42 sec)
Heartbeat CPU 0 instructions: 420000003 cycles: 144259411 heartbeat IPC: 3.298 cumulative IPC: 2.809 (Simulation time: 00 hr 47 min 48 sec)
Heartbeat CPU 0 instructions: 430000001 cycles: 147245872 heartbeat IPC: 3.348 cumulative IPC: 2.821 (Simulation time: 00 hr 48 min 54 sec)
Heartbeat CPU 0 instructions: 440000004 cycles: 150347874 heartbeat IPC: 3.224 cumulative IPC: 2.83 (Simulation time: 00 hr 50 min 00 sec)
Heartbeat CPU 0 instructions: 450000002 cycles: 153237137 heartbeat IPC: 3.461 cumulative IPC: 2.843 (Simulation time: 00 hr 51 min 04 sec)
Heartbeat CPU 0 instructions: 460000000 cycles: 156144976 heartbeat IPC: 3.439 cumulative IPC: 2.855 (Simulation time: 00 hr 52 min 09 sec)
Heartbeat CPU 0 instructions: 470000001 cycles: 158970921 heartbeat IPC: 3.539 cumulative IPC: 2.868 (Simulation time: 00 hr 53 min 13 sec)
Heartbeat CPU 0 instructions: 480000003 cycles: 161983643 heartbeat IPC: 3.319 cumulative IPC: 2.877 (Simulation time: 00 hr 54 min 15 sec)
Heartbeat CPU 0 instructions: 490000004 cycles: 164794638 heartbeat IPC: 3.557 cumulative IPC: 2.89 (Simulation time: 00 hr 55 min 17 sec)
Heartbeat CPU 0 instructions: 500000004 cycles: 167753528 heartbeat IPC: 3.38 cumulative IPC: 2.899 (Simulation time: 00 hr 56 min 21 sec)
Heartbeat CPU 0 instructions: 510000003 cycles: 170723234 heartbeat IPC: 3.367 cumulative IPC: 2.908 (Simulation time: 00 hr 57 min 25 sec)
Heartbeat CPU 0 instructions: 520000001 cycles: 173574315 heartbeat IPC: 3.507 cumulative IPC: 2.919 (Simulation time: 00 hr 58 min 26 sec)
Heartbeat CPU 0 instructions: 530000001 cycles: 176542579 heartbeat IPC: 3.369 cumulative IPC: 2.927 (Simulation time: 00 hr 59 min 27 sec)
Heartbeat CPU 0 instructions: 540000000 cycles: 179465051 heartbeat IPC: 3.422 cumulative IPC: 2.935 (Simulation time: 01 hr 00 min 29 sec)
Heartbeat CPU 0 instructions: 550000001 cycles: 182418971 heartbeat IPC: 3.385 cumulative IPC: 2.943 (Simulation time: 01 hr 01 min 30 sec)
Heartbeat CPU 0 instructions: 560000000 cycles: 185452768 heartbeat IPC: 3.296 cumulative IPC: 2.949 (Simulation time: 01 hr 02 min 32 sec)
Heartbeat CPU 0 instructions: 570000004 cycles: 190028979 heartbeat IPC: 2.185 cumulative IPC: 2.93 (Simulation time: 01 hr 03 min 47 sec)
Heartbeat CPU 0 instructions: 580000003 cycles: 197270283 heartbeat IPC: 1.381 cumulative IPC: 2.869 (Simulation time: 01 hr 05 min 28 sec)
Heartbeat CPU 0 instructions: 590000002 cycles: 205952644 heartbeat IPC: 1.152 cumulative IPC: 2.792 (Simulation time: 01 hr 07 min 18 sec)
Heartbeat CPU 0 instructions: 600000004 cycles: 208949000 heartbeat IPC: 3.337 cumulative IPC: 2.8 (Simulation time: 01 hr 08 min 25 sec)
Heartbeat CPU 0 instructions: 610000002 cycles: 211892490 heartbeat IPC: 3.397 cumulative IPC: 2.809 (Simulation time: 01 hr 09 min 32 sec)
Heartbeat CPU 0 instructions: 620000001 cycles: 214652404 heartbeat IPC: 3.623 cumulative IPC: 2.82 (Simulation time: 01 hr 10 min 38 sec)
Heartbeat CPU 0 instructions: 630000002 cycles: 217600139 heartbeat IPC: 3.392 cumulative IPC: 2.828 (Simulation time: 01 hr 11 min 41 sec)
Heartbeat CPU 0 instructions: 640000004 cycles: 220542820 heartbeat IPC: 3.398 cumulative IPC: 2.836 (Simulation time: 01 hr 12 min 41 sec)
Heartbeat CPU 0 instructions: 650000000 cycles: 223283195 heartbeat IPC: 3.649 cumulative IPC: 2.847 (Simulation time: 01 hr 13 min 46 sec)
Simulation finished CPU 0 instructions: 600000001 cycles: 210746088 cumulative IPC: 2.847 (Simulation time: 01 hr 13 min 46 sec)
Simulation complete CPU 0 instructions: 600000001 cycles: 210746088 cumulative IPC: 2.847 (Simulation time: 01 hr 13 min 46 sec)

ChampSim completed all CPUs

=== Simulation ===
CPU 0 runs traces/400.perlbench-41B.champsimtrace.xz
Region of Interest Statistics

CPU 0 cumulative IPC: 2.847 instructions: 600000001 cycles: 210746088
CPU 0 Branch Prediction Accuracy: 99.19% MPKI: 1.684 Average ROB Occupancy at Mispredict: 101.7
Branch type MPKI
BRANCH_DIRECT_JUMP: 0.0123
BRANCH_INDIRECT: 0.323
BRANCH_CONDITIONAL: 1.14
BRANCH_DIRECT_CALL: 0.0043
BRANCH_INDIRECT_CALL: 0.2
BRANCH_RETURN: 0.00828

LLC TOTAL        ACCESS:     593224 HIT:     395341 MISS:     197883
LLC LOAD         ACCESS:     403392 HIT:     232359 MISS:     171033
LLC RFO          ACCESS:      32492 HIT:      26204 MISS:       6288
LLC PREFETCH     ACCESS:      52956 HIT:      41047 MISS:      11909
LLC WRITE        ACCESS:      85392 HIT:      85378 MISS:         14
LLC TRANSLATION  ACCESS:      18992 HIT:      10353 MISS:       8639
LLC PREFETCH REQUESTED:      52956 ISSUED:      52956 USEFUL:       5406 USELESS:       5101
LLC AVERAGE MISS LATENCY: 562.2 cycles
cpu0_DTLB TOTAL        ACCESS:  129801596 HIT:  129097094 MISS:     704502
cpu0_DTLB LOAD         ACCESS:  129801596 HIT:  129097094 MISS:     704502
cpu0_DTLB RFO          ACCESS:          0 HIT:          0 MISS:          0
cpu0_DTLB PREFETCH     ACCESS:          0 HIT:          0 MISS:          0
cpu0_DTLB WRITE        ACCESS:          0 HIT:          0 MISS:          0
cpu0_DTLB TRANSLATION  ACCESS:          0 HIT:          0 MISS:          0
cpu0_DTLB PREFETCH REQUESTED:          0 ISSUED:          0 USEFUL:          0 USELESS:          0
cpu0_DTLB AVERAGE MISS LATENCY: 12.68 cycles
cpu0_ITLB TOTAL        ACCESS:    4879516 HIT:    4817397 MISS:      62119
cpu0_ITLB LOAD         ACCESS:    4879516 HIT:    4817397 MISS:      62119
cpu0_ITLB RFO          ACCESS:          0 HIT:          0 MISS:          0
cpu0_ITLB PREFETCH     ACCESS:          0 HIT:          0 MISS:          0
cpu0_ITLB WRITE        ACCESS:          0 HIT:          0 MISS:          0
cpu0_ITLB TRANSLATION  ACCESS:          0 HIT:          0 MISS:          0
cpu0_ITLB PREFETCH REQUESTED:          0 ISSUED:          0 USEFUL:          0 USELESS:          0
cpu0_ITLB AVERAGE MISS LATENCY: 5.75 cycles
cpu0_L1D TOTAL        ACCESS:  174390095 HIT:  172625239 MISS:    1764856
cpu0_L1D LOAD         ACCESS:   91365176 HIT:   89984256 MISS:    1380920
cpu0_L1D RFO          ACCESS:          0 HIT:          0 MISS:          0
cpu0_L1D PREFETCH     ACCESS:          0 HIT:          0 MISS:          0
cpu0_L1D WRITE        ACCESS:   83000456 HIT:   82639919 MISS:     360537
cpu0_L1D TRANSLATION  ACCESS:      24463 HIT:       1064 MISS:      23399
cpu0_L1D PREFETCH REQUESTED:          0 ISSUED:          0 USEFUL:          0 USELESS:          0
cpu0_L1D AVERAGE MISS LATENCY: 63.33 cycles
cpu0_L1I TOTAL        ACCESS:    5658589 HIT:    4853373 MISS:     805216
cpu0_L1I LOAD         ACCESS:    5658589 HIT:    4853373 MISS:     805216
cpu0_L1I RFO          ACCESS:          0 HIT:          0 MISS:          0
cpu0_L1I PREFETCH     ACCESS:          0 HIT:          0 MISS:          0
cpu0_L1I WRITE        ACCESS:          0 HIT:          0 MISS:          0
cpu0_L1I TRANSLATION  ACCESS:          0 HIT:          0 MISS:          0
cpu0_L1I PREFETCH REQUESTED:          0 ISSUED:          0 USEFUL:          0 USELESS:          0
cpu0_L1I AVERAGE MISS LATENCY: 9.23 cycles
cpu0_L2C TOTAL        ACCESS:    1668395 HIT:    1211702 MISS:     456693
cpu0_L2C LOAD         ACCESS:    1315324 HIT:     911932 MISS:     403392
cpu0_L2C RFO          ACCESS:      89596 HIT:      57103 MISS:      32493
cpu0_L2C PREFETCH     ACCESS:          0 HIT:          0 MISS:          0
cpu0_L2C WRITE        ACCESS:     240152 HIT:     238336 MISS:       1816
cpu0_L2C TRANSLATION  ACCESS:      23323 HIT:       4331 MISS:      18992
cpu0_L2C PREFETCH REQUESTED:          0 ISSUED:          0 USEFUL:          0 USELESS:          0
cpu0_L2C AVERAGE MISS LATENCY: 248.2 cycles
cpu0_STLB TOTAL        ACCESS:     509172 HIT:     486385 MISS:      22787
cpu0_STLB LOAD         ACCESS:     509172 HIT:     486385 MISS:      22787
cpu0_STLB RFO          ACCESS:          0 HIT:          0 MISS:          0
cpu0_STLB PREFETCH     ACCESS:          0 HIT:          0 MISS:          0
cpu0_STLB WRITE        ACCESS:          0 HIT:          0 MISS:          0
cpu0_STLB TRANSLATION  ACCESS:          0 HIT:          0 MISS:          0
cpu0_STLB PREFETCH REQUESTED:          0 ISSUED:          0 USEFUL:          0 USELESS:          0
cpu0_STLB AVERAGE MISS LATENCY: 276.1 cycles

DRAM Statistics

Channel 0 RQ ROW_BUFFER_HIT:      50689
  ROW_BUFFER_MISS:     144911
 AVG DBUS CONGESTED CYCLE: 3.762
WQ ROW_BUFFER_HIT: Channel 0 
  ROW_BUFFER_MISS:       2717
  FULL:       4575
