WARNING: physical memory size is smaller than virtual memory size.

*** ChampSim Multicore Out-of-Order Simulator ***
Warmup Instructions: 50000000
Simulation Instructions: 600000000
Number of CPUs: 1
Page size: 4096

Off-chip DRAM Size: 4 GiB Channels: 1 Width: 64-bit Data Race: 3200 MT/s
Heartbeat CPU 0 instructions: 10000000 cycles: 2500061 heartbeat IPC: 4 cumulative IPC: 4 (Simulation time: 00 hr 01 min 07 sec)
Heartbeat CPU 0 instructions: 20000000 cycles: 5000061 heartbeat IPC: 4 cumulative IPC: 4 (Simulation time: 00 hr 02 min 06 sec)
Heartbeat CPU 0 instructions: 30000000 cycles: 7500061 heartbeat IPC: 4 cumulative IPC: 4 (Simulation time: 00 hr 03 min 01 sec)
Heartbeat CPU 0 instructions: 40000000 cycles: 10000061 heartbeat IPC: 4 cumulative IPC: 4 (Simulation time: 00 hr 03 min 55 sec)
Heartbeat CPU 0 instructions: 50000000 cycles: 12500061 heartbeat IPC: 4 cumulative IPC: 4 (Simulation time: 00 hr 04 min 47 sec)
Warmup finished CPU 0 instructions: 50000000 cycles: 12500062 cumulative IPC: 4 (Simulation time: 00 hr 04 min 47 sec)
Warmup complete CPU 0 instructions: 50000000 cycles: 12500062 cumulative IPC: 4 (Simulation time: 00 hr 04 min 47 sec)
Heartbeat CPU 0 instructions: 60000002 cycles: 16906981 heartbeat IPC: 2.269 cumulative IPC: 2.269 (Simulation time: 00 hr 06 min 02 sec)
Heartbeat CPU 0 instructions: 70000003 cycles: 21887535 heartbeat IPC: 2.008 cumulative IPC: 2.13 (Simulation time: 00 hr 07 min 17 sec)
Heartbeat CPU 0 instructions: 80000001 cycles: 27229088 heartbeat IPC: 1.872 cumulative IPC: 2.037 (Simulation time: 00 hr 08 min 38 sec)
Heartbeat CPU 0 instructions: 90000000 cycles: 31525396 heartbeat IPC: 2.328 cumulative IPC: 2.102 (Simulation time: 00 hr 10 min 06 sec)
Heartbeat CPU 0 instructions: 100000003 cycles: 36377115 heartbeat IPC: 2.061 cumulative IPC: 2.094 (Simulation time: 00 hr 11 min 37 sec)
Heartbeat CPU 0 instructions: 110000002 cycles: 41244754 heartbeat IPC: 2.054 cumulative IPC: 2.087 (Simulation time: 00 hr 13 min 01 sec)
Heartbeat CPU 0 instructions: 120000001 cycles: 46238023 heartbeat IPC: 2.003 cumulative IPC: 2.075 (Simulation time: 00 hr 14 min 22 sec)
Heartbeat CPU 0 instructions: 130000003 cycles: 50804474 heartbeat IPC: 2.19 cumulative IPC: 2.089 (Simulation time: 00 hr 15 min 31 sec)
Heartbeat CPU 0 instructions: 140000002 cycles: 55692287 heartbeat IPC: 2.046 cumulative IPC: 2.084 (Simulation time: 00 hr 16 min 41 sec)
Heartbeat CPU 0 instructions: 150000001 cycles: 60357159 heartbeat IPC: 2.144 cumulative IPC: 2.09 (Simulation time: 00 hr 17 min 53 sec)
Heartbeat CPU 0 instructions: 160000000 cycles: 64993046 heartbeat IPC: 2.157 cumulative IPC: 2.096 (Simulation time: 00 hr 19 min 21 sec)
Heartbeat CPU 0 instructions: 170000000 cycles: 70321999 heartbeat IPC: 1.877 cumulative IPC: 2.075 (Simulation time: 00 hr 21 min 02 sec)
Heartbeat CPU 0 instructions: 180000001 cycles: 76039062 heartbeat IPC: 1.749 cumulative IPC: 2.046 (Simulation time: 00 hr 22 min 33 sec)
Heartbeat CPU 0 instructions: 190000002 cycles: 80507077 heartbeat IPC: 2.238 cumulative IPC: 2.059 (Simulation time: 00 hr 23 min 50 sec)
Heartbeat CPU 0 instructions: 200000002 cycles: 85405744 heartbeat IPC: 2.041 cumulative IPC: 2.057 (Simulation time: 00 hr 25 min 07 sec)
Heartbeat CPU 0 instructions: 210000000 cycles: 90406939 heartbeat IPC: 2 cumulative IPC: 2.054 (Simulation time: 00 hr 26 min 23 sec)
Heartbeat CPU 0 instructions: 220000001 cycles: 95328642 heartbeat IPC: 2.032 cumulative IPC: 2.052 (Simulation time: 00 hr 27 min 37 sec)
Heartbeat CPU 0 instructions: 230000002 cycles: 100572950 heartbeat IPC: 1.907 cumulative IPC: 2.044 (Simulation time: 00 hr 29 min 00 sec)
Heartbeat CPU 0 instructions: 240000001 cycles: 105535222 heartbeat IPC: 2.015 cumulative IPC: 2.042 (Simulation time: 00 hr 30 min 28 sec)
Heartbeat CPU 0 instructions: 250000003 cycles: 110710321 heartbeat IPC: 1.932 cumulative IPC: 2.036 (Simulation time: 00 hr 32 min 03 sec)
Heartbeat CPU 0 instructions: 260000001 cycles: 115567959 heartbeat IPC: 2.059 cumulative IPC: 2.037 (Simulation time: 00 hr 33 min 35 sec)
Heartbeat CPU 0 instructions: 270000000 cycles: 123305342 heartbeat IPC: 1.292 cumulative IPC: 1.985 (Simulation time: 00 hr 35 min 24 sec)
Heartbeat CPU 0 instructions: 280000000 cycles: 134886296 heartbeat IPC: 0.8635 cumulative IPC: 1.879 (Simulation time: 00 hr 37 min 36 sec)
Heartbeat CPU 0 instructions: 290000001 cycles: 145065657 heartbeat IPC: 0.9824 cumulative IPC: 1.81 (Simulation time: 00 hr 39 min 32 sec)
Heartbeat CPU 0 instructions: 300000003 cycles: 152634279 heartbeat IPC: 1.321 cumulative IPC: 1.784 (Simulation time: 00 hr 41 min 48 sec)
Heartbeat CPU 0 instructions: 310000004 cycles: 163706159 heartbeat IPC: 0.9032 cumulative IPC: 1.72 (Simulation time: 00 hr 44 min 29 sec)
Heartbeat CPU 0 instructions: 320000004 cycles: 169382967 heartbeat IPC: 1.762 cumulative IPC: 1.721 (Simulation time: 00 hr 45 min 54 sec)
Heartbeat CPU 0 instructions: 330000000 cycles: 174679673 heartbeat IPC: 1.888 cumulative IPC: 1.726 (Simulation time: 00 hr 47 min 20 sec)
Heartbeat CPU 0 instructions: 340000001 cycles: 179901554 heartbeat IPC: 1.915 cumulative IPC: 1.732 (Simulation time: 00 hr 48 min 44 sec)
Heartbeat CPU 0 instructions: 350000000 cycles: 185332461 heartbeat IPC: 1.841 cumulative IPC: 1.736 (Simulation time: 00 hr 49 min 59 sec)
Heartbeat CPU 0 instructions: 360000003 cycles: 190516812 heartbeat IPC: 1.929 cumulative IPC: 1.741 (Simulation time: 00 hr 51 min 10 sec)
Heartbeat CPU 0 instructions: 370000001 cycles: 195620348 heartbeat IPC: 1.959 cumulative IPC: 1.747 (Simulation time: 00 hr 52 min 22 sec)
Heartbeat CPU 0 instructions: 380000004 cycles: 200996939 heartbeat IPC: 1.86 cumulative IPC: 1.751 (Simulation time: 00 hr 53 min 59 sec)
Heartbeat CPU 0 instructions: 390000002 cycles: 206420444 heartbeat IPC: 1.844 cumulative IPC: 1.753 (Simulation time: 00 hr 55 min 33 sec)
Heartbeat CPU 0 instructions: 400000000 cycles: 211937134 heartbeat IPC: 1.813 cumulative IPC: 1.755 (Simulation time: 00 hr 57 min 03 sec)
Heartbeat CPU 0 instructions: 410000000 cycles: 220453563 heartbeat IPC: 1.174 cumulative IPC: 1.731 (Simulation time: 00 hr 58 min 53 sec)
Heartbeat CPU 0 instructions: 420000001 cycles: 231835134 heartbeat IPC: 0.8786 cumulative IPC: 1.687 (Simulation time: 01 hr 01 min 14 sec)
Heartbeat CPU 0 instructions: 430000000 cycles: 239742820 heartbeat IPC: 1.265 cumulative IPC: 1.672 (Simulation time: 01 hr 03 min 03 sec)
Heartbeat CPU 0 instructions: 440000002 cycles: 246925798 heartbeat IPC: 1.392 cumulative IPC: 1.664 (Simulation time: 01 hr 04 min 41 sec)
Heartbeat CPU 0 instructions: 450000000 cycles: 253784097 heartbeat IPC: 1.458 cumulative IPC: 1.658 (Simulation time: 01 hr 06 min 26 sec)
Heartbeat CPU 0 instructions: 460000002 cycles: 264688508 heartbeat IPC: 0.9171 cumulative IPC: 1.626 (Simulation time: 01 hr 09 min 06 sec)
Heartbeat CPU 0 instructions: 470000000 cycles: 274708309 heartbeat IPC: 0.998 cumulative IPC: 1.602 (Simulation time: 01 hr 11 min 25 sec)
Heartbeat CPU 0 instructions: 480000000 cycles: 280195482 heartbeat IPC: 1.822 cumulative IPC: 1.606 (Simulation time: 01 hr 12 min 54 sec)
Heartbeat CPU 0 instructions: 490000001 cycles: 285957182 heartbeat IPC: 1.736 cumulative IPC: 1.609 (Simulation time: 01 hr 14 min 25 sec)
Heartbeat CPU 0 instructions: 500000002 cycles: 291586291 heartbeat IPC: 1.776 cumulative IPC: 1.612 (Simulation time: 01 hr 15 min 51 sec)
Heartbeat CPU 0 instructions: 510000000 cycles: 297300853 heartbeat IPC: 1.75 cumulative IPC: 1.615 (Simulation time: 01 hr 17 min 14 sec)
Heartbeat CPU 0 instructions: 520000000 cycles: 303088466 heartbeat IPC: 1.728 cumulative IPC: 1.617 (Simulation time: 01 hr 18 min 34 sec)
Heartbeat CPU 0 instructions: 530000001 cycles: 315023306 heartbeat IPC: 0.8379 cumulative IPC: 1.587 (Simulation time: 01 hr 21 min 15 sec)
Heartbeat CPU 0 instructions: 540000000 cycles: 326128326 heartbeat IPC: 0.9005 cumulative IPC: 1.562 (Simulation time: 01 hr 23 min 53 sec)
Heartbeat CPU 0 instructions: 550000002 cycles: 339120550 heartbeat IPC: 0.7697 cumulative IPC: 1.531 (Simulation time: 01 hr 26 min 24 sec)
Heartbeat CPU 0 instructions: 560000004 cycles: 343960715 heartbeat IPC: 2.066 cumulative IPC: 1.539 (Simulation time: 01 hr 27 min 46 sec)
Heartbeat CPU 0 instructions: 570000001 cycles: 348370288 heartbeat IPC: 2.268 cumulative IPC: 1.548 (Simulation time: 01 hr 29 min 02 sec)
Heartbeat CPU 0 instructions: 580000003 cycles: 352614851 heartbeat IPC: 2.356 cumulative IPC: 1.558 (Simulation time: 01 hr 30 min 12 sec)
Heartbeat CPU 0 instructions: 590000001 cycles: 357518085 heartbeat IPC: 2.039 cumulative IPC: 1.565 (Simulation time: 01 hr 31 min 25 sec)
Heartbeat CPU 0 instructions: 600000003 cycles: 362159652 heartbeat IPC: 2.154 cumulative IPC: 1.573 (Simulation time: 01 hr 32 min 41 sec)
Heartbeat CPU 0 instructions: 610000001 cycles: 367020087 heartbeat IPC: 2.057 cumulative IPC: 1.58 (Simulation time: 01 hr 34 min 15 sec)
Heartbeat CPU 0 instructions: 620000000 cycles: 372088436 heartbeat IPC: 1.973 cumulative IPC: 1.585 (Simulation time: 01 hr 35 min 45 sec)
Heartbeat CPU 0 instructions: 630000002 cycles: 376335243 heartbeat IPC: 2.355 cumulative IPC: 1.594 (Simulation time: 01 hr 37 min 01 sec)
Heartbeat CPU 0 instructions: 640000004 cycles: 381656880 heartbeat IPC: 1.879 cumulative IPC: 1.598 (Simulation time: 01 hr 38 min 22 sec)
Heartbeat CPU 0 instructions: 650000001 cycles: 386421708 heartbeat IPC: 2.099 cumulative IPC: 1.605 (Simulation time: 01 hr 39 min 49 sec)
Simulation finished CPU 0 instructions: 600000001 cycles: 373921647 cumulative IPC: 1.605 (Simulation time: 01 hr 39 min 49 sec)
Simulation complete CPU 0 instructions: 600000001 cycles: 373921647 cumulative IPC: 1.605 (Simulation time: 01 hr 39 min 49 sec)

ChampSim completed all CPUs

=== Simulation ===
CPU 0 runs traces/400.perlbench-50B.champsimtrace.xz
Region of Interest Statistics

CPU 0 cumulative IPC: 1.605 instructions: 600000001 cycles: 373921647
CPU 0 Branch Prediction Accuracy: 93.83% MPKI: 12.71 Average ROB Occupancy at Mispredict: 29.43
Branch type MPKI
BRANCH_DIRECT_JUMP: 0.0176
BRANCH_INDIRECT: 0.38
BRANCH_CONDITIONAL: 11.9
BRANCH_DIRECT_CALL: 0.0067
BRANCH_INDIRECT_CALL: 0.431
BRANCH_RETURN: 0.0161

LLC TOTAL        ACCESS:     856406 HIT:     535029 MISS:     321377
LLC LOAD         ACCESS:     587781 HIT:     328604 MISS:     259177
LLC RFO          ACCESS:      48294 HIT:      27997 MISS:      20297
LLC PREFETCH     ACCESS:      66543 HIT:      36898 MISS:      29645
LLC WRITE        ACCESS:     131781 HIT:     131396 MISS:        385
LLC TRANSLATION  ACCESS:      22007 HIT:      10134 MISS:      11873
LLC PREFETCH REQUESTED:      66543 ISSUED:      66543 USEFUL:      18554 USELESS:       6681
LLC AVERAGE MISS LATENCY: 550.7 cycles
cpu0_DTLB TOTAL        ACCESS:  156767492 HIT:  155466322 MISS:    1301170
cpu0_DTLB LOAD         ACCESS:  156767492 HIT:  155466322 MISS:    1301170
cpu0_DTLB RFO          ACCESS:          0 HIT:          0 MISS:          0
cpu0_DTLB PREFETCH     ACCESS:          0 HIT:          0 MISS:          0
cpu0_DTLB WRITE        ACCESS:          0 HIT:          0 MISS:          0
cpu0_DTLB TRANSLATION  ACCESS:          0 HIT:          0 MISS:          0
cpu0_DTLB PREFETCH REQUESTED:          0 ISSUED:          0 USEFUL:          0 USELESS:          0
cpu0_DTLB AVERAGE MISS LATENCY: 12.1 cycles
cpu0_ITLB TOTAL        ACCESS:    8933125 HIT:    8734555 MISS:     198570
cpu0_ITLB LOAD         ACCESS:    8933125 HIT:    8734555 MISS:     198570
cpu0_ITLB RFO          ACCESS:          0 HIT:          0 MISS:          0
cpu0_ITLB PREFETCH     ACCESS:          0 HIT:          0 MISS:          0
cpu0_ITLB WRITE        ACCESS:          0 HIT:          0 MISS:          0
cpu0_ITLB TRANSLATION  ACCESS:          0 HIT:          0 MISS:          0
cpu0_ITLB PREFETCH REQUESTED:          0 ISSUED:          0 USEFUL:          0 USELESS:          0
cpu0_ITLB AVERAGE MISS LATENCY: 3.343 cycles
cpu0_L1D TOTAL        ACCESS:  203626063 HIT:  200740978 MISS:    2885085
cpu0_L1D LOAD         ACCESS:  117949340 HIT:  115579857 MISS:    2369483
cpu0_L1D RFO          ACCESS:          0 HIT:          0 MISS:          0
cpu0_L1D PREFETCH     ACCESS:          0 HIT:          0 MISS:          0
cpu0_L1D WRITE        ACCESS:   85648183 HIT:   85159126 MISS:     489057
cpu0_L1D TRANSLATION  ACCESS:      28540 HIT:       1995 MISS:      26545
cpu0_L1D PREFETCH REQUESTED:          0 ISSUED:          0 USEFUL:          0 USELESS:          0
cpu0_L1D AVERAGE MISS LATENCY: 60.25 cycles
cpu0_L1I TOTAL        ACCESS:   10371574 HIT:    8574546 MISS:    1797028
cpu0_L1I LOAD         ACCESS:   10371574 HIT:    8574546 MISS:    1797028
cpu0_L1I RFO          ACCESS:          0 HIT:          0 MISS:          0
cpu0_L1I PREFETCH     ACCESS:          0 HIT:          0 MISS:          0
cpu0_L1I WRITE        ACCESS:          0 HIT:          0 MISS:          0
cpu0_L1I TRANSLATION  ACCESS:          0 HIT:          0 MISS:          0
cpu0_L1I PREFETCH REQUESTED:          0 ISSUED:          0 USEFUL:          0 USELESS:          0
cpu0_L1I AVERAGE MISS LATENCY: 11.58 cycles
cpu0_L2C TOTAL        ACCESS:    3235332 HIT:    2570325 MISS:     665007
cpu0_L2C LOAD         ACCESS:    2711699 HIT:    2123918 MISS:     587781
cpu0_L2C RFO          ACCESS:     133697 HIT:      85403 MISS:      48294
cpu0_L2C PREFETCH     ACCESS:          0 HIT:          0 MISS:          0
cpu0_L2C WRITE        ACCESS:     363473 HIT:     356548 MISS:       6925
cpu0_L2C TRANSLATION  ACCESS:      26463 HIT:       4456 MISS:      22007
cpu0_L2C PREFETCH REQUESTED:          0 ISSUED:          0 USEFUL:          0 USELESS:          0
cpu0_L2C AVERAGE MISS LATENCY: 259.6 cycles
cpu0_STLB TOTAL        ACCESS:    1009221 HIT:     982530 MISS:      26691
cpu0_STLB LOAD         ACCESS:    1009221 HIT:     982530 MISS:      26691
cpu0_STLB RFO          ACCESS:          0 HIT:          0 MISS:          0
cpu0_STLB PREFETCH     ACCESS:          0 HIT:          0 MISS:          0
cpu0_STLB WRITE        ACCESS:          0 HIT:          0 MISS:          0
cpu0_STLB TRANSLATION  ACCESS:          0 HIT:          0 MISS:          0
cpu0_STLB PREFETCH REQUESTED:          0 ISSUED:          0 USEFUL:          0 USELESS:          0
cpu0_STLB AVERAGE MISS LATENCY: 372.1 cycles

DRAM Statistics

Channel 0 RQ ROW_BUFFER_HIT:      60371
  ROW_BUFFER_MISS:     255296
 AVG DBUS CONGESTED CYCLE: 3.818
WQ ROW_BUFFER_HIT: Channel 0 
  ROW_BUFFER_MISS:       8445
  FULL:      40149
