WARNING: physical memory size is smaller than virtual memory size.

*** ChampSim Multicore Out-of-Order Simulator ***
Warmup Instructions: 50000000
Simulation Instructions: 600000000
Number of CPUs: 1
Page size: 4096

CPU 0 Tage branch predictor
Off-chip DRAM Size: 4 GiB Channels: 1 Width: 64-bit Data Race: 3200 MT/s
Heartbeat CPU 0 instructions: 10000000 cycles: 2500061 heartbeat IPC: 4 cumulative IPC: 4 (Simulation time: 00 hr 01 min 28 sec)
Heartbeat CPU 0 instructions: 20000000 cycles: 5000061 heartbeat IPC: 4 cumulative IPC: 4 (Simulation time: 00 hr 03 min 21 sec)
Heartbeat CPU 0 instructions: 30000000 cycles: 7500061 heartbeat IPC: 4 cumulative IPC: 4 (Simulation time: 00 hr 06 min 04 sec)
Heartbeat CPU 0 instructions: 40000000 cycles: 10000061 heartbeat IPC: 4 cumulative IPC: 4 (Simulation time: 00 hr 09 min 21 sec)
Heartbeat CPU 0 instructions: 50000000 cycles: 12500061 heartbeat IPC: 4 cumulative IPC: 4 (Simulation time: 00 hr 13 min 19 sec)
Warmup finished CPU 0 instructions: 50000000 cycles: 12500062 cumulative IPC: 4 (Simulation time: 00 hr 13 min 19 sec)
Warmup complete CPU 0 instructions: 50000000 cycles: 12500062 cumulative IPC: 4 (Simulation time: 00 hr 13 min 19 sec)
Heartbeat CPU 0 instructions: 60000004 cycles: 15503677 heartbeat IPC: 3.329 cumulative IPC: 3.329 (Simulation time: 00 hr 18 min 11 sec)
Heartbeat CPU 0 instructions: 70000003 cycles: 18382317 heartbeat IPC: 3.474 cumulative IPC: 3.4 (Simulation time: 00 hr 22 min 46 sec)
Heartbeat CPU 0 instructions: 80000002 cycles: 21404747 heartbeat IPC: 3.309 cumulative IPC: 3.369 (Simulation time: 00 hr 27 min 26 sec)
Heartbeat CPU 0 instructions: 90000000 cycles: 24127135 heartbeat IPC: 3.673 cumulative IPC: 3.44 (Simulation time: 00 hr 31 min 53 sec)
Heartbeat CPU 0 instructions: 100000003 cycles: 26893697 heartbeat IPC: 3.615 cumulative IPC: 3.474 (Simulation time: 00 hr 36 min 25 sec)
Heartbeat CPU 0 instructions: 110000001 cycles: 29799971 heartbeat IPC: 3.441 cumulative IPC: 3.468 (Simulation time: 00 hr 40 min 56 sec)
Heartbeat CPU 0 instructions: 120000001 cycles: 32524189 heartbeat IPC: 3.671 cumulative IPC: 3.496 (Simulation time: 00 hr 45 min 25 sec)
Heartbeat CPU 0 instructions: 130000003 cycles: 35426960 heartbeat IPC: 3.445 cumulative IPC: 3.489 (Simulation time: 00 hr 49 min 58 sec)
Heartbeat CPU 0 instructions: 140000002 cycles: 38265022 heartbeat IPC: 3.524 cumulative IPC: 3.493 (Simulation time: 00 hr 54 min 28 sec)
Heartbeat CPU 0 instructions: 150000001 cycles: 41038933 heartbeat IPC: 3.605 cumulative IPC: 3.504 (Simulation time: 00 hr 58 min 55 sec)
Heartbeat CPU 0 instructions: 160000000 cycles: 43953820 heartbeat IPC: 3.431 cumulative IPC: 3.497 (Simulation time: 01 hr 03 min 28 sec)
Heartbeat CPU 0 instructions: 170000001 cycles: 46884845 heartbeat IPC: 3.412 cumulative IPC: 3.49 (Simulation time: 01 hr 08 min 03 sec)
Heartbeat CPU 0 instructions: 180000000 cycles: 49682531 heartbeat IPC: 3.574 cumulative IPC: 3.496 (Simulation time: 01 hr 12 min 37 sec)
Heartbeat CPU 0 instructions: 190000002 cycles: 52390539 heartbeat IPC: 3.693 cumulative IPC: 3.51 (Simulation time: 01 hr 17 min 11 sec)
Heartbeat CPU 0 instructions: 200000002 cycles: 55219937 heartbeat IPC: 3.534 cumulative IPC: 3.511 (Simulation time: 01 hr 21 min 43 sec)
Heartbeat CPU 0 instructions: 210000000 cycles: 58119126 heartbeat IPC: 3.449 cumulative IPC: 3.507 (Simulation time: 01 hr 26 min 19 sec)
Heartbeat CPU 0 instructions: 220000001 cycles: 60883566 heartbeat IPC: 3.617 cumulative IPC: 3.514 (Simulation time: 01 hr 30 min 51 sec)
Heartbeat CPU 0 instructions: 230000002 cycles: 63776820 heartbeat IPC: 3.456 cumulative IPC: 3.51 (Simulation time: 01 hr 35 min 27 sec)
Heartbeat CPU 0 instructions: 240000004 cycles: 66737011 heartbeat IPC: 3.378 cumulative IPC: 3.503 (Simulation time: 01 hr 40 min 04 sec)
Heartbeat CPU 0 instructions: 250000003 cycles: 69643379 heartbeat IPC: 3.441 cumulative IPC: 3.5 (Simulation time: 01 hr 44 min 38 sec)
Heartbeat CPU 0 instructions: 260000001 cycles: 72434967 heartbeat IPC: 3.582 cumulative IPC: 3.504 (Simulation time: 01 hr 49 min 12 sec)
Heartbeat CPU 0 instructions: 270000002 cycles: 77843513 heartbeat IPC: 1.849 cumulative IPC: 3.367 (Simulation time: 01 hr 55 min 23 sec)
Heartbeat CPU 0 instructions: 280000000 cycles: 86045195 heartbeat IPC: 1.219 cumulative IPC: 3.127 (Simulation time: 02 hr 03 min 33 sec)
Heartbeat CPU 0 instructions: 290000000 cycles: 92808201 heartbeat IPC: 1.479 cumulative IPC: 2.988 (Simulation time: 02 hr 10 min 51 sec)
Heartbeat CPU 0 instructions: 300000003 cycles: 97801823 heartbeat IPC: 2.003 cumulative IPC: 2.931 (Simulation time: 02 hr 17 min 13 sec)
Heartbeat CPU 0 instructions: 310000001 cycles: 105362534 heartbeat IPC: 1.323 cumulative IPC: 2.8 (Simulation time: 02 hr 25 min 12 sec)
Heartbeat CPU 0 instructions: 320000004 cycles: 109039864 heartbeat IPC: 2.719 cumulative IPC: 2.797 (Simulation time: 02 hr 30 min 30 sec)
Heartbeat CPU 0 instructions: 330000000 cycles: 112224699 heartbeat IPC: 3.14 cumulative IPC: 2.808 (Simulation time: 02 hr 35 min 26 sec)
Heartbeat CPU 0 instructions: 340000001 cycles: 115414196 heartbeat IPC: 3.135 cumulative IPC: 2.818 (Simulation time: 02 hr 40 min 18 sec)
Heartbeat CPU 0 instructions: 350000000 cycles: 118763058 heartbeat IPC: 2.986 cumulative IPC: 2.823 (Simulation time: 02 hr 45 min 14 sec)
Heartbeat CPU 0 instructions: 360000004 cycles: 121911205 heartbeat IPC: 3.176 cumulative IPC: 2.833 (Simulation time: 02 hr 50 min 07 sec)
Heartbeat CPU 0 instructions: 370000001 cycles: 125003160 heartbeat IPC: 3.234 cumulative IPC: 2.844 (Simulation time: 02 hr 54 min 56 sec)
Heartbeat CPU 0 instructions: 380000004 cycles: 128114778 heartbeat IPC: 3.214 cumulative IPC: 2.854 (Simulation time: 02 hr 59 min 46 sec)
Heartbeat CPU 0 instructions: 390000002 cycles: 131361239 heartbeat IPC: 3.08 cumulative IPC: 2.86 (Simulation time: 03 hr 04 min 41 sec)
Heartbeat CPU 0 instructions: 400000000 cycles: 134656870 heartbeat IPC: 3.034 cumulative IPC: 2.865 (Simulation time: 03 hr 09 min 37 sec)
Heartbeat CPU 0 instructions: 410000000 cycles: 140234326 heartbeat IPC: 1.793 cumulative IPC: 2.818 (Simulation time: 03 hr 16 min 06 sec)
Heartbeat CPU 0 instructions: 420000003 cycles: 148189543 heartbeat IPC: 1.257 cumulative IPC: 2.727 (Simulation time: 03 hr 24 min 11 sec)
Heartbeat CPU 0 instructions: 430000000 cycles: 153424443 heartbeat IPC: 1.91 cumulative IPC: 2.696 (Simulation time: 03 hr 30 min 42 sec)
Heartbeat CPU 0 instructions: 440000004 cycles: 157988781 heartbeat IPC: 2.191 cumulative IPC: 2.681 (Simulation time: 03 hr 36 min 43 sec)
Heartbeat CPU 0 instructions: 450000001 cycles: 162510713 heartbeat IPC: 2.211 cumulative IPC: 2.666 (Simulation time: 03 hr 42 min 42 sec)
Heartbeat CPU 0 instructions: 460000002 cycles: 169477638 heartbeat IPC: 1.435 cumulative IPC: 2.612 (Simulation time: 03 hr 50 min 15 sec)
Heartbeat CPU 0 instructions: 470000003 cycles: 176470936 heartbeat IPC: 1.43 cumulative IPC: 2.561 (Simulation time: 03 hr 57 min 47 sec)
Heartbeat CPU 0 instructions: 480000000 cycles: 179874841 heartbeat IPC: 2.938 cumulative IPC: 2.569 (Simulation time: 04 hr 02 min 50 sec)
Heartbeat CPU 0 instructions: 490000001 cycles: 183530480 heartbeat IPC: 2.736 cumulative IPC: 2.573 (Simulation time: 04 hr 08 min 03 sec)
Heartbeat CPU 0 instructions: 500000002 cycles: 186988920 heartbeat IPC: 2.891 cumulative IPC: 2.579 (Simulation time: 04 hr 13 min 06 sec)
Heartbeat CPU 0 instructions: 510000000 cycles: 190458159 heartbeat IPC: 2.882 cumulative IPC: 2.585 (Simulation time: 04 hr 18 min 13 sec)
Heartbeat CPU 0 instructions: 520000000 cycles: 193956404 heartbeat IPC: 2.859 cumulative IPC: 2.59 (Simulation time: 04 hr 23 min 29 sec)
Heartbeat CPU 0 instructions: 530000001 cycles: 202019307 heartbeat IPC: 1.24 cumulative IPC: 2.533 (Simulation time: 04 hr 31 min 41 sec)
Heartbeat CPU 0 instructions: 540000000 cycles: 209801398 heartbeat IPC: 1.285 cumulative IPC: 2.484 (Simulation time: 04 hr 39 min 47 sec)
Heartbeat CPU 0 instructions: 550000004 cycles: 218960527 heartbeat IPC: 1.092 cumulative IPC: 2.422 (Simulation time: 04 hr 48 min 44 sec)
Heartbeat CPU 0 instructions: 560000004 cycles: 222406498 heartbeat IPC: 2.902 cumulative IPC: 2.43 (Simulation time: 04 hr 53 min 40 sec)
Heartbeat CPU 0 instructions: 570000002 cycles: 225228576 heartbeat IPC: 3.543 cumulative IPC: 2.444 (Simulation time: 04 hr 58 min 19 sec)
Heartbeat CPU 0 instructions: 580000000 cycles: 228156296 heartbeat IPC: 3.416 cumulative IPC: 2.458 (Simulation time: 05 hr 02 min 54 sec)
Heartbeat CPU 0 instructions: 590000001 cycles: 231090961 heartbeat IPC: 3.408 cumulative IPC: 2.47 (Simulation time: 05 hr 07 min 32 sec)
Heartbeat CPU 0 instructions: 600000003 cycles: 233789532 heartbeat IPC: 3.706 cumulative IPC: 2.485 (Simulation time: 05 hr 12 min 08 sec)
Heartbeat CPU 0 instructions: 610000001 cycles: 236660781 heartbeat IPC: 3.483 cumulative IPC: 2.498 (Simulation time: 05 hr 16 min 59 sec)
Heartbeat CPU 0 instructions: 620000004 cycles: 239619616 heartbeat IPC: 3.38 cumulative IPC: 2.51 (Simulation time: 05 hr 21 min 41 sec)
Heartbeat CPU 0 instructions: 630000002 cycles: 242430875 heartbeat IPC: 3.557 cumulative IPC: 2.522 (Simulation time: 05 hr 26 min 40 sec)
Heartbeat CPU 0 instructions: 640000004 cycles: 245478933 heartbeat IPC: 3.281 cumulative IPC: 2.532 (Simulation time: 05 hr 31 min 35 sec)
Heartbeat CPU 0 instructions: 650000001 cycles: 248187939 heartbeat IPC: 3.691 cumulative IPC: 2.546 (Simulation time: 05 hr 36 min 16 sec)
Simulation finished CPU 0 instructions: 600000001 cycles: 235687878 cumulative IPC: 2.546 (Simulation time: 05 hr 36 min 16 sec)
Simulation complete CPU 0 instructions: 600000001 cycles: 235687878 cumulative IPC: 2.546 (Simulation time: 05 hr 36 min 16 sec)

ChampSim completed all CPUs

=== Simulation ===
CPU 0 runs traces/400.perlbench-50B.champsimtrace.xz
Region of Interest Statistics

CPU 0 cumulative IPC: 2.546 instructions: 600000001 cycles: 235687878
CPU 0 Branch Prediction Accuracy: 99.01% MPKI: 2.04 Average ROB Occupancy at Mispredict: 94.08
Branch type MPKI
BRANCH_DIRECT_JUMP: 0.0176
BRANCH_INDIRECT: 0.38
BRANCH_CONDITIONAL: 1.19
BRANCH_DIRECT_CALL: 0.0067
BRANCH_INDIRECT_CALL: 0.431
BRANCH_RETURN: 0.0161

LLC TOTAL        ACCESS:    1354136 HIT:     917429 MISS:     436707
LLC LOAD         ACCESS:     579019 HIT:     380135 MISS:     198884
LLC RFO          ACCESS:      47239 HIT:      30169 MISS:      17070
LLC PREFETCH     ACCESS:     579019 HIT:     369392 MISS:     209627
LLC WRITE        ACCESS:     126836 HIT:     126608 MISS:        228
LLC TRANSLATION  ACCESS:      22023 HIT:      11125 MISS:      10898
LLC PREFETCH REQUESTED:     579019 ISSUED:     579019 USEFUL:      79916 USELESS:      62788
LLC AVERAGE MISS LATENCY: 605.9 cycles
cpu0_DTLB TOTAL        ACCESS:  133243918 HIT:  131889405 MISS:    1354513
cpu0_DTLB LOAD         ACCESS:  133243918 HIT:  131889405 MISS:    1354513
cpu0_DTLB RFO          ACCESS:          0 HIT:          0 MISS:          0
cpu0_DTLB PREFETCH     ACCESS:          0 HIT:          0 MISS:          0
cpu0_DTLB WRITE        ACCESS:          0 HIT:          0 MISS:          0
cpu0_DTLB TRANSLATION  ACCESS:          0 HIT:          0 MISS:          0
cpu0_DTLB PREFETCH REQUESTED:          0 ISSUED:          0 USEFUL:          0 USELESS:          0
cpu0_DTLB AVERAGE MISS LATENCY: 11.47 cycles
cpu0_ITLB TOTAL        ACCESS:    8990561 HIT:    8781076 MISS:     209485
cpu0_ITLB LOAD         ACCESS:    8990561 HIT:    8781076 MISS:     209485
cpu0_ITLB RFO          ACCESS:          0 HIT:          0 MISS:          0
cpu0_ITLB PREFETCH     ACCESS:          0 HIT:          0 MISS:          0
cpu0_ITLB WRITE        ACCESS:          0 HIT:          0 MISS:          0
cpu0_ITLB TRANSLATION  ACCESS:          0 HIT:          0 MISS:          0
cpu0_ITLB PREFETCH REQUESTED:          0 ISSUED:          0 USEFUL:          0 USELESS:          0
cpu0_ITLB AVERAGE MISS LATENCY: 2.74 cycles
cpu0_L1D TOTAL        ACCESS:  178287893 HIT:  174501890 MISS:    3786003
cpu0_L1D LOAD         ACCESS:   92768305 HIT:   89664930 MISS:    3103375
cpu0_L1D RFO          ACCESS:          0 HIT:          0 MISS:          0
cpu0_L1D PREFETCH     ACCESS:          0 HIT:          0 MISS:          0
cpu0_L1D WRITE        ACCESS:   85491055 HIT:   84835535 MISS:     655520
cpu0_L1D TRANSLATION  ACCESS:      28533 HIT:       1425 MISS:      27108
cpu0_L1D PREFETCH REQUESTED:          0 ISSUED:          0 USEFUL:          0 USELESS:          0
cpu0_L1D AVERAGE MISS LATENCY: 44.54 cycles
cpu0_L1I TOTAL        ACCESS:   10510890 HIT:    8612920 MISS:    1897970
cpu0_L1I LOAD         ACCESS:   10510890 HIT:    8612920 MISS:    1897970
cpu0_L1I RFO          ACCESS:          0 HIT:          0 MISS:          0
cpu0_L1I PREFETCH     ACCESS:          0 HIT:          0 MISS:          0
cpu0_L1I WRITE        ACCESS:          0 HIT:          0 MISS:          0
cpu0_L1I TRANSLATION  ACCESS:          0 HIT:          0 MISS:          0
cpu0_L1I PREFETCH REQUESTED:          0 ISSUED:          0 USEFUL:          0 USELESS:          0
cpu0_L1I AVERAGE MISS LATENCY: 9.187 cycles
cpu0_L2C TOTAL        ACCESS:    3840101 HIT:    3188884 MISS:     651217
cpu0_L2C LOAD         ACCESS:    3103791 HIT:    2524771 MISS:     579020
cpu0_L2C RFO          ACCESS:     194848 HIT:     147609 MISS:      47239
cpu0_L2C PREFETCH     ACCESS:          0 HIT:          0 MISS:          0
cpu0_L2C WRITE        ACCESS:     514424 HIT:     511489 MISS:       2935
cpu0_L2C TRANSLATION  ACCESS:      27038 HIT:       5015 MISS:      22023
cpu0_L2C PREFETCH REQUESTED:          0 ISSUED:          0 USEFUL:          0 USELESS:          0
cpu0_L2C AVERAGE MISS LATENCY: 255.9 cycles
cpu0_STLB TOTAL        ACCESS:    1009958 HIT:     983267 MISS:      26691
cpu0_STLB LOAD         ACCESS:    1009958 HIT:     983267 MISS:      26691
cpu0_STLB RFO          ACCESS:          0 HIT:          0 MISS:          0
cpu0_STLB PREFETCH     ACCESS:          0 HIT:          0 MISS:          0
cpu0_STLB WRITE        ACCESS:          0 HIT:          0 MISS:          0
cpu0_STLB TRANSLATION  ACCESS:          0 HIT:          0 MISS:          0
cpu0_STLB PREFETCH REQUESTED:          0 ISSUED:          0 USEFUL:          0 USELESS:          0
cpu0_STLB AVERAGE MISS LATENCY: 376.8 cycles

DRAM Statistics

Channel 0 RQ ROW_BUFFER_HIT:      86836
  ROW_BUFFER_MISS:     271786
 AVG DBUS CONGESTED CYCLE: 3.886
WQ ROW_BUFFER_HIT: Channel 0 
  ROW_BUFFER_MISS:       4175
  FULL:      33676
