WARNING: physical memory size is smaller than virtual memory size.

*** ChampSim Multicore Out-of-Order Simulator ***
Warmup Instructions: 50000000
Simulation Instructions: 600000000
Number of CPUs: 1
Page size: 4096

CPU 0 Tage branch predictor
Off-chip DRAM Size: 4 GiB Channels: 1 Width: 64-bit Data Race: 3200 MT/s
Heartbeat CPU 0 instructions: 10000001 cycles: 2500318 heartbeat IPC: 3.999 cumulative IPC: 3.999 (Simulation time: 00 hr 01 min 08 sec)
Heartbeat CPU 0 instructions: 20000002 cycles: 5037108 heartbeat IPC: 3.942 cumulative IPC: 3.971 (Simulation time: 00 hr 02 min 17 sec)
Heartbeat CPU 0 instructions: 30000002 cycles: 7537108 heartbeat IPC: 4 cumulative IPC: 3.98 (Simulation time: 00 hr 03 min 10 sec)
Heartbeat CPU 0 instructions: 40000002 cycles: 10037108 heartbeat IPC: 4 cumulative IPC: 3.985 (Simulation time: 00 hr 04 min 03 sec)
Heartbeat CPU 0 instructions: 50000002 cycles: 12537108 heartbeat IPC: 4 cumulative IPC: 3.988 (Simulation time: 00 hr 04 min 57 sec)
Warmup finished CPU 0 instructions: 50000002 cycles: 12537109 cumulative IPC: 3.988 (Simulation time: 00 hr 04 min 57 sec)
Warmup complete CPU 0 instructions: 50000002 cycles: 12537109 cumulative IPC: 3.988 (Simulation time: 00 hr 04 min 57 sec)
Heartbeat CPU 0 instructions: 60000001 cycles: 15511724 heartbeat IPC: 3.362 cumulative IPC: 3.362 (Simulation time: 00 hr 06 min 00 sec)
Heartbeat CPU 0 instructions: 70000004 cycles: 18581528 heartbeat IPC: 3.258 cumulative IPC: 3.309 (Simulation time: 00 hr 07 min 04 sec)
Heartbeat CPU 0 instructions: 80000001 cycles: 21627064 heartbeat IPC: 3.283 cumulative IPC: 3.3 (Simulation time: 00 hr 08 min 08 sec)
Heartbeat CPU 0 instructions: 90000001 cycles: 24575524 heartbeat IPC: 3.392 cumulative IPC: 3.323 (Simulation time: 00 hr 09 min 11 sec)
Heartbeat CPU 0 instructions: 100000000 cycles: 27487806 heartbeat IPC: 3.434 cumulative IPC: 3.344 (Simulation time: 00 hr 10 min 13 sec)
Heartbeat CPU 0 instructions: 110000000 cycles: 30439199 heartbeat IPC: 3.388 cumulative IPC: 3.352 (Simulation time: 00 hr 11 min 16 sec)
Heartbeat CPU 0 instructions: 120000001 cycles: 33412906 heartbeat IPC: 3.363 cumulative IPC: 3.353 (Simulation time: 00 hr 12 min 19 sec)
Heartbeat CPU 0 instructions: 130000001 cycles: 36268900 heartbeat IPC: 3.501 cumulative IPC: 3.371 (Simulation time: 00 hr 13 min 22 sec)
Heartbeat CPU 0 instructions: 140000001 cycles: 39317929 heartbeat IPC: 3.28 cumulative IPC: 3.361 (Simulation time: 00 hr 14 min 26 sec)
Heartbeat CPU 0 instructions: 150000001 cycles: 42325297 heartbeat IPC: 3.325 cumulative IPC: 3.357 (Simulation time: 00 hr 15 min 30 sec)
Heartbeat CPU 0 instructions: 160000004 cycles: 45336692 heartbeat IPC: 3.321 cumulative IPC: 3.354 (Simulation time: 00 hr 16 min 34 sec)
Heartbeat CPU 0 instructions: 170000000 cycles: 52003442 heartbeat IPC: 1.5 cumulative IPC: 3.041 (Simulation time: 00 hr 18 min 12 sec)
Heartbeat CPU 0 instructions: 180000004 cycles: 58984062 heartbeat IPC: 1.433 cumulative IPC: 2.799 (Simulation time: 00 hr 19 min 55 sec)
Heartbeat CPU 0 instructions: 190000001 cycles: 65913627 heartbeat IPC: 1.443 cumulative IPC: 2.623 (Simulation time: 00 hr 21 min 37 sec)
Heartbeat CPU 0 instructions: 200000004 cycles: 68811584 heartbeat IPC: 3.451 cumulative IPC: 2.666 (Simulation time: 00 hr 22 min 41 sec)
Heartbeat CPU 0 instructions: 210000001 cycles: 71713354 heartbeat IPC: 3.446 cumulative IPC: 2.704 (Simulation time: 00 hr 23 min 44 sec)
Heartbeat CPU 0 instructions: 220000000 cycles: 74572162 heartbeat IPC: 3.498 cumulative IPC: 2.74 (Simulation time: 00 hr 24 min 47 sec)
Heartbeat CPU 0 instructions: 230000002 cycles: 77495825 heartbeat IPC: 3.42 cumulative IPC: 2.771 (Simulation time: 00 hr 25 min 51 sec)
Heartbeat CPU 0 instructions: 240000003 cycles: 80473224 heartbeat IPC: 3.359 cumulative IPC: 2.797 (Simulation time: 00 hr 26 min 55 sec)
Heartbeat CPU 0 instructions: 250000000 cycles: 83426333 heartbeat IPC: 3.386 cumulative IPC: 2.821 (Simulation time: 00 hr 28 min 00 sec)
Heartbeat CPU 0 instructions: 260000002 cycles: 86325315 heartbeat IPC: 3.449 cumulative IPC: 2.846 (Simulation time: 00 hr 29 min 04 sec)
Heartbeat CPU 0 instructions: 270000002 cycles: 89177186 heartbeat IPC: 3.506 cumulative IPC: 2.871 (Simulation time: 00 hr 30 min 05 sec)
Heartbeat CPU 0 instructions: 280000002 cycles: 92008763 heartbeat IPC: 3.532 cumulative IPC: 2.894 (Simulation time: 00 hr 31 min 08 sec)
Heartbeat CPU 0 instructions: 290000002 cycles: 94918727 heartbeat IPC: 3.436 cumulative IPC: 2.913 (Simulation time: 00 hr 32 min 10 sec)
Heartbeat CPU 0 instructions: 300000003 cycles: 97751846 heartbeat IPC: 3.53 cumulative IPC: 2.934 (Simulation time: 00 hr 33 min 12 sec)
Heartbeat CPU 0 instructions: 310000001 cycles: 100693897 heartbeat IPC: 3.399 cumulative IPC: 2.949 (Simulation time: 00 hr 34 min 15 sec)
Heartbeat CPU 0 instructions: 320000003 cycles: 103633330 heartbeat IPC: 3.402 cumulative IPC: 2.964 (Simulation time: 00 hr 35 min 19 sec)
Heartbeat CPU 0 instructions: 330000003 cycles: 106528296 heartbeat IPC: 3.454 cumulative IPC: 2.979 (Simulation time: 00 hr 36 min 21 sec)
Heartbeat CPU 0 instructions: 340000000 cycles: 113085540 heartbeat IPC: 1.525 cumulative IPC: 2.884 (Simulation time: 00 hr 37 min 57 sec)
Heartbeat CPU 0 instructions: 350000000 cycles: 120636694 heartbeat IPC: 1.324 cumulative IPC: 2.775 (Simulation time: 00 hr 39 min 42 sec)
Heartbeat CPU 0 instructions: 360000004 cycles: 127866807 heartbeat IPC: 1.383 cumulative IPC: 2.688 (Simulation time: 00 hr 41 min 26 sec)
Heartbeat CPU 0 instructions: 370000000 cycles: 130785185 heartbeat IPC: 3.427 cumulative IPC: 2.706 (Simulation time: 00 hr 42 min 27 sec)
Heartbeat CPU 0 instructions: 380000003 cycles: 133659756 heartbeat IPC: 3.479 cumulative IPC: 2.725 (Simulation time: 00 hr 43 min 29 sec)
Heartbeat CPU 0 instructions: 390000002 cycles: 136604182 heartbeat IPC: 3.396 cumulative IPC: 2.74 (Simulation time: 00 hr 44 min 32 sec)
Heartbeat CPU 0 instructions: 400000004 cycles: 139488694 heartbeat IPC: 3.467 cumulative IPC: 2.757 (Simulation time: 00 hr 45 min 33 sec)
Heartbeat CPU 0 instructions: 410000002 cycles: 142378851 heartbeat IPC: 3.46 cumulative IPC: 2.773 (Simulation time: 00 hr 46 min 35 sec)
Heartbeat CPU 0 instructions: 420000003 cycles: 145425566 heartbeat IPC: 3.282 cumulative IPC: 2.784 (Simulation time: 00 hr 47 min 38 sec)
Heartbeat CPU 0 instructions: 430000001 cycles: 148398126 heartbeat IPC: 3.364 cumulative IPC: 2.797 (Simulation time: 00 hr 48 min 40 sec)
Heartbeat CPU 0 instructions: 440000004 cycles: 151481131 heartbeat IPC: 3.244 cumulative IPC: 2.807 (Simulation time: 00 hr 49 min 44 sec)
Heartbeat CPU 0 instructions: 450000002 cycles: 154352526 heartbeat IPC: 3.483 cumulative IPC: 2.821 (Simulation time: 00 hr 50 min 45 sec)
Heartbeat CPU 0 instructions: 460000000 cycles: 157243129 heartbeat IPC: 3.459 cumulative IPC: 2.833 (Simulation time: 00 hr 51 min 47 sec)
Heartbeat CPU 0 instructions: 470000001 cycles: 160056751 heartbeat IPC: 3.554 cumulative IPC: 2.847 (Simulation time: 00 hr 52 min 48 sec)
Heartbeat CPU 0 instructions: 480000003 cycles: 163065529 heartbeat IPC: 3.324 cumulative IPC: 2.857 (Simulation time: 00 hr 53 min 50 sec)
Heartbeat CPU 0 instructions: 490000004 cycles: 165870199 heartbeat IPC: 3.565 cumulative IPC: 2.87 (Simulation time: 00 hr 54 min 51 sec)
Heartbeat CPU 0 instructions: 500000004 cycles: 168824085 heartbeat IPC: 3.385 cumulative IPC: 2.879 (Simulation time: 00 hr 55 min 53 sec)
Heartbeat CPU 0 instructions: 510000003 cycles: 171818769 heartbeat IPC: 3.339 cumulative IPC: 2.888 (Simulation time: 00 hr 56 min 56 sec)
Heartbeat CPU 0 instructions: 520000001 cycles: 174653790 heartbeat IPC: 3.527 cumulative IPC: 2.899 (Simulation time: 00 hr 57 min 58 sec)
Heartbeat CPU 0 instructions: 530000001 cycles: 177614102 heartbeat IPC: 3.378 cumulative IPC: 2.908 (Simulation time: 00 hr 59 min 01 sec)
Heartbeat CPU 0 instructions: 540000000 cycles: 180528716 heartbeat IPC: 3.431 cumulative IPC: 2.917 (Simulation time: 01 hr 00 min 03 sec)
Heartbeat CPU 0 instructions: 550000001 cycles: 183473856 heartbeat IPC: 3.395 cumulative IPC: 2.925 (Simulation time: 01 hr 01 min 05 sec)
Heartbeat CPU 0 instructions: 560000000 cycles: 186503420 heartbeat IPC: 3.301 cumulative IPC: 2.932 (Simulation time: 01 hr 02 min 08 sec)
Heartbeat CPU 0 instructions: 570000004 cycles: 191267061 heartbeat IPC: 2.099 cumulative IPC: 2.909 (Simulation time: 01 hr 03 min 27 sec)
Heartbeat CPU 0 instructions: 580000003 cycles: 199011522 heartbeat IPC: 1.291 cumulative IPC: 2.842 (Simulation time: 01 hr 05 min 14 sec)
Heartbeat CPU 0 instructions: 590000002 cycles: 208183957 heartbeat IPC: 1.09 cumulative IPC: 2.76 (Simulation time: 01 hr 07 min 14 sec)
Heartbeat CPU 0 instructions: 600000004 cycles: 211205963 heartbeat IPC: 3.309 cumulative IPC: 2.768 (Simulation time: 01 hr 08 min 16 sec)
Heartbeat CPU 0 instructions: 610000002 cycles: 214139509 heartbeat IPC: 3.409 cumulative IPC: 2.778 (Simulation time: 01 hr 09 min 17 sec)
Heartbeat CPU 0 instructions: 620000001 cycles: 216894991 heartbeat IPC: 3.629 cumulative IPC: 2.789 (Simulation time: 01 hr 10 min 18 sec)
Heartbeat CPU 0 instructions: 630000002 cycles: 219831957 heartbeat IPC: 3.405 cumulative IPC: 2.798 (Simulation time: 01 hr 11 min 15 sec)
Heartbeat CPU 0 instructions: 640000004 cycles: 222767866 heartbeat IPC: 3.406 cumulative IPC: 2.806 (Simulation time: 01 hr 12 min 07 sec)
Heartbeat CPU 0 instructions: 650000000 cycles: 225500914 heartbeat IPC: 3.659 cumulative IPC: 2.817 (Simulation time: 01 hr 12 min 50 sec)
Simulation finished CPU 0 instructions: 600000001 cycles: 212963807 cumulative IPC: 2.817 (Simulation time: 01 hr 12 min 50 sec)
Simulation complete CPU 0 instructions: 600000001 cycles: 212963807 cumulative IPC: 2.817 (Simulation time: 01 hr 12 min 50 sec)

ChampSim completed all CPUs

=== Simulation ===
CPU 0 runs traces/400.perlbench-41B.champsimtrace.xz
Region of Interest Statistics

CPU 0 cumulative IPC: 2.817 instructions: 600000001 cycles: 212963807
CPU 0 Branch Prediction Accuracy: 99.19% MPKI: 1.684 Average ROB Occupancy at Mispredict: 102.1
Branch type MPKI
BRANCH_DIRECT_JUMP: 0.0123
BRANCH_INDIRECT: 0.323
BRANCH_CONDITIONAL: 1.14
BRANCH_DIRECT_CALL: 0.0043
BRANCH_INDIRECT_CALL: 0.2
BRANCH_RETURN: 0.00828

LLC TOTAL        ACCESS:     593128 HIT:     406093 MISS:     187035
LLC LOAD         ACCESS:     403589 HIT:     257108 MISS:     146481
LLC RFO          ACCESS:      32508 HIT:      21247 MISS:      11261
LLC PREFETCH     ACCESS:      52756 HIT:      34465 MISS:      18291
LLC WRITE        ACCESS:      85259 HIT:      83389 MISS:       1870
LLC TRANSLATION  ACCESS:      19016 HIT:       9884 MISS:       9132
LLC PREFETCH REQUESTED:      52756 ISSUED:      52756 USEFUL:      11235 USELESS:       4326
LLC AVERAGE MISS LATENCY: 582.8 cycles
cpu0_DTLB TOTAL        ACCESS:  129769485 HIT:  129065090 MISS:     704395
cpu0_DTLB LOAD         ACCESS:  129769485 HIT:  129065090 MISS:     704395
cpu0_DTLB RFO          ACCESS:          0 HIT:          0 MISS:          0
cpu0_DTLB PREFETCH     ACCESS:          0 HIT:          0 MISS:          0
cpu0_DTLB WRITE        ACCESS:          0 HIT:          0 MISS:          0
cpu0_DTLB TRANSLATION  ACCESS:          0 HIT:          0 MISS:          0
cpu0_DTLB PREFETCH REQUESTED:          0 ISSUED:          0 USEFUL:          0 USELESS:          0
cpu0_DTLB AVERAGE MISS LATENCY: 13.43 cycles
cpu0_ITLB TOTAL        ACCESS:    4873161 HIT:    4811060 MISS:      62101
cpu0_ITLB LOAD         ACCESS:    4873161 HIT:    4811060 MISS:      62101
cpu0_ITLB RFO          ACCESS:          0 HIT:          0 MISS:          0
cpu0_ITLB PREFETCH     ACCESS:          0 HIT:          0 MISS:          0
cpu0_ITLB WRITE        ACCESS:          0 HIT:          0 MISS:          0
cpu0_ITLB TRANSLATION  ACCESS:          0 HIT:          0 MISS:          0
cpu0_ITLB PREFETCH REQUESTED:          0 ISSUED:          0 USEFUL:          0 USELESS:          0
cpu0_ITLB AVERAGE MISS LATENCY: 5.596 cycles
cpu0_L1D TOTAL        ACCESS:  174364735 HIT:  172595351 MISS:    1769384
cpu0_L1D LOAD         ACCESS:   91339737 HIT:   89961024 MISS:    1378713
cpu0_L1D RFO          ACCESS:          0 HIT:          0 MISS:          0
cpu0_L1D PREFETCH     ACCESS:          0 HIT:          0 MISS:          0
cpu0_L1D WRITE        ACCESS:   83000542 HIT:   82633265 MISS:     367277
cpu0_L1D TRANSLATION  ACCESS:      24456 HIT:       1062 MISS:      23394
cpu0_L1D PREFETCH REQUESTED:          0 ISSUED:          0 USEFUL:          0 USELESS:          0
cpu0_L1D AVERAGE MISS LATENCY: 59.45 cycles
cpu0_L1I TOTAL        ACCESS:    5652443 HIT:    4848033 MISS:     804410
cpu0_L1I LOAD         ACCESS:    5652443 HIT:    4848033 MISS:     804410
cpu0_L1I RFO          ACCESS:          0 HIT:          0 MISS:          0
cpu0_L1I PREFETCH     ACCESS:          0 HIT:          0 MISS:          0
cpu0_L1I WRITE        ACCESS:          0 HIT:          0 MISS:          0
cpu0_L1I TRANSLATION  ACCESS:          0 HIT:          0 MISS:          0
cpu0_L1I PREFETCH REQUESTED:          0 ISSUED:          0 USEFUL:          0 USELESS:          0
cpu0_L1I AVERAGE MISS LATENCY: 11.29 cycles
cpu0_L2C TOTAL        ACCESS:    1668062 HIT:    1211143 MISS:     456919
cpu0_L2C LOAD         ACCESS:    1315308 HIT:     911719 MISS:     403589
cpu0_L2C RFO          ACCESS:      89559 HIT:      57050 MISS:      32509
cpu0_L2C PREFETCH     ACCESS:          0 HIT:          0 MISS:          0
cpu0_L2C WRITE        ACCESS:     239878 HIT:     238073 MISS:       1805
cpu0_L2C TRANSLATION  ACCESS:      23317 HIT:       4301 MISS:      19016
cpu0_L2C PREFETCH REQUESTED:          0 ISSUED:          0 USEFUL:          0 USELESS:          0
cpu0_L2C AVERAGE MISS LATENCY: 235.8 cycles
cpu0_STLB TOTAL        ACCESS:     508906 HIT:     486122 MISS:      22784
cpu0_STLB LOAD         ACCESS:     508906 HIT:     486122 MISS:      22784
cpu0_STLB RFO          ACCESS:          0 HIT:          0 MISS:          0
cpu0_STLB PREFETCH     ACCESS:          0 HIT:          0 MISS:          0
cpu0_STLB WRITE        ACCESS:          0 HIT:          0 MISS:          0
cpu0_STLB TRANSLATION  ACCESS:          0 HIT:          0 MISS:          0
cpu0_STLB PREFETCH REQUESTED:          0 ISSUED:          0 USEFUL:          0 USELESS:          0
cpu0_STLB AVERAGE MISS LATENCY: 301.3 cycles

DRAM Statistics

Channel 0 RQ ROW_BUFFER_HIT:      31255
  ROW_BUFFER_MISS:     149680
 AVG DBUS CONGESTED CYCLE: 3.829
WQ ROW_BUFFER_HIT: Channel 0 
  ROW_BUFFER_MISS:       5767
  FULL:      22612
