WARNING: physical memory size is smaller than virtual memory size.

*** ChampSim Multicore Out-of-Order Simulator ***
Warmup Instructions: 50000000
Simulation Instructions: 600000000
Number of CPUs: 1
Page size: 4096

Off-chip DRAM Size: 4 GiB Channels: 1 Width: 64-bit Data Race: 3200 MT/s
Heartbeat CPU 0 instructions: 10000001 cycles: 2500318 heartbeat IPC: 3.999 cumulative IPC: 3.999 (Simulation time: 00 hr 03 min 36 sec)
Heartbeat CPU 0 instructions: 20000002 cycles: 5037136 heartbeat IPC: 3.942 cumulative IPC: 3.971 (Simulation time: 00 hr 07 min 07 sec)
Heartbeat CPU 0 instructions: 30000002 cycles: 7537136 heartbeat IPC: 4 cumulative IPC: 3.98 (Simulation time: 00 hr 10 min 14 sec)
Heartbeat CPU 0 instructions: 40000002 cycles: 10037136 heartbeat IPC: 4 cumulative IPC: 3.985 (Simulation time: 00 hr 13 min 18 sec)
Heartbeat CPU 0 instructions: 50000002 cycles: 12537136 heartbeat IPC: 4 cumulative IPC: 3.988 (Simulation time: 00 hr 16 min 16 sec)
Warmup finished CPU 0 instructions: 50000002 cycles: 12537137 cumulative IPC: 3.988 (Simulation time: 00 hr 16 min 16 sec)
Warmup complete CPU 0 instructions: 50000002 cycles: 12537137 cumulative IPC: 3.988 (Simulation time: 00 hr 16 min 16 sec)
Heartbeat CPU 0 instructions: 60000000 cycles: 17126862 heartbeat IPC: 2.179 cumulative IPC: 2.179 (Simulation time: 00 hr 20 min 37 sec)
Heartbeat CPU 0 instructions: 70000004 cycles: 21382371 heartbeat IPC: 2.35 cumulative IPC: 2.261 (Simulation time: 00 hr 24 min 36 sec)
Heartbeat CPU 0 instructions: 80000001 cycles: 25961255 heartbeat IPC: 2.184 cumulative IPC: 2.235 (Simulation time: 00 hr 28 min 38 sec)
Heartbeat CPU 0 instructions: 90000001 cycles: 30076627 heartbeat IPC: 2.43 cumulative IPC: 2.281 (Simulation time: 00 hr 32 min 22 sec)
Heartbeat CPU 0 instructions: 100000000 cycles: 34115260 heartbeat IPC: 2.476 cumulative IPC: 2.317 (Simulation time: 00 hr 36 min 03 sec)
Heartbeat CPU 0 instructions: 110000000 cycles: 38333030 heartbeat IPC: 2.371 cumulative IPC: 2.326 (Simulation time: 00 hr 39 min 45 sec)
Heartbeat CPU 0 instructions: 120000001 cycles: 42328887 heartbeat IPC: 2.503 cumulative IPC: 2.35 (Simulation time: 00 hr 43 min 21 sec)
Heartbeat CPU 0 instructions: 130000001 cycles: 46046036 heartbeat IPC: 2.69 cumulative IPC: 2.387 (Simulation time: 00 hr 46 min 55 sec)
Heartbeat CPU 0 instructions: 140000001 cycles: 50185891 heartbeat IPC: 2.416 cumulative IPC: 2.391 (Simulation time: 00 hr 50 min 35 sec)
Heartbeat CPU 0 instructions: 150000001 cycles: 54361168 heartbeat IPC: 2.395 cumulative IPC: 2.391 (Simulation time: 00 hr 54 min 15 sec)
Heartbeat CPU 0 instructions: 160000004 cycles: 58749140 heartbeat IPC: 2.279 cumulative IPC: 2.38 (Simulation time: 00 hr 58 min 01 sec)
Heartbeat CPU 0 instructions: 170000000 cycles: 67021506 heartbeat IPC: 1.209 cumulative IPC: 2.202 (Simulation time: 01 hr 03 min 48 sec)
Heartbeat CPU 0 instructions: 180000004 cycles: 75543564 heartbeat IPC: 1.173 cumulative IPC: 2.063 (Simulation time: 01 hr 09 min 47 sec)
Heartbeat CPU 0 instructions: 190000001 cycles: 84856640 heartbeat IPC: 1.074 cumulative IPC: 1.936 (Simulation time: 01 hr 16 min 44 sec)
Heartbeat CPU 0 instructions: 200000004 cycles: 88592330 heartbeat IPC: 2.677 cumulative IPC: 1.972 (Simulation time: 01 hr 20 min 38 sec)
Heartbeat CPU 0 instructions: 210000001 cycles: 92478946 heartbeat IPC: 2.573 cumulative IPC: 2.001 (Simulation time: 01 hr 24 min 37 sec)
Heartbeat CPU 0 instructions: 220000000 cycles: 96420966 heartbeat IPC: 2.537 cumulative IPC: 2.027 (Simulation time: 01 hr 28 min 31 sec)
Heartbeat CPU 0 instructions: 230000002 cycles: 101026919 heartbeat IPC: 2.171 cumulative IPC: 2.034 (Simulation time: 01 hr 32 min 44 sec)
Heartbeat CPU 0 instructions: 240000000 cycles: 105181615 heartbeat IPC: 2.407 cumulative IPC: 2.051 (Simulation time: 01 hr 36 min 48 sec)
Heartbeat CPU 0 instructions: 250000000 cycles: 109465853 heartbeat IPC: 2.334 cumulative IPC: 2.063 (Simulation time: 01 hr 40 min 56 sec)
Heartbeat CPU 0 instructions: 260000000 cycles: 113606397 heartbeat IPC: 2.415 cumulative IPC: 2.078 (Simulation time: 01 hr 44 min 58 sec)
Heartbeat CPU 0 instructions: 270000002 cycles: 117423442 heartbeat IPC: 2.62 cumulative IPC: 2.098 (Simulation time: 01 hr 48 min 50 sec)
Heartbeat CPU 0 instructions: 280000002 cycles: 121561586 heartbeat IPC: 2.417 cumulative IPC: 2.11 (Simulation time: 01 hr 52 min 50 sec)
Heartbeat CPU 0 instructions: 290000001 cycles: 125429213 heartbeat IPC: 2.586 cumulative IPC: 2.126 (Simulation time: 01 hr 56 min 42 sec)
Heartbeat CPU 0 instructions: 300000003 cycles: 129204616 heartbeat IPC: 2.649 cumulative IPC: 2.143 (Simulation time: 02 hr 00 min 36 sec)
Heartbeat CPU 0 instructions: 310000001 cycles: 133273622 heartbeat IPC: 2.458 cumulative IPC: 2.153 (Simulation time: 02 hr 04 min 35 sec)
Heartbeat CPU 0 instructions: 320000003 cycles: 137310738 heartbeat IPC: 2.477 cumulative IPC: 2.164 (Simulation time: 02 hr 08 min 33 sec)
Heartbeat CPU 0 instructions: 330000003 cycles: 141653886 heartbeat IPC: 2.302 cumulative IPC: 2.169 (Simulation time: 02 hr 12 min 41 sec)
Heartbeat CPU 0 instructions: 340000000 cycles: 149713096 heartbeat IPC: 1.241 cumulative IPC: 2.114 (Simulation time: 02 hr 18 min 52 sec)
Heartbeat CPU 0 instructions: 350000000 cycles: 158340517 heartbeat IPC: 1.159 cumulative IPC: 2.058 (Simulation time: 02 hr 25 min 32 sec)
Heartbeat CPU 0 instructions: 360000004 cycles: 167619352 heartbeat IPC: 1.078 cumulative IPC: 1.999 (Simulation time: 02 hr 32 min 14 sec)
Heartbeat CPU 0 instructions: 370000000 cycles: 171037524 heartbeat IPC: 2.926 cumulative IPC: 2.019 (Simulation time: 02 hr 35 min 48 sec)
Heartbeat CPU 0 instructions: 380000001 cycles: 174429420 heartbeat IPC: 2.948 cumulative IPC: 2.038 (Simulation time: 02 hr 39 min 21 sec)
Heartbeat CPU 0 instructions: 390000004 cycles: 178155722 heartbeat IPC: 2.684 cumulative IPC: 2.053 (Simulation time: 02 hr 42 min 59 sec)
Heartbeat CPU 0 instructions: 400000004 cycles: 181955272 heartbeat IPC: 2.632 cumulative IPC: 2.066 (Simulation time: 02 hr 46 min 16 sec)
Heartbeat CPU 0 instructions: 410000001 cycles: 185582211 heartbeat IPC: 2.757 cumulative IPC: 2.08 (Simulation time: 02 hr 49 min 31 sec)
Heartbeat CPU 0 instructions: 420000003 cycles: 189542946 heartbeat IPC: 2.525 cumulative IPC: 2.09 (Simulation time: 02 hr 52 min 56 sec)
Heartbeat CPU 0 instructions: 430000001 cycles: 193176553 heartbeat IPC: 2.752 cumulative IPC: 2.104 (Simulation time: 02 hr 56 min 15 sec)
Heartbeat CPU 0 instructions: 440000004 cycles: 197236345 heartbeat IPC: 2.463 cumulative IPC: 2.112 (Simulation time: 02 hr 59 min 44 sec)
Heartbeat CPU 0 instructions: 450000002 cycles: 200940281 heartbeat IPC: 2.7 cumulative IPC: 2.123 (Simulation time: 03 hr 03 min 04 sec)
Heartbeat CPU 0 instructions: 460000000 cycles: 204581360 heartbeat IPC: 2.746 cumulative IPC: 2.135 (Simulation time: 03 hr 06 min 19 sec)
Heartbeat CPU 0 instructions: 470000000 cycles: 208021690 heartbeat IPC: 2.907 cumulative IPC: 2.149 (Simulation time: 03 hr 09 min 32 sec)
Heartbeat CPU 0 instructions: 480000003 cycles: 211807173 heartbeat IPC: 2.642 cumulative IPC: 2.158 (Simulation time: 03 hr 12 min 51 sec)
Heartbeat CPU 0 instructions: 490000000 cycles: 215418147 heartbeat IPC: 2.769 cumulative IPC: 2.169 (Simulation time: 03 hr 16 min 08 sec)
Heartbeat CPU 0 instructions: 500000000 cycles: 219100004 heartbeat IPC: 2.716 cumulative IPC: 2.179 (Simulation time: 03 hr 19 min 28 sec)
Heartbeat CPU 0 instructions: 510000003 cycles: 222726320 heartbeat IPC: 2.758 cumulative IPC: 2.189 (Simulation time: 03 hr 22 min 45 sec)
Heartbeat CPU 0 instructions: 520000001 cycles: 226114300 heartbeat IPC: 2.952 cumulative IPC: 2.201 (Simulation time: 03 hr 25 min 59 sec)
Heartbeat CPU 0 instructions: 530000002 cycles: 229752361 heartbeat IPC: 2.749 cumulative IPC: 2.21 (Simulation time: 03 hr 29 min 15 sec)
Heartbeat CPU 0 instructions: 540000000 cycles: 233255780 heartbeat IPC: 2.854 cumulative IPC: 2.22 (Simulation time: 03 hr 32 min 36 sec)
Heartbeat CPU 0 instructions: 550000001 cycles: 236934210 heartbeat IPC: 2.719 cumulative IPC: 2.228 (Simulation time: 03 hr 35 min 58 sec)
Heartbeat CPU 0 instructions: 560000000 cycles: 240849733 heartbeat IPC: 2.554 cumulative IPC: 2.234 (Simulation time: 03 hr 39 min 26 sec)
Heartbeat CPU 0 instructions: 570000004 cycles: 246466945 heartbeat IPC: 1.78 cumulative IPC: 2.223 (Simulation time: 03 hr 43 min 47 sec)
Heartbeat CPU 0 instructions: 580000003 cycles: 255593901 heartbeat IPC: 1.096 cumulative IPC: 2.181 (Simulation time: 03 hr 49 min 25 sec)
Heartbeat CPU 0 instructions: 590000002 cycles: 266566078 heartbeat IPC: 0.9114 cumulative IPC: 2.126 (Simulation time: 03 hr 55 min 49 sec)
Heartbeat CPU 0 instructions: 600000000 cycles: 270246286 heartbeat IPC: 2.717 cumulative IPC: 2.134 (Simulation time: 03 hr 58 min 48 sec)
Heartbeat CPU 0 instructions: 610000000 cycles: 274076581 heartbeat IPC: 2.611 cumulative IPC: 2.141 (Simulation time: 04 hr 01 min 32 sec)
Heartbeat CPU 0 instructions: 620000001 cycles: 277493300 heartbeat IPC: 2.927 cumulative IPC: 2.151 (Simulation time: 04 hr 03 min 52 sec)
Heartbeat CPU 0 instructions: 630000002 cycles: 281742823 heartbeat IPC: 2.353 cumulative IPC: 2.154 (Simulation time: 04 hr 06 min 20 sec)
Heartbeat CPU 0 instructions: 640000001 cycles: 285631030 heartbeat IPC: 2.572 cumulative IPC: 2.16 (Simulation time: 04 hr 08 min 35 sec)
Heartbeat CPU 0 instructions: 650000000 cycles: 289377687 heartbeat IPC: 2.669 cumulative IPC: 2.167 (Simulation time: 04 hr 10 min 32 sec)
Simulation finished CPU 0 instructions: 600000001 cycles: 276840552 cumulative IPC: 2.167 (Simulation time: 04 hr 10 min 32 sec)
Simulation complete CPU 0 instructions: 600000001 cycles: 276840552 cumulative IPC: 2.167 (Simulation time: 04 hr 10 min 32 sec)

ChampSim completed all CPUs

=== Simulation ===
CPU 0 runs traces/400.perlbench-41B.champsimtrace.xz
Region of Interest Statistics

CPU 0 cumulative IPC: 2.167 instructions: 600000001 cycles: 276840552
CPU 0 Branch Prediction Accuracy: 96.56% MPKI: 7.112 Average ROB Occupancy at Mispredict: 47.13
Branch type MPKI
BRANCH_DIRECT_JUMP: 0.0123
BRANCH_INDIRECT: 0.323
BRANCH_CONDITIONAL: 6.56
BRANCH_DIRECT_CALL: 0.0043
BRANCH_INDIRECT_CALL: 0.2
BRANCH_RETURN: 0.00828

LLC TOTAL        ACCESS:     540373 HIT:     348793 MISS:     191580
LLC LOAD         ACCESS:     403099 HIT:     224325 MISS:     178774
LLC RFO          ACCESS:      32528 HIT:      28229 MISS:       4299
LLC PREFETCH     ACCESS:          0 HIT:          0 MISS:          0
LLC WRITE        ACCESS:      85669 HIT:      85575 MISS:         94
LLC TRANSLATION  ACCESS:      19077 HIT:      10664 MISS:       8413
LLC PREFETCH REQUESTED:          0 ISSUED:          0 USEFUL:          0 USELESS:          0
LLC AVERAGE MISS LATENCY: 486.5 cycles
cpu0_DTLB TOTAL        ACCESS:  141926241 HIT:  141239269 MISS:     686972
cpu0_DTLB LOAD         ACCESS:  141926241 HIT:  141239269 MISS:     686972
cpu0_DTLB RFO          ACCESS:          0 HIT:          0 MISS:          0
cpu0_DTLB PREFETCH     ACCESS:          0 HIT:          0 MISS:          0
cpu0_DTLB WRITE        ACCESS:          0 HIT:          0 MISS:          0
cpu0_DTLB TRANSLATION  ACCESS:          0 HIT:          0 MISS:          0
cpu0_DTLB PREFETCH REQUESTED:          0 ISSUED:          0 USEFUL:          0 USELESS:          0
cpu0_DTLB AVERAGE MISS LATENCY: 12.38 cycles
cpu0_ITLB TOTAL        ACCESS:    4860061 HIT:    4806946 MISS:      53115
cpu0_ITLB LOAD         ACCESS:    4860061 HIT:    4806946 MISS:      53115
cpu0_ITLB RFO          ACCESS:          0 HIT:          0 MISS:          0
cpu0_ITLB PREFETCH     ACCESS:          0 HIT:          0 MISS:          0
cpu0_ITLB WRITE        ACCESS:          0 HIT:          0 MISS:          0
cpu0_ITLB TRANSLATION  ACCESS:          0 HIT:          0 MISS:          0
cpu0_ITLB PREFETCH REQUESTED:          0 ISSUED:          0 USEFUL:          0 USELESS:          0
cpu0_ITLB AVERAGE MISS LATENCY: 6.99 cycles
cpu0_L1D TOTAL        ACCESS:  188580355 HIT:  186865794 MISS:    1714561
cpu0_L1D LOAD         ACCESS:  105212166 HIT:  103861610 MISS:    1350556
cpu0_L1D RFO          ACCESS:          0 HIT:          0 MISS:          0
cpu0_L1D PREFETCH     ACCESS:          0 HIT:          0 MISS:          0
cpu0_L1D WRITE        ACCESS:   83343727 HIT:   83003123 MISS:     340604
cpu0_L1D TRANSLATION  ACCESS:      24462 HIT:       1061 MISS:      23401
cpu0_L1D PREFETCH REQUESTED:          0 ISSUED:          0 USEFUL:          0 USELESS:          0
cpu0_L1D AVERAGE MISS LATENCY: 61.28 cycles
cpu0_L1I TOTAL        ACCESS:    5598063 HIT:    4854412 MISS:     743651
cpu0_L1I LOAD         ACCESS:    5598063 HIT:    4854412 MISS:     743651
cpu0_L1I RFO          ACCESS:          0 HIT:          0 MISS:          0
cpu0_L1I PREFETCH     ACCESS:          0 HIT:          0 MISS:          0
cpu0_L1I WRITE        ACCESS:          0 HIT:          0 MISS:          0
cpu0_L1I TRANSLATION  ACCESS:          0 HIT:          0 MISS:          0
cpu0_L1I PREFETCH REQUESTED:          0 ISSUED:          0 USEFUL:          0 USELESS:          0
cpu0_L1I AVERAGE MISS LATENCY: 9.861 cycles
cpu0_L2C TOTAL        ACCESS:    1666124 HIT:    1209585 MISS:     456539
cpu0_L2C LOAD         ACCESS:    1315948 HIT:     912849 MISS:     403099
cpu0_L2C RFO          ACCESS:      88341 HIT:      55812 MISS:      32529
cpu0_L2C PREFETCH     ACCESS:          0 HIT:          0 MISS:          0
cpu0_L2C WRITE        ACCESS:     238504 HIT:     236670 MISS:       1834
cpu0_L2C TRANSLATION  ACCESS:      23331 HIT:       4254 MISS:      19077
cpu0_L2C PREFETCH REQUESTED:          0 ISSUED:          0 USEFUL:          0 USELESS:          0
cpu0_L2C AVERAGE MISS LATENCY: 224.5 cycles
cpu0_STLB TOTAL        ACCESS:     507461 HIT:     484667 MISS:      22794
cpu0_STLB LOAD         ACCESS:     507461 HIT:     484667 MISS:      22794
cpu0_STLB RFO          ACCESS:          0 HIT:          0 MISS:          0
cpu0_STLB PREFETCH     ACCESS:          0 HIT:          0 MISS:          0
cpu0_STLB WRITE        ACCESS:          0 HIT:          0 MISS:          0
cpu0_STLB TRANSLATION  ACCESS:          0 HIT:          0 MISS:          0
cpu0_STLB PREFETCH REQUESTED:          0 ISSUED:          0 USEFUL:          0 USELESS:          0
cpu0_STLB AVERAGE MISS LATENCY: 247.8 cycles

DRAM Statistics

Channel 0 RQ ROW_BUFFER_HIT:      56518
  ROW_BUFFER_MISS:     134968
 AVG DBUS CONGESTED CYCLE: 3.685
WQ ROW_BUFFER_HIT: Channel 0 
  ROW_BUFFER_MISS:        445
  FULL:        649
