WARNING: physical memory size is smaller than virtual memory size.

*** ChampSim Multicore Out-of-Order Simulator ***
Warmup Instructions: 50000000
Simulation Instructions: 600000000
Number of CPUs: 1
Page size: 4096

Off-chip DRAM Size: 4 GiB Channels: 1 Width: 64-bit Data Race: 3200 MT/s
Heartbeat CPU 0 instructions: 10000001 cycles: 2500318 heartbeat IPC: 3.999 cumulative IPC: 3.999 (Simulation time: 00 hr 00 min 26 sec)
Heartbeat CPU 0 instructions: 20000002 cycles: 5037110 heartbeat IPC: 3.942 cumulative IPC: 3.971 (Simulation time: 00 hr 00 min 55 sec)
Heartbeat CPU 0 instructions: 30000002 cycles: 7537110 heartbeat IPC: 4 cumulative IPC: 3.98 (Simulation time: 00 hr 01 min 27 sec)
Heartbeat CPU 0 instructions: 40000002 cycles: 10037110 heartbeat IPC: 4 cumulative IPC: 3.985 (Simulation time: 00 hr 02 min 04 sec)
Heartbeat CPU 0 instructions: 50000002 cycles: 12537110 heartbeat IPC: 4 cumulative IPC: 3.988 (Simulation time: 00 hr 02 min 42 sec)
Warmup finished CPU 0 instructions: 50000002 cycles: 12537111 cumulative IPC: 3.988 (Simulation time: 00 hr 02 min 42 sec)
Warmup complete CPU 0 instructions: 50000002 cycles: 12537111 cumulative IPC: 3.988 (Simulation time: 00 hr 02 min 42 sec)
Heartbeat CPU 0 instructions: 60000000 cycles: 17701558 heartbeat IPC: 1.936 cumulative IPC: 1.936 (Simulation time: 00 hr 03 min 49 sec)
Heartbeat CPU 0 instructions: 70000002 cycles: 22599403 heartbeat IPC: 2.042 cumulative IPC: 1.988 (Simulation time: 00 hr 04 min 59 sec)
Heartbeat CPU 0 instructions: 80000001 cycles: 27963242 heartbeat IPC: 1.864 cumulative IPC: 1.945 (Simulation time: 00 hr 06 min 08 sec)
Heartbeat CPU 0 instructions: 90000001 cycles: 32843478 heartbeat IPC: 2.049 cumulative IPC: 1.97 (Simulation time: 00 hr 07 min 11 sec)
Heartbeat CPU 0 instructions: 100000000 cycles: 37956271 heartbeat IPC: 1.956 cumulative IPC: 1.967 (Simulation time: 00 hr 08 min 14 sec)
Heartbeat CPU 0 instructions: 110000000 cycles: 42848184 heartbeat IPC: 2.044 cumulative IPC: 1.979 (Simulation time: 00 hr 09 min 17 sec)
Heartbeat CPU 0 instructions: 120000001 cycles: 48040640 heartbeat IPC: 1.926 cumulative IPC: 1.972 (Simulation time: 00 hr 10 min 22 sec)
Heartbeat CPU 0 instructions: 130000001 cycles: 53201326 heartbeat IPC: 1.938 cumulative IPC: 1.967 (Simulation time: 00 hr 11 min 32 sec)
Heartbeat CPU 0 instructions: 140000001 cycles: 58511848 heartbeat IPC: 1.883 cumulative IPC: 1.958 (Simulation time: 00 hr 12 min 38 sec)
Heartbeat CPU 0 instructions: 150000001 cycles: 63835917 heartbeat IPC: 1.878 cumulative IPC: 1.949 (Simulation time: 00 hr 13 min 44 sec)
Heartbeat CPU 0 instructions: 160000004 cycles: 69044187 heartbeat IPC: 1.92 cumulative IPC: 1.947 (Simulation time: 00 hr 14 min 53 sec)
Heartbeat CPU 0 instructions: 170000000 cycles: 78272651 heartbeat IPC: 1.084 cumulative IPC: 1.825 (Simulation time: 00 hr 16 min 30 sec)
Heartbeat CPU 0 instructions: 180000004 cycles: 85355491 heartbeat IPC: 1.412 cumulative IPC: 1.785 (Simulation time: 00 hr 17 min 58 sec)
Heartbeat CPU 0 instructions: 190000001 cycles: 92601582 heartbeat IPC: 1.38 cumulative IPC: 1.749 (Simulation time: 00 hr 19 min 32 sec)
Heartbeat CPU 0 instructions: 200000003 cycles: 97237463 heartbeat IPC: 2.157 cumulative IPC: 1.771 (Simulation time: 00 hr 20 min 39 sec)
Heartbeat CPU 0 instructions: 210000001 cycles: 102042571 heartbeat IPC: 2.081 cumulative IPC: 1.788 (Simulation time: 00 hr 21 min 48 sec)
Heartbeat CPU 0 instructions: 220000000 cycles: 106814708 heartbeat IPC: 2.095 cumulative IPC: 1.803 (Simulation time: 00 hr 22 min 57 sec)
Heartbeat CPU 0 instructions: 230000002 cycles: 111975525 heartbeat IPC: 1.938 cumulative IPC: 1.81 (Simulation time: 00 hr 24 min 10 sec)
Heartbeat CPU 0 instructions: 240000000 cycles: 116749323 heartbeat IPC: 2.095 cumulative IPC: 1.823 (Simulation time: 00 hr 25 min 19 sec)
Heartbeat CPU 0 instructions: 250000000 cycles: 121821471 heartbeat IPC: 1.972 cumulative IPC: 1.83 (Simulation time: 00 hr 26 min 29 sec)
Heartbeat CPU 0 instructions: 260000000 cycles: 126790447 heartbeat IPC: 2.012 cumulative IPC: 1.838 (Simulation time: 00 hr 27 min 42 sec)
Heartbeat CPU 0 instructions: 270000002 cycles: 131629603 heartbeat IPC: 2.066 cumulative IPC: 1.847 (Simulation time: 00 hr 28 min 52 sec)
Heartbeat CPU 0 instructions: 280000002 cycles: 136510860 heartbeat IPC: 2.049 cumulative IPC: 1.855 (Simulation time: 00 hr 30 min 01 sec)
Heartbeat CPU 0 instructions: 290000001 cycles: 141850064 heartbeat IPC: 1.873 cumulative IPC: 1.856 (Simulation time: 00 hr 31 min 15 sec)
Heartbeat CPU 0 instructions: 300000003 cycles: 146876018 heartbeat IPC: 1.99 cumulative IPC: 1.861 (Simulation time: 00 hr 32 min 24 sec)
Heartbeat CPU 0 instructions: 310000001 cycles: 152124642 heartbeat IPC: 1.905 cumulative IPC: 1.863 (Simulation time: 00 hr 33 min 35 sec)
Heartbeat CPU 0 instructions: 320000003 cycles: 157311291 heartbeat IPC: 1.928 cumulative IPC: 1.865 (Simulation time: 00 hr 34 min 47 sec)
Heartbeat CPU 0 instructions: 330000003 cycles: 162577539 heartbeat IPC: 1.899 cumulative IPC: 1.866 (Simulation time: 00 hr 35 min 54 sec)
Heartbeat CPU 0 instructions: 340000000 cycles: 171987504 heartbeat IPC: 1.063 cumulative IPC: 1.819 (Simulation time: 00 hr 37 min 36 sec)
Heartbeat CPU 0 instructions: 350000000 cycles: 179734498 heartbeat IPC: 1.291 cumulative IPC: 1.794 (Simulation time: 00 hr 39 min 03 sec)
Heartbeat CPU 0 instructions: 360000004 cycles: 187419915 heartbeat IPC: 1.301 cumulative IPC: 1.773 (Simulation time: 00 hr 40 min 31 sec)
Heartbeat CPU 0 instructions: 370000000 cycles: 191726730 heartbeat IPC: 2.322 cumulative IPC: 1.786 (Simulation time: 00 hr 41 min 32 sec)
Heartbeat CPU 0 instructions: 380000001 cycles: 196544247 heartbeat IPC: 2.076 cumulative IPC: 1.793 (Simulation time: 00 hr 42 min 36 sec)
Heartbeat CPU 0 instructions: 390000002 cycles: 201301237 heartbeat IPC: 2.102 cumulative IPC: 1.801 (Simulation time: 00 hr 43 min 42 sec)
Heartbeat CPU 0 instructions: 400000004 cycles: 206202260 heartbeat IPC: 2.04 cumulative IPC: 1.807 (Simulation time: 00 hr 44 min 48 sec)
Heartbeat CPU 0 instructions: 410000000 cycles: 210834491 heartbeat IPC: 2.159 cumulative IPC: 1.815 (Simulation time: 00 hr 45 min 49 sec)
Heartbeat CPU 0 instructions: 420000000 cycles: 215851975 heartbeat IPC: 1.993 cumulative IPC: 1.82 (Simulation time: 00 hr 46 min 56 sec)
Heartbeat CPU 0 instructions: 430000001 cycles: 220268515 heartbeat IPC: 2.264 cumulative IPC: 1.829 (Simulation time: 00 hr 47 min 57 sec)
Heartbeat CPU 0 instructions: 440000000 cycles: 225561372 heartbeat IPC: 1.889 cumulative IPC: 1.831 (Simulation time: 00 hr 49 min 02 sec)
Heartbeat CPU 0 instructions: 450000002 cycles: 230169988 heartbeat IPC: 2.17 cumulative IPC: 1.838 (Simulation time: 00 hr 50 min 04 sec)
Heartbeat CPU 0 instructions: 460000000 cycles: 234926073 heartbeat IPC: 2.103 cumulative IPC: 1.844 (Simulation time: 00 hr 51 min 05 sec)
Heartbeat CPU 0 instructions: 470000000 cycles: 239862342 heartbeat IPC: 2.026 cumulative IPC: 1.848 (Simulation time: 00 hr 52 min 08 sec)
Heartbeat CPU 0 instructions: 480000003 cycles: 244626501 heartbeat IPC: 2.099 cumulative IPC: 1.853 (Simulation time: 00 hr 53 min 10 sec)
Heartbeat CPU 0 instructions: 490000000 cycles: 249220353 heartbeat IPC: 2.177 cumulative IPC: 1.859 (Simulation time: 00 hr 54 min 15 sec)
Heartbeat CPU 0 instructions: 500000000 cycles: 254225100 heartbeat IPC: 1.998 cumulative IPC: 1.862 (Simulation time: 00 hr 55 min 24 sec)
Heartbeat CPU 0 instructions: 510000003 cycles: 259846287 heartbeat IPC: 1.779 cumulative IPC: 1.86 (Simulation time: 00 hr 56 min 38 sec)
Heartbeat CPU 0 instructions: 520000001 cycles: 264510699 heartbeat IPC: 2.144 cumulative IPC: 1.865 (Simulation time: 00 hr 57 min 45 sec)
Heartbeat CPU 0 instructions: 530000002 cycles: 269640384 heartbeat IPC: 1.949 cumulative IPC: 1.867 (Simulation time: 00 hr 58 min 56 sec)
Heartbeat CPU 0 instructions: 540000000 cycles: 274735771 heartbeat IPC: 1.963 cumulative IPC: 1.869 (Simulation time: 01 hr 00 min 01 sec)
Heartbeat CPU 0 instructions: 550000001 cycles: 279532051 heartbeat IPC: 2.085 cumulative IPC: 1.873 (Simulation time: 01 hr 01 min 04 sec)
Heartbeat CPU 0 instructions: 560000000 cycles: 284741543 heartbeat IPC: 1.92 cumulative IPC: 1.874 (Simulation time: 01 hr 02 min 08 sec)
Heartbeat CPU 0 instructions: 570000004 cycles: 291878658 heartbeat IPC: 1.401 cumulative IPC: 1.862 (Simulation time: 01 hr 03 min 27 sec)
Heartbeat CPU 0 instructions: 580000003 cycles: 300819083 heartbeat IPC: 1.119 cumulative IPC: 1.838 (Simulation time: 01 hr 05 min 02 sec)
Heartbeat CPU 0 instructions: 590000002 cycles: 309562207 heartbeat IPC: 1.144 cumulative IPC: 1.818 (Simulation time: 01 hr 06 min 40 sec)
Heartbeat CPU 0 instructions: 600000000 cycles: 314001080 heartbeat IPC: 2.253 cumulative IPC: 1.824 (Simulation time: 01 hr 07 min 45 sec)
Heartbeat CPU 0 instructions: 610000002 cycles: 318405741 heartbeat IPC: 2.27 cumulative IPC: 1.831 (Simulation time: 01 hr 08 min 46 sec)
Heartbeat CPU 0 instructions: 620000000 cycles: 323149113 heartbeat IPC: 2.108 cumulative IPC: 1.835 (Simulation time: 01 hr 09 min 51 sec)
Heartbeat CPU 0 instructions: 630000002 cycles: 328150080 heartbeat IPC: 2 cumulative IPC: 1.838 (Simulation time: 01 hr 10 min 59 sec)
Heartbeat CPU 0 instructions: 640000001 cycles: 332972783 heartbeat IPC: 2.074 cumulative IPC: 1.841 (Simulation time: 01 hr 12 min 08 sec)
Heartbeat CPU 0 instructions: 650000000 cycles: 337497033 heartbeat IPC: 2.21 cumulative IPC: 1.846 (Simulation time: 01 hr 13 min 16 sec)
Simulation finished CPU 0 instructions: 600000001 cycles: 324959924 cumulative IPC: 1.846 (Simulation time: 01 hr 13 min 16 sec)
Simulation complete CPU 0 instructions: 600000001 cycles: 324959924 cumulative IPC: 1.846 (Simulation time: 01 hr 13 min 16 sec)

ChampSim completed all CPUs

=== Simulation ===
CPU 0 runs traces/400.perlbench-41B.champsimtrace.xz
Region of Interest Statistics

CPU 0 cumulative IPC: 1.846 instructions: 600000001 cycles: 324959924
CPU 0 Branch Prediction Accuracy: 93.95% MPKI: 12.5 Average ROB Occupancy at Mispredict: 29.53
Branch type MPKI
BRANCH_DIRECT_JUMP: 0.0123
BRANCH_INDIRECT: 0.323
BRANCH_CONDITIONAL: 12
BRANCH_DIRECT_CALL: 0.0043
BRANCH_INDIRECT_CALL: 0.2
BRANCH_RETURN: 0.00828

LLC TOTAL        ACCESS:     595598 HIT:     450885 MISS:     144713
LLC LOAD         ACCESS:     403641 HIT:     298815 MISS:     104826
LLC RFO          ACCESS:      32584 HIT:      21957 MISS:      10627
LLC PREFETCH     ACCESS:      54594 HIT:      42860 MISS:      11734
LLC WRITE        ACCESS:      85678 HIT:      78141 MISS:       7537
LLC TRANSLATION  ACCESS:      19101 HIT:       9112 MISS:       9989
LLC PREFETCH REQUESTED:      54594 ISSUED:      54594 USEFUL:       7083 USELESS:       3330
LLC AVERAGE MISS LATENCY: 513.9 cycles
cpu0_DTLB TOTAL        ACCESS:  153675868 HIT:  152998721 MISS:     677147
cpu0_DTLB LOAD         ACCESS:  153675868 HIT:  152998721 MISS:     677147
cpu0_DTLB RFO          ACCESS:          0 HIT:          0 MISS:          0
cpu0_DTLB PREFETCH     ACCESS:          0 HIT:          0 MISS:          0
cpu0_DTLB WRITE        ACCESS:          0 HIT:          0 MISS:          0
cpu0_DTLB TRANSLATION  ACCESS:          0 HIT:          0 MISS:          0
cpu0_DTLB PREFETCH REQUESTED:          0 ISSUED:          0 USEFUL:          0 USELESS:          0
cpu0_DTLB AVERAGE MISS LATENCY: 14.32 cycles
cpu0_ITLB TOTAL        ACCESS:    4839376 HIT:    4781533 MISS:      57843
cpu0_ITLB LOAD         ACCESS:    4839376 HIT:    4781533 MISS:      57843
cpu0_ITLB RFO          ACCESS:          0 HIT:          0 MISS:          0
cpu0_ITLB PREFETCH     ACCESS:          0 HIT:          0 MISS:          0
cpu0_ITLB WRITE        ACCESS:          0 HIT:          0 MISS:          0
cpu0_ITLB TRANSLATION  ACCESS:          0 HIT:          0 MISS:          0
cpu0_ITLB PREFETCH REQUESTED:          0 ISSUED:          0 USEFUL:          0 USELESS:          0
cpu0_ITLB AVERAGE MISS LATENCY: 5.748 cycles
cpu0_L1D TOTAL        ACCESS:  200294953 HIT:  198599423 MISS:    1695530
cpu0_L1D LOAD         ACCESS:  117052038 HIT:  115733525 MISS:    1318513
cpu0_L1D RFO          ACCESS:          0 HIT:          0 MISS:          0
cpu0_L1D PREFETCH     ACCESS:          0 HIT:          0 MISS:          0
cpu0_L1D WRITE        ACCESS:   83218455 HIT:   82864862 MISS:     353593
cpu0_L1D TRANSLATION  ACCESS:      24460 HIT:       1036 MISS:      23424
cpu0_L1D PREFETCH REQUESTED:          0 ISSUED:          0 USEFUL:          0 USELESS:          0
cpu0_L1D AVERAGE MISS LATENCY: 46.08 cycles
cpu0_L1I TOTAL        ACCESS:    5581407 HIT:    4820071 MISS:     761336
cpu0_L1I LOAD         ACCESS:    5581407 HIT:    4820071 MISS:     761336
cpu0_L1I RFO          ACCESS:          0 HIT:          0 MISS:          0
cpu0_L1I PREFETCH     ACCESS:          0 HIT:          0 MISS:          0
cpu0_L1I WRITE        ACCESS:          0 HIT:          0 MISS:          0
cpu0_L1I TRANSLATION  ACCESS:          0 HIT:          0 MISS:          0
cpu0_L1I PREFETCH REQUESTED:          0 ISSUED:          0 USEFUL:          0 USELESS:          0
cpu0_L1I AVERAGE MISS LATENCY: 11.83 cycles
cpu0_L2C TOTAL        ACCESS:    1667954 HIT:    1210781 MISS:     457173
cpu0_L2C LOAD         ACCESS:    1317143 HIT:     913502 MISS:     403641
cpu0_L2C RFO          ACCESS:      88617 HIT:      56033 MISS:      32584
cpu0_L2C PREFETCH     ACCESS:          0 HIT:          0 MISS:          0
cpu0_L2C WRITE        ACCESS:     238848 HIT:     237001 MISS:       1847
cpu0_L2C TRANSLATION  ACCESS:      23346 HIT:       4245 MISS:      19101
cpu0_L2C PREFETCH REQUESTED:          0 ISSUED:          0 USEFUL:          0 USELESS:          0
cpu0_L2C AVERAGE MISS LATENCY: 166.4 cycles
cpu0_STLB TOTAL        ACCESS:     505129 HIT:     482339 MISS:      22790
cpu0_STLB LOAD         ACCESS:     505129 HIT:     482339 MISS:      22790
cpu0_STLB RFO          ACCESS:          0 HIT:          0 MISS:          0
cpu0_STLB PREFETCH     ACCESS:          0 HIT:          0 MISS:          0
cpu0_STLB WRITE        ACCESS:          0 HIT:          0 MISS:          0
cpu0_STLB TRANSLATION  ACCESS:          0 HIT:          0 MISS:          0
cpu0_STLB PREFETCH REQUESTED:          0 ISSUED:          0 USEFUL:          0 USELESS:          0
cpu0_STLB AVERAGE MISS LATENCY: 297.7 cycles

DRAM Statistics

Channel 0 RQ ROW_BUFFER_HIT:      22178
  ROW_BUFFER_MISS:     113599
 AVG DBUS CONGESTED CYCLE: 3.799
WQ ROW_BUFFER_HIT: Channel 0 
  ROW_BUFFER_MISS:       7518
  FULL:      17344
