WARNING: physical memory size is smaller than virtual memory size.

*** ChampSim Multicore Out-of-Order Simulator ***
Warmup Instructions: 50000000
Simulation Instructions: 600000000
Number of CPUs: 1
Page size: 4096

Off-chip DRAM Size: 4 GiB Channels: 1 Width: 64-bit Data Race: 3200 MT/s
Heartbeat CPU 0 instructions: 10000001 cycles: 2500318 heartbeat IPC: 3.999 cumulative IPC: 3.999 (Simulation time: 00 hr 00 min 55 sec)
Heartbeat CPU 0 instructions: 20000002 cycles: 5037122 heartbeat IPC: 3.942 cumulative IPC: 3.971 (Simulation time: 00 hr 01 min 54 sec)
Heartbeat CPU 0 instructions: 30000002 cycles: 7537122 heartbeat IPC: 4 cumulative IPC: 3.98 (Simulation time: 00 hr 02 min 46 sec)
Heartbeat CPU 0 instructions: 40000002 cycles: 10037122 heartbeat IPC: 4 cumulative IPC: 3.985 (Simulation time: 00 hr 03 min 31 sec)
Heartbeat CPU 0 instructions: 50000002 cycles: 12537122 heartbeat IPC: 4 cumulative IPC: 3.988 (Simulation time: 00 hr 04 min 15 sec)
Warmup finished CPU 0 instructions: 50000002 cycles: 12537123 cumulative IPC: 3.988 (Simulation time: 00 hr 04 min 15 sec)
Warmup complete CPU 0 instructions: 50000002 cycles: 12537123 cumulative IPC: 3.988 (Simulation time: 00 hr 04 min 15 sec)
Heartbeat CPU 0 instructions: 60000000 cycles: 17144977 heartbeat IPC: 2.17 cumulative IPC: 2.17 (Simulation time: 00 hr 05 min 21 sec)
Heartbeat CPU 0 instructions: 70000004 cycles: 21410558 heartbeat IPC: 2.344 cumulative IPC: 2.254 (Simulation time: 00 hr 06 min 25 sec)
Heartbeat CPU 0 instructions: 80000001 cycles: 25999270 heartbeat IPC: 2.179 cumulative IPC: 2.228 (Simulation time: 00 hr 07 min 31 sec)
Heartbeat CPU 0 instructions: 90000001 cycles: 30119620 heartbeat IPC: 2.427 cumulative IPC: 2.275 (Simulation time: 00 hr 08 min 33 sec)
Heartbeat CPU 0 instructions: 100000000 cycles: 34167091 heartbeat IPC: 2.471 cumulative IPC: 2.312 (Simulation time: 00 hr 09 min 34 sec)
Heartbeat CPU 0 instructions: 110000000 cycles: 38401870 heartbeat IPC: 2.361 cumulative IPC: 2.32 (Simulation time: 00 hr 10 min 36 sec)
Heartbeat CPU 0 instructions: 120000001 cycles: 42409627 heartbeat IPC: 2.495 cumulative IPC: 2.343 (Simulation time: 00 hr 11 min 38 sec)
Heartbeat CPU 0 instructions: 130000001 cycles: 46137126 heartbeat IPC: 2.683 cumulative IPC: 2.381 (Simulation time: 00 hr 12 min 38 sec)
Heartbeat CPU 0 instructions: 140000001 cycles: 50295665 heartbeat IPC: 2.405 cumulative IPC: 2.384 (Simulation time: 00 hr 13 min 40 sec)
Heartbeat CPU 0 instructions: 150000001 cycles: 54485163 heartbeat IPC: 2.387 cumulative IPC: 2.384 (Simulation time: 00 hr 14 min 43 sec)
Heartbeat CPU 0 instructions: 160000004 cycles: 58900324 heartbeat IPC: 2.265 cumulative IPC: 2.373 (Simulation time: 00 hr 15 min 48 sec)
Heartbeat CPU 0 instructions: 170000000 cycles: 67564225 heartbeat IPC: 1.154 cumulative IPC: 2.181 (Simulation time: 00 hr 17 min 30 sec)
Heartbeat CPU 0 instructions: 180000004 cycles: 76699814 heartbeat IPC: 1.095 cumulative IPC: 2.026 (Simulation time: 00 hr 19 min 19 sec)
Heartbeat CPU 0 instructions: 190000001 cycles: 85533859 heartbeat IPC: 1.132 cumulative IPC: 1.918 (Simulation time: 00 hr 21 min 05 sec)
Heartbeat CPU 0 instructions: 200000004 cycles: 89219505 heartbeat IPC: 2.713 cumulative IPC: 1.956 (Simulation time: 00 hr 22 min 05 sec)
Heartbeat CPU 0 instructions: 210000001 cycles: 93074521 heartbeat IPC: 2.594 cumulative IPC: 1.987 (Simulation time: 00 hr 23 min 07 sec)
Heartbeat CPU 0 instructions: 220000000 cycles: 96992590 heartbeat IPC: 2.552 cumulative IPC: 2.013 (Simulation time: 00 hr 24 min 09 sec)
Heartbeat CPU 0 instructions: 230000002 cycles: 101545728 heartbeat IPC: 2.196 cumulative IPC: 2.022 (Simulation time: 00 hr 25 min 15 sec)
Heartbeat CPU 0 instructions: 240000000 cycles: 105673374 heartbeat IPC: 2.423 cumulative IPC: 2.04 (Simulation time: 00 hr 26 min 17 sec)
Heartbeat CPU 0 instructions: 250000000 cycles: 109892522 heartbeat IPC: 2.37 cumulative IPC: 2.054 (Simulation time: 00 hr 27 min 21 sec)
Heartbeat CPU 0 instructions: 260000000 cycles: 113979463 heartbeat IPC: 2.447 cumulative IPC: 2.07 (Simulation time: 00 hr 28 min 24 sec)
Heartbeat CPU 0 instructions: 270000002 cycles: 117764437 heartbeat IPC: 2.642 cumulative IPC: 2.091 (Simulation time: 00 hr 29 min 24 sec)
Heartbeat CPU 0 instructions: 280000002 cycles: 121858126 heartbeat IPC: 2.443 cumulative IPC: 2.104 (Simulation time: 00 hr 30 min 26 sec)
Heartbeat CPU 0 instructions: 290000001 cycles: 125697524 heartbeat IPC: 2.605 cumulative IPC: 2.121 (Simulation time: 00 hr 31 min 26 sec)
Heartbeat CPU 0 instructions: 300000003 cycles: 129436251 heartbeat IPC: 2.675 cumulative IPC: 2.139 (Simulation time: 00 hr 32 min 25 sec)
Heartbeat CPU 0 instructions: 310000001 cycles: 133449323 heartbeat IPC: 2.492 cumulative IPC: 2.15 (Simulation time: 00 hr 33 min 26 sec)
Heartbeat CPU 0 instructions: 320000003 cycles: 137440954 heartbeat IPC: 2.505 cumulative IPC: 2.162 (Simulation time: 00 hr 34 min 26 sec)
Heartbeat CPU 0 instructions: 330000003 cycles: 141715625 heartbeat IPC: 2.339 cumulative IPC: 2.168 (Simulation time: 00 hr 35 min 30 sec)
Heartbeat CPU 0 instructions: 340000000 cycles: 150225392 heartbeat IPC: 1.175 cumulative IPC: 2.106 (Simulation time: 00 hr 37 min 09 sec)
Heartbeat CPU 0 instructions: 350000000 cycles: 160097572 heartbeat IPC: 1.013 cumulative IPC: 2.033 (Simulation time: 00 hr 39 min 01 sec)
Heartbeat CPU 0 instructions: 360000004 cycles: 169194430 heartbeat IPC: 1.099 cumulative IPC: 1.979 (Simulation time: 00 hr 40 min 47 sec)
Heartbeat CPU 0 instructions: 370000000 cycles: 172581547 heartbeat IPC: 2.952 cumulative IPC: 1.999 (Simulation time: 00 hr 41 min 43 sec)
Heartbeat CPU 0 instructions: 380000001 cycles: 175936795 heartbeat IPC: 2.98 cumulative IPC: 2.02 (Simulation time: 00 hr 42 min 40 sec)
Heartbeat CPU 0 instructions: 390000004 cycles: 179643844 heartbeat IPC: 2.698 cumulative IPC: 2.035 (Simulation time: 00 hr 43 min 39 sec)
Heartbeat CPU 0 instructions: 400000004 cycles: 183437213 heartbeat IPC: 2.636 cumulative IPC: 2.048 (Simulation time: 00 hr 44 min 37 sec)
Heartbeat CPU 0 instructions: 410000001 cycles: 187032895 heartbeat IPC: 2.781 cumulative IPC: 2.063 (Simulation time: 00 hr 45 min 35 sec)
Heartbeat CPU 0 instructions: 420000003 cycles: 191011821 heartbeat IPC: 2.513 cumulative IPC: 2.073 (Simulation time: 00 hr 46 min 35 sec)
Heartbeat CPU 0 instructions: 430000001 cycles: 194629605 heartbeat IPC: 2.764 cumulative IPC: 2.087 (Simulation time: 00 hr 47 min 33 sec)
Heartbeat CPU 0 instructions: 440000004 cycles: 198644188 heartbeat IPC: 2.491 cumulative IPC: 2.096 (Simulation time: 00 hr 48 min 34 sec)
Heartbeat CPU 0 instructions: 450000002 cycles: 202308212 heartbeat IPC: 2.729 cumulative IPC: 2.108 (Simulation time: 00 hr 49 min 32 sec)
Heartbeat CPU 0 instructions: 460000000 cycles: 205925060 heartbeat IPC: 2.765 cumulative IPC: 2.12 (Simulation time: 00 hr 50 min 29 sec)
Heartbeat CPU 0 instructions: 470000000 cycles: 209334004 heartbeat IPC: 2.933 cumulative IPC: 2.134 (Simulation time: 00 hr 51 min 25 sec)
Heartbeat CPU 0 instructions: 480000003 cycles: 213106857 heartbeat IPC: 2.651 cumulative IPC: 2.144 (Simulation time: 00 hr 52 min 23 sec)
Heartbeat CPU 0 instructions: 490000000 cycles: 216697279 heartbeat IPC: 2.785 cumulative IPC: 2.155 (Simulation time: 00 hr 53 min 20 sec)
Heartbeat CPU 0 instructions: 500000000 cycles: 220361317 heartbeat IPC: 2.729 cumulative IPC: 2.165 (Simulation time: 00 hr 54 min 18 sec)
Heartbeat CPU 0 instructions: 510000003 cycles: 223978999 heartbeat IPC: 2.764 cumulative IPC: 2.176 (Simulation time: 00 hr 55 min 17 sec)
Heartbeat CPU 0 instructions: 520000001 cycles: 227328621 heartbeat IPC: 2.985 cumulative IPC: 2.188 (Simulation time: 00 hr 56 min 14 sec)
Heartbeat CPU 0 instructions: 530000002 cycles: 230946945 heartbeat IPC: 2.764 cumulative IPC: 2.198 (Simulation time: 00 hr 57 min 11 sec)
Heartbeat CPU 0 instructions: 540000000 cycles: 234414392 heartbeat IPC: 2.884 cumulative IPC: 2.208 (Simulation time: 00 hr 58 min 08 sec)
Heartbeat CPU 0 instructions: 550000001 cycles: 238065005 heartbeat IPC: 2.739 cumulative IPC: 2.217 (Simulation time: 00 hr 59 min 07 sec)
Heartbeat CPU 0 instructions: 560000000 cycles: 241956742 heartbeat IPC: 2.57 cumulative IPC: 2.223 (Simulation time: 01 hr 00 min 07 sec)
Heartbeat CPU 0 instructions: 570000004 cycles: 247795603 heartbeat IPC: 1.713 cumulative IPC: 2.21 (Simulation time: 01 hr 01 min 25 sec)
Heartbeat CPU 0 instructions: 580000003 cycles: 257917621 heartbeat IPC: 0.9879 cumulative IPC: 2.16 (Simulation time: 01 hr 03 min 19 sec)
Heartbeat CPU 0 instructions: 590000002 cycles: 269568127 heartbeat IPC: 0.8583 cumulative IPC: 2.101 (Simulation time: 01 hr 05 min 26 sec)
Heartbeat CPU 0 instructions: 600000000 cycles: 273254838 heartbeat IPC: 2.712 cumulative IPC: 2.11 (Simulation time: 01 hr 06 min 25 sec)
Heartbeat CPU 0 instructions: 610000000 cycles: 277067203 heartbeat IPC: 2.623 cumulative IPC: 2.117 (Simulation time: 01 hr 07 min 23 sec)
Heartbeat CPU 0 instructions: 620000001 cycles: 280477428 heartbeat IPC: 2.932 cumulative IPC: 2.127 (Simulation time: 01 hr 08 min 20 sec)
Heartbeat CPU 0 instructions: 630000002 cycles: 284706999 heartbeat IPC: 2.364 cumulative IPC: 2.131 (Simulation time: 01 hr 09 min 21 sec)
Heartbeat CPU 0 instructions: 640000001 cycles: 288587241 heartbeat IPC: 2.577 cumulative IPC: 2.137 (Simulation time: 01 hr 10 min 20 sec)
Heartbeat CPU 0 instructions: 650000000 cycles: 292323973 heartbeat IPC: 2.676 cumulative IPC: 2.144 (Simulation time: 01 hr 11 min 18 sec)
Simulation finished CPU 0 instructions: 600000001 cycles: 279786852 cumulative IPC: 2.144 (Simulation time: 01 hr 11 min 18 sec)
Simulation complete CPU 0 instructions: 600000001 cycles: 279786852 cumulative IPC: 2.144 (Simulation time: 01 hr 11 min 18 sec)

ChampSim completed all CPUs

=== Simulation ===
CPU 0 runs traces/400.perlbench-41B.champsimtrace.xz
Region of Interest Statistics

CPU 0 cumulative IPC: 2.144 instructions: 600000001 cycles: 279786852
CPU 0 Branch Prediction Accuracy: 96.56% MPKI: 7.112 Average ROB Occupancy at Mispredict: 47.27
Branch type MPKI
BRANCH_DIRECT_JUMP: 0.0123
BRANCH_INDIRECT: 0.323
BRANCH_CONDITIONAL: 6.56
BRANCH_DIRECT_CALL: 0.0043
BRANCH_INDIRECT_CALL: 0.2
BRANCH_RETURN: 0.00828

LLC TOTAL        ACCESS:     592417 HIT:     405730 MISS:     186687
LLC LOAD         ACCESS:     402704 HIT:     256597 MISS:     146107
LLC RFO          ACCESS:      32511 HIT:      21164 MISS:      11347
LLC PREFETCH     ACCESS:      53087 HIT:      34853 MISS:      18234
LLC WRITE        ACCESS:      85089 HIT:      83235 MISS:       1854
LLC TRANSLATION  ACCESS:      19026 HIT:       9881 MISS:       9145
LLC PREFETCH REQUESTED:      53087 ISSUED:      53087 USEFUL:      11350 USELESS:       4277
LLC AVERAGE MISS LATENCY: 532.5 cycles
cpu0_DTLB TOTAL        ACCESS:  141905022 HIT:  141218231 MISS:     686791
cpu0_DTLB LOAD         ACCESS:  141905022 HIT:  141218231 MISS:     686791
cpu0_DTLB RFO          ACCESS:          0 HIT:          0 MISS:          0
cpu0_DTLB PREFETCH     ACCESS:          0 HIT:          0 MISS:          0
cpu0_DTLB WRITE        ACCESS:          0 HIT:          0 MISS:          0
cpu0_DTLB TRANSLATION  ACCESS:          0 HIT:          0 MISS:          0
cpu0_DTLB PREFETCH REQUESTED:          0 ISSUED:          0 USEFUL:          0 USELESS:          0
cpu0_DTLB AVERAGE MISS LATENCY: 13.44 cycles
cpu0_ITLB TOTAL        ACCESS:    4858846 HIT:    4805733 MISS:      53113
cpu0_ITLB LOAD         ACCESS:    4858846 HIT:    4805733 MISS:      53113
cpu0_ITLB RFO          ACCESS:          0 HIT:          0 MISS:          0
cpu0_ITLB PREFETCH     ACCESS:          0 HIT:          0 MISS:          0
cpu0_ITLB WRITE        ACCESS:          0 HIT:          0 MISS:          0
cpu0_ITLB TRANSLATION  ACCESS:          0 HIT:          0 MISS:          0
cpu0_ITLB PREFETCH REQUESTED:          0 ISSUED:          0 USEFUL:          0 USELESS:          0
cpu0_ITLB AVERAGE MISS LATENCY: 6.808 cycles
cpu0_L1D TOTAL        ACCESS:  188567694 HIT:  186854029 MISS:    1713665
cpu0_L1D LOAD         ACCESS:  105200390 HIT:  103860214 MISS:    1340176
cpu0_L1D RFO          ACCESS:          0 HIT:          0 MISS:          0
cpu0_L1D PREFETCH     ACCESS:          0 HIT:          0 MISS:          0
cpu0_L1D WRITE        ACCESS:   83342842 HIT:   82992746 MISS:     350096
cpu0_L1D TRANSLATION  ACCESS:      24462 HIT:       1069 MISS:      23393
cpu0_L1D PREFETCH REQUESTED:          0 ISSUED:          0 USEFUL:          0 USELESS:          0
cpu0_L1D AVERAGE MISS LATENCY: 58.17 cycles
cpu0_L1I TOTAL        ACCESS:    5596577 HIT:    4853098 MISS:     743479
cpu0_L1I LOAD         ACCESS:    5596577 HIT:    4853098 MISS:     743479
cpu0_L1I RFO          ACCESS:          0 HIT:          0 MISS:          0
cpu0_L1I PREFETCH     ACCESS:          0 HIT:          0 MISS:          0
cpu0_L1I WRITE        ACCESS:          0 HIT:          0 MISS:          0
cpu0_L1I TRANSLATION  ACCESS:          0 HIT:          0 MISS:          0
cpu0_L1I PREFETCH REQUESTED:          0 ISSUED:          0 USEFUL:          0 USELESS:          0
cpu0_L1I AVERAGE MISS LATENCY: 12.43 cycles
cpu0_L2C TOTAL        ACCESS:    1665811 HIT:    1209792 MISS:     456019
cpu0_L2C LOAD         ACCESS:    1315984 HIT:     913280 MISS:     402704
cpu0_L2C RFO          ACCESS:      88327 HIT:      55816 MISS:      32511
cpu0_L2C PREFETCH     ACCESS:          0 HIT:          0 MISS:          0
cpu0_L2C WRITE        ACCESS:     238176 HIT:     236398 MISS:       1778
cpu0_L2C TRANSLATION  ACCESS:      23324 HIT:       4298 MISS:      19026
cpu0_L2C PREFETCH REQUESTED:          0 ISSUED:          0 USEFUL:          0 USELESS:          0
cpu0_L2C AVERAGE MISS LATENCY: 216.5 cycles
cpu0_STLB TOTAL        ACCESS:     507299 HIT:     484505 MISS:      22794
cpu0_STLB LOAD         ACCESS:     507299 HIT:     484505 MISS:      22794
cpu0_STLB RFO          ACCESS:          0 HIT:          0 MISS:          0
cpu0_STLB PREFETCH     ACCESS:          0 HIT:          0 MISS:          0
cpu0_STLB WRITE        ACCESS:          0 HIT:          0 MISS:          0
cpu0_STLB TRANSLATION  ACCESS:          0 HIT:          0 MISS:          0
cpu0_STLB PREFETCH REQUESTED:          0 ISSUED:          0 USEFUL:          0 USELESS:          0
cpu0_STLB AVERAGE MISS LATENCY: 280.5 cycles

DRAM Statistics

Channel 0 RQ ROW_BUFFER_HIT:      29679
  ROW_BUFFER_MISS:     151543
 AVG DBUS CONGESTED CYCLE: 3.795
WQ ROW_BUFFER_HIT: Channel 0 
  ROW_BUFFER_MISS:       8299
  FULL:      19966
