WARNING: physical memory size is smaller than virtual memory size.

*** ChampSim Multicore Out-of-Order Simulator ***
Warmup Instructions: 50000000
Simulation Instructions: 600000000
Number of CPUs: 1
Page size: 4096

Off-chip DRAM Size: 4 GiB Channels: 1 Width: 64-bit Data Race: 3200 MT/s
Heartbeat CPU 0 instructions: 10000000 cycles: 2500061 heartbeat IPC: 4 cumulative IPC: 4 (Simulation time: 00 hr 00 min 30 sec)
Heartbeat CPU 0 instructions: 20000000 cycles: 5000061 heartbeat IPC: 4 cumulative IPC: 4 (Simulation time: 00 hr 01 min 03 sec)
Heartbeat CPU 0 instructions: 30000000 cycles: 7500061 heartbeat IPC: 4 cumulative IPC: 4 (Simulation time: 00 hr 01 min 40 sec)
Heartbeat CPU 0 instructions: 40000000 cycles: 10000061 heartbeat IPC: 4 cumulative IPC: 4 (Simulation time: 00 hr 02 min 20 sec)
Heartbeat CPU 0 instructions: 50000000 cycles: 12500061 heartbeat IPC: 4 cumulative IPC: 4 (Simulation time: 00 hr 03 min 05 sec)
Warmup finished CPU 0 instructions: 50000000 cycles: 12500062 cumulative IPC: 4 (Simulation time: 00 hr 03 min 05 sec)
Warmup complete CPU 0 instructions: 50000000 cycles: 12500062 cumulative IPC: 4 (Simulation time: 00 hr 03 min 05 sec)
Heartbeat CPU 0 instructions: 60000002 cycles: 16911341 heartbeat IPC: 2.267 cumulative IPC: 2.267 (Simulation time: 00 hr 04 min 12 sec)
Heartbeat CPU 0 instructions: 70000003 cycles: 21897820 heartbeat IPC: 2.005 cumulative IPC: 2.128 (Simulation time: 00 hr 05 min 14 sec)
Heartbeat CPU 0 instructions: 80000001 cycles: 27247190 heartbeat IPC: 1.869 cumulative IPC: 2.034 (Simulation time: 00 hr 06 min 19 sec)
Heartbeat CPU 0 instructions: 90000000 cycles: 31546012 heartbeat IPC: 2.326 cumulative IPC: 2.1 (Simulation time: 00 hr 07 min 21 sec)
Heartbeat CPU 0 instructions: 100000003 cycles: 36406147 heartbeat IPC: 2.058 cumulative IPC: 2.092 (Simulation time: 00 hr 08 min 27 sec)
Heartbeat CPU 0 instructions: 110000002 cycles: 41284204 heartbeat IPC: 2.05 cumulative IPC: 2.084 (Simulation time: 00 hr 09 min 30 sec)
Heartbeat CPU 0 instructions: 120000001 cycles: 46280693 heartbeat IPC: 2.001 cumulative IPC: 2.072 (Simulation time: 00 hr 10 min 32 sec)
Heartbeat CPU 0 instructions: 130000003 cycles: 50851474 heartbeat IPC: 2.188 cumulative IPC: 2.086 (Simulation time: 00 hr 11 min 35 sec)
Heartbeat CPU 0 instructions: 140000002 cycles: 55744742 heartbeat IPC: 2.044 cumulative IPC: 2.081 (Simulation time: 00 hr 12 min 47 sec)
Heartbeat CPU 0 instructions: 150000001 cycles: 60416524 heartbeat IPC: 2.141 cumulative IPC: 2.087 (Simulation time: 00 hr 13 min 55 sec)
Heartbeat CPU 0 instructions: 160000000 cycles: 65057180 heartbeat IPC: 2.155 cumulative IPC: 2.093 (Simulation time: 00 hr 15 min 03 sec)
Heartbeat CPU 0 instructions: 170000000 cycles: 70394497 heartbeat IPC: 1.874 cumulative IPC: 2.073 (Simulation time: 00 hr 16 min 12 sec)
Heartbeat CPU 0 instructions: 180000001 cycles: 76116472 heartbeat IPC: 1.748 cumulative IPC: 2.043 (Simulation time: 00 hr 17 min 24 sec)
Heartbeat CPU 0 instructions: 190000002 cycles: 80593267 heartbeat IPC: 2.234 cumulative IPC: 2.056 (Simulation time: 00 hr 18 min 33 sec)
Heartbeat CPU 0 instructions: 200000002 cycles: 85503685 heartbeat IPC: 2.036 cumulative IPC: 2.055 (Simulation time: 00 hr 19 min 39 sec)
Heartbeat CPU 0 instructions: 210000000 cycles: 90509961 heartbeat IPC: 1.997 cumulative IPC: 2.051 (Simulation time: 00 hr 20 min 46 sec)
Heartbeat CPU 0 instructions: 220000001 cycles: 95435925 heartbeat IPC: 2.03 cumulative IPC: 2.05 (Simulation time: 00 hr 21 min 54 sec)
Heartbeat CPU 0 instructions: 230000002 cycles: 100684992 heartbeat IPC: 1.905 cumulative IPC: 2.041 (Simulation time: 00 hr 23 min 06 sec)
Heartbeat CPU 0 instructions: 240000001 cycles: 105652106 heartbeat IPC: 2.013 cumulative IPC: 2.04 (Simulation time: 00 hr 24 min 17 sec)
Heartbeat CPU 0 instructions: 250000003 cycles: 110840378 heartbeat IPC: 1.927 cumulative IPC: 2.034 (Simulation time: 00 hr 25 min 26 sec)
Heartbeat CPU 0 instructions: 260000001 cycles: 115702940 heartbeat IPC: 2.057 cumulative IPC: 2.035 (Simulation time: 00 hr 26 min 37 sec)
Heartbeat CPU 0 instructions: 270000000 cycles: 123412770 heartbeat IPC: 1.297 cumulative IPC: 1.984 (Simulation time: 00 hr 28 min 07 sec)
Heartbeat CPU 0 instructions: 280000000 cycles: 134567426 heartbeat IPC: 0.8965 cumulative IPC: 1.884 (Simulation time: 00 hr 30 min 10 sec)
Heartbeat CPU 0 instructions: 290000001 cycles: 145269421 heartbeat IPC: 0.9344 cumulative IPC: 1.808 (Simulation time: 00 hr 32 min 08 sec)
Heartbeat CPU 0 instructions: 300000003 cycles: 152977659 heartbeat IPC: 1.297 cumulative IPC: 1.78 (Simulation time: 00 hr 33 min 51 sec)
Heartbeat CPU 0 instructions: 310000004 cycles: 164449219 heartbeat IPC: 0.8717 cumulative IPC: 1.711 (Simulation time: 00 hr 35 min 57 sec)
Heartbeat CPU 0 instructions: 320000004 cycles: 170242118 heartbeat IPC: 1.726 cumulative IPC: 1.712 (Simulation time: 00 hr 37 min 19 sec)
Heartbeat CPU 0 instructions: 330000000 cycles: 175548385 heartbeat IPC: 1.885 cumulative IPC: 1.717 (Simulation time: 00 hr 38 min 30 sec)
Heartbeat CPU 0 instructions: 340000001 cycles: 180740534 heartbeat IPC: 1.926 cumulative IPC: 1.724 (Simulation time: 00 hr 39 min 44 sec)
Heartbeat CPU 0 instructions: 350000000 cycles: 186014818 heartbeat IPC: 1.896 cumulative IPC: 1.729 (Simulation time: 00 hr 40 min 58 sec)
Heartbeat CPU 0 instructions: 360000003 cycles: 190920303 heartbeat IPC: 2.039 cumulative IPC: 1.737 (Simulation time: 00 hr 42 min 05 sec)
Heartbeat CPU 0 instructions: 370000001 cycles: 195711613 heartbeat IPC: 2.087 cumulative IPC: 1.747 (Simulation time: 00 hr 43 min 12 sec)
Heartbeat CPU 0 instructions: 380000004 cycles: 200752631 heartbeat IPC: 1.984 cumulative IPC: 1.753 (Simulation time: 00 hr 44 min 20 sec)
Heartbeat CPU 0 instructions: 390000002 cycles: 205687828 heartbeat IPC: 2.026 cumulative IPC: 1.76 (Simulation time: 00 hr 45 min 29 sec)
Heartbeat CPU 0 instructions: 400000000 cycles: 210675691 heartbeat IPC: 2.005 cumulative IPC: 1.766 (Simulation time: 00 hr 46 min 36 sec)
Heartbeat CPU 0 instructions: 410000000 cycles: 217143223 heartbeat IPC: 1.546 cumulative IPC: 1.759 (Simulation time: 00 hr 47 min 54 sec)
Heartbeat CPU 0 instructions: 420000001 cycles: 224819030 heartbeat IPC: 1.303 cumulative IPC: 1.743 (Simulation time: 00 hr 49 min 24 sec)
Heartbeat CPU 0 instructions: 430000000 cycles: 232366659 heartbeat IPC: 1.325 cumulative IPC: 1.728 (Simulation time: 00 hr 50 min 51 sec)
Heartbeat CPU 0 instructions: 440000002 cycles: 239765429 heartbeat IPC: 1.352 cumulative IPC: 1.716 (Simulation time: 00 hr 52 min 16 sec)
Heartbeat CPU 0 instructions: 450000000 cycles: 246808284 heartbeat IPC: 1.42 cumulative IPC: 1.707 (Simulation time: 00 hr 53 min 38 sec)
Heartbeat CPU 0 instructions: 460000002 cycles: 257562502 heartbeat IPC: 0.9299 cumulative IPC: 1.673 (Simulation time: 00 hr 55 min 25 sec)
Heartbeat CPU 0 instructions: 470000000 cycles: 267661585 heartbeat IPC: 0.9902 cumulative IPC: 1.646 (Simulation time: 00 hr 57 min 07 sec)
Heartbeat CPU 0 instructions: 480000000 cycles: 273150333 heartbeat IPC: 1.822 cumulative IPC: 1.65 (Simulation time: 00 hr 58 min 20 sec)
Heartbeat CPU 0 instructions: 490000001 cycles: 278710702 heartbeat IPC: 1.798 cumulative IPC: 1.653 (Simulation time: 00 hr 59 min 33 sec)
Heartbeat CPU 0 instructions: 500000002 cycles: 283900700 heartbeat IPC: 1.927 cumulative IPC: 1.658 (Simulation time: 01 hr 00 min 44 sec)
Heartbeat CPU 0 instructions: 510000000 cycles: 288999517 heartbeat IPC: 1.961 cumulative IPC: 1.664 (Simulation time: 01 hr 01 min 54 sec)
Heartbeat CPU 0 instructions: 520000000 cycles: 294042784 heartbeat IPC: 1.983 cumulative IPC: 1.669 (Simulation time: 01 hr 03 min 04 sec)
Heartbeat CPU 0 instructions: 530000001 cycles: 302173163 heartbeat IPC: 1.23 cumulative IPC: 1.657 (Simulation time: 01 hr 04 min 42 sec)
Heartbeat CPU 0 instructions: 540000000 cycles: 310899179 heartbeat IPC: 1.146 cumulative IPC: 1.642 (Simulation time: 01 hr 06 min 25 sec)
Heartbeat CPU 0 instructions: 550000002 cycles: 322857877 heartbeat IPC: 0.8362 cumulative IPC: 1.611 (Simulation time: 01 hr 08 min 32 sec)
Heartbeat CPU 0 instructions: 560000004 cycles: 327782324 heartbeat IPC: 2.031 cumulative IPC: 1.618 (Simulation time: 01 hr 09 min 43 sec)
Heartbeat CPU 0 instructions: 570000001 cycles: 332198180 heartbeat IPC: 2.265 cumulative IPC: 1.627 (Simulation time: 01 hr 10 min 49 sec)
Heartbeat CPU 0 instructions: 580000003 cycles: 336442550 heartbeat IPC: 2.356 cumulative IPC: 1.636 (Simulation time: 01 hr 11 min 57 sec)
Heartbeat CPU 0 instructions: 590000001 cycles: 341347012 heartbeat IPC: 2.039 cumulative IPC: 1.642 (Simulation time: 01 hr 13 min 06 sec)
Heartbeat CPU 0 instructions: 600000003 cycles: 345985287 heartbeat IPC: 2.156 cumulative IPC: 1.649 (Simulation time: 01 hr 14 min 15 sec)
Heartbeat CPU 0 instructions: 610000001 cycles: 350848652 heartbeat IPC: 2.056 cumulative IPC: 1.655 (Simulation time: 01 hr 15 min 35 sec)
Heartbeat CPU 0 instructions: 620000000 cycles: 355914157 heartbeat IPC: 1.974 cumulative IPC: 1.66 (Simulation time: 01 hr 16 min 46 sec)
Heartbeat CPU 0 instructions: 630000002 cycles: 360161183 heartbeat IPC: 2.355 cumulative IPC: 1.668 (Simulation time: 01 hr 17 min 54 sec)
Heartbeat CPU 0 instructions: 640000004 cycles: 365484568 heartbeat IPC: 1.879 cumulative IPC: 1.671 (Simulation time: 01 hr 19 min 09 sec)
Heartbeat CPU 0 instructions: 650000001 cycles: 370250781 heartbeat IPC: 2.098 cumulative IPC: 1.677 (Simulation time: 01 hr 20 min 24 sec)
Simulation finished CPU 0 instructions: 600000001 cycles: 357750720 cumulative IPC: 1.677 (Simulation time: 01 hr 20 min 24 sec)
Simulation complete CPU 0 instructions: 600000001 cycles: 357750720 cumulative IPC: 1.677 (Simulation time: 01 hr 20 min 24 sec)

ChampSim completed all CPUs

=== Simulation ===
CPU 0 runs traces/400.perlbench-50B.champsimtrace.xz
Region of Interest Statistics

CPU 0 cumulative IPC: 1.677 instructions: 600000001 cycles: 357750720
CPU 0 Branch Prediction Accuracy: 93.83% MPKI: 12.71 Average ROB Occupancy at Mispredict: 29.5
Branch type MPKI
BRANCH_DIRECT_JUMP: 0.0176
BRANCH_INDIRECT: 0.38
BRANCH_CONDITIONAL: 11.9
BRANCH_DIRECT_CALL: 0.0067
BRANCH_INDIRECT_CALL: 0.431
BRANCH_RETURN: 0.0161

LLC TOTAL        ACCESS:     784566 HIT:     562353 MISS:     222213
LLC LOAD         ACCESS:     586816 HIT:     404332 MISS:     182484
LLC RFO          ACCESS:      47578 HIT:      30348 MISS:      17230
LLC PREFETCH     ACCESS:          0 HIT:          0 MISS:          0
LLC WRITE        ACCESS:     128128 HIT:     118622 MISS:       9506
LLC TRANSLATION  ACCESS:      22044 HIT:       9051 MISS:      12993
LLC PREFETCH REQUESTED:          0 ISSUED:          0 USEFUL:          0 USELESS:          0
LLC AVERAGE MISS LATENCY: 493.7 cycles
cpu0_DTLB TOTAL        ACCESS:  156756457 HIT:  155454937 MISS:    1301520
cpu0_DTLB LOAD         ACCESS:  156756457 HIT:  155454937 MISS:    1301520
cpu0_DTLB RFO          ACCESS:          0 HIT:          0 MISS:          0
cpu0_DTLB PREFETCH     ACCESS:          0 HIT:          0 MISS:          0
cpu0_DTLB WRITE        ACCESS:          0 HIT:          0 MISS:          0
cpu0_DTLB TRANSLATION  ACCESS:          0 HIT:          0 MISS:          0
cpu0_DTLB PREFETCH REQUESTED:          0 ISSUED:          0 USEFUL:          0 USELESS:          0
cpu0_DTLB AVERAGE MISS LATENCY: 11.99 cycles
cpu0_ITLB TOTAL        ACCESS:    8932558 HIT:    8733972 MISS:     198586
cpu0_ITLB LOAD         ACCESS:    8932558 HIT:    8733972 MISS:     198586
cpu0_ITLB RFO          ACCESS:          0 HIT:          0 MISS:          0
cpu0_ITLB PREFETCH     ACCESS:          0 HIT:          0 MISS:          0
cpu0_ITLB WRITE        ACCESS:          0 HIT:          0 MISS:          0
cpu0_ITLB TRANSLATION  ACCESS:          0 HIT:          0 MISS:          0
cpu0_ITLB PREFETCH REQUESTED:          0 ISSUED:          0 USEFUL:          0 USELESS:          0
cpu0_ITLB AVERAGE MISS LATENCY: 3.24 cycles
cpu0_L1D TOTAL        ACCESS:  203603327 HIT:  199942361 MISS:    3660966
cpu0_L1D LOAD         ACCESS:  117926662 HIT:  114914913 MISS:    3011749
cpu0_L1D RFO          ACCESS:          0 HIT:          0 MISS:          0
cpu0_L1D PREFETCH     ACCESS:          0 HIT:          0 MISS:          0
cpu0_L1D WRITE        ACCESS:   85648125 HIT:   85026049 MISS:     622076
cpu0_L1D TRANSLATION  ACCESS:      28540 HIT:       1399 MISS:      27141
cpu0_L1D PREFETCH REQUESTED:          0 ISSUED:          0 USEFUL:          0 USELESS:          0
cpu0_L1D AVERAGE MISS LATENCY: 35.6 cycles
cpu0_L1I TOTAL        ACCESS:   10371269 HIT:    8573983 MISS:    1797286
cpu0_L1I LOAD         ACCESS:   10371269 HIT:    8573983 MISS:    1797286
cpu0_L1I RFO          ACCESS:          0 HIT:          0 MISS:          0
cpu0_L1I PREFETCH     ACCESS:          0 HIT:          0 MISS:          0
cpu0_L1I WRITE        ACCESS:          0 HIT:          0 MISS:          0
cpu0_L1I TRANSLATION  ACCESS:          0 HIT:          0 MISS:          0
cpu0_L1I PREFETCH REQUESTED:          0 ISSUED:          0 USEFUL:          0 USELESS:          0
cpu0_L1I AVERAGE MISS LATENCY: 10.81 cycles
cpu0_L2C TOTAL        ACCESS:    3837085 HIT:    3177405 MISS:     659680
cpu0_L2C LOAD         ACCESS:    3106468 HIT:    2519652 MISS:     586816
cpu0_L2C RFO          ACCESS:     191767 HIT:     144189 MISS:      47578
cpu0_L2C PREFETCH     ACCESS:          0 HIT:          0 MISS:          0
cpu0_L2C WRITE        ACCESS:     511792 HIT:     508550 MISS:       3242
cpu0_L2C TRANSLATION  ACCESS:      27058 HIT:       5014 MISS:      22044
cpu0_L2C PREFETCH REQUESTED:          0 ISSUED:          0 USEFUL:          0 USELESS:          0
cpu0_L2C AVERAGE MISS LATENCY: 186.5 cycles
cpu0_STLB TOTAL        ACCESS:    1009358 HIT:     982668 MISS:      26690
cpu0_STLB LOAD         ACCESS:    1009358 HIT:     982668 MISS:      26690
cpu0_STLB RFO          ACCESS:          0 HIT:          0 MISS:          0
cpu0_STLB PREFETCH     ACCESS:          0 HIT:          0 MISS:          0
cpu0_STLB WRITE        ACCESS:          0 HIT:          0 MISS:          0
cpu0_STLB TRANSLATION  ACCESS:          0 HIT:          0 MISS:          0
cpu0_STLB PREFETCH REQUESTED:          0 ISSUED:          0 USEFUL:          0 USELESS:          0
cpu0_STLB AVERAGE MISS LATENCY: 363.4 cycles

DRAM Statistics

Channel 0 RQ ROW_BUFFER_HIT:      38685
  ROW_BUFFER_MISS:     173981
 AVG DBUS CONGESTED CYCLE: 3.775
WQ ROW_BUFFER_HIT: Channel 0 
  ROW_BUFFER_MISS:       8548
  FULL:      22696
