WARNING: physical memory size is smaller than virtual memory size.

*** ChampSim Multicore Out-of-Order Simulator ***
Warmup Instructions: 50000000
Simulation Instructions: 600000000
Number of CPUs: 1
Page size: 4096

CPU 0 Tage branch predictor
Off-chip DRAM Size: 4 GiB Channels: 1 Width: 64-bit Data Race: 3200 MT/s
Heartbeat CPU 0 instructions: 10000001 cycles: 2500318 heartbeat IPC: 3.999 cumulative IPC: 3.999 (Simulation time: 00 hr 00 min 54 sec)
Heartbeat CPU 0 instructions: 20000002 cycles: 5037133 heartbeat IPC: 3.942 cumulative IPC: 3.971 (Simulation time: 00 hr 01 min 44 sec)
Heartbeat CPU 0 instructions: 30000002 cycles: 7537133 heartbeat IPC: 4 cumulative IPC: 3.98 (Simulation time: 00 hr 02 min 25 sec)
Heartbeat CPU 0 instructions: 40000002 cycles: 10037133 heartbeat IPC: 4 cumulative IPC: 3.985 (Simulation time: 00 hr 03 min 00 sec)
Heartbeat CPU 0 instructions: 50000002 cycles: 12537133 heartbeat IPC: 4 cumulative IPC: 3.988 (Simulation time: 00 hr 03 min 33 sec)
Warmup finished CPU 0 instructions: 50000002 cycles: 12537134 cumulative IPC: 3.988 (Simulation time: 00 hr 03 min 33 sec)
Warmup complete CPU 0 instructions: 50000002 cycles: 12537134 cumulative IPC: 3.988 (Simulation time: 00 hr 03 min 33 sec)
Heartbeat CPU 0 instructions: 60000001 cycles: 15507215 heartbeat IPC: 3.367 cumulative IPC: 3.367 (Simulation time: 00 hr 04 min 11 sec)
Heartbeat CPU 0 instructions: 70000004 cycles: 18578946 heartbeat IPC: 3.255 cumulative IPC: 3.31 (Simulation time: 00 hr 04 min 45 sec)
Heartbeat CPU 0 instructions: 80000001 cycles: 21624083 heartbeat IPC: 3.284 cumulative IPC: 3.301 (Simulation time: 00 hr 05 min 14 sec)
Heartbeat CPU 0 instructions: 90000001 cycles: 24567294 heartbeat IPC: 3.398 cumulative IPC: 3.325 (Simulation time: 00 hr 05 min 40 sec)
Heartbeat CPU 0 instructions: 100000000 cycles: 27475822 heartbeat IPC: 3.438 cumulative IPC: 3.347 (Simulation time: 00 hr 06 min 01 sec)
Heartbeat CPU 0 instructions: 110000000 cycles: 30419241 heartbeat IPC: 3.397 cumulative IPC: 3.355 (Simulation time: 00 hr 06 min 23 sec)
Heartbeat CPU 0 instructions: 120000001 cycles: 33391610 heartbeat IPC: 3.364 cumulative IPC: 3.357 (Simulation time: 00 hr 06 min 45 sec)
Heartbeat CPU 0 instructions: 130000001 cycles: 36247290 heartbeat IPC: 3.502 cumulative IPC: 3.374 (Simulation time: 00 hr 07 min 07 sec)
Heartbeat CPU 0 instructions: 140000001 cycles: 39289969 heartbeat IPC: 3.287 cumulative IPC: 3.364 (Simulation time: 00 hr 07 min 29 sec)
Heartbeat CPU 0 instructions: 150000001 cycles: 42297194 heartbeat IPC: 3.325 cumulative IPC: 3.36 (Simulation time: 00 hr 07 min 51 sec)
Heartbeat CPU 0 instructions: 160000004 cycles: 45305438 heartbeat IPC: 3.324 cumulative IPC: 3.357 (Simulation time: 00 hr 08 min 13 sec)
Heartbeat CPU 0 instructions: 170000000 cycles: 51944733 heartbeat IPC: 1.506 cumulative IPC: 3.045 (Simulation time: 00 hr 08 min 46 sec)
Heartbeat CPU 0 instructions: 180000004 cycles: 58917547 heartbeat IPC: 1.434 cumulative IPC: 2.803 (Simulation time: 00 hr 09 min 20 sec)
Heartbeat CPU 0 instructions: 190000001 cycles: 65788474 heartbeat IPC: 1.455 cumulative IPC: 2.629 (Simulation time: 00 hr 09 min 54 sec)
Heartbeat CPU 0 instructions: 200000004 cycles: 68686479 heartbeat IPC: 3.451 cumulative IPC: 2.671 (Simulation time: 00 hr 10 min 16 sec)
Heartbeat CPU 0 instructions: 210000001 cycles: 71587337 heartbeat IPC: 3.447 cumulative IPC: 2.71 (Simulation time: 00 hr 10 min 38 sec)
Heartbeat CPU 0 instructions: 220000000 cycles: 74448033 heartbeat IPC: 3.496 cumulative IPC: 2.746 (Simulation time: 00 hr 10 min 59 sec)
Heartbeat CPU 0 instructions: 230000002 cycles: 77366719 heartbeat IPC: 3.426 cumulative IPC: 2.777 (Simulation time: 00 hr 11 min 21 sec)
Heartbeat CPU 0 instructions: 240000003 cycles: 80335639 heartbeat IPC: 3.368 cumulative IPC: 2.802 (Simulation time: 00 hr 11 min 43 sec)
Heartbeat CPU 0 instructions: 250000000 cycles: 83286926 heartbeat IPC: 3.388 cumulative IPC: 2.827 (Simulation time: 00 hr 12 min 05 sec)
Heartbeat CPU 0 instructions: 260000002 cycles: 86169974 heartbeat IPC: 3.469 cumulative IPC: 2.852 (Simulation time: 00 hr 12 min 27 sec)
Heartbeat CPU 0 instructions: 270000002 cycles: 89021490 heartbeat IPC: 3.507 cumulative IPC: 2.876 (Simulation time: 00 hr 12 min 48 sec)
Heartbeat CPU 0 instructions: 280000002 cycles: 91847553 heartbeat IPC: 3.538 cumulative IPC: 2.9 (Simulation time: 00 hr 13 min 10 sec)
Heartbeat CPU 0 instructions: 290000002 cycles: 94753698 heartbeat IPC: 3.441 cumulative IPC: 2.919 (Simulation time: 00 hr 13 min 32 sec)
Heartbeat CPU 0 instructions: 300000003 cycles: 97572723 heartbeat IPC: 3.547 cumulative IPC: 2.94 (Simulation time: 00 hr 13 min 54 sec)
Heartbeat CPU 0 instructions: 310000001 cycles: 100508929 heartbeat IPC: 3.406 cumulative IPC: 2.955 (Simulation time: 00 hr 14 min 16 sec)
Heartbeat CPU 0 instructions: 320000003 cycles: 103441848 heartbeat IPC: 3.41 cumulative IPC: 2.97 (Simulation time: 00 hr 14 min 38 sec)
Heartbeat CPU 0 instructions: 330000003 cycles: 106330186 heartbeat IPC: 3.462 cumulative IPC: 2.985 (Simulation time: 00 hr 15 min 00 sec)
Heartbeat CPU 0 instructions: 340000000 cycles: 112849172 heartbeat IPC: 1.534 cumulative IPC: 2.891 (Simulation time: 00 hr 15 min 32 sec)
Heartbeat CPU 0 instructions: 350000000 cycles: 120433650 heartbeat IPC: 1.318 cumulative IPC: 2.78 (Simulation time: 00 hr 16 min 07 sec)
Heartbeat CPU 0 instructions: 360000004 cycles: 127639856 heartbeat IPC: 1.388 cumulative IPC: 2.693 (Simulation time: 00 hr 16 min 42 sec)
Heartbeat CPU 0 instructions: 370000000 cycles: 130563600 heartbeat IPC: 3.42 cumulative IPC: 2.711 (Simulation time: 00 hr 17 min 03 sec)
Heartbeat CPU 0 instructions: 380000003 cycles: 133434029 heartbeat IPC: 3.484 cumulative IPC: 2.73 (Simulation time: 00 hr 17 min 25 sec)
Heartbeat CPU 0 instructions: 390000002 cycles: 136379229 heartbeat IPC: 3.395 cumulative IPC: 2.745 (Simulation time: 00 hr 17 min 47 sec)
Heartbeat CPU 0 instructions: 400000004 cycles: 139258487 heartbeat IPC: 3.473 cumulative IPC: 2.762 (Simulation time: 00 hr 18 min 09 sec)
Heartbeat CPU 0 instructions: 410000002 cycles: 142151745 heartbeat IPC: 3.456 cumulative IPC: 2.777 (Simulation time: 00 hr 18 min 30 sec)
Heartbeat CPU 0 instructions: 420000003 cycles: 145198773 heartbeat IPC: 3.282 cumulative IPC: 2.789 (Simulation time: 00 hr 18 min 53 sec)
Heartbeat CPU 0 instructions: 430000001 cycles: 148173063 heartbeat IPC: 3.362 cumulative IPC: 2.802 (Simulation time: 00 hr 19 min 15 sec)
Heartbeat CPU 0 instructions: 440000004 cycles: 151252273 heartbeat IPC: 3.248 cumulative IPC: 2.812 (Simulation time: 00 hr 19 min 37 sec)
Heartbeat CPU 0 instructions: 450000002 cycles: 154117035 heartbeat IPC: 3.491 cumulative IPC: 2.825 (Simulation time: 00 hr 19 min 59 sec)
Heartbeat CPU 0 instructions: 460000000 cycles: 157000458 heartbeat IPC: 3.468 cumulative IPC: 2.838 (Simulation time: 00 hr 20 min 22 sec)
Heartbeat CPU 0 instructions: 470000001 cycles: 159809385 heartbeat IPC: 3.56 cumulative IPC: 2.852 (Simulation time: 00 hr 20 min 44 sec)
Heartbeat CPU 0 instructions: 480000003 cycles: 162821779 heartbeat IPC: 3.32 cumulative IPC: 2.861 (Simulation time: 00 hr 21 min 07 sec)
Heartbeat CPU 0 instructions: 490000004 cycles: 165619799 heartbeat IPC: 3.574 cumulative IPC: 2.874 (Simulation time: 00 hr 21 min 30 sec)
Heartbeat CPU 0 instructions: 500000004 cycles: 168569860 heartbeat IPC: 3.39 cumulative IPC: 2.884 (Simulation time: 00 hr 21 min 53 sec)
Heartbeat CPU 0 instructions: 510000003 cycles: 171556325 heartbeat IPC: 3.348 cumulative IPC: 2.893 (Simulation time: 00 hr 22 min 16 sec)
Heartbeat CPU 0 instructions: 520000001 cycles: 174391963 heartbeat IPC: 3.527 cumulative IPC: 2.904 (Simulation time: 00 hr 22 min 39 sec)
Heartbeat CPU 0 instructions: 530000001 cycles: 177343977 heartbeat IPC: 3.388 cumulative IPC: 2.913 (Simulation time: 00 hr 23 min 02 sec)
Heartbeat CPU 0 instructions: 540000000 cycles: 180254640 heartbeat IPC: 3.436 cumulative IPC: 2.922 (Simulation time: 00 hr 23 min 26 sec)
Heartbeat CPU 0 instructions: 550000001 cycles: 183198133 heartbeat IPC: 3.397 cumulative IPC: 2.93 (Simulation time: 00 hr 23 min 49 sec)
Heartbeat CPU 0 instructions: 560000000 cycles: 186227212 heartbeat IPC: 3.301 cumulative IPC: 2.936 (Simulation time: 00 hr 24 min 12 sec)
Heartbeat CPU 0 instructions: 570000004 cycles: 190944918 heartbeat IPC: 2.12 cumulative IPC: 2.915 (Simulation time: 00 hr 24 min 41 sec)
Heartbeat CPU 0 instructions: 580000003 cycles: 198714257 heartbeat IPC: 1.287 cumulative IPC: 2.847 (Simulation time: 00 hr 25 min 19 sec)
Heartbeat CPU 0 instructions: 590000002 cycles: 207830799 heartbeat IPC: 1.097 cumulative IPC: 2.765 (Simulation time: 00 hr 26 min 02 sec)
Heartbeat CPU 0 instructions: 600000004 cycles: 210841483 heartbeat IPC: 3.322 cumulative IPC: 2.774 (Simulation time: 00 hr 26 min 25 sec)
Heartbeat CPU 0 instructions: 610000002 cycles: 213769643 heartbeat IPC: 3.415 cumulative IPC: 2.783 (Simulation time: 00 hr 26 min 48 sec)
Heartbeat CPU 0 instructions: 620000001 cycles: 216520507 heartbeat IPC: 3.635 cumulative IPC: 2.794 (Simulation time: 00 hr 27 min 10 sec)
Heartbeat CPU 0 instructions: 630000002 cycles: 219457446 heartbeat IPC: 3.405 cumulative IPC: 2.803 (Simulation time: 00 hr 27 min 34 sec)
Heartbeat CPU 0 instructions: 640000004 cycles: 222389786 heartbeat IPC: 3.41 cumulative IPC: 2.811 (Simulation time: 00 hr 27 min 57 sec)
Heartbeat CPU 0 instructions: 650000000 cycles: 225123701 heartbeat IPC: 3.658 cumulative IPC: 2.822 (Simulation time: 00 hr 28 min 19 sec)
Simulation finished CPU 0 instructions: 600000001 cycles: 212586569 cumulative IPC: 2.822 (Simulation time: 00 hr 28 min 19 sec)
Simulation complete CPU 0 instructions: 600000001 cycles: 212586569 cumulative IPC: 2.822 (Simulation time: 00 hr 28 min 19 sec)

ChampSim completed all CPUs

=== Simulation ===
CPU 0 runs traces/400.perlbench-41B.champsimtrace.xz
Region of Interest Statistics

CPU 0 cumulative IPC: 2.822 instructions: 600000001 cycles: 212586569
CPU 0 Branch Prediction Accuracy: 99.19% MPKI: 1.684 Average ROB Occupancy at Mispredict: 102
Branch type MPKI
BRANCH_DIRECT_JUMP: 0.0123
BRANCH_INDIRECT: 0.323
BRANCH_CONDITIONAL: 1.14
BRANCH_DIRECT_CALL: 0.0043
BRANCH_INDIRECT_CALL: 0.2
BRANCH_RETURN: 0.00828

LLC TOTAL        ACCESS:     540410 HIT:     368628 MISS:     171782
LLC LOAD         ACCESS:     403595 HIT:     253490 MISS:     150105
LLC RFO          ACCESS:      32511 HIT:      21527 MISS:      10984
LLC PREFETCH     ACCESS:          0 HIT:          0 MISS:          0
LLC WRITE        ACCESS:      85286 HIT:      83584 MISS:       1702
LLC TRANSLATION  ACCESS:      19018 HIT:      10027 MISS:       8991
LLC PREFETCH REQUESTED:          0 ISSUED:          0 USEFUL:          0 USELESS:          0
LLC AVERAGE MISS LATENCY: 574.8 cycles
cpu0_DTLB TOTAL        ACCESS:  129764910 HIT:  129060911 MISS:     703999
cpu0_DTLB LOAD         ACCESS:  129764910 HIT:  129060911 MISS:     703999
cpu0_DTLB RFO          ACCESS:          0 HIT:          0 MISS:          0
cpu0_DTLB PREFETCH     ACCESS:          0 HIT:          0 MISS:          0
cpu0_DTLB WRITE        ACCESS:          0 HIT:          0 MISS:          0
cpu0_DTLB TRANSLATION  ACCESS:          0 HIT:          0 MISS:          0
cpu0_DTLB PREFETCH REQUESTED:          0 ISSUED:          0 USEFUL:          0 USELESS:          0
cpu0_DTLB AVERAGE MISS LATENCY: 13.23 cycles
cpu0_ITLB TOTAL        ACCESS:    4871376 HIT:    4809293 MISS:      62083
cpu0_ITLB LOAD         ACCESS:    4871376 HIT:    4809293 MISS:      62083
cpu0_ITLB RFO          ACCESS:          0 HIT:          0 MISS:          0
cpu0_ITLB PREFETCH     ACCESS:          0 HIT:          0 MISS:          0
cpu0_ITLB WRITE        ACCESS:          0 HIT:          0 MISS:          0
cpu0_ITLB TRANSLATION  ACCESS:          0 HIT:          0 MISS:          0
cpu0_ITLB PREFETCH REQUESTED:          0 ISSUED:          0 USEFUL:          0 USELESS:          0
cpu0_ITLB AVERAGE MISS LATENCY: 5.514 cycles
cpu0_L1D TOTAL        ACCESS:  174363230 HIT:  172589217 MISS:    1774013
cpu0_L1D LOAD         ACCESS:   91339349 HIT:   89955057 MISS:    1384292
cpu0_L1D RFO          ACCESS:          0 HIT:          0 MISS:          0
cpu0_L1D PREFETCH     ACCESS:          0 HIT:          0 MISS:          0
cpu0_L1D WRITE        ACCESS:   82999424 HIT:   82633100 MISS:     366324
cpu0_L1D TRANSLATION  ACCESS:      24457 HIT:       1060 MISS:      23397
cpu0_L1D PREFETCH REQUESTED:          0 ISSUED:          0 USEFUL:          0 USELESS:          0
cpu0_L1D AVERAGE MISS LATENCY: 59.08 cycles
cpu0_L1I TOTAL        ACCESS:    5650593 HIT:    4846236 MISS:     804357
cpu0_L1I LOAD         ACCESS:    5650593 HIT:    4846236 MISS:     804357
cpu0_L1I RFO          ACCESS:          0 HIT:          0 MISS:          0
cpu0_L1I PREFETCH     ACCESS:          0 HIT:          0 MISS:          0
cpu0_L1I WRITE        ACCESS:          0 HIT:          0 MISS:          0
cpu0_L1I TRANSLATION  ACCESS:          0 HIT:          0 MISS:          0
cpu0_L1I PREFETCH REQUESTED:          0 ISSUED:          0 USEFUL:          0 USELESS:          0
cpu0_L1I AVERAGE MISS LATENCY: 11.12 cycles
cpu0_L2C TOTAL        ACCESS:    1668158 HIT:    1211221 MISS:     456937
cpu0_L2C LOAD         ACCESS:    1315314 HIT:     911719 MISS:     403595
cpu0_L2C RFO          ACCESS:      89577 HIT:      57065 MISS:      32512
cpu0_L2C PREFETCH     ACCESS:          0 HIT:          0 MISS:          0
cpu0_L2C WRITE        ACCESS:     239947 HIT:     238135 MISS:       1812
cpu0_L2C TRANSLATION  ACCESS:      23320 HIT:       4302 MISS:      19018
cpu0_L2C PREFETCH REQUESTED:          0 ISSUED:          0 USEFUL:          0 USELESS:          0
cpu0_L2C AVERAGE MISS LATENCY: 236.4 cycles
cpu0_STLB TOTAL        ACCESS:     508867 HIT:     486081 MISS:      22786
cpu0_STLB LOAD         ACCESS:     508867 HIT:     486081 MISS:      22786
cpu0_STLB RFO          ACCESS:          0 HIT:          0 MISS:          0
cpu0_STLB PREFETCH     ACCESS:          0 HIT:          0 MISS:          0
cpu0_STLB WRITE        ACCESS:          0 HIT:          0 MISS:          0
cpu0_STLB TRANSLATION  ACCESS:          0 HIT:          0 MISS:          0
cpu0_STLB PREFETCH REQUESTED:          0 ISSUED:          0 USEFUL:          0 USELESS:          0
cpu0_STLB AVERAGE MISS LATENCY: 293.9 cycles

DRAM Statistics

Channel 0 RQ ROW_BUFFER_HIT:      26976
  ROW_BUFFER_MISS:     143066
 AVG DBUS CONGESTED CYCLE: 3.81
WQ ROW_BUFFER_HIT: Channel 0 
  ROW_BUFFER_MISS:       5909
  FULL:      21257
