WARNING: physical memory size is smaller than virtual memory size.

*** ChampSim Multicore Out-of-Order Simulator ***
Warmup Instructions: 50000000
Simulation Instructions: 600000000
Number of CPUs: 1
Page size: 4096

Off-chip DRAM Size: 4 GiB Channels: 1 Width: 64-bit Data Race: 3200 MT/s
Heartbeat CPU 0 instructions: 10000001 cycles: 2500319 heartbeat IPC: 3.999 cumulative IPC: 3.999 (Simulation time: 00 hr 00 min 57 sec)
Heartbeat CPU 0 instructions: 20000002 cycles: 5037132 heartbeat IPC: 3.942 cumulative IPC: 3.971 (Simulation time: 00 hr 01 min 55 sec)
Heartbeat CPU 0 instructions: 30000002 cycles: 7537132 heartbeat IPC: 4 cumulative IPC: 3.98 (Simulation time: 00 hr 02 min 47 sec)
Heartbeat CPU 0 instructions: 40000002 cycles: 10037132 heartbeat IPC: 4 cumulative IPC: 3.985 (Simulation time: 00 hr 03 min 38 sec)
Heartbeat CPU 0 instructions: 50000002 cycles: 12537132 heartbeat IPC: 4 cumulative IPC: 3.988 (Simulation time: 00 hr 04 min 24 sec)
Warmup finished CPU 0 instructions: 50000002 cycles: 12537133 cumulative IPC: 3.988 (Simulation time: 00 hr 04 min 24 sec)
Warmup complete CPU 0 instructions: 50000002 cycles: 12537133 cumulative IPC: 3.988 (Simulation time: 00 hr 04 min 24 sec)
Heartbeat CPU 0 instructions: 60000000 cycles: 17730488 heartbeat IPC: 1.926 cumulative IPC: 1.926 (Simulation time: 00 hr 05 min 31 sec)
Heartbeat CPU 0 instructions: 70000002 cycles: 22647506 heartbeat IPC: 2.034 cumulative IPC: 1.978 (Simulation time: 00 hr 06 min 45 sec)
Heartbeat CPU 0 instructions: 80000001 cycles: 28033382 heartbeat IPC: 1.857 cumulative IPC: 1.936 (Simulation time: 00 hr 08 min 27 sec)
Heartbeat CPU 0 instructions: 90000001 cycles: 32921282 heartbeat IPC: 2.046 cumulative IPC: 1.962 (Simulation time: 00 hr 10 min 01 sec)
Heartbeat CPU 0 instructions: 100000000 cycles: 38054246 heartbeat IPC: 1.948 cumulative IPC: 1.959 (Simulation time: 00 hr 11 min 25 sec)
Heartbeat CPU 0 instructions: 110000000 cycles: 42951219 heartbeat IPC: 2.042 cumulative IPC: 1.973 (Simulation time: 00 hr 12 min 39 sec)
Heartbeat CPU 0 instructions: 120000001 cycles: 48155897 heartbeat IPC: 1.921 cumulative IPC: 1.965 (Simulation time: 00 hr 13 min 58 sec)
Heartbeat CPU 0 instructions: 130000001 cycles: 53333486 heartbeat IPC: 1.931 cumulative IPC: 1.961 (Simulation time: 00 hr 15 min 18 sec)
Heartbeat CPU 0 instructions: 140000001 cycles: 58669346 heartbeat IPC: 1.874 cumulative IPC: 1.951 (Simulation time: 00 hr 16 min 38 sec)
Heartbeat CPU 0 instructions: 150000001 cycles: 64010693 heartbeat IPC: 1.872 cumulative IPC: 1.943 (Simulation time: 00 hr 17 min 56 sec)
Heartbeat CPU 0 instructions: 160000004 cycles: 69243144 heartbeat IPC: 1.911 cumulative IPC: 1.94 (Simulation time: 00 hr 19 min 11 sec)
Heartbeat CPU 0 instructions: 170000000 cycles: 77864799 heartbeat IPC: 1.16 cumulative IPC: 1.837 (Simulation time: 00 hr 21 min 12 sec)
Heartbeat CPU 0 instructions: 180000004 cycles: 88493658 heartbeat IPC: 0.9408 cumulative IPC: 1.712 (Simulation time: 00 hr 23 min 40 sec)
Heartbeat CPU 0 instructions: 190000001 cycles: 100745263 heartbeat IPC: 0.8162 cumulative IPC: 1.587 (Simulation time: 00 hr 25 min 55 sec)
Heartbeat CPU 0 instructions: 200000003 cycles: 105537266 heartbeat IPC: 2.087 cumulative IPC: 1.613 (Simulation time: 00 hr 27 min 04 sec)
Heartbeat CPU 0 instructions: 210000001 cycles: 110471581 heartbeat IPC: 2.027 cumulative IPC: 1.634 (Simulation time: 00 hr 28 min 19 sec)
Heartbeat CPU 0 instructions: 220000000 cycles: 115310365 heartbeat IPC: 2.067 cumulative IPC: 1.654 (Simulation time: 00 hr 29 min 30 sec)
Heartbeat CPU 0 instructions: 230000002 cycles: 120649964 heartbeat IPC: 1.873 cumulative IPC: 1.665 (Simulation time: 00 hr 30 min 42 sec)
Heartbeat CPU 0 instructions: 240000000 cycles: 125517925 heartbeat IPC: 2.054 cumulative IPC: 1.682 (Simulation time: 00 hr 31 min 49 sec)
Heartbeat CPU 0 instructions: 250000000 cycles: 130680541 heartbeat IPC: 1.937 cumulative IPC: 1.693 (Simulation time: 00 hr 33 min 05 sec)
Heartbeat CPU 0 instructions: 260000000 cycles: 135720039 heartbeat IPC: 1.984 cumulative IPC: 1.705 (Simulation time: 00 hr 34 min 33 sec)
Heartbeat CPU 0 instructions: 270000002 cycles: 140619045 heartbeat IPC: 2.041 cumulative IPC: 1.718 (Simulation time: 00 hr 35 min 54 sec)
Heartbeat CPU 0 instructions: 280000002 cycles: 145535714 heartbeat IPC: 2.034 cumulative IPC: 1.729 (Simulation time: 00 hr 37 min 09 sec)
Heartbeat CPU 0 instructions: 290000001 cycles: 150919665 heartbeat IPC: 1.857 cumulative IPC: 1.734 (Simulation time: 00 hr 38 min 24 sec)
Heartbeat CPU 0 instructions: 300000003 cycles: 156001698 heartbeat IPC: 1.968 cumulative IPC: 1.743 (Simulation time: 00 hr 39 min 41 sec)
Heartbeat CPU 0 instructions: 310000001 cycles: 161321417 heartbeat IPC: 1.88 cumulative IPC: 1.747 (Simulation time: 00 hr 41 min 01 sec)
Heartbeat CPU 0 instructions: 320000003 cycles: 166545580 heartbeat IPC: 1.914 cumulative IPC: 1.753 (Simulation time: 00 hr 42 min 19 sec)
Heartbeat CPU 0 instructions: 330000003 cycles: 171869034 heartbeat IPC: 1.878 cumulative IPC: 1.757 (Simulation time: 00 hr 43 min 36 sec)
Heartbeat CPU 0 instructions: 340000000 cycles: 180643629 heartbeat IPC: 1.14 cumulative IPC: 1.725 (Simulation time: 00 hr 45 min 36 sec)
Heartbeat CPU 0 instructions: 350000000 cycles: 192040275 heartbeat IPC: 0.8775 cumulative IPC: 1.671 (Simulation time: 00 hr 48 min 17 sec)
Heartbeat CPU 0 instructions: 360000004 cycles: 203918916 heartbeat IPC: 0.8418 cumulative IPC: 1.62 (Simulation time: 00 hr 50 min 33 sec)
Heartbeat CPU 0 instructions: 370000000 cycles: 208340452 heartbeat IPC: 2.262 cumulative IPC: 1.634 (Simulation time: 00 hr 51 min 43 sec)
Heartbeat CPU 0 instructions: 380000001 cycles: 213278016 heartbeat IPC: 2.025 cumulative IPC: 1.644 (Simulation time: 00 hr 52 min 59 sec)
Heartbeat CPU 0 instructions: 390000002 cycles: 218110591 heartbeat IPC: 2.069 cumulative IPC: 1.654 (Simulation time: 00 hr 54 min 11 sec)
Heartbeat CPU 0 instructions: 400000004 cycles: 223047744 heartbeat IPC: 2.025 cumulative IPC: 1.663 (Simulation time: 00 hr 55 min 20 sec)
Heartbeat CPU 0 instructions: 410000000 cycles: 227793528 heartbeat IPC: 2.107 cumulative IPC: 1.672 (Simulation time: 00 hr 56 min 26 sec)
Heartbeat CPU 0 instructions: 420000000 cycles: 232994465 heartbeat IPC: 1.923 cumulative IPC: 1.678 (Simulation time: 00 hr 57 min 35 sec)
Heartbeat CPU 0 instructions: 430000001 cycles: 237484957 heartbeat IPC: 2.227 cumulative IPC: 1.689 (Simulation time: 00 hr 58 min 50 sec)
Heartbeat CPU 0 instructions: 440000000 cycles: 242845747 heartbeat IPC: 1.865 cumulative IPC: 1.693 (Simulation time: 01 hr 00 min 24 sec)
Heartbeat CPU 0 instructions: 450000002 cycles: 247522107 heartbeat IPC: 2.138 cumulative IPC: 1.702 (Simulation time: 01 hr 01 min 52 sec)
Heartbeat CPU 0 instructions: 460000000 cycles: 252323429 heartbeat IPC: 2.083 cumulative IPC: 1.71 (Simulation time: 01 hr 03 min 07 sec)
Heartbeat CPU 0 instructions: 470000000 cycles: 257314905 heartbeat IPC: 2.003 cumulative IPC: 1.716 (Simulation time: 01 hr 04 min 21 sec)
Heartbeat CPU 0 instructions: 480000003 cycles: 262152266 heartbeat IPC: 2.067 cumulative IPC: 1.723 (Simulation time: 01 hr 05 min 34 sec)
Heartbeat CPU 0 instructions: 490000000 cycles: 266766473 heartbeat IPC: 2.167 cumulative IPC: 1.731 (Simulation time: 01 hr 06 min 46 sec)
Heartbeat CPU 0 instructions: 500000000 cycles: 271794586 heartbeat IPC: 1.989 cumulative IPC: 1.736 (Simulation time: 01 hr 07 min 58 sec)
Heartbeat CPU 0 instructions: 510000003 cycles: 277524459 heartbeat IPC: 1.745 cumulative IPC: 1.736 (Simulation time: 01 hr 09 min 12 sec)
Heartbeat CPU 0 instructions: 520000001 cycles: 282214857 heartbeat IPC: 2.132 cumulative IPC: 1.743 (Simulation time: 01 hr 10 min 19 sec)
Heartbeat CPU 0 instructions: 530000002 cycles: 287415554 heartbeat IPC: 1.923 cumulative IPC: 1.746 (Simulation time: 01 hr 11 min 31 sec)
Heartbeat CPU 0 instructions: 540000000 cycles: 292542765 heartbeat IPC: 1.95 cumulative IPC: 1.75 (Simulation time: 01 hr 13 min 03 sec)
Heartbeat CPU 0 instructions: 550000001 cycles: 297361541 heartbeat IPC: 2.075 cumulative IPC: 1.755 (Simulation time: 01 hr 14 min 29 sec)
Heartbeat CPU 0 instructions: 560000000 cycles: 302710115 heartbeat IPC: 1.87 cumulative IPC: 1.758 (Simulation time: 01 hr 15 min 53 sec)
Heartbeat CPU 0 instructions: 570000004 cycles: 309856330 heartbeat IPC: 1.399 cumulative IPC: 1.749 (Simulation time: 01 hr 17 min 32 sec)
Heartbeat CPU 0 instructions: 580000003 cycles: 318781615 heartbeat IPC: 1.12 cumulative IPC: 1.731 (Simulation time: 01 hr 19 min 31 sec)
Heartbeat CPU 0 instructions: 590000002 cycles: 334291838 heartbeat IPC: 0.6447 cumulative IPC: 1.678 (Simulation time: 01 hr 22 min 26 sec)
Heartbeat CPU 0 instructions: 600000000 cycles: 338962570 heartbeat IPC: 2.141 cumulative IPC: 1.685 (Simulation time: 01 hr 23 min 44 sec)
Heartbeat CPU 0 instructions: 610000002 cycles: 343461553 heartbeat IPC: 2.223 cumulative IPC: 1.692 (Simulation time: 01 hr 25 min 02 sec)
Heartbeat CPU 0 instructions: 620000000 cycles: 348268696 heartbeat IPC: 2.08 cumulative IPC: 1.698 (Simulation time: 01 hr 26 min 45 sec)
Heartbeat CPU 0 instructions: 630000002 cycles: 353368450 heartbeat IPC: 1.961 cumulative IPC: 1.702 (Simulation time: 01 hr 28 min 17 sec)
Heartbeat CPU 0 instructions: 640000001 cycles: 358222962 heartbeat IPC: 2.06 cumulative IPC: 1.707 (Simulation time: 01 hr 29 min 40 sec)
Heartbeat CPU 0 instructions: 650000000 cycles: 362780024 heartbeat IPC: 2.194 cumulative IPC: 1.713 (Simulation time: 01 hr 30 min 53 sec)
Simulation finished CPU 0 instructions: 600000001 cycles: 350242893 cumulative IPC: 1.713 (Simulation time: 01 hr 30 min 53 sec)
Simulation complete CPU 0 instructions: 600000001 cycles: 350242893 cumulative IPC: 1.713 (Simulation time: 01 hr 30 min 53 sec)

ChampSim completed all CPUs

=== Simulation ===
CPU 0 runs traces/400.perlbench-41B.champsimtrace.xz
Region of Interest Statistics

CPU 0 cumulative IPC: 1.713 instructions: 600000001 cycles: 350242893
CPU 0 Branch Prediction Accuracy: 93.95% MPKI: 12.5 Average ROB Occupancy at Mispredict: 29.56
Branch type MPKI
BRANCH_DIRECT_JUMP: 0.0123
BRANCH_INDIRECT: 0.323
BRANCH_CONDITIONAL: 12
BRANCH_DIRECT_CALL: 0.0043
BRANCH_INDIRECT_CALL: 0.2
BRANCH_RETURN: 0.00828

LLC TOTAL        ACCESS:     938120 HIT:     490054 MISS:     448066
LLC LOAD         ACCESS:     400150 HIT:     218777 MISS:     181373
LLC RFO          ACCESS:      32684 HIT:      15372 MISS:      17312
LLC PREFETCH     ACCESS:     400150 HIT:     206509 MISS:     193641
LLC WRITE        ACCESS:      86245 HIT:      46816 MISS:      39429
LLC TRANSLATION  ACCESS:      18891 HIT:       2580 MISS:      16311
LLC PREFETCH REQUESTED:     400150 ISSUED:     400150 USEFUL:      59357 USELESS:      90128
LLC AVERAGE MISS LATENCY: 528.1 cycles
cpu0_DTLB TOTAL        ACCESS:  153663960 HIT:  152986758 MISS:     677202
cpu0_DTLB LOAD         ACCESS:  153663960 HIT:  152986758 MISS:     677202
cpu0_DTLB RFO          ACCESS:          0 HIT:          0 MISS:          0
cpu0_DTLB PREFETCH     ACCESS:          0 HIT:          0 MISS:          0
cpu0_DTLB WRITE        ACCESS:          0 HIT:          0 MISS:          0
cpu0_DTLB TRANSLATION  ACCESS:          0 HIT:          0 MISS:          0
cpu0_DTLB PREFETCH REQUESTED:          0 ISSUED:          0 USEFUL:          0 USELESS:          0
cpu0_DTLB AVERAGE MISS LATENCY: 22.2 cycles
cpu0_ITLB TOTAL        ACCESS:    4832873 HIT:    4774996 MISS:      57877
cpu0_ITLB LOAD         ACCESS:    4832873 HIT:    4774996 MISS:      57877
cpu0_ITLB RFO          ACCESS:          0 HIT:          0 MISS:          0
cpu0_ITLB PREFETCH     ACCESS:          0 HIT:          0 MISS:          0
cpu0_ITLB WRITE        ACCESS:          0 HIT:          0 MISS:          0
cpu0_ITLB TRANSLATION  ACCESS:          0 HIT:          0 MISS:          0
cpu0_ITLB PREFETCH REQUESTED:          0 ISSUED:          0 USEFUL:          0 USELESS:          0
cpu0_ITLB AVERAGE MISS LATENCY: 7.679 cycles
cpu0_L1D TOTAL        ACCESS:  200292921 HIT:  198934984 MISS:    1357937
cpu0_L1D LOAD         ACCESS:  117048640 HIT:  116001257 MISS:    1047383
cpu0_L1D RFO          ACCESS:          0 HIT:          0 MISS:          0
cpu0_L1D PREFETCH     ACCESS:          0 HIT:          0 MISS:          0
cpu0_L1D WRITE        ACCESS:   83219817 HIT:   82932162 MISS:     287655
cpu0_L1D TRANSLATION  ACCESS:      24464 HIT:       1565 MISS:      22899
cpu0_L1D PREFETCH REQUESTED:          0 ISSUED:          0 USEFUL:          0 USELESS:          0
cpu0_L1D AVERAGE MISS LATENCY: 99.87 cycles
cpu0_L1I TOTAL        ACCESS:    5575593 HIT:    4814171 MISS:     761422
cpu0_L1I LOAD         ACCESS:    5575593 HIT:    4814171 MISS:     761422
cpu0_L1I RFO          ACCESS:          0 HIT:          0 MISS:          0
cpu0_L1I PREFETCH     ACCESS:          0 HIT:          0 MISS:          0
cpu0_L1I WRITE        ACCESS:          0 HIT:          0 MISS:          0
cpu0_L1I TRANSLATION  ACCESS:          0 HIT:          0 MISS:          0
cpu0_L1I PREFETCH REQUESTED:          0 ISSUED:          0 USEFUL:          0 USELESS:          0
cpu0_L1I AVERAGE MISS LATENCY: 18.41 cycles
cpu0_L2C TOTAL        ACCESS:    1382348 HIT:     927070 MISS:     455278
cpu0_L2C LOAD         ACCESS:    1125679 HIT:     725529 MISS:     400150
cpu0_L2C RFO          ACCESS:      63852 HIT:      31168 MISS:      32684
cpu0_L2C PREFETCH     ACCESS:          0 HIT:          0 MISS:          0
cpu0_L2C WRITE        ACCESS:     170006 HIT:     166453 MISS:       3553
cpu0_L2C TRANSLATION  ACCESS:      22811 HIT:       3920 MISS:      18891
cpu0_L2C PREFETCH REQUESTED:          0 ISSUED:          0 USEFUL:          0 USELESS:          0
cpu0_L2C AVERAGE MISS LATENCY: 310.8 cycles
cpu0_STLB TOTAL        ACCESS:     505038 HIT:     482248 MISS:      22790
cpu0_STLB LOAD         ACCESS:     505038 HIT:     482248 MISS:      22790
cpu0_STLB RFO          ACCESS:          0 HIT:          0 MISS:          0
cpu0_STLB PREFETCH     ACCESS:          0 HIT:          0 MISS:          0
cpu0_STLB WRITE        ACCESS:          0 HIT:          0 MISS:          0
cpu0_STLB TRANSLATION  ACCESS:          0 HIT:          0 MISS:          0
cpu0_STLB PREFETCH REQUESTED:          0 ISSUED:          0 USEFUL:          0 USELESS:          0
cpu0_STLB AVERAGE MISS LATENCY: 545.4 cycles

DRAM Statistics

Channel 0 RQ ROW_BUFFER_HIT:      50795
  ROW_BUFFER_MISS:     301648
 AVG DBUS CONGESTED CYCLE: 3.871
WQ ROW_BUFFER_HIT: Channel 0 
  ROW_BUFFER_MISS:       7533
  FULL:      39366
