WARNING: physical memory size is smaller than virtual memory size.

*** ChampSim Multicore Out-of-Order Simulator ***
Warmup Instructions: 50000000
Simulation Instructions: 600000000
Number of CPUs: 1
Page size: 4096

CPU 0 Tage branch predictor
Off-chip DRAM Size: 4 GiB Channels: 1 Width: 64-bit Data Race: 3200 MT/s
Heartbeat CPU 0 instructions: 10000001 cycles: 2500319 heartbeat IPC: 3.999 cumulative IPC: 3.999 (Simulation time: 00 hr 00 min 55 sec)
Heartbeat CPU 0 instructions: 20000002 cycles: 5037138 heartbeat IPC: 3.942 cumulative IPC: 3.971 (Simulation time: 00 hr 01 min 57 sec)
Heartbeat CPU 0 instructions: 30000002 cycles: 7537138 heartbeat IPC: 4 cumulative IPC: 3.98 (Simulation time: 00 hr 02 min 53 sec)
Heartbeat CPU 0 instructions: 40000002 cycles: 10037138 heartbeat IPC: 4 cumulative IPC: 3.985 (Simulation time: 00 hr 03 min 49 sec)
Heartbeat CPU 0 instructions: 50000002 cycles: 12537138 heartbeat IPC: 4 cumulative IPC: 3.988 (Simulation time: 00 hr 04 min 43 sec)
Warmup finished CPU 0 instructions: 50000002 cycles: 12537139 cumulative IPC: 3.988 (Simulation time: 00 hr 04 min 43 sec)
Warmup complete CPU 0 instructions: 50000002 cycles: 12537139 cumulative IPC: 3.988 (Simulation time: 00 hr 04 min 43 sec)
Heartbeat CPU 0 instructions: 60000001 cycles: 15566984 heartbeat IPC: 3.3 cumulative IPC: 3.3 (Simulation time: 00 hr 05 min 50 sec)
Heartbeat CPU 0 instructions: 70000004 cycles: 18672602 heartbeat IPC: 3.22 cumulative IPC: 3.26 (Simulation time: 00 hr 07 min 08 sec)
Heartbeat CPU 0 instructions: 80000001 cycles: 21754642 heartbeat IPC: 3.245 cumulative IPC: 3.255 (Simulation time: 00 hr 08 min 12 sec)
Heartbeat CPU 0 instructions: 90000001 cycles: 24722908 heartbeat IPC: 3.369 cumulative IPC: 3.283 (Simulation time: 00 hr 09 min 15 sec)
Heartbeat CPU 0 instructions: 100000000 cycles: 27669837 heartbeat IPC: 3.393 cumulative IPC: 3.304 (Simulation time: 00 hr 10 min 18 sec)
Heartbeat CPU 0 instructions: 110000000 cycles: 30632630 heartbeat IPC: 3.375 cumulative IPC: 3.316 (Simulation time: 00 hr 11 min 22 sec)
Heartbeat CPU 0 instructions: 120000001 cycles: 33633438 heartbeat IPC: 3.332 cumulative IPC: 3.318 (Simulation time: 00 hr 12 min 28 sec)
Heartbeat CPU 0 instructions: 130000001 cycles: 36518254 heartbeat IPC: 3.466 cumulative IPC: 3.336 (Simulation time: 00 hr 13 min 38 sec)
Heartbeat CPU 0 instructions: 140000001 cycles: 39613551 heartbeat IPC: 3.231 cumulative IPC: 3.324 (Simulation time: 00 hr 14 min 45 sec)
Heartbeat CPU 0 instructions: 150000001 cycles: 42661443 heartbeat IPC: 3.281 cumulative IPC: 3.32 (Simulation time: 00 hr 15 min 49 sec)
Heartbeat CPU 0 instructions: 160000004 cycles: 45725472 heartbeat IPC: 3.264 cumulative IPC: 3.314 (Simulation time: 00 hr 16 min 55 sec)
Heartbeat CPU 0 instructions: 170000004 cycles: 53936636 heartbeat IPC: 1.218 cumulative IPC: 2.899 (Simulation time: 00 hr 18 min 44 sec)
Heartbeat CPU 0 instructions: 180000004 cycles: 62848913 heartbeat IPC: 1.122 cumulative IPC: 2.584 (Simulation time: 00 hr 20 min 39 sec)
Heartbeat CPU 0 instructions: 190000001 cycles: 71667731 heartbeat IPC: 1.134 cumulative IPC: 2.368 (Simulation time: 00 hr 22 min 30 sec)
Heartbeat CPU 0 instructions: 200000004 cycles: 74677223 heartbeat IPC: 3.323 cumulative IPC: 2.414 (Simulation time: 00 hr 23 min 36 sec)
Heartbeat CPU 0 instructions: 210000001 cycles: 77665432 heartbeat IPC: 3.346 cumulative IPC: 2.457 (Simulation time: 00 hr 24 min 41 sec)
Heartbeat CPU 0 instructions: 220000000 cycles: 80573226 heartbeat IPC: 3.439 cumulative IPC: 2.499 (Simulation time: 00 hr 25 min 43 sec)
Heartbeat CPU 0 instructions: 230000002 cycles: 83645627 heartbeat IPC: 3.255 cumulative IPC: 2.531 (Simulation time: 00 hr 26 min 47 sec)
Heartbeat CPU 0 instructions: 240000003 cycles: 86714159 heartbeat IPC: 3.259 cumulative IPC: 2.561 (Simulation time: 00 hr 27 min 53 sec)
Heartbeat CPU 0 instructions: 250000000 cycles: 89772898 heartbeat IPC: 3.269 cumulative IPC: 2.589 (Simulation time: 00 hr 28 min 59 sec)
Heartbeat CPU 0 instructions: 260000002 cycles: 92767424 heartbeat IPC: 3.339 cumulative IPC: 2.617 (Simulation time: 00 hr 30 min 07 sec)
Heartbeat CPU 0 instructions: 270000002 cycles: 95702470 heartbeat IPC: 3.407 cumulative IPC: 2.645 (Simulation time: 00 hr 31 min 14 sec)
Heartbeat CPU 0 instructions: 280000002 cycles: 98605873 heartbeat IPC: 3.444 cumulative IPC: 2.672 (Simulation time: 00 hr 32 min 20 sec)
Heartbeat CPU 0 instructions: 290000002 cycles: 101591064 heartbeat IPC: 3.35 cumulative IPC: 2.695 (Simulation time: 00 hr 33 min 28 sec)
Heartbeat CPU 0 instructions: 300000003 cycles: 104527582 heartbeat IPC: 3.405 cumulative IPC: 2.718 (Simulation time: 00 hr 34 min 38 sec)
Heartbeat CPU 0 instructions: 310000001 cycles: 107617262 heartbeat IPC: 3.237 cumulative IPC: 2.735 (Simulation time: 00 hr 35 min 46 sec)
Heartbeat CPU 0 instructions: 320000003 cycles: 110663299 heartbeat IPC: 3.283 cumulative IPC: 2.752 (Simulation time: 00 hr 36 min 52 sec)
Heartbeat CPU 0 instructions: 330000003 cycles: 113710879 heartbeat IPC: 3.281 cumulative IPC: 2.768 (Simulation time: 00 hr 37 min 44 sec)
Heartbeat CPU 0 instructions: 340000000 cycles: 122133184 heartbeat IPC: 1.187 cumulative IPC: 2.646 (Simulation time: 00 hr 39 min 03 sec)
Heartbeat CPU 0 instructions: 350000000 cycles: 131307968 heartbeat IPC: 1.09 cumulative IPC: 2.526 (Simulation time: 00 hr 40 min 27 sec)
Heartbeat CPU 0 instructions: 360000004 cycles: 140340393 heartbeat IPC: 1.107 cumulative IPC: 2.426 (Simulation time: 00 hr 41 min 49 sec)
Heartbeat CPU 0 instructions: 370000000 cycles: 143325583 heartbeat IPC: 3.35 cumulative IPC: 2.447 (Simulation time: 00 hr 42 min 35 sec)
Heartbeat CPU 0 instructions: 380000003 cycles: 146277017 heartbeat IPC: 3.388 cumulative IPC: 2.467 (Simulation time: 00 hr 43 min 21 sec)
Heartbeat CPU 0 instructions: 390000002 cycles: 149274593 heartbeat IPC: 3.336 cumulative IPC: 2.487 (Simulation time: 00 hr 44 min 08 sec)
Heartbeat CPU 0 instructions: 400000004 cycles: 152184769 heartbeat IPC: 3.436 cumulative IPC: 2.506 (Simulation time: 00 hr 44 min 54 sec)
Heartbeat CPU 0 instructions: 410000002 cycles: 155155442 heartbeat IPC: 3.366 cumulative IPC: 2.524 (Simulation time: 00 hr 45 min 39 sec)
Heartbeat CPU 0 instructions: 420000003 cycles: 158348052 heartbeat IPC: 3.132 cumulative IPC: 2.538 (Simulation time: 00 hr 46 min 26 sec)
Heartbeat CPU 0 instructions: 430000001 cycles: 161386547 heartbeat IPC: 3.291 cumulative IPC: 2.553 (Simulation time: 00 hr 47 min 24 sec)
Heartbeat CPU 0 instructions: 440000004 cycles: 164546577 heartbeat IPC: 3.165 cumulative IPC: 2.566 (Simulation time: 00 hr 48 min 12 sec)
Heartbeat CPU 0 instructions: 450000002 cycles: 167495742 heartbeat IPC: 3.391 cumulative IPC: 2.581 (Simulation time: 00 hr 49 min 01 sec)
Heartbeat CPU 0 instructions: 460000000 cycles: 170450363 heartbeat IPC: 3.385 cumulative IPC: 2.596 (Simulation time: 00 hr 49 min 47 sec)
Heartbeat CPU 0 instructions: 470000001 cycles: 173326217 heartbeat IPC: 3.477 cumulative IPC: 2.612 (Simulation time: 00 hr 50 min 34 sec)
Heartbeat CPU 0 instructions: 480000003 cycles: 176426714 heartbeat IPC: 3.225 cumulative IPC: 2.624 (Simulation time: 00 hr 51 min 21 sec)
Heartbeat CPU 0 instructions: 490000004 cycles: 179265172 heartbeat IPC: 3.523 cumulative IPC: 2.639 (Simulation time: 00 hr 52 min 08 sec)
Heartbeat CPU 0 instructions: 500000004 cycles: 182264792 heartbeat IPC: 3.334 cumulative IPC: 2.651 (Simulation time: 00 hr 52 min 55 sec)
Heartbeat CPU 0 instructions: 510000003 cycles: 185360657 heartbeat IPC: 3.23 cumulative IPC: 2.662 (Simulation time: 00 hr 53 min 44 sec)
Heartbeat CPU 0 instructions: 520000001 cycles: 188272995 heartbeat IPC: 3.434 cumulative IPC: 2.674 (Simulation time: 00 hr 54 min 33 sec)
Heartbeat CPU 0 instructions: 530000001 cycles: 191338103 heartbeat IPC: 3.263 cumulative IPC: 2.685 (Simulation time: 00 hr 55 min 21 sec)
Heartbeat CPU 0 instructions: 540000000 cycles: 194317790 heartbeat IPC: 3.356 cumulative IPC: 2.696 (Simulation time: 00 hr 56 min 09 sec)
Heartbeat CPU 0 instructions: 550000001 cycles: 197318610 heartbeat IPC: 3.332 cumulative IPC: 2.706 (Simulation time: 00 hr 56 min 58 sec)
Heartbeat CPU 0 instructions: 560000000 cycles: 200505808 heartbeat IPC: 3.138 cumulative IPC: 2.713 (Simulation time: 00 hr 57 min 47 sec)
Heartbeat CPU 0 instructions: 570000004 cycles: 205815168 heartbeat IPC: 1.883 cumulative IPC: 2.69 (Simulation time: 00 hr 58 min 49 sec)
Heartbeat CPU 0 instructions: 580000003 cycles: 215583674 heartbeat IPC: 1.024 cumulative IPC: 2.61 (Simulation time: 01 hr 00 min 17 sec)
Heartbeat CPU 0 instructions: 590000002 cycles: 227200009 heartbeat IPC: 0.8609 cumulative IPC: 2.516 (Simulation time: 01 hr 01 min 55 sec)
Heartbeat CPU 0 instructions: 600000004 cycles: 230280647 heartbeat IPC: 3.246 cumulative IPC: 2.526 (Simulation time: 01 hr 02 min 42 sec)
Heartbeat CPU 0 instructions: 610000002 cycles: 233266411 heartbeat IPC: 3.349 cumulative IPC: 2.537 (Simulation time: 01 hr 03 min 31 sec)
Heartbeat CPU 0 instructions: 620000001 cycles: 236055335 heartbeat IPC: 3.586 cumulative IPC: 2.55 (Simulation time: 01 hr 04 min 17 sec)
Heartbeat CPU 0 instructions: 630000002 cycles: 239049173 heartbeat IPC: 3.34 cumulative IPC: 2.561 (Simulation time: 01 hr 05 min 06 sec)
Heartbeat CPU 0 instructions: 640000004 cycles: 242004776 heartbeat IPC: 3.383 cumulative IPC: 2.571 (Simulation time: 01 hr 06 min 01 sec)
Heartbeat CPU 0 instructions: 650000000 cycles: 244761994 heartbeat IPC: 3.627 cumulative IPC: 2.584 (Simulation time: 01 hr 06 min 47 sec)
Simulation finished CPU 0 instructions: 600000001 cycles: 232224857 cumulative IPC: 2.584 (Simulation time: 01 hr 06 min 47 sec)
Simulation complete CPU 0 instructions: 600000001 cycles: 232224857 cumulative IPC: 2.584 (Simulation time: 01 hr 06 min 47 sec)

ChampSim completed all CPUs

=== Simulation ===
CPU 0 runs traces/400.perlbench-41B.champsimtrace.xz
Region of Interest Statistics

CPU 0 cumulative IPC: 2.584 instructions: 600000001 cycles: 232224857
CPU 0 Branch Prediction Accuracy: 99.19% MPKI: 1.684 Average ROB Occupancy at Mispredict: 102
Branch type MPKI
BRANCH_DIRECT_JUMP: 0.0123
BRANCH_INDIRECT: 0.323
BRANCH_CONDITIONAL: 1.14
BRANCH_DIRECT_CALL: 0.0043
BRANCH_INDIRECT_CALL: 0.2
BRANCH_RETURN: 0.00828

LLC TOTAL        ACCESS:     937081 HIT:     468017 MISS:     469064
LLC LOAD         ACCESS:     400249 HIT:     195008 MISS:     205241
LLC RFO          ACCESS:      32361 HIT:      15812 MISS:      16549
LLC PREFETCH     ACCESS:     400249 HIT:     186227 MISS:     214022
LLC WRITE        ACCESS:      85351 HIT:      70483 MISS:      14868
LLC TRANSLATION  ACCESS:      18871 HIT:        487 MISS:      18384
LLC PREFETCH REQUESTED:     400249 ISSUED:     400249 USEFUL:      81012 USELESS:      75339
LLC AVERAGE MISS LATENCY: 642.2 cycles
cpu0_DTLB TOTAL        ACCESS:  129757522 HIT:  129052971 MISS:     704551
cpu0_DTLB LOAD         ACCESS:  129757522 HIT:  129052971 MISS:     704551
cpu0_DTLB RFO          ACCESS:          0 HIT:          0 MISS:          0
cpu0_DTLB PREFETCH     ACCESS:          0 HIT:          0 MISS:          0
cpu0_DTLB WRITE        ACCESS:          0 HIT:          0 MISS:          0
cpu0_DTLB TRANSLATION  ACCESS:          0 HIT:          0 MISS:          0
cpu0_DTLB PREFETCH REQUESTED:          0 ISSUED:          0 USEFUL:          0 USELESS:          0
cpu0_DTLB AVERAGE MISS LATENCY: 25.46 cycles
cpu0_ITLB TOTAL        ACCESS:    4870106 HIT:    4807837 MISS:      62269
cpu0_ITLB LOAD         ACCESS:    4870106 HIT:    4807837 MISS:      62269
cpu0_ITLB RFO          ACCESS:          0 HIT:          0 MISS:          0
cpu0_ITLB PREFETCH     ACCESS:          0 HIT:          0 MISS:          0
cpu0_ITLB WRITE        ACCESS:          0 HIT:          0 MISS:          0
cpu0_ITLB TRANSLATION  ACCESS:          0 HIT:          0 MISS:          0
cpu0_ITLB PREFETCH REQUESTED:          0 ISSUED:          0 USEFUL:          0 USELESS:          0
cpu0_ITLB AVERAGE MISS LATENCY: 8.226 cycles
cpu0_L1D TOTAL        ACCESS:  174358966 HIT:  172935985 MISS:    1422981
cpu0_L1D LOAD         ACCESS:   91337301 HIT:   90240618 MISS:    1096683
cpu0_L1D RFO          ACCESS:          0 HIT:          0 MISS:          0
cpu0_L1D PREFETCH     ACCESS:          0 HIT:          0 MISS:          0
cpu0_L1D WRITE        ACCESS:   82997197 HIT:   82693772 MISS:     303425
cpu0_L1D TRANSLATION  ACCESS:      24468 HIT:       1595 MISS:      22873
cpu0_L1D PREFETCH REQUESTED:          0 ISSUED:          0 USEFUL:          0 USELESS:          0
cpu0_L1D AVERAGE MISS LATENCY: 123.9 cycles
cpu0_L1I TOTAL        ACCESS:    5649549 HIT:    4845674 MISS:     803875
cpu0_L1I LOAD         ACCESS:    5649549 HIT:    4845674 MISS:     803875
cpu0_L1I RFO          ACCESS:          0 HIT:          0 MISS:          0
cpu0_L1I PREFETCH     ACCESS:          0 HIT:          0 MISS:          0
cpu0_L1I WRITE        ACCESS:          0 HIT:          0 MISS:          0
cpu0_L1I TRANSLATION  ACCESS:          0 HIT:          0 MISS:          0
cpu0_L1I PREFETCH REQUESTED:          0 ISSUED:          0 USEFUL:          0 USELESS:          0
cpu0_L1I AVERAGE MISS LATENCY: 12.98 cycles
cpu0_L2C TOTAL        ACCESS:    1381508 HIT:     926576 MISS:     454932
cpu0_L2C LOAD         ACCESS:    1123963 HIT:     723714 MISS:     400249
cpu0_L2C RFO          ACCESS:      64502 HIT:      32141 MISS:      32361
cpu0_L2C PREFETCH     ACCESS:          0 HIT:          0 MISS:          0
cpu0_L2C WRITE        ACCESS:     170261 HIT:     166810 MISS:       3451
cpu0_L2C TRANSLATION  ACCESS:      22782 HIT:       3911 MISS:      18871
cpu0_L2C PREFETCH REQUESTED:          0 ISSUED:          0 USEFUL:          0 USELESS:          0
cpu0_L2C AVERAGE MISS LATENCY: 410.4 cycles
cpu0_STLB TOTAL        ACCESS:     508590 HIT:     485804 MISS:      22786
cpu0_STLB LOAD         ACCESS:     508590 HIT:     485804 MISS:      22786
cpu0_STLB RFO          ACCESS:          0 HIT:          0 MISS:          0
cpu0_STLB PREFETCH     ACCESS:          0 HIT:          0 MISS:          0
cpu0_STLB WRITE        ACCESS:          0 HIT:          0 MISS:          0
cpu0_STLB TRANSLATION  ACCESS:          0 HIT:          0 MISS:          0
cpu0_STLB PREFETCH REQUESTED:          0 ISSUED:          0 USEFUL:          0 USELESS:          0
cpu0_STLB AVERAGE MISS LATENCY: 709.7 cycles

DRAM Statistics

Channel 0 RQ ROW_BUFFER_HIT:      69507
  ROW_BUFFER_MISS:     305141
 AVG DBUS CONGESTED CYCLE: 3.902
WQ ROW_BUFFER_HIT: Channel 0 
  ROW_BUFFER_MISS:       4622
  FULL:      43138
Final OPTGen Hits: 8402
Final OPTGen Access: 9221
Final OPTGEN Hit Rate: 91.1181
