WARNING: physical memory size is smaller than virtual memory size.

*** ChampSim Multicore Out-of-Order Simulator ***
Warmup Instructions: 50000000
Simulation Instructions: 600000000
Number of CPUs: 1
Page size: 4096

Off-chip DRAM Size: 4 GiB Channels: 1 Width: 64-bit Data Race: 3200 MT/s
Heartbeat CPU 0 instructions: 10000001 cycles: 2500318 heartbeat IPC: 3.999 cumulative IPC: 3.999 (Simulation time: 00 hr 00 min 23 sec)
Heartbeat CPU 0 instructions: 20000002 cycles: 5037135 heartbeat IPC: 3.942 cumulative IPC: 3.971 (Simulation time: 00 hr 00 min 56 sec)
Heartbeat CPU 0 instructions: 30000002 cycles: 7537135 heartbeat IPC: 4 cumulative IPC: 3.98 (Simulation time: 00 hr 01 min 29 sec)
Heartbeat CPU 0 instructions: 40000002 cycles: 10037135 heartbeat IPC: 4 cumulative IPC: 3.985 (Simulation time: 00 hr 02 min 06 sec)
Heartbeat CPU 0 instructions: 50000002 cycles: 12537135 heartbeat IPC: 4 cumulative IPC: 3.988 (Simulation time: 00 hr 02 min 47 sec)
Warmup finished CPU 0 instructions: 50000002 cycles: 12537136 cumulative IPC: 3.988 (Simulation time: 00 hr 02 min 47 sec)
Warmup complete CPU 0 instructions: 50000002 cycles: 12537136 cumulative IPC: 3.988 (Simulation time: 00 hr 02 min 47 sec)
Heartbeat CPU 0 instructions: 60000000 cycles: 17710737 heartbeat IPC: 1.933 cumulative IPC: 1.933 (Simulation time: 00 hr 03 min 59 sec)
Heartbeat CPU 0 instructions: 70000002 cycles: 22614576 heartbeat IPC: 2.039 cumulative IPC: 1.985 (Simulation time: 00 hr 05 min 19 sec)
Heartbeat CPU 0 instructions: 80000001 cycles: 27982579 heartbeat IPC: 1.863 cumulative IPC: 1.942 (Simulation time: 00 hr 06 min 42 sec)
Heartbeat CPU 0 instructions: 90000001 cycles: 32864358 heartbeat IPC: 2.048 cumulative IPC: 1.968 (Simulation time: 00 hr 07 min 59 sec)
Heartbeat CPU 0 instructions: 100000000 cycles: 37981175 heartbeat IPC: 1.954 cumulative IPC: 1.965 (Simulation time: 00 hr 09 min 15 sec)
Heartbeat CPU 0 instructions: 110000000 cycles: 42871787 heartbeat IPC: 2.045 cumulative IPC: 1.978 (Simulation time: 00 hr 10 min 25 sec)
Heartbeat CPU 0 instructions: 120000001 cycles: 48063422 heartbeat IPC: 1.926 cumulative IPC: 1.97 (Simulation time: 00 hr 11 min 36 sec)
Heartbeat CPU 0 instructions: 130000001 cycles: 53223301 heartbeat IPC: 1.938 cumulative IPC: 1.966 (Simulation time: 00 hr 12 min 53 sec)
Heartbeat CPU 0 instructions: 140000001 cycles: 58537903 heartbeat IPC: 1.882 cumulative IPC: 1.956 (Simulation time: 00 hr 14 min 13 sec)
Heartbeat CPU 0 instructions: 150000001 cycles: 63862019 heartbeat IPC: 1.878 cumulative IPC: 1.948 (Simulation time: 00 hr 15 min 33 sec)
Heartbeat CPU 0 instructions: 160000004 cycles: 69064631 heartbeat IPC: 1.922 cumulative IPC: 1.946 (Simulation time: 00 hr 16 min 49 sec)
Heartbeat CPU 0 instructions: 170000000 cycles: 79747103 heartbeat IPC: 0.9361 cumulative IPC: 1.785 (Simulation time: 00 hr 18 min 47 sec)
Heartbeat CPU 0 instructions: 180000004 cycles: 90489347 heartbeat IPC: 0.9309 cumulative IPC: 1.668 (Simulation time: 00 hr 20 min 50 sec)
Heartbeat CPU 0 instructions: 190000001 cycles: 101393696 heartbeat IPC: 0.9171 cumulative IPC: 1.576 (Simulation time: 00 hr 22 min 51 sec)
Heartbeat CPU 0 instructions: 200000003 cycles: 106165234 heartbeat IPC: 2.096 cumulative IPC: 1.602 (Simulation time: 00 hr 24 min 03 sec)
Heartbeat CPU 0 instructions: 210000001 cycles: 111090276 heartbeat IPC: 2.03 cumulative IPC: 1.623 (Simulation time: 00 hr 25 min 14 sec)
Heartbeat CPU 0 instructions: 220000000 cycles: 115922714 heartbeat IPC: 2.069 cumulative IPC: 1.644 (Simulation time: 00 hr 26 min 18 sec)
Heartbeat CPU 0 instructions: 230000002 cycles: 121246783 heartbeat IPC: 1.878 cumulative IPC: 1.656 (Simulation time: 00 hr 27 min 24 sec)
Heartbeat CPU 0 instructions: 240000000 cycles: 126095265 heartbeat IPC: 2.063 cumulative IPC: 1.673 (Simulation time: 00 hr 28 min 30 sec)
Heartbeat CPU 0 instructions: 250000000 cycles: 131251029 heartbeat IPC: 1.94 cumulative IPC: 1.685 (Simulation time: 00 hr 29 min 40 sec)
Heartbeat CPU 0 instructions: 260000000 cycles: 136278061 heartbeat IPC: 1.989 cumulative IPC: 1.697 (Simulation time: 00 hr 30 min 49 sec)
Heartbeat CPU 0 instructions: 270000002 cycles: 141173489 heartbeat IPC: 2.043 cumulative IPC: 1.71 (Simulation time: 00 hr 31 min 53 sec)
Heartbeat CPU 0 instructions: 280000002 cycles: 146088032 heartbeat IPC: 2.035 cumulative IPC: 1.722 (Simulation time: 00 hr 33 min 05 sec)
Heartbeat CPU 0 instructions: 290000001 cycles: 151454321 heartbeat IPC: 1.863 cumulative IPC: 1.728 (Simulation time: 00 hr 34 min 45 sec)
Heartbeat CPU 0 instructions: 300000003 cycles: 156511313 heartbeat IPC: 1.977 cumulative IPC: 1.736 (Simulation time: 00 hr 36 min 11 sec)
Heartbeat CPU 0 instructions: 310000001 cycles: 161812997 heartbeat IPC: 1.886 cumulative IPC: 1.742 (Simulation time: 00 hr 37 min 34 sec)
Heartbeat CPU 0 instructions: 320000003 cycles: 167024371 heartbeat IPC: 1.919 cumulative IPC: 1.748 (Simulation time: 00 hr 38 min 51 sec)
Heartbeat CPU 0 instructions: 330000003 cycles: 172326766 heartbeat IPC: 1.886 cumulative IPC: 1.752 (Simulation time: 00 hr 40 min 07 sec)
Heartbeat CPU 0 instructions: 340000000 cycles: 183121052 heartbeat IPC: 0.9264 cumulative IPC: 1.7 (Simulation time: 00 hr 42 min 07 sec)
Heartbeat CPU 0 instructions: 350000000 cycles: 194434497 heartbeat IPC: 0.8839 cumulative IPC: 1.649 (Simulation time: 00 hr 44 min 17 sec)
Heartbeat CPU 0 instructions: 360000004 cycles: 205365662 heartbeat IPC: 0.9148 cumulative IPC: 1.608 (Simulation time: 00 hr 46 min 31 sec)
Heartbeat CPU 0 instructions: 370000000 cycles: 209777187 heartbeat IPC: 2.267 cumulative IPC: 1.622 (Simulation time: 00 hr 48 min 00 sec)
Heartbeat CPU 0 instructions: 380000001 cycles: 214701993 heartbeat IPC: 2.031 cumulative IPC: 1.632 (Simulation time: 00 hr 49 min 18 sec)
Heartbeat CPU 0 instructions: 390000002 cycles: 219529424 heartbeat IPC: 2.071 cumulative IPC: 1.643 (Simulation time: 00 hr 50 min 32 sec)
Heartbeat CPU 0 instructions: 400000004 cycles: 224467364 heartbeat IPC: 2.025 cumulative IPC: 1.651 (Simulation time: 00 hr 51 min 43 sec)
Heartbeat CPU 0 instructions: 410000000 cycles: 229194908 heartbeat IPC: 2.115 cumulative IPC: 1.662 (Simulation time: 00 hr 52 min 49 sec)
Heartbeat CPU 0 instructions: 420000000 cycles: 234332633 heartbeat IPC: 1.946 cumulative IPC: 1.668 (Simulation time: 00 hr 53 min 56 sec)
Heartbeat CPU 0 instructions: 430000001 cycles: 238799033 heartbeat IPC: 2.239 cumulative IPC: 1.679 (Simulation time: 00 hr 55 min 04 sec)
Heartbeat CPU 0 instructions: 440000000 cycles: 244152845 heartbeat IPC: 1.868 cumulative IPC: 1.684 (Simulation time: 00 hr 56 min 13 sec)
Heartbeat CPU 0 instructions: 450000002 cycles: 248820941 heartbeat IPC: 2.142 cumulative IPC: 1.693 (Simulation time: 00 hr 57 min 18 sec)
Heartbeat CPU 0 instructions: 460000000 cycles: 253612107 heartbeat IPC: 2.087 cumulative IPC: 1.701 (Simulation time: 00 hr 58 min 23 sec)
Heartbeat CPU 0 instructions: 470000000 cycles: 258591363 heartbeat IPC: 2.008 cumulative IPC: 1.707 (Simulation time: 00 hr 59 min 40 sec)
Heartbeat CPU 0 instructions: 480000003 cycles: 263380202 heartbeat IPC: 2.088 cumulative IPC: 1.714 (Simulation time: 01 hr 01 min 06 sec)
Heartbeat CPU 0 instructions: 490000000 cycles: 267986504 heartbeat IPC: 2.171 cumulative IPC: 1.722 (Simulation time: 01 hr 02 min 24 sec)
Heartbeat CPU 0 instructions: 500000000 cycles: 273005207 heartbeat IPC: 1.993 cumulative IPC: 1.728 (Simulation time: 01 hr 03 min 40 sec)
Heartbeat CPU 0 instructions: 510000003 cycles: 278639344 heartbeat IPC: 1.775 cumulative IPC: 1.729 (Simulation time: 01 hr 04 min 56 sec)
Heartbeat CPU 0 instructions: 520000001 cycles: 283326862 heartbeat IPC: 2.133 cumulative IPC: 1.736 (Simulation time: 01 hr 06 min 04 sec)
Heartbeat CPU 0 instructions: 530000002 cycles: 288467653 heartbeat IPC: 1.945 cumulative IPC: 1.74 (Simulation time: 01 hr 07 min 14 sec)
Heartbeat CPU 0 instructions: 540000000 cycles: 293584518 heartbeat IPC: 1.954 cumulative IPC: 1.743 (Simulation time: 01 hr 08 min 25 sec)
Heartbeat CPU 0 instructions: 550000001 cycles: 298388816 heartbeat IPC: 2.081 cumulative IPC: 1.749 (Simulation time: 01 hr 09 min 34 sec)
Heartbeat CPU 0 instructions: 560000000 cycles: 303602837 heartbeat IPC: 1.918 cumulative IPC: 1.752 (Simulation time: 01 hr 10 min 42 sec)
Heartbeat CPU 0 instructions: 570000004 cycles: 310994672 heartbeat IPC: 1.353 cumulative IPC: 1.742 (Simulation time: 01 hr 12 min 28 sec)
Heartbeat CPU 0 instructions: 580000003 cycles: 322999196 heartbeat IPC: 0.833 cumulative IPC: 1.707 (Simulation time: 01 hr 15 min 07 sec)
Heartbeat CPU 0 instructions: 590000002 cycles: 336497944 heartbeat IPC: 0.7408 cumulative IPC: 1.667 (Simulation time: 01 hr 17 min 35 sec)
Heartbeat CPU 0 instructions: 600000000 cycles: 341098330 heartbeat IPC: 2.174 cumulative IPC: 1.674 (Simulation time: 01 hr 18 min 41 sec)
Heartbeat CPU 0 instructions: 610000002 cycles: 345590270 heartbeat IPC: 2.226 cumulative IPC: 1.681 (Simulation time: 01 hr 19 min 51 sec)
Heartbeat CPU 0 instructions: 620000000 cycles: 350397171 heartbeat IPC: 2.08 cumulative IPC: 1.687 (Simulation time: 01 hr 21 min 03 sec)
Heartbeat CPU 0 instructions: 630000002 cycles: 355485294 heartbeat IPC: 1.965 cumulative IPC: 1.691 (Simulation time: 01 hr 22 min 14 sec)
Heartbeat CPU 0 instructions: 640000001 cycles: 360337093 heartbeat IPC: 2.061 cumulative IPC: 1.696 (Simulation time: 01 hr 23 min 32 sec)
Heartbeat CPU 0 instructions: 650000000 cycles: 364892853 heartbeat IPC: 2.195 cumulative IPC: 1.703 (Simulation time: 01 hr 25 min 02 sec)
Simulation finished CPU 0 instructions: 600000001 cycles: 352355719 cumulative IPC: 1.703 (Simulation time: 01 hr 25 min 02 sec)
Simulation complete CPU 0 instructions: 600000001 cycles: 352355719 cumulative IPC: 1.703 (Simulation time: 01 hr 25 min 02 sec)

ChampSim completed all CPUs

=== Simulation ===
CPU 0 runs traces/400.perlbench-41B.champsimtrace.xz
Region of Interest Statistics

CPU 0 cumulative IPC: 1.703 instructions: 600000001 cycles: 352355719
CPU 0 Branch Prediction Accuracy: 93.95% MPKI: 12.5 Average ROB Occupancy at Mispredict: 29.65
Branch type MPKI
BRANCH_DIRECT_JUMP: 0.0123
BRANCH_INDIRECT: 0.323
BRANCH_CONDITIONAL: 12
BRANCH_DIRECT_CALL: 0.0043
BRANCH_INDIRECT_CALL: 0.2
BRANCH_RETURN: 0.00828

LLC TOTAL        ACCESS:     595240 HIT:     306527 MISS:     288713
LLC LOAD         ACCESS:     402491 HIT:     170410 MISS:     232081
LLC RFO          ACCESS:      32422 HIT:      15534 MISS:      16888
LLC PREFETCH     ACCESS:      55039 HIT:      26228 MISS:      28811
LLC WRITE        ACCESS:      86356 HIT:      85819 MISS:        537
LLC TRANSLATION  ACCESS:      18932 HIT:       8536 MISS:      10396
LLC PREFETCH REQUESTED:      55039 ISSUED:      55039 USEFUL:      18117 USELESS:       6956
LLC AVERAGE MISS LATENCY: 573.5 cycles
cpu0_DTLB TOTAL        ACCESS:  153675269 HIT:  152997897 MISS:     677372
cpu0_DTLB LOAD         ACCESS:  153675269 HIT:  152997897 MISS:     677372
cpu0_DTLB RFO          ACCESS:          0 HIT:          0 MISS:          0
cpu0_DTLB PREFETCH     ACCESS:          0 HIT:          0 MISS:          0
cpu0_DTLB WRITE        ACCESS:          0 HIT:          0 MISS:          0
cpu0_DTLB TRANSLATION  ACCESS:          0 HIT:          0 MISS:          0
cpu0_DTLB PREFETCH REQUESTED:          0 ISSUED:          0 USEFUL:          0 USELESS:          0
cpu0_DTLB AVERAGE MISS LATENCY: 16.21 cycles
cpu0_ITLB TOTAL        ACCESS:    4836822 HIT:    4778958 MISS:      57864
cpu0_ITLB LOAD         ACCESS:    4836822 HIT:    4778958 MISS:      57864
cpu0_ITLB RFO          ACCESS:          0 HIT:          0 MISS:          0
cpu0_ITLB PREFETCH     ACCESS:          0 HIT:          0 MISS:          0
cpu0_ITLB WRITE        ACCESS:          0 HIT:          0 MISS:          0
cpu0_ITLB TRANSLATION  ACCESS:          0 HIT:          0 MISS:          0
cpu0_ITLB PREFETCH REQUESTED:          0 ISSUED:          0 USEFUL:          0 USELESS:          0
cpu0_ITLB AVERAGE MISS LATENCY: 7.485 cycles
cpu0_L1D TOTAL        ACCESS:  200292300 HIT:  198938472 MISS:    1353828
cpu0_L1D LOAD         ACCESS:  117048218 HIT:  116010437 MISS:    1037781
cpu0_L1D RFO          ACCESS:          0 HIT:          0 MISS:          0
cpu0_L1D PREFETCH     ACCESS:          0 HIT:          0 MISS:          0
cpu0_L1D WRITE        ACCESS:   83219623 HIT:   82926460 MISS:     293163
cpu0_L1D TRANSLATION  ACCESS:      24459 HIT:       1575 MISS:      22884
cpu0_L1D PREFETCH REQUESTED:          0 ISSUED:          0 USEFUL:          0 USELESS:          0
cpu0_L1D AVERAGE MISS LATENCY: 113.1 cycles
cpu0_L1I TOTAL        ACCESS:    5578977 HIT:    4817449 MISS:     761528
cpu0_L1I LOAD         ACCESS:    5578977 HIT:    4817449 MISS:     761528
cpu0_L1I RFO          ACCESS:          0 HIT:          0 MISS:          0
cpu0_L1I PREFETCH     ACCESS:          0 HIT:          0 MISS:          0
cpu0_L1I WRITE        ACCESS:          0 HIT:          0 MISS:          0
cpu0_L1I TRANSLATION  ACCESS:          0 HIT:          0 MISS:          0
cpu0_L1I PREFETCH REQUESTED:          0 ISSUED:          0 USEFUL:          0 USELESS:          0
cpu0_L1I AVERAGE MISS LATENCY: 14.91 cycles
cpu0_L2C TOTAL        ACCESS:    1382440 HIT:     924940 MISS:     457500
cpu0_L2C LOAD         ACCESS:    1125631 HIT:     723140 MISS:     402491
cpu0_L2C RFO          ACCESS:      63905 HIT:      31483 MISS:      32422
cpu0_L2C PREFETCH     ACCESS:          0 HIT:          0 MISS:          0
cpu0_L2C WRITE        ACCESS:     170099 HIT:     166444 MISS:       3655
cpu0_L2C TRANSLATION  ACCESS:      22805 HIT:       3873 MISS:      18932
cpu0_L2C PREFETCH REQUESTED:          0 ISSUED:          0 USEFUL:          0 USELESS:          0
cpu0_L2C AVERAGE MISS LATENCY: 343 cycles
cpu0_STLB TOTAL        ACCESS:     505114 HIT:     482324 MISS:      22790
cpu0_STLB LOAD         ACCESS:     505114 HIT:     482324 MISS:      22790
cpu0_STLB RFO          ACCESS:          0 HIT:          0 MISS:          0
cpu0_STLB PREFETCH     ACCESS:          0 HIT:          0 MISS:          0
cpu0_STLB WRITE        ACCESS:          0 HIT:          0 MISS:          0
cpu0_STLB TRANSLATION  ACCESS:          0 HIT:          0 MISS:          0
cpu0_STLB PREFETCH REQUESTED:          0 ISSUED:          0 USEFUL:          0 USELESS:          0
cpu0_STLB AVERAGE MISS LATENCY: 362.1 cycles

DRAM Statistics

Channel 0 RQ ROW_BUFFER_HIT:      47228
  ROW_BUFFER_MISS:     235602
 AVG DBUS CONGESTED CYCLE: 3.827
WQ ROW_BUFFER_HIT: Channel 0 
  ROW_BUFFER_MISS:       7463
  FULL:      37803
