WARNING: physical memory size is smaller than virtual memory size.

*** ChampSim Multicore Out-of-Order Simulator ***
Warmup Instructions: 50000000
Simulation Instructions: 600000000
Number of CPUs: 1
Page size: 4096

CPU 0 Tage branch predictor
Off-chip DRAM Size: 4 GiB Channels: 1 Width: 64-bit Data Race: 3200 MT/s
Heartbeat CPU 0 instructions: 10000000 cycles: 2500061 heartbeat IPC: 4 cumulative IPC: 4 (Simulation time: 00 hr 00 min 42 sec)
Heartbeat CPU 0 instructions: 20000000 cycles: 5000061 heartbeat IPC: 4 cumulative IPC: 4 (Simulation time: 00 hr 01 min 30 sec)
Heartbeat CPU 0 instructions: 30000000 cycles: 7500061 heartbeat IPC: 4 cumulative IPC: 4 (Simulation time: 00 hr 02 min 20 sec)
Heartbeat CPU 0 instructions: 40000000 cycles: 10000061 heartbeat IPC: 4 cumulative IPC: 4 (Simulation time: 00 hr 03 min 15 sec)
Heartbeat CPU 0 instructions: 50000000 cycles: 12500061 heartbeat IPC: 4 cumulative IPC: 4 (Simulation time: 00 hr 04 min 07 sec)
Warmup finished CPU 0 instructions: 50000000 cycles: 12500062 cumulative IPC: 4 (Simulation time: 00 hr 04 min 07 sec)
Warmup complete CPU 0 instructions: 50000000 cycles: 12500062 cumulative IPC: 4 (Simulation time: 00 hr 04 min 07 sec)
Heartbeat CPU 0 instructions: 60000004 cycles: 15504489 heartbeat IPC: 3.328 cumulative IPC: 3.328 (Simulation time: 00 hr 05 min 08 sec)
Heartbeat CPU 0 instructions: 70000003 cycles: 18370762 heartbeat IPC: 3.489 cumulative IPC: 3.407 (Simulation time: 00 hr 06 min 07 sec)
Heartbeat CPU 0 instructions: 80000002 cycles: 21382300 heartbeat IPC: 3.321 cumulative IPC: 3.378 (Simulation time: 00 hr 07 min 08 sec)
Heartbeat CPU 0 instructions: 90000000 cycles: 24100329 heartbeat IPC: 3.679 cumulative IPC: 3.448 (Simulation time: 00 hr 08 min 07 sec)
Heartbeat CPU 0 instructions: 100000003 cycles: 26857493 heartbeat IPC: 3.627 cumulative IPC: 3.483 (Simulation time: 00 hr 09 min 06 sec)
Heartbeat CPU 0 instructions: 110000001 cycles: 29755202 heartbeat IPC: 3.451 cumulative IPC: 3.477 (Simulation time: 00 hr 10 min 06 sec)
Heartbeat CPU 0 instructions: 120000001 cycles: 32471687 heartbeat IPC: 3.681 cumulative IPC: 3.505 (Simulation time: 00 hr 11 min 05 sec)
Heartbeat CPU 0 instructions: 130000003 cycles: 35371153 heartbeat IPC: 3.449 cumulative IPC: 3.498 (Simulation time: 00 hr 12 min 05 sec)
Heartbeat CPU 0 instructions: 140000002 cycles: 38204957 heartbeat IPC: 3.529 cumulative IPC: 3.501 (Simulation time: 00 hr 13 min 07 sec)
Heartbeat CPU 0 instructions: 150000001 cycles: 40975005 heartbeat IPC: 3.61 cumulative IPC: 3.512 (Simulation time: 00 hr 14 min 07 sec)
Heartbeat CPU 0 instructions: 160000000 cycles: 43892634 heartbeat IPC: 3.427 cumulative IPC: 3.504 (Simulation time: 00 hr 15 min 06 sec)
Heartbeat CPU 0 instructions: 170000001 cycles: 46821114 heartbeat IPC: 3.415 cumulative IPC: 3.496 (Simulation time: 00 hr 16 min 06 sec)
Heartbeat CPU 0 instructions: 180000000 cycles: 49612148 heartbeat IPC: 3.583 cumulative IPC: 3.503 (Simulation time: 00 hr 17 min 09 sec)
Heartbeat CPU 0 instructions: 190000002 cycles: 52319155 heartbeat IPC: 3.694 cumulative IPC: 3.516 (Simulation time: 00 hr 18 min 11 sec)
Heartbeat CPU 0 instructions: 200000002 cycles: 55139904 heartbeat IPC: 3.545 cumulative IPC: 3.518 (Simulation time: 00 hr 19 min 10 sec)
Heartbeat CPU 0 instructions: 210000000 cycles: 58032602 heartbeat IPC: 3.457 cumulative IPC: 3.514 (Simulation time: 00 hr 20 min 10 sec)
Heartbeat CPU 0 instructions: 220000001 cycles: 60784611 heartbeat IPC: 3.634 cumulative IPC: 3.521 (Simulation time: 00 hr 21 min 11 sec)
Heartbeat CPU 0 instructions: 230000002 cycles: 63673784 heartbeat IPC: 3.461 cumulative IPC: 3.517 (Simulation time: 00 hr 22 min 12 sec)
Heartbeat CPU 0 instructions: 240000004 cycles: 66624801 heartbeat IPC: 3.389 cumulative IPC: 3.51 (Simulation time: 00 hr 23 min 15 sec)
Heartbeat CPU 0 instructions: 250000003 cycles: 69515661 heartbeat IPC: 3.459 cumulative IPC: 3.508 (Simulation time: 00 hr 24 min 15 sec)
Heartbeat CPU 0 instructions: 260000001 cycles: 72300103 heartbeat IPC: 3.591 cumulative IPC: 3.512 (Simulation time: 00 hr 25 min 15 sec)
Heartbeat CPU 0 instructions: 270000002 cycles: 78059363 heartbeat IPC: 1.736 cumulative IPC: 3.356 (Simulation time: 00 hr 26 min 41 sec)
Heartbeat CPU 0 instructions: 280000000 cycles: 86681801 heartbeat IPC: 1.16 cumulative IPC: 3.1 (Simulation time: 00 hr 28 min 25 sec)
Heartbeat CPU 0 instructions: 290000000 cycles: 94589938 heartbeat IPC: 1.265 cumulative IPC: 2.924 (Simulation time: 00 hr 30 min 11 sec)
Heartbeat CPU 0 instructions: 300000003 cycles: 99894966 heartbeat IPC: 1.885 cumulative IPC: 2.861 (Simulation time: 00 hr 31 min 35 sec)
Heartbeat CPU 0 instructions: 310000001 cycles: 108248434 heartbeat IPC: 1.197 cumulative IPC: 2.715 (Simulation time: 00 hr 33 min 28 sec)
Heartbeat CPU 0 instructions: 320000004 cycles: 112118511 heartbeat IPC: 2.584 cumulative IPC: 2.71 (Simulation time: 00 hr 34 min 43 sec)
Heartbeat CPU 0 instructions: 330000000 cycles: 115274030 heartbeat IPC: 3.169 cumulative IPC: 2.724 (Simulation time: 00 hr 35 min 55 sec)
Heartbeat CPU 0 instructions: 340000001 cycles: 118424119 heartbeat IPC: 3.175 cumulative IPC: 2.738 (Simulation time: 00 hr 37 min 03 sec)
Heartbeat CPU 0 instructions: 350000000 cycles: 121636312 heartbeat IPC: 3.113 cumulative IPC: 2.749 (Simulation time: 00 hr 38 min 10 sec)
Heartbeat CPU 0 instructions: 360000004 cycles: 124571623 heartbeat IPC: 3.407 cumulative IPC: 2.766 (Simulation time: 00 hr 39 min 20 sec)
Heartbeat CPU 0 instructions: 370000001 cycles: 127434993 heartbeat IPC: 3.492 cumulative IPC: 2.784 (Simulation time: 00 hr 40 min 25 sec)
Heartbeat CPU 0 instructions: 380000004 cycles: 130297824 heartbeat IPC: 3.493 cumulative IPC: 2.801 (Simulation time: 00 hr 41 min 29 sec)
Heartbeat CPU 0 instructions: 390000002 cycles: 133174744 heartbeat IPC: 3.476 cumulative IPC: 2.817 (Simulation time: 00 hr 42 min 34 sec)
Heartbeat CPU 0 instructions: 400000000 cycles: 136091028 heartbeat IPC: 3.429 cumulative IPC: 2.832 (Simulation time: 00 hr 43 min 39 sec)
Heartbeat CPU 0 instructions: 410000000 cycles: 140690735 heartbeat IPC: 2.174 cumulative IPC: 2.808 (Simulation time: 00 hr 45 min 01 sec)
Heartbeat CPU 0 instructions: 420000003 cycles: 146285770 heartbeat IPC: 1.787 cumulative IPC: 2.766 (Simulation time: 00 hr 46 min 33 sec)
Heartbeat CPU 0 instructions: 430000000 cycles: 151654895 heartbeat IPC: 1.863 cumulative IPC: 2.731 (Simulation time: 00 hr 48 min 04 sec)
Heartbeat CPU 0 instructions: 440000004 cycles: 156832029 heartbeat IPC: 1.932 cumulative IPC: 2.702 (Simulation time: 00 hr 49 min 32 sec)
Heartbeat CPU 0 instructions: 450000003 cycles: 161795217 heartbeat IPC: 2.015 cumulative IPC: 2.679 (Simulation time: 00 hr 50 min 58 sec)
Heartbeat CPU 0 instructions: 460000002 cycles: 169823714 heartbeat IPC: 1.246 cumulative IPC: 2.606 (Simulation time: 00 hr 52 min 49 sec)
Heartbeat CPU 0 instructions: 470000003 cycles: 177021666 heartbeat IPC: 1.389 cumulative IPC: 2.553 (Simulation time: 00 hr 54 min 34 sec)
Heartbeat CPU 0 instructions: 480000000 cycles: 180393116 heartbeat IPC: 2.966 cumulative IPC: 2.561 (Simulation time: 00 hr 55 min 43 sec)
Heartbeat CPU 0 instructions: 490000001 cycles: 183839949 heartbeat IPC: 2.901 cumulative IPC: 2.568 (Simulation time: 00 hr 56 min 53 sec)
Heartbeat CPU 0 instructions: 500000002 cycles: 186969166 heartbeat IPC: 3.196 cumulative IPC: 2.579 (Simulation time: 00 hr 57 min 58 sec)
Heartbeat CPU 0 instructions: 510000000 cycles: 189962414 heartbeat IPC: 3.341 cumulative IPC: 2.592 (Simulation time: 00 hr 59 min 04 sec)
Heartbeat CPU 0 instructions: 520000000 cycles: 192912319 heartbeat IPC: 3.39 cumulative IPC: 2.605 (Simulation time: 01 hr 00 min 09 sec)
Heartbeat CPU 0 instructions: 530000001 cycles: 198865132 heartbeat IPC: 1.68 cumulative IPC: 2.576 (Simulation time: 01 hr 01 min 43 sec)
Heartbeat CPU 0 instructions: 540000000 cycles: 205543728 heartbeat IPC: 1.497 cumulative IPC: 2.538 (Simulation time: 01 hr 03 min 24 sec)
Heartbeat CPU 0 instructions: 550000004 cycles: 214549684 heartbeat IPC: 1.11 cumulative IPC: 2.475 (Simulation time: 01 hr 05 min 18 sec)
Heartbeat CPU 0 instructions: 560000004 cycles: 218138967 heartbeat IPC: 2.786 cumulative IPC: 2.48 (Simulation time: 01 hr 06 min 22 sec)
Heartbeat CPU 0 instructions: 570000002 cycles: 220961296 heartbeat IPC: 3.543 cumulative IPC: 2.494 (Simulation time: 01 hr 07 min 22 sec)
Heartbeat CPU 0 instructions: 580000000 cycles: 223886191 heartbeat IPC: 3.419 cumulative IPC: 2.507 (Simulation time: 01 hr 08 min 22 sec)
Heartbeat CPU 0 instructions: 590000001 cycles: 226808091 heartbeat IPC: 3.422 cumulative IPC: 2.52 (Simulation time: 01 hr 09 min 26 sec)
Heartbeat CPU 0 instructions: 600000003 cycles: 229500277 heartbeat IPC: 3.714 cumulative IPC: 2.535 (Simulation time: 01 hr 10 min 33 sec)
Heartbeat CPU 0 instructions: 610000001 cycles: 232364341 heartbeat IPC: 3.492 cumulative IPC: 2.547 (Simulation time: 01 hr 11 min 42 sec)
Heartbeat CPU 0 instructions: 620000004 cycles: 235314306 heartbeat IPC: 3.39 cumulative IPC: 2.558 (Simulation time: 01 hr 12 min 53 sec)
Heartbeat CPU 0 instructions: 630000002 cycles: 238124927 heartbeat IPC: 3.558 cumulative IPC: 2.571 (Simulation time: 01 hr 14 min 03 sec)
Heartbeat CPU 0 instructions: 640000004 cycles: 241174077 heartbeat IPC: 3.28 cumulative IPC: 2.58 (Simulation time: 01 hr 15 min 17 sec)
Heartbeat CPU 0 instructions: 650000001 cycles: 243884425 heartbeat IPC: 3.69 cumulative IPC: 2.593 (Simulation time: 01 hr 16 min 22 sec)
Simulation finished CPU 0 instructions: 600000001 cycles: 231384364 cumulative IPC: 2.593 (Simulation time: 01 hr 16 min 22 sec)
Simulation complete CPU 0 instructions: 600000001 cycles: 231384364 cumulative IPC: 2.593 (Simulation time: 01 hr 16 min 22 sec)

ChampSim completed all CPUs

=== Simulation ===
CPU 0 runs traces/400.perlbench-50B.champsimtrace.xz
Region of Interest Statistics

CPU 0 cumulative IPC: 2.593 instructions: 600000001 cycles: 231384364
CPU 0 Branch Prediction Accuracy: 99.01% MPKI: 2.04 Average ROB Occupancy at Mispredict: 94.68
Branch type MPKI
BRANCH_DIRECT_JUMP: 0.0176
BRANCH_INDIRECT: 0.38
BRANCH_CONDITIONAL: 1.19
BRANCH_DIRECT_CALL: 0.0067
BRANCH_INDIRECT_CALL: 0.431
BRANCH_RETURN: 0.0161

LLC TOTAL        ACCESS:     771285 HIT:     548540 MISS:     222745
LLC LOAD         ACCESS:     575978 HIT:     393053 MISS:     182925
LLC RFO          ACCESS:      47022 HIT:      29800 MISS:      17222
LLC PREFETCH     ACCESS:          0 HIT:          0 MISS:          0
LLC WRITE        ACCESS:     126307 HIT:     116848 MISS:       9459
LLC TRANSLATION  ACCESS:      21978 HIT:       8839 MISS:      13139
LLC PREFETCH REQUESTED:          0 ISSUED:          0 USEFUL:          0 USELESS:          0
LLC AVERAGE MISS LATENCY: 546.3 cycles
cpu0_DTLB TOTAL        ACCESS:  133200304 HIT:  131844272 MISS:    1356032
cpu0_DTLB LOAD         ACCESS:  133200304 HIT:  131844272 MISS:    1356032
cpu0_DTLB RFO          ACCESS:          0 HIT:          0 MISS:          0
cpu0_DTLB PREFETCH     ACCESS:          0 HIT:          0 MISS:          0
cpu0_DTLB WRITE        ACCESS:          0 HIT:          0 MISS:          0
cpu0_DTLB TRANSLATION  ACCESS:          0 HIT:          0 MISS:          0
cpu0_DTLB PREFETCH REQUESTED:          0 ISSUED:          0 USEFUL:          0 USELESS:          0
cpu0_DTLB AVERAGE MISS LATENCY: 11.65 cycles
cpu0_ITLB TOTAL        ACCESS:    8992742 HIT:    8783378 MISS:     209364
cpu0_ITLB LOAD         ACCESS:    8992742 HIT:    8783378 MISS:     209364
cpu0_ITLB RFO          ACCESS:          0 HIT:          0 MISS:          0
cpu0_ITLB PREFETCH     ACCESS:          0 HIT:          0 MISS:          0
cpu0_ITLB WRITE        ACCESS:          0 HIT:          0 MISS:          0
cpu0_ITLB TRANSLATION  ACCESS:          0 HIT:          0 MISS:          0
cpu0_ITLB PREFETCH REQUESTED:          0 ISSUED:          0 USEFUL:          0 USELESS:          0
cpu0_ITLB AVERAGE MISS LATENCY: 2.982 cycles
cpu0_L1D TOTAL        ACCESS:  178242542 HIT:  174468609 MISS:    3773933
cpu0_L1D LOAD         ACCESS:   92723758 HIT:   89625650 MISS:    3098108
cpu0_L1D RFO          ACCESS:          0 HIT:          0 MISS:          0
cpu0_L1D PREFETCH     ACCESS:          0 HIT:          0 MISS:          0
cpu0_L1D WRITE        ACCESS:   85490262 HIT:   84841549 MISS:     648713
cpu0_L1D TRANSLATION  ACCESS:      28522 HIT:       1410 MISS:      27112
cpu0_L1D PREFETCH REQUESTED:          0 ISSUED:          0 USEFUL:          0 USELESS:          0
cpu0_L1D AVERAGE MISS LATENCY: 36.3 cycles
cpu0_L1I TOTAL        ACCESS:   10512754 HIT:    8614369 MISS:    1898385
cpu0_L1I LOAD         ACCESS:   10512754 HIT:    8614369 MISS:    1898385
cpu0_L1I RFO          ACCESS:          0 HIT:          0 MISS:          0
cpu0_L1I PREFETCH     ACCESS:          0 HIT:          0 MISS:          0
cpu0_L1I WRITE        ACCESS:          0 HIT:          0 MISS:          0
cpu0_L1I TRANSLATION  ACCESS:          0 HIT:          0 MISS:          0
cpu0_L1I PREFETCH REQUESTED:          0 ISSUED:          0 USEFUL:          0 USELESS:          0
cpu0_L1I AVERAGE MISS LATENCY: 10.07 cycles
cpu0_L2C TOTAL        ACCESS:    3840221 HIT:    3192082 MISS:     648139
cpu0_L2C LOAD         ACCESS:    3103830 HIT:    2527852 MISS:     575978
cpu0_L2C RFO          ACCESS:     194862 HIT:     147840 MISS:      47022
cpu0_L2C PREFETCH     ACCESS:          0 HIT:          0 MISS:          0
cpu0_L2C WRITE        ACCESS:     514499 HIT:     511338 MISS:       3161
cpu0_L2C TRANSLATION  ACCESS:      27030 HIT:       5052 MISS:      21978
cpu0_L2C PREFETCH REQUESTED:          0 ISSUED:          0 USEFUL:          0 USELESS:          0
cpu0_L2C AVERAGE MISS LATENCY: 208 cycles
cpu0_STLB TOTAL        ACCESS:    1010054 HIT:     983366 MISS:      26688
cpu0_STLB LOAD         ACCESS:    1010054 HIT:     983366 MISS:      26688
cpu0_STLB RFO          ACCESS:          0 HIT:          0 MISS:          0
cpu0_STLB PREFETCH     ACCESS:          0 HIT:          0 MISS:          0
cpu0_STLB WRITE        ACCESS:          0 HIT:          0 MISS:          0
cpu0_STLB TRANSLATION  ACCESS:          0 HIT:          0 MISS:          0
cpu0_STLB PREFETCH REQUESTED:          0 ISSUED:          0 USEFUL:          0 USELESS:          0
cpu0_STLB AVERAGE MISS LATENCY: 389 cycles

DRAM Statistics

Channel 0 RQ ROW_BUFFER_HIT:      40884
  ROW_BUFFER_MISS:     172332
 AVG DBUS CONGESTED CYCLE: 3.811
WQ ROW_BUFFER_HIT: Channel 0 
  ROW_BUFFER_MISS:       6054
  FULL:      24644
