WARNING: physical memory size is smaller than virtual memory size.

*** ChampSim Multicore Out-of-Order Simulator ***
Warmup Instructions: 50000000
Simulation Instructions: 600000000
Number of CPUs: 1
Page size: 4096

CPU 0 Tage branch predictor
Off-chip DRAM Size: 4 GiB Channels: 1 Width: 64-bit Data Race: 3200 MT/s
Heartbeat CPU 0 instructions: 10000001 cycles: 2500318 heartbeat IPC: 3.999 cumulative IPC: 3.999 (Simulation time: 00 hr 04 min 27 sec)
Heartbeat CPU 0 instructions: 20000002 cycles: 5037133 heartbeat IPC: 3.942 cumulative IPC: 3.971 (Simulation time: 00 hr 09 min 02 sec)
Heartbeat CPU 0 instructions: 30000002 cycles: 7537133 heartbeat IPC: 4 cumulative IPC: 3.98 (Simulation time: 00 hr 13 min 00 sec)
Heartbeat CPU 0 instructions: 40000002 cycles: 10037133 heartbeat IPC: 4 cumulative IPC: 3.985 (Simulation time: 00 hr 17 min 16 sec)
Heartbeat CPU 0 instructions: 50000002 cycles: 12537133 heartbeat IPC: 4 cumulative IPC: 3.988 (Simulation time: 00 hr 21 min 28 sec)
Warmup finished CPU 0 instructions: 50000002 cycles: 12537134 cumulative IPC: 3.988 (Simulation time: 00 hr 21 min 28 sec)
Warmup complete CPU 0 instructions: 50000002 cycles: 12537134 cumulative IPC: 3.988 (Simulation time: 00 hr 21 min 28 sec)
Heartbeat CPU 0 instructions: 60000001 cycles: 15508969 heartbeat IPC: 3.365 cumulative IPC: 3.365 (Simulation time: 00 hr 26 min 20 sec)
Heartbeat CPU 0 instructions: 70000004 cycles: 18582598 heartbeat IPC: 3.253 cumulative IPC: 3.308 (Simulation time: 00 hr 31 min 17 sec)
Heartbeat CPU 0 instructions: 80000001 cycles: 21628770 heartbeat IPC: 3.283 cumulative IPC: 3.3 (Simulation time: 00 hr 36 min 03 sec)
Heartbeat CPU 0 instructions: 90000001 cycles: 24575536 heartbeat IPC: 3.394 cumulative IPC: 3.323 (Simulation time: 00 hr 40 min 36 sec)
Heartbeat CPU 0 instructions: 100000000 cycles: 27486085 heartbeat IPC: 3.436 cumulative IPC: 3.345 (Simulation time: 00 hr 44 min 58 sec)
Heartbeat CPU 0 instructions: 110000000 cycles: 30432069 heartbeat IPC: 3.394 cumulative IPC: 3.353 (Simulation time: 00 hr 49 min 16 sec)
Heartbeat CPU 0 instructions: 120000001 cycles: 33409554 heartbeat IPC: 3.359 cumulative IPC: 3.354 (Simulation time: 00 hr 53 min 24 sec)
Heartbeat CPU 0 instructions: 130000001 cycles: 36272775 heartbeat IPC: 3.493 cumulative IPC: 3.37 (Simulation time: 00 hr 57 min 21 sec)
Heartbeat CPU 0 instructions: 140000001 cycles: 39324661 heartbeat IPC: 3.277 cumulative IPC: 3.36 (Simulation time: 01 hr 01 min 19 sec)
Heartbeat CPU 0 instructions: 150000001 cycles: 42341933 heartbeat IPC: 3.314 cumulative IPC: 3.355 (Simulation time: 01 hr 05 min 08 sec)
Heartbeat CPU 0 instructions: 160000004 cycles: 45363203 heartbeat IPC: 3.31 cumulative IPC: 3.351 (Simulation time: 01 hr 08 min 57 sec)
Heartbeat CPU 0 instructions: 170000000 cycles: 51773059 heartbeat IPC: 1.56 cumulative IPC: 3.058 (Simulation time: 01 hr 14 min 35 sec)
Heartbeat CPU 0 instructions: 180000004 cycles: 56759125 heartbeat IPC: 2.006 cumulative IPC: 2.94 (Simulation time: 01 hr 19 min 39 sec)
Heartbeat CPU 0 instructions: 190000001 cycles: 62101281 heartbeat IPC: 1.872 cumulative IPC: 2.825 (Simulation time: 01 hr 24 min 49 sec)
Heartbeat CPU 0 instructions: 200000004 cycles: 64966027 heartbeat IPC: 3.491 cumulative IPC: 2.861 (Simulation time: 01 hr 28 min 32 sec)
Heartbeat CPU 0 instructions: 210000001 cycles: 67844206 heartbeat IPC: 3.474 cumulative IPC: 2.893 (Simulation time: 01 hr 32 min 16 sec)
Heartbeat CPU 0 instructions: 220000000 cycles: 70695000 heartbeat IPC: 3.508 cumulative IPC: 2.923 (Simulation time: 01 hr 36 min 01 sec)
Heartbeat CPU 0 instructions: 230000002 cycles: 73604614 heartbeat IPC: 3.437 cumulative IPC: 2.948 (Simulation time: 01 hr 39 min 46 sec)
Heartbeat CPU 0 instructions: 240000003 cycles: 76573965 heartbeat IPC: 3.368 cumulative IPC: 2.967 (Simulation time: 01 hr 43 min 52 sec)
Heartbeat CPU 0 instructions: 250000000 cycles: 79533084 heartbeat IPC: 3.379 cumulative IPC: 2.985 (Simulation time: 01 hr 48 min 03 sec)
Heartbeat CPU 0 instructions: 260000002 cycles: 82447290 heartbeat IPC: 3.431 cumulative IPC: 3.004 (Simulation time: 01 hr 52 min 12 sec)
Heartbeat CPU 0 instructions: 270000002 cycles: 85316803 heartbeat IPC: 3.485 cumulative IPC: 3.023 (Simulation time: 01 hr 56 min 22 sec)
Heartbeat CPU 0 instructions: 280000002 cycles: 88180758 heartbeat IPC: 3.492 cumulative IPC: 3.041 (Simulation time: 02 hr 00 min 28 sec)
Heartbeat CPU 0 instructions: 290000002 cycles: 91120361 heartbeat IPC: 3.402 cumulative IPC: 3.054 (Simulation time: 02 hr 04 min 35 sec)
Heartbeat CPU 0 instructions: 300000003 cycles: 93996043 heartbeat IPC: 3.477 cumulative IPC: 3.069 (Simulation time: 02 hr 08 min 45 sec)
Heartbeat CPU 0 instructions: 310000001 cycles: 96996151 heartbeat IPC: 3.333 cumulative IPC: 3.078 (Simulation time: 02 hr 12 min 55 sec)
Heartbeat CPU 0 instructions: 320000003 cycles: 99995544 heartbeat IPC: 3.334 cumulative IPC: 3.087 (Simulation time: 02 hr 17 min 05 sec)
Heartbeat CPU 0 instructions: 330000003 cycles: 102967881 heartbeat IPC: 3.364 cumulative IPC: 3.096 (Simulation time: 02 hr 21 min 15 sec)
Heartbeat CPU 0 instructions: 340000000 cycles: 109624084 heartbeat IPC: 1.502 cumulative IPC: 2.987 (Simulation time: 02 hr 27 min 35 sec)
Heartbeat CPU 0 instructions: 350000000 cycles: 114895004 heartbeat IPC: 1.897 cumulative IPC: 2.931 (Simulation time: 02 hr 33 min 15 sec)
Heartbeat CPU 0 instructions: 360000004 cycles: 120775176 heartbeat IPC: 1.701 cumulative IPC: 2.864 (Simulation time: 02 hr 39 min 11 sec)
Heartbeat CPU 0 instructions: 370000000 cycles: 123665204 heartbeat IPC: 3.46 cumulative IPC: 2.88 (Simulation time: 02 hr 43 min 21 sec)
Heartbeat CPU 0 instructions: 380000003 cycles: 126509066 heartbeat IPC: 3.516 cumulative IPC: 2.895 (Simulation time: 02 hr 47 min 27 sec)
Heartbeat CPU 0 instructions: 390000002 cycles: 129436110 heartbeat IPC: 3.416 cumulative IPC: 2.908 (Simulation time: 02 hr 51 min 33 sec)
Heartbeat CPU 0 instructions: 400000004 cycles: 132307572 heartbeat IPC: 3.483 cumulative IPC: 2.922 (Simulation time: 02 hr 55 min 45 sec)
Heartbeat CPU 0 instructions: 410000002 cycles: 135186497 heartbeat IPC: 3.474 cumulative IPC: 2.935 (Simulation time: 02 hr 59 min 41 sec)
Heartbeat CPU 0 instructions: 420000003 cycles: 138224284 heartbeat IPC: 3.292 cumulative IPC: 2.944 (Simulation time: 03 hr 03 min 45 sec)
Heartbeat CPU 0 instructions: 430000001 cycles: 141199494 heartbeat IPC: 3.361 cumulative IPC: 2.953 (Simulation time: 03 hr 07 min 46 sec)
Heartbeat CPU 0 instructions: 440000004 cycles: 144281024 heartbeat IPC: 3.245 cumulative IPC: 2.96 (Simulation time: 03 hr 11 min 48 sec)
Heartbeat CPU 0 instructions: 450000002 cycles: 147164617 heartbeat IPC: 3.468 cumulative IPC: 2.971 (Simulation time: 03 hr 15 min 26 sec)
Heartbeat CPU 0 instructions: 460000000 cycles: 150067849 heartbeat IPC: 3.444 cumulative IPC: 2.981 (Simulation time: 03 hr 18 min 57 sec)
Heartbeat CPU 0 instructions: 470000001 cycles: 152893732 heartbeat IPC: 3.539 cumulative IPC: 2.992 (Simulation time: 03 hr 22 min 28 sec)
Heartbeat CPU 0 instructions: 480000003 cycles: 155942694 heartbeat IPC: 3.28 cumulative IPC: 2.998 (Simulation time: 03 hr 26 min 06 sec)
Heartbeat CPU 0 instructions: 490000004 cycles: 158762744 heartbeat IPC: 3.546 cumulative IPC: 3.009 (Simulation time: 03 hr 29 min 38 sec)
Heartbeat CPU 0 instructions: 500000004 cycles: 161736883 heartbeat IPC: 3.362 cumulative IPC: 3.016 (Simulation time: 03 hr 33 min 14 sec)
Heartbeat CPU 0 instructions: 510000003 cycles: 164785275 heartbeat IPC: 3.28 cumulative IPC: 3.021 (Simulation time: 03 hr 36 min 52 sec)
Heartbeat CPU 0 instructions: 520000001 cycles: 167659526 heartbeat IPC: 3.479 cumulative IPC: 3.03 (Simulation time: 03 hr 40 min 26 sec)
Heartbeat CPU 0 instructions: 530000001 cycles: 170673399 heartbeat IPC: 3.318 cumulative IPC: 3.035 (Simulation time: 03 hr 44 min 03 sec)
Heartbeat CPU 0 instructions: 540000000 cycles: 173616698 heartbeat IPC: 3.398 cumulative IPC: 3.042 (Simulation time: 03 hr 47 min 41 sec)
Heartbeat CPU 0 instructions: 550000001 cycles: 176597194 heartbeat IPC: 3.355 cumulative IPC: 3.048 (Simulation time: 03 hr 51 min 18 sec)
Heartbeat CPU 0 instructions: 560000000 cycles: 179709017 heartbeat IPC: 3.214 cumulative IPC: 3.051 (Simulation time: 03 hr 54 min 59 sec)
Heartbeat CPU 0 instructions: 570000004 cycles: 185047374 heartbeat IPC: 1.873 cumulative IPC: 3.014 (Simulation time: 03 hr 59 min 47 sec)
Heartbeat CPU 0 instructions: 580000003 cycles: 190810661 heartbeat IPC: 1.735 cumulative IPC: 2.973 (Simulation time: 04 hr 05 min 02 sec)
Heartbeat CPU 0 instructions: 590000002 cycles: 197505509 heartbeat IPC: 1.494 cumulative IPC: 2.919 (Simulation time: 04 hr 10 min 45 sec)
Heartbeat CPU 0 instructions: 600000004 cycles: 200484148 heartbeat IPC: 3.357 cumulative IPC: 2.926 (Simulation time: 04 hr 14 min 17 sec)
Heartbeat CPU 0 instructions: 610000002 cycles: 203390522 heartbeat IPC: 3.441 cumulative IPC: 2.934 (Simulation time: 04 hr 17 min 40 sec)
Heartbeat CPU 0 instructions: 620000001 cycles: 206123384 heartbeat IPC: 3.659 cumulative IPC: 2.944 (Simulation time: 04 hr 20 min 57 sec)
Heartbeat CPU 0 instructions: 630000002 cycles: 209034055 heartbeat IPC: 3.436 cumulative IPC: 2.952 (Simulation time: 04 hr 24 min 16 sec)
Heartbeat CPU 0 instructions: 640000004 cycles: 211959421 heartbeat IPC: 3.418 cumulative IPC: 2.959 (Simulation time: 04 hr 27 min 33 sec)
Heartbeat CPU 0 instructions: 650000000 cycles: 214687066 heartbeat IPC: 3.666 cumulative IPC: 2.968 (Simulation time: 04 hr 30 min 24 sec)
Simulation finished CPU 0 instructions: 600000001 cycles: 202149934 cumulative IPC: 2.968 (Simulation time: 04 hr 30 min 24 sec)
Simulation complete CPU 0 instructions: 600000001 cycles: 202149934 cumulative IPC: 2.968 (Simulation time: 04 hr 30 min 24 sec)

ChampSim completed all CPUs

=== Simulation ===
CPU 0 runs traces/400.perlbench-41B.champsimtrace.xz
Region of Interest Statistics

CPU 0 cumulative IPC: 2.968 instructions: 600000001 cycles: 202149934
CPU 0 Branch Prediction Accuracy: 99.19% MPKI: 1.684 Average ROB Occupancy at Mispredict: 101.4
Branch type MPKI
BRANCH_DIRECT_JUMP: 0.0123
BRANCH_INDIRECT: 0.323
BRANCH_CONDITIONAL: 1.14
BRANCH_DIRECT_CALL: 0.0043
BRANCH_INDIRECT_CALL: 0.2
BRANCH_RETURN: 0.00828

LLC TOTAL        ACCESS:     541018 HIT:     407316 MISS:     133702
LLC LOAD         ACCESS:     403908 HIT:     298922 MISS:     104986
LLC RFO          ACCESS:      32514 HIT:      23921 MISS:       8593
LLC PREFETCH     ACCESS:          0 HIT:          0 MISS:          0
LLC WRITE        ACCESS:      85452 HIT:      76482 MISS:       8970
LLC TRANSLATION  ACCESS:      19144 HIT:       7991 MISS:      11153
LLC PREFETCH REQUESTED:          0 ISSUED:          0 USEFUL:          0 USELESS:          0
LLC AVERAGE MISS LATENCY: 544.8 cycles
cpu0_DTLB TOTAL        ACCESS:  129758286 HIT:  129054355 MISS:     703931
cpu0_DTLB LOAD         ACCESS:  129758286 HIT:  129054355 MISS:     703931
cpu0_DTLB RFO          ACCESS:          0 HIT:          0 MISS:          0
cpu0_DTLB PREFETCH     ACCESS:          0 HIT:          0 MISS:          0
cpu0_DTLB WRITE        ACCESS:          0 HIT:          0 MISS:          0
cpu0_DTLB TRANSLATION  ACCESS:          0 HIT:          0 MISS:          0
cpu0_DTLB PREFETCH REQUESTED:          0 ISSUED:          0 USEFUL:          0 USELESS:          0
cpu0_DTLB AVERAGE MISS LATENCY: 14.35 cycles
cpu0_ITLB TOTAL        ACCESS:    4872698 HIT:    4810621 MISS:      62077
cpu0_ITLB LOAD         ACCESS:    4872698 HIT:    4810621 MISS:      62077
cpu0_ITLB RFO          ACCESS:          0 HIT:          0 MISS:          0
cpu0_ITLB PREFETCH     ACCESS:          0 HIT:          0 MISS:          0
cpu0_ITLB WRITE        ACCESS:          0 HIT:          0 MISS:          0
cpu0_ITLB TRANSLATION  ACCESS:          0 HIT:          0 MISS:          0
cpu0_ITLB PREFETCH REQUESTED:          0 ISSUED:          0 USEFUL:          0 USELESS:          0
cpu0_ITLB AVERAGE MISS LATENCY: 5.084 cycles
cpu0_L1D TOTAL        ACCESS:  174367227 HIT:  172622485 MISS:    1744742
cpu0_L1D LOAD         ACCESS:   91344658 HIT:   89985483 MISS:    1359175
cpu0_L1D RFO          ACCESS:          0 HIT:          0 MISS:          0
cpu0_L1D PREFETCH     ACCESS:          0 HIT:          0 MISS:          0
cpu0_L1D WRITE        ACCESS:   82998102 HIT:   82635944 MISS:     362158
cpu0_L1D TRANSLATION  ACCESS:      24467 HIT:       1058 MISS:      23409
cpu0_L1D PREFETCH REQUESTED:          0 ISSUED:          0 USEFUL:          0 USELESS:          0
cpu0_L1D AVERAGE MISS LATENCY: 45.2 cycles
cpu0_L1I TOTAL        ACCESS:    5651818 HIT:    4847651 MISS:     804167
cpu0_L1I LOAD         ACCESS:    5651818 HIT:    4847651 MISS:     804167
cpu0_L1I RFO          ACCESS:          0 HIT:          0 MISS:          0
cpu0_L1I PREFETCH     ACCESS:          0 HIT:          0 MISS:          0
cpu0_L1I WRITE        ACCESS:          0 HIT:          0 MISS:          0
cpu0_L1I TRANSLATION  ACCESS:          0 HIT:          0 MISS:          0
cpu0_L1I PREFETCH REQUESTED:          0 ISSUED:          0 USEFUL:          0 USELESS:          0
cpu0_L1I AVERAGE MISS LATENCY: 12.96 cycles
cpu0_L2C TOTAL        ACCESS:    1668300 HIT:    1210882 MISS:     457418
cpu0_L2C LOAD         ACCESS:    1315349 HIT:     911440 MISS:     403909
cpu0_L2C RFO          ACCESS:      89584 HIT:      57069 MISS:      32515
cpu0_L2C PREFETCH     ACCESS:          0 HIT:          0 MISS:          0
cpu0_L2C WRITE        ACCESS:     240042 HIT:     238192 MISS:       1850
cpu0_L2C TRANSLATION  ACCESS:      23325 HIT:       4181 MISS:      19144
cpu0_L2C PREFETCH REQUESTED:          0 ISSUED:          0 USEFUL:          0 USELESS:          0
cpu0_L2C AVERAGE MISS LATENCY: 179.5 cycles
cpu0_STLB TOTAL        ACCESS:     508686 HIT:     485899 MISS:      22787
cpu0_STLB LOAD         ACCESS:     508686 HIT:     485899 MISS:      22787
cpu0_STLB RFO          ACCESS:          0 HIT:          0 MISS:          0
cpu0_STLB PREFETCH     ACCESS:          0 HIT:          0 MISS:          0
cpu0_STLB WRITE        ACCESS:          0 HIT:          0 MISS:          0
cpu0_STLB TRANSLATION  ACCESS:          0 HIT:          0 MISS:          0
cpu0_STLB PREFETCH REQUESTED:          0 ISSUED:          0 USEFUL:          0 USELESS:          0
cpu0_STLB AVERAGE MISS LATENCY: 330.9 cycles

DRAM Statistics

Channel 0 RQ ROW_BUFFER_HIT:      21316
  ROW_BUFFER_MISS:     103386
 AVG DBUS CONGESTED CYCLE: 3.798
WQ ROW_BUFFER_HIT: Channel 0 
  ROW_BUFFER_MISS:       5331
  FULL:      13353
