WARNING: physical memory size is smaller than virtual memory size.

*** ChampSim Multicore Out-of-Order Simulator ***
Warmup Instructions: 50000000
Simulation Instructions: 600000000
Number of CPUs: 1
Page size: 4096

CPU 0 Tage branch predictor
Off-chip DRAM Size: 4 GiB Channels: 1 Width: 64-bit Data Race: 3200 MT/s
Heartbeat CPU 0 instructions: 10000000 cycles: 2500061 heartbeat IPC: 4 cumulative IPC: 4 (Simulation time: 00 hr 00 min 55 sec)
Heartbeat CPU 0 instructions: 20000000 cycles: 5000061 heartbeat IPC: 4 cumulative IPC: 4 (Simulation time: 00 hr 01 min 45 sec)
Heartbeat CPU 0 instructions: 30000000 cycles: 7500061 heartbeat IPC: 4 cumulative IPC: 4 (Simulation time: 00 hr 02 min 36 sec)
Heartbeat CPU 0 instructions: 40000000 cycles: 10000061 heartbeat IPC: 4 cumulative IPC: 4 (Simulation time: 00 hr 03 min 30 sec)
Heartbeat CPU 0 instructions: 50000000 cycles: 12500061 heartbeat IPC: 4 cumulative IPC: 4 (Simulation time: 00 hr 04 min 23 sec)
Warmup finished CPU 0 instructions: 50000000 cycles: 12500062 cumulative IPC: 4 (Simulation time: 00 hr 04 min 23 sec)
Warmup complete CPU 0 instructions: 50000000 cycles: 12500062 cumulative IPC: 4 (Simulation time: 00 hr 04 min 23 sec)
Heartbeat CPU 0 instructions: 60000004 cycles: 15504574 heartbeat IPC: 3.328 cumulative IPC: 3.328 (Simulation time: 00 hr 05 min 28 sec)
Heartbeat CPU 0 instructions: 70000003 cycles: 18375027 heartbeat IPC: 3.484 cumulative IPC: 3.404 (Simulation time: 00 hr 06 min 32 sec)
Heartbeat CPU 0 instructions: 80000002 cycles: 21385455 heartbeat IPC: 3.322 cumulative IPC: 3.376 (Simulation time: 00 hr 07 min 36 sec)
Heartbeat CPU 0 instructions: 90000000 cycles: 24106445 heartbeat IPC: 3.675 cumulative IPC: 3.446 (Simulation time: 00 hr 08 min 39 sec)
Heartbeat CPU 0 instructions: 100000003 cycles: 26861573 heartbeat IPC: 3.63 cumulative IPC: 3.482 (Simulation time: 00 hr 09 min 48 sec)
Heartbeat CPU 0 instructions: 110000001 cycles: 29760716 heartbeat IPC: 3.449 cumulative IPC: 3.476 (Simulation time: 00 hr 10 min 54 sec)
Heartbeat CPU 0 instructions: 120000001 cycles: 32476957 heartbeat IPC: 3.682 cumulative IPC: 3.504 (Simulation time: 00 hr 11 min 59 sec)
Heartbeat CPU 0 instructions: 130000003 cycles: 35373828 heartbeat IPC: 3.452 cumulative IPC: 3.497 (Simulation time: 00 hr 13 min 03 sec)
Heartbeat CPU 0 instructions: 140000002 cycles: 38209923 heartbeat IPC: 3.526 cumulative IPC: 3.501 (Simulation time: 00 hr 14 min 06 sec)
Heartbeat CPU 0 instructions: 150000001 cycles: 40979169 heartbeat IPC: 3.611 cumulative IPC: 3.511 (Simulation time: 00 hr 15 min 14 sec)
Heartbeat CPU 0 instructions: 160000000 cycles: 43896422 heartbeat IPC: 3.428 cumulative IPC: 3.504 (Simulation time: 00 hr 16 min 18 sec)
Heartbeat CPU 0 instructions: 170000001 cycles: 46819705 heartbeat IPC: 3.421 cumulative IPC: 3.497 (Simulation time: 00 hr 17 min 23 sec)
Heartbeat CPU 0 instructions: 180000000 cycles: 49612091 heartbeat IPC: 3.581 cumulative IPC: 3.503 (Simulation time: 00 hr 18 min 29 sec)
Heartbeat CPU 0 instructions: 190000002 cycles: 52318430 heartbeat IPC: 3.695 cumulative IPC: 3.516 (Simulation time: 00 hr 19 min 33 sec)
Heartbeat CPU 0 instructions: 200000002 cycles: 55141199 heartbeat IPC: 3.543 cumulative IPC: 3.518 (Simulation time: 00 hr 20 min 40 sec)
Heartbeat CPU 0 instructions: 210000000 cycles: 58032005 heartbeat IPC: 3.459 cumulative IPC: 3.514 (Simulation time: 00 hr 21 min 41 sec)
Heartbeat CPU 0 instructions: 220000001 cycles: 60781438 heartbeat IPC: 3.637 cumulative IPC: 3.521 (Simulation time: 00 hr 22 min 43 sec)
Heartbeat CPU 0 instructions: 230000002 cycles: 63668564 heartbeat IPC: 3.464 cumulative IPC: 3.518 (Simulation time: 00 hr 23 min 50 sec)
Heartbeat CPU 0 instructions: 240000004 cycles: 66619176 heartbeat IPC: 3.389 cumulative IPC: 3.511 (Simulation time: 00 hr 24 min 52 sec)
Heartbeat CPU 0 instructions: 250000003 cycles: 69509596 heartbeat IPC: 3.46 cumulative IPC: 3.508 (Simulation time: 00 hr 25 min 55 sec)
Heartbeat CPU 0 instructions: 260000001 cycles: 72292418 heartbeat IPC: 3.593 cumulative IPC: 3.512 (Simulation time: 00 hr 27 min 01 sec)
Heartbeat CPU 0 instructions: 270000002 cycles: 78010768 heartbeat IPC: 1.749 cumulative IPC: 3.358 (Simulation time: 00 hr 28 min 27 sec)
Heartbeat CPU 0 instructions: 280000000 cycles: 86497492 heartbeat IPC: 1.178 cumulative IPC: 3.108 (Simulation time: 00 hr 30 min 17 sec)
Heartbeat CPU 0 instructions: 290000000 cycles: 93577048 heartbeat IPC: 1.413 cumulative IPC: 2.96 (Simulation time: 00 hr 31 min 55 sec)
Heartbeat CPU 0 instructions: 300000003 cycles: 98603509 heartbeat IPC: 1.989 cumulative IPC: 2.903 (Simulation time: 00 hr 33 min 20 sec)
Heartbeat CPU 0 instructions: 310000001 cycles: 105921693 heartbeat IPC: 1.366 cumulative IPC: 2.783 (Simulation time: 00 hr 35 min 01 sec)
Heartbeat CPU 0 instructions: 320000004 cycles: 109580922 heartbeat IPC: 2.733 cumulative IPC: 2.781 (Simulation time: 00 hr 36 min 16 sec)
Heartbeat CPU 0 instructions: 330000000 cycles: 112728954 heartbeat IPC: 3.177 cumulative IPC: 2.794 (Simulation time: 00 hr 37 min 24 sec)
Heartbeat CPU 0 instructions: 340000001 cycles: 115879560 heartbeat IPC: 3.174 cumulative IPC: 2.805 (Simulation time: 00 hr 38 min 27 sec)
Heartbeat CPU 0 instructions: 350000000 cycles: 119214857 heartbeat IPC: 2.998 cumulative IPC: 2.811 (Simulation time: 00 hr 39 min 34 sec)
Heartbeat CPU 0 instructions: 360000004 cycles: 122342962 heartbeat IPC: 3.197 cumulative IPC: 2.822 (Simulation time: 00 hr 40 min 41 sec)
Heartbeat CPU 0 instructions: 370000001 cycles: 125424787 heartbeat IPC: 3.245 cumulative IPC: 2.834 (Simulation time: 00 hr 41 min 47 sec)
Heartbeat CPU 0 instructions: 380000004 cycles: 128519076 heartbeat IPC: 3.232 cumulative IPC: 2.844 (Simulation time: 00 hr 42 min 55 sec)
Heartbeat CPU 0 instructions: 390000002 cycles: 131734055 heartbeat IPC: 3.11 cumulative IPC: 2.852 (Simulation time: 00 hr 44 min 04 sec)
Heartbeat CPU 0 instructions: 400000000 cycles: 134997934 heartbeat IPC: 3.064 cumulative IPC: 2.857 (Simulation time: 00 hr 45 min 10 sec)
Heartbeat CPU 0 instructions: 410000000 cycles: 140768195 heartbeat IPC: 1.733 cumulative IPC: 2.807 (Simulation time: 00 hr 46 min 36 sec)
Heartbeat CPU 0 instructions: 420000003 cycles: 149123391 heartbeat IPC: 1.197 cumulative IPC: 2.708 (Simulation time: 00 hr 48 min 27 sec)
Heartbeat CPU 0 instructions: 430000000 cycles: 154337283 heartbeat IPC: 1.918 cumulative IPC: 2.679 (Simulation time: 00 hr 49 min 54 sec)
Heartbeat CPU 0 instructions: 440000004 cycles: 158950964 heartbeat IPC: 2.167 cumulative IPC: 2.663 (Simulation time: 00 hr 51 min 16 sec)
Heartbeat CPU 0 instructions: 450000001 cycles: 163605264 heartbeat IPC: 2.149 cumulative IPC: 2.647 (Simulation time: 00 hr 52 min 38 sec)
Heartbeat CPU 0 instructions: 460000002 cycles: 170679404 heartbeat IPC: 1.414 cumulative IPC: 2.592 (Simulation time: 00 hr 54 min 21 sec)
Heartbeat CPU 0 instructions: 470000003 cycles: 177321476 heartbeat IPC: 1.506 cumulative IPC: 2.548 (Simulation time: 00 hr 56 min 00 sec)
Heartbeat CPU 0 instructions: 480000000 cycles: 180688024 heartbeat IPC: 2.97 cumulative IPC: 2.557 (Simulation time: 00 hr 57 min 08 sec)
Heartbeat CPU 0 instructions: 490000001 cycles: 184294559 heartbeat IPC: 2.773 cumulative IPC: 2.561 (Simulation time: 00 hr 58 min 19 sec)
Heartbeat CPU 0 instructions: 500000002 cycles: 187733500 heartbeat IPC: 2.908 cumulative IPC: 2.568 (Simulation time: 00 hr 59 min 29 sec)
Heartbeat CPU 0 instructions: 510000000 cycles: 191165815 heartbeat IPC: 2.913 cumulative IPC: 2.575 (Simulation time: 01 hr 00 min 40 sec)
Heartbeat CPU 0 instructions: 520000000 cycles: 194616878 heartbeat IPC: 2.898 cumulative IPC: 2.581 (Simulation time: 01 hr 01 min 50 sec)
Heartbeat CPU 0 instructions: 530000001 cycles: 203199016 heartbeat IPC: 1.165 cumulative IPC: 2.517 (Simulation time: 01 hr 03 min 40 sec)
Heartbeat CPU 0 instructions: 540000000 cycles: 211206857 heartbeat IPC: 1.249 cumulative IPC: 2.466 (Simulation time: 01 hr 05 min 29 sec)
Heartbeat CPU 0 instructions: 550000004 cycles: 220414959 heartbeat IPC: 1.086 cumulative IPC: 2.405 (Simulation time: 01 hr 07 min 25 sec)
Heartbeat CPU 0 instructions: 560000004 cycles: 223822516 heartbeat IPC: 2.935 cumulative IPC: 2.413 (Simulation time: 01 hr 08 min 35 sec)
Heartbeat CPU 0 instructions: 570000002 cycles: 226641517 heartbeat IPC: 3.547 cumulative IPC: 2.428 (Simulation time: 01 hr 09 min 37 sec)
Heartbeat CPU 0 instructions: 580000000 cycles: 229563849 heartbeat IPC: 3.422 cumulative IPC: 2.442 (Simulation time: 01 hr 10 min 45 sec)
Heartbeat CPU 0 instructions: 590000001 cycles: 232488719 heartbeat IPC: 3.419 cumulative IPC: 2.455 (Simulation time: 01 hr 11 min 57 sec)
Heartbeat CPU 0 instructions: 600000003 cycles: 235178831 heartbeat IPC: 3.717 cumulative IPC: 2.47 (Simulation time: 01 hr 13 min 04 sec)
Heartbeat CPU 0 instructions: 610000001 cycles: 238041651 heartbeat IPC: 3.493 cumulative IPC: 2.483 (Simulation time: 01 hr 14 min 15 sec)
Heartbeat CPU 0 instructions: 620000004 cycles: 240994646 heartbeat IPC: 3.386 cumulative IPC: 2.495 (Simulation time: 01 hr 15 min 25 sec)
Heartbeat CPU 0 instructions: 630000002 cycles: 243804198 heartbeat IPC: 3.559 cumulative IPC: 2.508 (Simulation time: 01 hr 16 min 36 sec)
Heartbeat CPU 0 instructions: 640000004 cycles: 246850270 heartbeat IPC: 3.283 cumulative IPC: 2.518 (Simulation time: 01 hr 17 min 44 sec)
Heartbeat CPU 0 instructions: 650000001 cycles: 249562253 heartbeat IPC: 3.687 cumulative IPC: 2.531 (Simulation time: 01 hr 18 min 48 sec)
Simulation finished CPU 0 instructions: 600000001 cycles: 237062192 cumulative IPC: 2.531 (Simulation time: 01 hr 18 min 48 sec)
Simulation complete CPU 0 instructions: 600000001 cycles: 237062192 cumulative IPC: 2.531 (Simulation time: 01 hr 18 min 48 sec)

ChampSim completed all CPUs

=== Simulation ===
CPU 0 runs traces/400.perlbench-50B.champsimtrace.xz
Region of Interest Statistics

CPU 0 cumulative IPC: 2.531 instructions: 600000001 cycles: 237062192
CPU 0 Branch Prediction Accuracy: 99.01% MPKI: 2.04 Average ROB Occupancy at Mispredict: 94.58
Branch type MPKI
BRANCH_DIRECT_JUMP: 0.0176
BRANCH_INDIRECT: 0.38
BRANCH_CONDITIONAL: 1.19
BRANCH_DIRECT_CALL: 0.0067
BRANCH_INDIRECT_CALL: 0.431
BRANCH_RETURN: 0.0161

LLC TOTAL        ACCESS:     835347 HIT:     545388 MISS:     289959
LLC LOAD         ACCESS:     575674 HIT:     341618 MISS:     234056
LLC RFO          ACCESS:      47041 HIT:      29257 MISS:      17784
LLC PREFETCH     ACCESS:      64136 HIT:      36625 MISS:      27511
LLC WRITE        ACCESS:     126444 HIT:     126354 MISS:         90
LLC TRANSLATION  ACCESS:      22052 HIT:      11534 MISS:      10518
LLC PREFETCH REQUESTED:      64136 ISSUED:      64136 USEFUL:      17546 USELESS:       5504
LLC AVERAGE MISS LATENCY: 600 cycles
cpu0_DTLB TOTAL        ACCESS:  133239357 HIT:  131885389 MISS:    1353968
cpu0_DTLB LOAD         ACCESS:  133239357 HIT:  131885389 MISS:    1353968
cpu0_DTLB RFO          ACCESS:          0 HIT:          0 MISS:          0
cpu0_DTLB PREFETCH     ACCESS:          0 HIT:          0 MISS:          0
cpu0_DTLB WRITE        ACCESS:          0 HIT:          0 MISS:          0
cpu0_DTLB TRANSLATION  ACCESS:          0 HIT:          0 MISS:          0
cpu0_DTLB PREFETCH REQUESTED:          0 ISSUED:          0 USEFUL:          0 USELESS:          0
cpu0_DTLB AVERAGE MISS LATENCY: 10.92 cycles
cpu0_ITLB TOTAL        ACCESS:    8999028 HIT:    8789584 MISS:     209444
cpu0_ITLB LOAD         ACCESS:    8999028 HIT:    8789584 MISS:     209444
cpu0_ITLB RFO          ACCESS:          0 HIT:          0 MISS:          0
cpu0_ITLB PREFETCH     ACCESS:          0 HIT:          0 MISS:          0
cpu0_ITLB WRITE        ACCESS:          0 HIT:          0 MISS:          0
cpu0_ITLB TRANSLATION  ACCESS:          0 HIT:          0 MISS:          0
cpu0_ITLB PREFETCH REQUESTED:          0 ISSUED:          0 USEFUL:          0 USELESS:          0
cpu0_ITLB AVERAGE MISS LATENCY: 2.61 cycles
cpu0_L1D TOTAL        ACCESS:  178270262 HIT:  174482978 MISS:    3787284
cpu0_L1D LOAD         ACCESS:   92750619 HIT:   89645677 MISS:    3104942
cpu0_L1D RFO          ACCESS:          0 HIT:          0 MISS:          0
cpu0_L1D PREFETCH     ACCESS:          0 HIT:          0 MISS:          0
cpu0_L1D WRITE        ACCESS:   85491116 HIT:   84835881 MISS:     655235
cpu0_L1D TRANSLATION  ACCESS:      28527 HIT:       1420 MISS:      27107
cpu0_L1D PREFETCH REQUESTED:          0 ISSUED:          0 USEFUL:          0 USELESS:          0
cpu0_L1D AVERAGE MISS LATENCY: 45.11 cycles
cpu0_L1I TOTAL        ACCESS:   10518536 HIT:    8619375 MISS:    1899161
cpu0_L1I LOAD         ACCESS:   10518536 HIT:    8619375 MISS:    1899161
cpu0_L1I RFO          ACCESS:          0 HIT:          0 MISS:          0
cpu0_L1I PREFETCH     ACCESS:          0 HIT:          0 MISS:          0
cpu0_L1I WRITE        ACCESS:          0 HIT:          0 MISS:          0
cpu0_L1I TRANSLATION  ACCESS:          0 HIT:          0 MISS:          0
cpu0_L1I PREFETCH REQUESTED:          0 ISSUED:          0 USEFUL:          0 USELESS:          0
cpu0_L1I AVERAGE MISS LATENCY: 9.48 cycles
cpu0_L2C TOTAL        ACCESS:    3840444 HIT:    3192509 MISS:     647935
cpu0_L2C LOAD         ACCESS:    3103837 HIT:    2528163 MISS:     575674
cpu0_L2C RFO          ACCESS:     194874 HIT:     147833 MISS:      47041
cpu0_L2C PREFETCH     ACCESS:          0 HIT:          0 MISS:          0
cpu0_L2C WRITE        ACCESS:     514697 HIT:     511529 MISS:       3168
cpu0_L2C TRANSLATION  ACCESS:      27036 HIT:       4984 MISS:      22052
cpu0_L2C PREFETCH REQUESTED:          0 ISSUED:          0 USEFUL:          0 USELESS:          0
cpu0_L2C AVERAGE MISS LATENCY: 261.5 cycles
cpu0_STLB TOTAL        ACCESS:    1009802 HIT:     983111 MISS:      26691
cpu0_STLB LOAD         ACCESS:    1009802 HIT:     983111 MISS:      26691
cpu0_STLB RFO          ACCESS:          0 HIT:          0 MISS:          0
cpu0_STLB PREFETCH     ACCESS:          0 HIT:          0 MISS:          0
cpu0_STLB WRITE        ACCESS:          0 HIT:          0 MISS:          0
cpu0_STLB TRANSLATION  ACCESS:          0 HIT:          0 MISS:          0
cpu0_STLB PREFETCH REQUESTED:          0 ISSUED:          0 USEFUL:          0 USELESS:          0
cpu0_STLB AVERAGE MISS LATENCY: 346.2 cycles

DRAM Statistics

Channel 0 RQ ROW_BUFFER_HIT:      68622
  ROW_BUFFER_MISS:     215806
 AVG DBUS CONGESTED CYCLE: 3.832
WQ ROW_BUFFER_HIT: Channel 0 
  ROW_BUFFER_MISS:       5162
  FULL:      29165
