WARNING: physical memory size is smaller than virtual memory size.

*** ChampSim Multicore Out-of-Order Simulator ***
Warmup Instructions: 50000000
Simulation Instructions: 600000000
Number of CPUs: 1
Page size: 4096

Off-chip DRAM Size: 4 GiB Channels: 1 Width: 64-bit Data Race: 3200 MT/s
Heartbeat CPU 0 instructions: 10000000 cycles: 2500061 heartbeat IPC: 4 cumulative IPC: 4 (Simulation time: 00 hr 00 min 55 sec)
Heartbeat CPU 0 instructions: 20000000 cycles: 5000061 heartbeat IPC: 4 cumulative IPC: 4 (Simulation time: 00 hr 01 min 47 sec)
Heartbeat CPU 0 instructions: 30000000 cycles: 7500061 heartbeat IPC: 4 cumulative IPC: 4 (Simulation time: 00 hr 02 min 34 sec)
Heartbeat CPU 0 instructions: 40000000 cycles: 10000061 heartbeat IPC: 4 cumulative IPC: 4 (Simulation time: 00 hr 03 min 22 sec)
Heartbeat CPU 0 instructions: 50000000 cycles: 12500061 heartbeat IPC: 4 cumulative IPC: 4 (Simulation time: 00 hr 04 min 09 sec)
Warmup finished CPU 0 instructions: 50000000 cycles: 12500062 cumulative IPC: 4 (Simulation time: 00 hr 04 min 09 sec)
Warmup complete CPU 0 instructions: 50000000 cycles: 12500062 cumulative IPC: 4 (Simulation time: 00 hr 04 min 09 sec)
Heartbeat CPU 0 instructions: 60000002 cycles: 16435451 heartbeat IPC: 2.541 cumulative IPC: 2.541 (Simulation time: 00 hr 05 min 14 sec)
Heartbeat CPU 0 instructions: 70000003 cycles: 20748814 heartbeat IPC: 2.318 cumulative IPC: 2.425 (Simulation time: 00 hr 06 min 33 sec)
Heartbeat CPU 0 instructions: 80000003 cycles: 25212047 heartbeat IPC: 2.241 cumulative IPC: 2.36 (Simulation time: 00 hr 08 min 05 sec)
Heartbeat CPU 0 instructions: 90000000 cycles: 28901952 heartbeat IPC: 2.71 cumulative IPC: 2.439 (Simulation time: 00 hr 09 min 22 sec)
Heartbeat CPU 0 instructions: 100000003 cycles: 32796051 heartbeat IPC: 2.568 cumulative IPC: 2.464 (Simulation time: 00 hr 10 min 34 sec)
Heartbeat CPU 0 instructions: 110000002 cycles: 36887380 heartbeat IPC: 2.444 cumulative IPC: 2.46 (Simulation time: 00 hr 11 min 43 sec)
Heartbeat CPU 0 instructions: 120000001 cycles: 40600339 heartbeat IPC: 2.693 cumulative IPC: 2.491 (Simulation time: 00 hr 12 min 50 sec)
Heartbeat CPU 0 instructions: 130000003 cycles: 44364917 heartbeat IPC: 2.656 cumulative IPC: 2.511 (Simulation time: 00 hr 14 min 00 sec)
Heartbeat CPU 0 instructions: 140000002 cycles: 48489994 heartbeat IPC: 2.424 cumulative IPC: 2.501 (Simulation time: 00 hr 15 min 09 sec)
Heartbeat CPU 0 instructions: 150000001 cycles: 52534004 heartbeat IPC: 2.473 cumulative IPC: 2.498 (Simulation time: 00 hr 16 min 17 sec)
Heartbeat CPU 0 instructions: 160000000 cycles: 56183103 heartbeat IPC: 2.74 cumulative IPC: 2.518 (Simulation time: 00 hr 17 min 20 sec)
Heartbeat CPU 0 instructions: 170000001 cycles: 60348403 heartbeat IPC: 2.401 cumulative IPC: 2.508 (Simulation time: 00 hr 18 min 28 sec)
Heartbeat CPU 0 instructions: 180000001 cycles: 63804167 heartbeat IPC: 2.894 cumulative IPC: 2.534 (Simulation time: 00 hr 19 min 47 sec)
Heartbeat CPU 0 instructions: 190000002 cycles: 67380677 heartbeat IPC: 2.796 cumulative IPC: 2.551 (Simulation time: 00 hr 21 min 13 sec)
Heartbeat CPU 0 instructions: 200000002 cycles: 71150820 heartbeat IPC: 2.652 cumulative IPC: 2.558 (Simulation time: 00 hr 22 min 32 sec)
Heartbeat CPU 0 instructions: 210000000 cycles: 74785993 heartbeat IPC: 2.751 cumulative IPC: 2.569 (Simulation time: 00 hr 23 min 42 sec)
Heartbeat CPU 0 instructions: 220000001 cycles: 78653479 heartbeat IPC: 2.586 cumulative IPC: 2.57 (Simulation time: 00 hr 24 min 51 sec)
Heartbeat CPU 0 instructions: 230000002 cycles: 82489315 heartbeat IPC: 2.607 cumulative IPC: 2.572 (Simulation time: 00 hr 25 min 57 sec)
Heartbeat CPU 0 instructions: 240000001 cycles: 86691795 heartbeat IPC: 2.38 cumulative IPC: 2.561 (Simulation time: 00 hr 27 min 06 sec)
Heartbeat CPU 0 instructions: 250000003 cycles: 91252674 heartbeat IPC: 2.193 cumulative IPC: 2.54 (Simulation time: 00 hr 28 min 16 sec)
Heartbeat CPU 0 instructions: 260000000 cycles: 95049312 heartbeat IPC: 2.634 cumulative IPC: 2.544 (Simulation time: 00 hr 29 min 22 sec)
Heartbeat CPU 0 instructions: 270000003 cycles: 101842903 heartbeat IPC: 1.472 cumulative IPC: 2.462 (Simulation time: 00 hr 30 min 46 sec)
Heartbeat CPU 0 instructions: 280000000 cycles: 113502248 heartbeat IPC: 0.8577 cumulative IPC: 2.277 (Simulation time: 00 hr 33 min 26 sec)
Heartbeat CPU 0 instructions: 290000000 cycles: 124010593 heartbeat IPC: 0.9516 cumulative IPC: 2.152 (Simulation time: 00 hr 35 min 52 sec)
Heartbeat CPU 0 instructions: 300000003 cycles: 131628342 heartbeat IPC: 1.313 cumulative IPC: 2.099 (Simulation time: 00 hr 37 min 43 sec)
Heartbeat CPU 0 instructions: 310000004 cycles: 143310143 heartbeat IPC: 0.856 cumulative IPC: 1.988 (Simulation time: 00 hr 40 min 04 sec)
Heartbeat CPU 0 instructions: 320000004 cycles: 148450973 heartbeat IPC: 1.945 cumulative IPC: 1.986 (Simulation time: 00 hr 41 min 22 sec)
Heartbeat CPU 0 instructions: 330000000 cycles: 152514713 heartbeat IPC: 2.461 cumulative IPC: 2 (Simulation time: 00 hr 42 min 32 sec)
Heartbeat CPU 0 instructions: 340000001 cycles: 156752091 heartbeat IPC: 2.36 cumulative IPC: 2.01 (Simulation time: 00 hr 43 min 40 sec)
Heartbeat CPU 0 instructions: 350000004 cycles: 161163480 heartbeat IPC: 2.267 cumulative IPC: 2.018 (Simulation time: 00 hr 45 min 00 sec)
Heartbeat CPU 0 instructions: 360000003 cycles: 165277393 heartbeat IPC: 2.431 cumulative IPC: 2.029 (Simulation time: 00 hr 46 min 34 sec)
Heartbeat CPU 0 instructions: 370000001 cycles: 169299512 heartbeat IPC: 2.486 cumulative IPC: 2.041 (Simulation time: 00 hr 47 min 57 sec)
Heartbeat CPU 0 instructions: 380000004 cycles: 173189442 heartbeat IPC: 2.571 cumulative IPC: 2.054 (Simulation time: 00 hr 49 min 12 sec)
Heartbeat CPU 0 instructions: 390000002 cycles: 177285889 heartbeat IPC: 2.441 cumulative IPC: 2.063 (Simulation time: 00 hr 50 min 26 sec)
Heartbeat CPU 0 instructions: 400000000 cycles: 181651966 heartbeat IPC: 2.29 cumulative IPC: 2.069 (Simulation time: 00 hr 51 min 43 sec)
Heartbeat CPU 0 instructions: 410000000 cycles: 189287171 heartbeat IPC: 1.31 cumulative IPC: 2.036 (Simulation time: 00 hr 53 min 29 sec)
Heartbeat CPU 0 instructions: 420000003 cycles: 200692389 heartbeat IPC: 0.8768 cumulative IPC: 1.966 (Simulation time: 00 hr 55 min 33 sec)
Heartbeat CPU 0 instructions: 430000000 cycles: 208169315 heartbeat IPC: 1.337 cumulative IPC: 1.942 (Simulation time: 00 hr 57 min 13 sec)
Heartbeat CPU 0 instructions: 440000004 cycles: 215136816 heartbeat IPC: 1.435 cumulative IPC: 1.925 (Simulation time: 00 hr 59 min 12 sec)
Heartbeat CPU 0 instructions: 450000000 cycles: 221920864 heartbeat IPC: 1.474 cumulative IPC: 1.91 (Simulation time: 01 hr 01 min 10 sec)
Heartbeat CPU 0 instructions: 460000002 cycles: 233517033 heartbeat IPC: 0.8624 cumulative IPC: 1.855 (Simulation time: 01 hr 03 min 37 sec)
Heartbeat CPU 0 instructions: 470000003 cycles: 243240263 heartbeat IPC: 1.028 cumulative IPC: 1.82 (Simulation time: 01 hr 05 min 52 sec)
Heartbeat CPU 0 instructions: 480000003 cycles: 247502668 heartbeat IPC: 2.346 cumulative IPC: 1.83 (Simulation time: 01 hr 07 min 06 sec)
Heartbeat CPU 0 instructions: 490000001 cycles: 252206835 heartbeat IPC: 2.126 cumulative IPC: 1.836 (Simulation time: 01 hr 08 min 27 sec)
Heartbeat CPU 0 instructions: 500000002 cycles: 256643646 heartbeat IPC: 2.254 cumulative IPC: 1.843 (Simulation time: 01 hr 09 min 39 sec)
Heartbeat CPU 0 instructions: 510000000 cycles: 260912009 heartbeat IPC: 2.343 cumulative IPC: 1.852 (Simulation time: 01 hr 10 min 51 sec)
Heartbeat CPU 0 instructions: 520000000 cycles: 265358822 heartbeat IPC: 2.249 cumulative IPC: 1.859 (Simulation time: 01 hr 12 min 22 sec)
Heartbeat CPU 0 instructions: 530000001 cycles: 276767298 heartbeat IPC: 0.8765 cumulative IPC: 1.816 (Simulation time: 01 hr 15 min 03 sec)
Heartbeat CPU 0 instructions: 540000000 cycles: 288074838 heartbeat IPC: 0.8844 cumulative IPC: 1.778 (Simulation time: 01 hr 17 min 24 sec)
Heartbeat CPU 0 instructions: 550000004 cycles: 300797238 heartbeat IPC: 0.786 cumulative IPC: 1.734 (Simulation time: 01 hr 20 min 06 sec)
Heartbeat CPU 0 instructions: 560000004 cycles: 305092386 heartbeat IPC: 2.328 cumulative IPC: 1.743 (Simulation time: 01 hr 21 min 19 sec)
Heartbeat CPU 0 instructions: 570000001 cycles: 308220870 heartbeat IPC: 3.196 cumulative IPC: 1.758 (Simulation time: 01 hr 22 min 24 sec)
Heartbeat CPU 0 instructions: 580000003 cycles: 311765727 heartbeat IPC: 2.821 cumulative IPC: 1.771 (Simulation time: 01 hr 23 min 40 sec)
Heartbeat CPU 0 instructions: 590000002 cycles: 315391169 heartbeat IPC: 2.758 cumulative IPC: 1.783 (Simulation time: 01 hr 25 min 08 sec)
Heartbeat CPU 0 instructions: 600000003 cycles: 318459090 heartbeat IPC: 3.26 cumulative IPC: 1.798 (Simulation time: 01 hr 26 min 27 sec)
Heartbeat CPU 0 instructions: 610000001 cycles: 321968976 heartbeat IPC: 2.849 cumulative IPC: 1.81 (Simulation time: 01 hr 27 min 36 sec)
Heartbeat CPU 0 instructions: 620000000 cycles: 325985398 heartbeat IPC: 2.49 cumulative IPC: 1.818 (Simulation time: 01 hr 28 min 47 sec)
Heartbeat CPU 0 instructions: 630000002 cycles: 329349649 heartbeat IPC: 2.972 cumulative IPC: 1.831 (Simulation time: 01 hr 29 min 55 sec)
Heartbeat CPU 0 instructions: 640000004 cycles: 333357530 heartbeat IPC: 2.495 cumulative IPC: 1.839 (Simulation time: 01 hr 31 min 03 sec)
Heartbeat CPU 0 instructions: 650000001 cycles: 337176700 heartbeat IPC: 2.618 cumulative IPC: 1.848 (Simulation time: 01 hr 32 min 07 sec)
Simulation finished CPU 0 instructions: 600000001 cycles: 324676639 cumulative IPC: 1.848 (Simulation time: 01 hr 32 min 07 sec)
Simulation complete CPU 0 instructions: 600000001 cycles: 324676639 cumulative IPC: 1.848 (Simulation time: 01 hr 32 min 07 sec)

ChampSim completed all CPUs

=== Simulation ===
CPU 0 runs traces/400.perlbench-50B.champsimtrace.xz
Region of Interest Statistics

CPU 0 cumulative IPC: 1.848 instructions: 600000001 cycles: 324676639
CPU 0 Branch Prediction Accuracy: 96.2% MPKI: 7.839 Average ROB Occupancy at Mispredict: 43.43
Branch type MPKI
BRANCH_DIRECT_JUMP: 0.0176
BRANCH_INDIRECT: 0.38
BRANCH_CONDITIONAL: 6.99
BRANCH_DIRECT_CALL: 0.0067
BRANCH_INDIRECT_CALL: 0.431
BRANCH_RETURN: 0.0161

LLC TOTAL        ACCESS:    1349411 HIT:     835629 MISS:     513782
LLC LOAD         ACCESS:     575610 HIT:     349703 MISS:     225907
LLC RFO          ACCESS:      47256 HIT:      26125 MISS:      21131
LLC PREFETCH     ACCESS:     575610 HIT:     325284 MISS:     250326
LLC WRITE        ACCESS:     128866 HIT:     125766 MISS:       3100
LLC TRANSLATION  ACCESS:      22069 HIT:       8751 MISS:      13318
LLC PREFETCH REQUESTED:     575610 ISSUED:     575610 USEFUL:      85176 USELESS:     107538
LLC AVERAGE MISS LATENCY: 558.2 cycles
cpu0_DTLB TOTAL        ACCESS:  146484601 HIT:  145181416 MISS:    1303185
cpu0_DTLB LOAD         ACCESS:  146484601 HIT:  145181416 MISS:    1303185
cpu0_DTLB RFO          ACCESS:          0 HIT:          0 MISS:          0
cpu0_DTLB PREFETCH     ACCESS:          0 HIT:          0 MISS:          0
cpu0_DTLB WRITE        ACCESS:          0 HIT:          0 MISS:          0
cpu0_DTLB TRANSLATION  ACCESS:          0 HIT:          0 MISS:          0
cpu0_DTLB PREFETCH REQUESTED:          0 ISSUED:          0 USEFUL:          0 USELESS:          0
cpu0_DTLB AVERAGE MISS LATENCY: 13.44 cycles
cpu0_ITLB TOTAL        ACCESS:    8986339 HIT:    8801829 MISS:     184510
cpu0_ITLB LOAD         ACCESS:    8986339 HIT:    8801829 MISS:     184510
cpu0_ITLB RFO          ACCESS:          0 HIT:          0 MISS:          0
cpu0_ITLB PREFETCH     ACCESS:          0 HIT:          0 MISS:          0
cpu0_ITLB WRITE        ACCESS:          0 HIT:          0 MISS:          0
cpu0_ITLB TRANSLATION  ACCESS:          0 HIT:          0 MISS:          0
cpu0_ITLB PREFETCH REQUESTED:          0 ISSUED:          0 USEFUL:          0 USELESS:          0
cpu0_ITLB AVERAGE MISS LATENCY: 3.894 cycles
cpu0_L1D TOTAL        ACCESS:  193298596 HIT:  190416994 MISS:    2881602
cpu0_L1D LOAD         ACCESS:  107450856 HIT:  105082412 MISS:    2368444
cpu0_L1D RFO          ACCESS:          0 HIT:          0 MISS:          0
cpu0_L1D PREFETCH     ACCESS:          0 HIT:          0 MISS:          0
cpu0_L1D WRITE        ACCESS:   85819220 HIT:   85332565 MISS:     486655
cpu0_L1D TRANSLATION  ACCESS:      28520 HIT:       2017 MISS:      26503
cpu0_L1D PREFETCH REQUESTED:          0 ISSUED:          0 USEFUL:          0 USELESS:          0
cpu0_L1D AVERAGE MISS LATENCY: 59.76 cycles
cpu0_L1I TOTAL        ACCESS:   10420931 HIT:    8659337 MISS:    1761594
cpu0_L1I LOAD         ACCESS:   10420931 HIT:    8659337 MISS:    1761594
cpu0_L1I RFO          ACCESS:          0 HIT:          0 MISS:          0
cpu0_L1I PREFETCH     ACCESS:          0 HIT:          0 MISS:          0
cpu0_L1I WRITE        ACCESS:          0 HIT:          0 MISS:          0
cpu0_L1I TRANSLATION  ACCESS:          0 HIT:          0 MISS:          0
cpu0_L1I PREFETCH REQUESTED:          0 ISSUED:          0 USEFUL:          0 USELESS:          0
cpu0_L1I AVERAGE MISS LATENCY: 12.26 cycles
cpu0_L2C TOTAL        ACCESS:    3232265 HIT:    2581517 MISS:     650748
cpu0_L2C LOAD         ACCESS:    2710080 HIT:    2134470 MISS:     575610
cpu0_L2C RFO          ACCESS:     133255 HIT:      85999 MISS:      47256
cpu0_L2C PREFETCH     ACCESS:          0 HIT:          0 MISS:          0
cpu0_L2C WRITE        ACCESS:     362492 HIT:     356679 MISS:       5813
cpu0_L2C TRANSLATION  ACCESS:      26438 HIT:       4369 MISS:      22069
cpu0_L2C PREFETCH REQUESTED:          0 ISSUED:          0 USEFUL:          0 USELESS:          0
cpu0_L2C AVERAGE MISS LATENCY: 264.5 cycles
cpu0_STLB TOTAL        ACCESS:    1008404 HIT:     981711 MISS:      26693
cpu0_STLB LOAD         ACCESS:    1008404 HIT:     981711 MISS:      26693
cpu0_STLB RFO          ACCESS:          0 HIT:          0 MISS:          0
cpu0_STLB PREFETCH     ACCESS:          0 HIT:          0 MISS:          0
cpu0_STLB WRITE        ACCESS:          0 HIT:          0 MISS:          0
cpu0_STLB TRANSLATION  ACCESS:          0 HIT:          0 MISS:          0
cpu0_STLB PREFETCH REQUESTED:          0 ISSUED:          0 USEFUL:          0 USELESS:          0
cpu0_STLB AVERAGE MISS LATENCY: 441.9 cycles

DRAM Statistics

Channel 0 RQ ROW_BUFFER_HIT:      79625
  ROW_BUFFER_MISS:     357791
 AVG DBUS CONGESTED CYCLE: 3.877
WQ ROW_BUFFER_HIT: Channel 0 
  ROW_BUFFER_MISS:       7682
  FULL:      46328
