WARNING: physical memory size is smaller than virtual memory size.

*** ChampSim Multicore Out-of-Order Simulator ***
Warmup Instructions: 50000000
Simulation Instructions: 600000000
Number of CPUs: 1
Page size: 4096

Off-chip DRAM Size: 4 GiB Channels: 1 Width: 64-bit Data Race: 3200 MT/s
Heartbeat CPU 0 instructions: 10000001 cycles: 2500319 heartbeat IPC: 3.999 cumulative IPC: 3.999 (Simulation time: 00 hr 00 min 56 sec)
Heartbeat CPU 0 instructions: 20000002 cycles: 5037128 heartbeat IPC: 3.942 cumulative IPC: 3.971 (Simulation time: 00 hr 02 min 07 sec)
Heartbeat CPU 0 instructions: 30000002 cycles: 7537128 heartbeat IPC: 4 cumulative IPC: 3.98 (Simulation time: 00 hr 03 min 10 sec)
Heartbeat CPU 0 instructions: 40000002 cycles: 10037128 heartbeat IPC: 4 cumulative IPC: 3.985 (Simulation time: 00 hr 04 min 06 sec)
Heartbeat CPU 0 instructions: 50000002 cycles: 12537128 heartbeat IPC: 4 cumulative IPC: 3.988 (Simulation time: 00 hr 04 min 58 sec)
Warmup finished CPU 0 instructions: 50000002 cycles: 12537129 cumulative IPC: 3.988 (Simulation time: 00 hr 04 min 58 sec)
Warmup complete CPU 0 instructions: 50000002 cycles: 12537129 cumulative IPC: 3.988 (Simulation time: 00 hr 04 min 58 sec)
Heartbeat CPU 0 instructions: 60000000 cycles: 17717998 heartbeat IPC: 1.93 cumulative IPC: 1.93 (Simulation time: 00 hr 06 min 11 sec)
Heartbeat CPU 0 instructions: 70000002 cycles: 22622960 heartbeat IPC: 2.039 cumulative IPC: 1.983 (Simulation time: 00 hr 07 min 25 sec)
Heartbeat CPU 0 instructions: 80000001 cycles: 27991526 heartbeat IPC: 1.863 cumulative IPC: 1.941 (Simulation time: 00 hr 08 min 51 sec)
Heartbeat CPU 0 instructions: 90000001 cycles: 32868813 heartbeat IPC: 2.05 cumulative IPC: 1.967 (Simulation time: 00 hr 10 min 07 sec)
Heartbeat CPU 0 instructions: 100000000 cycles: 37991233 heartbeat IPC: 1.952 cumulative IPC: 1.964 (Simulation time: 00 hr 11 min 19 sec)
Heartbeat CPU 0 instructions: 110000000 cycles: 42880119 heartbeat IPC: 2.045 cumulative IPC: 1.977 (Simulation time: 00 hr 12 min 25 sec)
Heartbeat CPU 0 instructions: 120000001 cycles: 48078677 heartbeat IPC: 1.924 cumulative IPC: 1.97 (Simulation time: 00 hr 13 min 42 sec)
Heartbeat CPU 0 instructions: 130000001 cycles: 53248473 heartbeat IPC: 1.934 cumulative IPC: 1.965 (Simulation time: 00 hr 15 min 18 sec)
Heartbeat CPU 0 instructions: 140000001 cycles: 58579669 heartbeat IPC: 1.876 cumulative IPC: 1.955 (Simulation time: 00 hr 16 min 48 sec)
Heartbeat CPU 0 instructions: 150000001 cycles: 63911786 heartbeat IPC: 1.875 cumulative IPC: 1.946 (Simulation time: 00 hr 18 min 13 sec)
Heartbeat CPU 0 instructions: 160000004 cycles: 69134571 heartbeat IPC: 1.915 cumulative IPC: 1.944 (Simulation time: 00 hr 19 min 32 sec)
Heartbeat CPU 0 instructions: 170000000 cycles: 79114576 heartbeat IPC: 1.002 cumulative IPC: 1.802 (Simulation time: 00 hr 21 min 35 sec)
Heartbeat CPU 0 instructions: 180000004 cycles: 89783600 heartbeat IPC: 0.9373 cumulative IPC: 1.683 (Simulation time: 00 hr 23 min 44 sec)
Heartbeat CPU 0 instructions: 190000001 cycles: 100788376 heartbeat IPC: 0.9087 cumulative IPC: 1.586 (Simulation time: 00 hr 25 min 44 sec)
Heartbeat CPU 0 instructions: 200000003 cycles: 105569070 heartbeat IPC: 2.092 cumulative IPC: 1.612 (Simulation time: 00 hr 27 min 03 sec)
Heartbeat CPU 0 instructions: 210000001 cycles: 110488999 heartbeat IPC: 2.033 cumulative IPC: 1.633 (Simulation time: 00 hr 28 min 42 sec)
Heartbeat CPU 0 instructions: 220000000 cycles: 115316623 heartbeat IPC: 2.071 cumulative IPC: 1.654 (Simulation time: 00 hr 30 min 11 sec)
Heartbeat CPU 0 instructions: 230000002 cycles: 120632470 heartbeat IPC: 1.881 cumulative IPC: 1.665 (Simulation time: 00 hr 31 min 35 sec)
Heartbeat CPU 0 instructions: 240000000 cycles: 125482153 heartbeat IPC: 2.062 cumulative IPC: 1.682 (Simulation time: 00 hr 32 min 52 sec)
Heartbeat CPU 0 instructions: 250000000 cycles: 130632862 heartbeat IPC: 1.941 cumulative IPC: 1.694 (Simulation time: 00 hr 34 min 15 sec)
Heartbeat CPU 0 instructions: 260000000 cycles: 135650526 heartbeat IPC: 1.993 cumulative IPC: 1.706 (Simulation time: 00 hr 35 min 34 sec)
Heartbeat CPU 0 instructions: 270000002 cycles: 140533200 heartbeat IPC: 2.048 cumulative IPC: 1.719 (Simulation time: 00 hr 36 min 51 sec)
Heartbeat CPU 0 instructions: 280000002 cycles: 145435836 heartbeat IPC: 2.04 cumulative IPC: 1.731 (Simulation time: 00 hr 38 min 03 sec)
Heartbeat CPU 0 instructions: 290000001 cycles: 150804732 heartbeat IPC: 1.863 cumulative IPC: 1.736 (Simulation time: 00 hr 39 min 21 sec)
Heartbeat CPU 0 instructions: 300000003 cycles: 155859588 heartbeat IPC: 1.978 cumulative IPC: 1.744 (Simulation time: 00 hr 41 min 02 sec)
Heartbeat CPU 0 instructions: 310000001 cycles: 161160272 heartbeat IPC: 1.887 cumulative IPC: 1.749 (Simulation time: 00 hr 42 min 35 sec)
Heartbeat CPU 0 instructions: 320000003 cycles: 166369406 heartbeat IPC: 1.92 cumulative IPC: 1.755 (Simulation time: 00 hr 43 min 52 sec)
Heartbeat CPU 0 instructions: 330000003 cycles: 171662131 heartbeat IPC: 1.889 cumulative IPC: 1.76 (Simulation time: 00 hr 45 min 08 sec)
Heartbeat CPU 0 instructions: 340000000 cycles: 182039513 heartbeat IPC: 0.9636 cumulative IPC: 1.711 (Simulation time: 00 hr 47 min 16 sec)
Heartbeat CPU 0 instructions: 350000000 cycles: 193603756 heartbeat IPC: 0.8647 cumulative IPC: 1.657 (Simulation time: 00 hr 49 min 24 sec)
Heartbeat CPU 0 instructions: 360000004 cycles: 204707802 heartbeat IPC: 0.9006 cumulative IPC: 1.613 (Simulation time: 00 hr 51 min 19 sec)
Heartbeat CPU 0 instructions: 370000000 cycles: 209112602 heartbeat IPC: 2.27 cumulative IPC: 1.628 (Simulation time: 00 hr 52 min 33 sec)
Heartbeat CPU 0 instructions: 380000001 cycles: 214040316 heartbeat IPC: 2.029 cumulative IPC: 1.638 (Simulation time: 00 hr 54 min 14 sec)
Heartbeat CPU 0 instructions: 390000002 cycles: 218863833 heartbeat IPC: 2.073 cumulative IPC: 1.648 (Simulation time: 00 hr 55 min 45 sec)
Heartbeat CPU 0 instructions: 400000004 cycles: 223797472 heartbeat IPC: 2.027 cumulative IPC: 1.657 (Simulation time: 00 hr 57 min 08 sec)
Heartbeat CPU 0 instructions: 410000000 cycles: 228519626 heartbeat IPC: 2.118 cumulative IPC: 1.667 (Simulation time: 00 hr 58 min 24 sec)
Heartbeat CPU 0 instructions: 420000000 cycles: 233655633 heartbeat IPC: 1.947 cumulative IPC: 1.673 (Simulation time: 00 hr 59 min 46 sec)
Heartbeat CPU 0 instructions: 430000001 cycles: 238115080 heartbeat IPC: 2.242 cumulative IPC: 1.685 (Simulation time: 01 hr 01 min 03 sec)
Heartbeat CPU 0 instructions: 440000000 cycles: 243454199 heartbeat IPC: 1.873 cumulative IPC: 1.689 (Simulation time: 01 hr 02 min 20 sec)
Heartbeat CPU 0 instructions: 450000002 cycles: 248113017 heartbeat IPC: 2.146 cumulative IPC: 1.698 (Simulation time: 01 hr 03 min 28 sec)
Heartbeat CPU 0 instructions: 460000000 cycles: 252893084 heartbeat IPC: 2.092 cumulative IPC: 1.706 (Simulation time: 01 hr 04 min 33 sec)
Heartbeat CPU 0 instructions: 470000000 cycles: 257865873 heartbeat IPC: 2.011 cumulative IPC: 1.712 (Simulation time: 01 hr 05 min 45 sec)
Heartbeat CPU 0 instructions: 480000003 cycles: 262647886 heartbeat IPC: 2.091 cumulative IPC: 1.719 (Simulation time: 01 hr 07 min 21 sec)
Heartbeat CPU 0 instructions: 490000000 cycles: 267244970 heartbeat IPC: 2.175 cumulative IPC: 1.727 (Simulation time: 01 hr 08 min 56 sec)
Heartbeat CPU 0 instructions: 500000000 cycles: 272259260 heartbeat IPC: 1.994 cumulative IPC: 1.733 (Simulation time: 01 hr 10 min 21 sec)
Heartbeat CPU 0 instructions: 510000003 cycles: 277891892 heartbeat IPC: 1.775 cumulative IPC: 1.734 (Simulation time: 01 hr 11 min 48 sec)
Heartbeat CPU 0 instructions: 520000001 cycles: 282570668 heartbeat IPC: 2.137 cumulative IPC: 1.741 (Simulation time: 01 hr 13 min 10 sec)
Heartbeat CPU 0 instructions: 530000002 cycles: 287711974 heartbeat IPC: 1.945 cumulative IPC: 1.744 (Simulation time: 01 hr 14 min 31 sec)
Heartbeat CPU 0 instructions: 540000000 cycles: 292820426 heartbeat IPC: 1.958 cumulative IPC: 1.748 (Simulation time: 01 hr 15 min 53 sec)
Heartbeat CPU 0 instructions: 550000001 cycles: 297619596 heartbeat IPC: 2.084 cumulative IPC: 1.754 (Simulation time: 01 hr 17 min 04 sec)
Heartbeat CPU 0 instructions: 560000000 cycles: 302867551 heartbeat IPC: 1.906 cumulative IPC: 1.757 (Simulation time: 01 hr 18 min 17 sec)
Heartbeat CPU 0 instructions: 570000004 cycles: 309947365 heartbeat IPC: 1.412 cumulative IPC: 1.748 (Simulation time: 01 hr 20 min 05 sec)
Heartbeat CPU 0 instructions: 580000003 cycles: 321866594 heartbeat IPC: 0.839 cumulative IPC: 1.713 (Simulation time: 01 hr 22 min 55 sec)
Heartbeat CPU 0 instructions: 590000002 cycles: 335370032 heartbeat IPC: 0.7406 cumulative IPC: 1.673 (Simulation time: 01 hr 25 min 29 sec)
Heartbeat CPU 0 instructions: 600000000 cycles: 339971415 heartbeat IPC: 2.173 cumulative IPC: 1.68 (Simulation time: 01 hr 26 min 46 sec)
Heartbeat CPU 0 instructions: 610000002 cycles: 344465223 heartbeat IPC: 2.225 cumulative IPC: 1.687 (Simulation time: 01 hr 28 min 06 sec)
Heartbeat CPU 0 instructions: 620000000 cycles: 349270905 heartbeat IPC: 2.081 cumulative IPC: 1.693 (Simulation time: 01 hr 29 min 19 sec)
Heartbeat CPU 0 instructions: 630000002 cycles: 354354583 heartbeat IPC: 1.967 cumulative IPC: 1.697 (Simulation time: 01 hr 30 min 35 sec)
Heartbeat CPU 0 instructions: 640000001 cycles: 359205416 heartbeat IPC: 2.062 cumulative IPC: 1.702 (Simulation time: 01 hr 32 min 13 sec)
Heartbeat CPU 0 instructions: 650000000 cycles: 363757764 heartbeat IPC: 2.197 cumulative IPC: 1.708 (Simulation time: 01 hr 33 min 37 sec)
Simulation finished CPU 0 instructions: 600000001 cycles: 351220637 cumulative IPC: 1.708 (Simulation time: 01 hr 33 min 37 sec)
Simulation complete CPU 0 instructions: 600000001 cycles: 351220637 cumulative IPC: 1.708 (Simulation time: 01 hr 33 min 37 sec)

ChampSim completed all CPUs

=== Simulation ===
CPU 0 runs traces/400.perlbench-41B.champsimtrace.xz
Region of Interest Statistics

CPU 0 cumulative IPC: 1.708 instructions: 600000001 cycles: 351220637
CPU 0 Branch Prediction Accuracy: 93.95% MPKI: 12.5 Average ROB Occupancy at Mispredict: 29.53
Branch type MPKI
BRANCH_DIRECT_JUMP: 0.0123
BRANCH_INDIRECT: 0.323
BRANCH_CONDITIONAL: 12
BRANCH_DIRECT_CALL: 0.0043
BRANCH_INDIRECT_CALL: 0.2
BRANCH_RETURN: 0.00828

LLC TOTAL        ACCESS:     937854 HIT:     497108 MISS:     440746
LLC LOAD         ACCESS:     400055 HIT:     203729 MISS:     196326
LLC RFO          ACCESS:      32691 HIT:      15401 MISS:      17290
LLC PREFETCH     ACCESS:     400055 HIT:     186448 MISS:     213607
LLC WRITE        ACCESS:      86180 HIT:      83861 MISS:       2319
LLC TRANSLATION  ACCESS:      18873 HIT:       7669 MISS:      11204
LLC PREFETCH REQUESTED:     400055 ISSUED:     400055 USEFUL:      67721 USELESS:      91704
LLC AVERAGE MISS LATENCY: 583.1 cycles
cpu0_DTLB TOTAL        ACCESS:  153673741 HIT:  152996883 MISS:     676858
cpu0_DTLB LOAD         ACCESS:  153673741 HIT:  152996883 MISS:     676858
cpu0_DTLB RFO          ACCESS:          0 HIT:          0 MISS:          0
cpu0_DTLB PREFETCH     ACCESS:          0 HIT:          0 MISS:          0
cpu0_DTLB WRITE        ACCESS:          0 HIT:          0 MISS:          0
cpu0_DTLB TRANSLATION  ACCESS:          0 HIT:          0 MISS:          0
cpu0_DTLB PREFETCH REQUESTED:          0 ISSUED:          0 USEFUL:          0 USELESS:          0
cpu0_DTLB AVERAGE MISS LATENCY: 18.19 cycles
cpu0_ITLB TOTAL        ACCESS:    4835584 HIT:    4777694 MISS:      57890
cpu0_ITLB LOAD         ACCESS:    4835584 HIT:    4777694 MISS:      57890
cpu0_ITLB RFO          ACCESS:          0 HIT:          0 MISS:          0
cpu0_ITLB PREFETCH     ACCESS:          0 HIT:          0 MISS:          0
cpu0_ITLB WRITE        ACCESS:          0 HIT:          0 MISS:          0
cpu0_ITLB TRANSLATION  ACCESS:          0 HIT:          0 MISS:          0
cpu0_ITLB PREFETCH REQUESTED:          0 ISSUED:          0 USEFUL:          0 USELESS:          0
cpu0_ITLB AVERAGE MISS LATENCY: 8.273 cycles
cpu0_L1D TOTAL        ACCESS:  200301310 HIT:  198944165 MISS:    1357145
cpu0_L1D LOAD         ACCESS:  117057412 HIT:  116017321 MISS:    1040091
cpu0_L1D RFO          ACCESS:          0 HIT:          0 MISS:          0
cpu0_L1D PREFETCH     ACCESS:          0 HIT:          0 MISS:          0
cpu0_L1D WRITE        ACCESS:   83219435 HIT:   82925269 MISS:     294166
cpu0_L1D TRANSLATION  ACCESS:      24463 HIT:       1575 MISS:      22888
cpu0_L1D PREFETCH REQUESTED:          0 ISSUED:          0 USEFUL:          0 USELESS:          0
cpu0_L1D AVERAGE MISS LATENCY: 108.7 cycles
cpu0_L1I TOTAL        ACCESS:    5577864 HIT:    4816314 MISS:     761550
cpu0_L1I LOAD         ACCESS:    5577864 HIT:    4816314 MISS:     761550
cpu0_L1I RFO          ACCESS:          0 HIT:          0 MISS:          0
cpu0_L1I PREFETCH     ACCESS:          0 HIT:          0 MISS:          0
cpu0_L1I WRITE        ACCESS:          0 HIT:          0 MISS:          0
cpu0_L1I TRANSLATION  ACCESS:          0 HIT:          0 MISS:          0
cpu0_L1I PREFETCH REQUESTED:          0 ISSUED:          0 USEFUL:          0 USELESS:          0
cpu0_L1I AVERAGE MISS LATENCY: 15.46 cycles
cpu0_L2C TOTAL        ACCESS:    1382421 HIT:     927250 MISS:     455171
cpu0_L2C LOAD         ACCESS:    1125658 HIT:     725603 MISS:     400055
cpu0_L2C RFO          ACCESS:      63885 HIT:      31194 MISS:      32691
cpu0_L2C PREFETCH     ACCESS:          0 HIT:          0 MISS:          0
cpu0_L2C WRITE        ACCESS:     170073 HIT:     166521 MISS:       3552
cpu0_L2C TRANSLATION  ACCESS:      22805 HIT:       3932 MISS:      18873
cpu0_L2C PREFETCH REQUESTED:          0 ISSUED:          0 USEFUL:          0 USELESS:          0
cpu0_L2C AVERAGE MISS LATENCY: 333.1 cycles
cpu0_STLB TOTAL        ACCESS:     505069 HIT:     482279 MISS:      22790
cpu0_STLB LOAD         ACCESS:     505069 HIT:     482279 MISS:      22790
cpu0_STLB RFO          ACCESS:          0 HIT:          0 MISS:          0
cpu0_STLB PREFETCH     ACCESS:          0 HIT:          0 MISS:          0
cpu0_STLB WRITE        ACCESS:          0 HIT:          0 MISS:          0
cpu0_STLB TRANSLATION  ACCESS:          0 HIT:          0 MISS:          0
cpu0_STLB PREFETCH REQUESTED:          0 ISSUED:          0 USEFUL:          0 USELESS:          0
cpu0_STLB AVERAGE MISS LATENCY: 423.9 cycles

DRAM Statistics

Channel 0 RQ ROW_BUFFER_HIT:      61523
  ROW_BUFFER_MISS:     311376
 AVG DBUS CONGESTED CYCLE: 3.876
WQ ROW_BUFFER_HIT: Channel 0 
  ROW_BUFFER_MISS:       5841
  FULL:      42000
