WARNING: physical memory size is smaller than virtual memory size.

*** ChampSim Multicore Out-of-Order Simulator ***
Warmup Instructions: 50000000
Simulation Instructions: 600000000
Number of CPUs: 1
Page size: 4096

Off-chip DRAM Size: 4 GiB Channels: 1 Width: 64-bit Data Race: 3200 MT/s
Heartbeat CPU 0 instructions: 10000000 cycles: 2500061 heartbeat IPC: 4 cumulative IPC: 4 (Simulation time: 00 hr 00 min 56 sec)
Heartbeat CPU 0 instructions: 20000000 cycles: 5000061 heartbeat IPC: 4 cumulative IPC: 4 (Simulation time: 00 hr 01 min 50 sec)
Heartbeat CPU 0 instructions: 30000000 cycles: 7500061 heartbeat IPC: 4 cumulative IPC: 4 (Simulation time: 00 hr 02 min 39 sec)
Heartbeat CPU 0 instructions: 40000000 cycles: 10000061 heartbeat IPC: 4 cumulative IPC: 4 (Simulation time: 00 hr 03 min 30 sec)
Heartbeat CPU 0 instructions: 50000000 cycles: 12500061 heartbeat IPC: 4 cumulative IPC: 4 (Simulation time: 00 hr 04 min 18 sec)
Warmup finished CPU 0 instructions: 50000000 cycles: 12500062 cumulative IPC: 4 (Simulation time: 00 hr 04 min 18 sec)
Warmup complete CPU 0 instructions: 50000000 cycles: 12500062 cumulative IPC: 4 (Simulation time: 00 hr 04 min 18 sec)
Heartbeat CPU 0 instructions: 60000002 cycles: 16435451 heartbeat IPC: 2.541 cumulative IPC: 2.541 (Simulation time: 00 hr 05 min 42 sec)
Heartbeat CPU 0 instructions: 70000003 cycles: 20748814 heartbeat IPC: 2.318 cumulative IPC: 2.425 (Simulation time: 00 hr 07 min 05 sec)
Heartbeat CPU 0 instructions: 80000003 cycles: 25212047 heartbeat IPC: 2.241 cumulative IPC: 2.36 (Simulation time: 00 hr 08 min 29 sec)
Heartbeat CPU 0 instructions: 90000000 cycles: 28901952 heartbeat IPC: 2.71 cumulative IPC: 2.439 (Simulation time: 00 hr 09 min 37 sec)
Heartbeat CPU 0 instructions: 100000003 cycles: 32796051 heartbeat IPC: 2.568 cumulative IPC: 2.464 (Simulation time: 00 hr 10 min 43 sec)
Heartbeat CPU 0 instructions: 110000002 cycles: 36887380 heartbeat IPC: 2.444 cumulative IPC: 2.46 (Simulation time: 00 hr 11 min 54 sec)
Heartbeat CPU 0 instructions: 120000001 cycles: 40600339 heartbeat IPC: 2.693 cumulative IPC: 2.491 (Simulation time: 00 hr 13 min 01 sec)
Heartbeat CPU 0 instructions: 130000003 cycles: 44364917 heartbeat IPC: 2.656 cumulative IPC: 2.511 (Simulation time: 00 hr 14 min 07 sec)
Heartbeat CPU 0 instructions: 140000002 cycles: 48489994 heartbeat IPC: 2.424 cumulative IPC: 2.501 (Simulation time: 00 hr 15 min 13 sec)
Heartbeat CPU 0 instructions: 150000001 cycles: 52534004 heartbeat IPC: 2.473 cumulative IPC: 2.498 (Simulation time: 00 hr 16 min 17 sec)
Heartbeat CPU 0 instructions: 160000000 cycles: 56183103 heartbeat IPC: 2.74 cumulative IPC: 2.518 (Simulation time: 00 hr 17 min 25 sec)
Heartbeat CPU 0 instructions: 170000001 cycles: 60348403 heartbeat IPC: 2.401 cumulative IPC: 2.508 (Simulation time: 00 hr 18 min 51 sec)
Heartbeat CPU 0 instructions: 180000001 cycles: 63804167 heartbeat IPC: 2.894 cumulative IPC: 2.534 (Simulation time: 00 hr 20 min 14 sec)
Heartbeat CPU 0 instructions: 190000002 cycles: 67381937 heartbeat IPC: 2.795 cumulative IPC: 2.551 (Simulation time: 00 hr 21 min 31 sec)
Heartbeat CPU 0 instructions: 200000002 cycles: 71154840 heartbeat IPC: 2.65 cumulative IPC: 2.557 (Simulation time: 00 hr 22 min 42 sec)
Heartbeat CPU 0 instructions: 210000000 cycles: 74791298 heartbeat IPC: 2.75 cumulative IPC: 2.569 (Simulation time: 00 hr 23 min 49 sec)
Heartbeat CPU 0 instructions: 220000001 cycles: 78660839 heartbeat IPC: 2.584 cumulative IPC: 2.569 (Simulation time: 00 hr 24 min 59 sec)
Heartbeat CPU 0 instructions: 230000002 cycles: 82498260 heartbeat IPC: 2.606 cumulative IPC: 2.571 (Simulation time: 00 hr 26 min 10 sec)
Heartbeat CPU 0 instructions: 240000001 cycles: 86702094 heartbeat IPC: 2.379 cumulative IPC: 2.561 (Simulation time: 00 hr 27 min 20 sec)
Heartbeat CPU 0 instructions: 250000003 cycles: 91269812 heartbeat IPC: 2.189 cumulative IPC: 2.539 (Simulation time: 00 hr 28 min 29 sec)
Heartbeat CPU 0 instructions: 260000000 cycles: 95071361 heartbeat IPC: 2.631 cumulative IPC: 2.543 (Simulation time: 00 hr 29 min 32 sec)
Heartbeat CPU 0 instructions: 270000003 cycles: 102202712 heartbeat IPC: 1.402 cumulative IPC: 2.453 (Simulation time: 00 hr 31 min 10 sec)
Heartbeat CPU 0 instructions: 280000000 cycles: 115463180 heartbeat IPC: 0.7541 cumulative IPC: 2.234 (Simulation time: 00 hr 34 min 12 sec)
Heartbeat CPU 0 instructions: 290000000 cycles: 128894095 heartbeat IPC: 0.7446 cumulative IPC: 2.062 (Simulation time: 00 hr 36 min 53 sec)
Heartbeat CPU 0 instructions: 300000003 cycles: 137343588 heartbeat IPC: 1.184 cumulative IPC: 2.003 (Simulation time: 00 hr 38 min 46 sec)
Heartbeat CPU 0 instructions: 310000004 cycles: 149957151 heartbeat IPC: 0.7928 cumulative IPC: 1.891 (Simulation time: 00 hr 41 min 05 sec)
Heartbeat CPU 0 instructions: 320000004 cycles: 155484818 heartbeat IPC: 1.809 cumulative IPC: 1.888 (Simulation time: 00 hr 42 min 26 sec)
Heartbeat CPU 0 instructions: 330000000 cycles: 159566403 heartbeat IPC: 2.45 cumulative IPC: 1.904 (Simulation time: 00 hr 43 min 51 sec)
Heartbeat CPU 0 instructions: 340000001 cycles: 164006333 heartbeat IPC: 2.252 cumulative IPC: 1.914 (Simulation time: 00 hr 45 min 24 sec)
Heartbeat CPU 0 instructions: 350000004 cycles: 168467385 heartbeat IPC: 2.242 cumulative IPC: 1.923 (Simulation time: 00 hr 46 min 48 sec)
Heartbeat CPU 0 instructions: 360000003 cycles: 172464805 heartbeat IPC: 2.502 cumulative IPC: 1.938 (Simulation time: 00 hr 48 min 01 sec)
Heartbeat CPU 0 instructions: 370000001 cycles: 176233867 heartbeat IPC: 2.653 cumulative IPC: 1.954 (Simulation time: 00 hr 49 min 14 sec)
Heartbeat CPU 0 instructions: 380000004 cycles: 179823244 heartbeat IPC: 2.786 cumulative IPC: 1.972 (Simulation time: 00 hr 50 min 26 sec)
Heartbeat CPU 0 instructions: 390000002 cycles: 183550491 heartbeat IPC: 2.683 cumulative IPC: 1.988 (Simulation time: 00 hr 51 min 36 sec)
Heartbeat CPU 0 instructions: 400000000 cycles: 187581077 heartbeat IPC: 2.481 cumulative IPC: 1.999 (Simulation time: 00 hr 52 min 45 sec)
Heartbeat CPU 0 instructions: 410000000 cycles: 195730377 heartbeat IPC: 1.227 cumulative IPC: 1.965 (Simulation time: 00 hr 54 min 30 sec)
Heartbeat CPU 0 instructions: 420000003 cycles: 208710856 heartbeat IPC: 0.7704 cumulative IPC: 1.886 (Simulation time: 00 hr 57 min 26 sec)
Heartbeat CPU 0 instructions: 430000000 cycles: 216988752 heartbeat IPC: 1.208 cumulative IPC: 1.858 (Simulation time: 00 hr 59 min 27 sec)
Heartbeat CPU 0 instructions: 440000004 cycles: 225516530 heartbeat IPC: 1.173 cumulative IPC: 1.831 (Simulation time: 01 hr 01 min 24 sec)
Heartbeat CPU 0 instructions: 450000000 cycles: 233874716 heartbeat IPC: 1.196 cumulative IPC: 1.807 (Simulation time: 01 hr 03 min 16 sec)
Heartbeat CPU 0 instructions: 460000002 cycles: 248453725 heartbeat IPC: 0.6859 cumulative IPC: 1.738 (Simulation time: 01 hr 05 min 47 sec)
Heartbeat CPU 0 instructions: 470000003 cycles: 259202043 heartbeat IPC: 0.9304 cumulative IPC: 1.702 (Simulation time: 01 hr 07 min 48 sec)
Heartbeat CPU 0 instructions: 480000003 cycles: 263610311 heartbeat IPC: 2.268 cumulative IPC: 1.712 (Simulation time: 01 hr 09 min 16 sec)
Heartbeat CPU 0 instructions: 490000001 cycles: 268243441 heartbeat IPC: 2.158 cumulative IPC: 1.72 (Simulation time: 01 hr 10 min 53 sec)
Heartbeat CPU 0 instructions: 500000002 cycles: 272348282 heartbeat IPC: 2.436 cumulative IPC: 1.732 (Simulation time: 01 hr 12 min 15 sec)
Heartbeat CPU 0 instructions: 510000000 cycles: 276049435 heartbeat IPC: 2.702 cumulative IPC: 1.745 (Simulation time: 01 hr 13 min 27 sec)
Heartbeat CPU 0 instructions: 520000000 cycles: 279952438 heartbeat IPC: 2.562 cumulative IPC: 1.757 (Simulation time: 01 hr 14 min 43 sec)
Heartbeat CPU 0 instructions: 530000001 cycles: 292776956 heartbeat IPC: 0.7798 cumulative IPC: 1.713 (Simulation time: 01 hr 17 min 03 sec)
Heartbeat CPU 0 instructions: 540000000 cycles: 306127496 heartbeat IPC: 0.749 cumulative IPC: 1.669 (Simulation time: 01 hr 19 min 21 sec)
Heartbeat CPU 0 instructions: 550000004 cycles: 321632838 heartbeat IPC: 0.6449 cumulative IPC: 1.617 (Simulation time: 01 hr 22 min 19 sec)
Heartbeat CPU 0 instructions: 560000004 cycles: 326160126 heartbeat IPC: 2.209 cumulative IPC: 1.626 (Simulation time: 01 hr 23 min 54 sec)
Heartbeat CPU 0 instructions: 570000001 cycles: 329293291 heartbeat IPC: 3.192 cumulative IPC: 1.641 (Simulation time: 01 hr 25 min 06 sec)
Heartbeat CPU 0 instructions: 580000003 cycles: 332838401 heartbeat IPC: 2.821 cumulative IPC: 1.655 (Simulation time: 01 hr 26 min 17 sec)
Heartbeat CPU 0 instructions: 590000002 cycles: 336465309 heartbeat IPC: 2.757 cumulative IPC: 1.667 (Simulation time: 01 hr 27 min 29 sec)
Heartbeat CPU 0 instructions: 600000003 cycles: 339533960 heartbeat IPC: 3.259 cumulative IPC: 1.682 (Simulation time: 01 hr 28 min 31 sec)
Heartbeat CPU 0 instructions: 610000001 cycles: 343045507 heartbeat IPC: 2.848 cumulative IPC: 1.694 (Simulation time: 01 hr 29 min 35 sec)
Heartbeat CPU 0 instructions: 620000000 cycles: 347060895 heartbeat IPC: 2.49 cumulative IPC: 1.704 (Simulation time: 01 hr 30 min 48 sec)
Heartbeat CPU 0 instructions: 630000002 cycles: 350427404 heartbeat IPC: 2.97 cumulative IPC: 1.716 (Simulation time: 01 hr 32 min 08 sec)
Heartbeat CPU 0 instructions: 640000004 cycles: 354441712 heartbeat IPC: 2.491 cumulative IPC: 1.725 (Simulation time: 01 hr 33 min 33 sec)
Heartbeat CPU 0 instructions: 650000001 cycles: 358263180 heartbeat IPC: 2.617 cumulative IPC: 1.735 (Simulation time: 01 hr 34 min 53 sec)
Simulation finished CPU 0 instructions: 600000001 cycles: 345763119 cumulative IPC: 1.735 (Simulation time: 01 hr 34 min 53 sec)
Simulation complete CPU 0 instructions: 600000001 cycles: 345763119 cumulative IPC: 1.735 (Simulation time: 01 hr 34 min 53 sec)

ChampSim completed all CPUs

=== Simulation ===
CPU 0 runs traces/400.perlbench-50B.champsimtrace.xz
Region of Interest Statistics

CPU 0 cumulative IPC: 1.735 instructions: 600000001 cycles: 345763119
CPU 0 Branch Prediction Accuracy: 96.2% MPKI: 7.839 Average ROB Occupancy at Mispredict: 43.93
Branch type MPKI
BRANCH_DIRECT_JUMP: 0.0176
BRANCH_INDIRECT: 0.38
BRANCH_CONDITIONAL: 6.99
BRANCH_DIRECT_CALL: 0.0067
BRANCH_INDIRECT_CALL: 0.431
BRANCH_RETURN: 0.0161

LLC TOTAL        ACCESS:    1351035 HIT:     707266 MISS:     643769
LLC LOAD         ACCESS:     576550 HIT:     311330 MISS:     265220
LLC RFO          ACCESS:      47241 HIT:      18692 MISS:      28549
LLC PREFETCH     ACCESS:     576550 HIT:     292479 MISS:     284071
LLC WRITE        ACCESS:     128647 HIT:      81108 MISS:      47539
LLC TRANSLATION  ACCESS:      22047 HIT:       3657 MISS:      18390
LLC PREFETCH REQUESTED:     576550 ISSUED:     576550 USEFUL:      93589 USELESS:     128053
LLC AVERAGE MISS LATENCY: 531.7 cycles
cpu0_DTLB TOTAL        ACCESS:  146452552 HIT:  145148231 MISS:    1304321
cpu0_DTLB LOAD         ACCESS:  146452552 HIT:  145148231 MISS:    1304321
cpu0_DTLB RFO          ACCESS:          0 HIT:          0 MISS:          0
cpu0_DTLB PREFETCH     ACCESS:          0 HIT:          0 MISS:          0
cpu0_DTLB WRITE        ACCESS:          0 HIT:          0 MISS:          0
cpu0_DTLB TRANSLATION  ACCESS:          0 HIT:          0 MISS:          0
cpu0_DTLB PREFETCH REQUESTED:          0 ISSUED:          0 USEFUL:          0 USELESS:          0
cpu0_DTLB AVERAGE MISS LATENCY: 16.32 cycles
cpu0_ITLB TOTAL        ACCESS:    8984835 HIT:    8800323 MISS:     184512
cpu0_ITLB LOAD         ACCESS:    8984835 HIT:    8800323 MISS:     184512
cpu0_ITLB RFO          ACCESS:          0 HIT:          0 MISS:          0
cpu0_ITLB PREFETCH     ACCESS:          0 HIT:          0 MISS:          0
cpu0_ITLB WRITE        ACCESS:          0 HIT:          0 MISS:          0
cpu0_ITLB TRANSLATION  ACCESS:          0 HIT:          0 MISS:          0
cpu0_ITLB PREFETCH REQUESTED:          0 ISSUED:          0 USEFUL:          0 USELESS:          0
cpu0_ITLB AVERAGE MISS LATENCY: 4.507 cycles
cpu0_L1D TOTAL        ACCESS:  193254330 HIT:  190354790 MISS:    2899540
cpu0_L1D LOAD         ACCESS:  107406983 HIT:  105024116 MISS:    2382867
cpu0_L1D RFO          ACCESS:          0 HIT:          0 MISS:          0
cpu0_L1D PREFETCH     ACCESS:          0 HIT:          0 MISS:          0
cpu0_L1D WRITE        ACCESS:   85818827 HIT:   85328660 MISS:     490167
cpu0_L1D TRANSLATION  ACCESS:      28520 HIT:       2014 MISS:      26506
cpu0_L1D PREFETCH REQUESTED:          0 ISSUED:          0 USEFUL:          0 USELESS:          0
cpu0_L1D AVERAGE MISS LATENCY: 68.77 cycles
cpu0_L1I TOTAL        ACCESS:   10419368 HIT:    8657951 MISS:    1761417
cpu0_L1I LOAD         ACCESS:   10419368 HIT:    8657951 MISS:    1761417
cpu0_L1I RFO          ACCESS:          0 HIT:          0 MISS:          0
cpu0_L1I PREFETCH     ACCESS:          0 HIT:          0 MISS:          0
cpu0_L1I WRITE        ACCESS:          0 HIT:          0 MISS:          0
cpu0_L1I TRANSLATION  ACCESS:          0 HIT:          0 MISS:          0
cpu0_L1I PREFETCH REQUESTED:          0 ISSUED:          0 USEFUL:          0 USELESS:          0
cpu0_L1I AVERAGE MISS LATENCY: 16.2 cycles
cpu0_L2C TOTAL        ACCESS:    3232034 HIT:    2580339 MISS:     651695
cpu0_L2C LOAD         ACCESS:    2710097 HIT:    2133547 MISS:     576550
cpu0_L2C RFO          ACCESS:     133245 HIT:      86004 MISS:      47241
cpu0_L2C PREFETCH     ACCESS:          0 HIT:          0 MISS:          0
cpu0_L2C WRITE        ACCESS:     362254 HIT:     356397 MISS:       5857
cpu0_L2C TRANSLATION  ACCESS:      26438 HIT:       4391 MISS:      22047
cpu0_L2C PREFETCH REQUESTED:          0 ISSUED:          0 USEFUL:          0 USELESS:          0
cpu0_L2C AVERAGE MISS LATENCY: 317.6 cycles
cpu0_STLB TOTAL        ACCESS:    1008454 HIT:     981761 MISS:      26693
cpu0_STLB LOAD         ACCESS:    1008454 HIT:     981761 MISS:      26693
cpu0_STLB RFO          ACCESS:          0 HIT:          0 MISS:          0
cpu0_STLB PREFETCH     ACCESS:          0 HIT:          0 MISS:          0
cpu0_STLB WRITE        ACCESS:          0 HIT:          0 MISS:          0
cpu0_STLB TRANSLATION  ACCESS:          0 HIT:          0 MISS:          0
cpu0_STLB PREFETCH REQUESTED:          0 ISSUED:          0 USEFUL:          0 USELESS:          0
cpu0_STLB AVERAGE MISS LATENCY: 591.9 cycles

DRAM Statistics

Channel 0 RQ ROW_BUFFER_HIT:      77232
  ROW_BUFFER_MISS:     439176
 AVG DBUS CONGESTED CYCLE: 3.893
WQ ROW_BUFFER_HIT: Channel 0 
  ROW_BUFFER_MISS:      10877
  FULL:      70515
