WARNING: physical memory size is smaller than virtual memory size.

*** ChampSim Multicore Out-of-Order Simulator ***
Warmup Instructions: 50000000
Simulation Instructions: 600000000
Number of CPUs: 1
Page size: 4096

Off-chip DRAM Size: 4 GiB Channels: 1 Width: 64-bit Data Race: 3200 MT/s
Heartbeat CPU 0 instructions: 10000000 cycles: 2500061 heartbeat IPC: 4 cumulative IPC: 4 (Simulation time: 00 hr 00 min 56 sec)
Heartbeat CPU 0 instructions: 20000000 cycles: 5000061 heartbeat IPC: 4 cumulative IPC: 4 (Simulation time: 00 hr 01 min 49 sec)
Heartbeat CPU 0 instructions: 30000000 cycles: 7500061 heartbeat IPC: 4 cumulative IPC: 4 (Simulation time: 00 hr 02 min 50 sec)
Heartbeat CPU 0 instructions: 40000000 cycles: 10000061 heartbeat IPC: 4 cumulative IPC: 4 (Simulation time: 00 hr 03 min 50 sec)
Heartbeat CPU 0 instructions: 50000000 cycles: 12500061 heartbeat IPC: 4 cumulative IPC: 4 (Simulation time: 00 hr 04 min 54 sec)
Warmup finished CPU 0 instructions: 50000000 cycles: 12500062 cumulative IPC: 4 (Simulation time: 00 hr 04 min 54 sec)
Warmup complete CPU 0 instructions: 50000000 cycles: 12500062 cumulative IPC: 4 (Simulation time: 00 hr 04 min 54 sec)
Heartbeat CPU 0 instructions: 60000002 cycles: 16444320 heartbeat IPC: 2.535 cumulative IPC: 2.535 (Simulation time: 00 hr 06 min 18 sec)
Heartbeat CPU 0 instructions: 70000003 cycles: 20759823 heartbeat IPC: 2.317 cumulative IPC: 2.421 (Simulation time: 00 hr 07 min 39 sec)
Heartbeat CPU 0 instructions: 80000003 cycles: 25227591 heartbeat IPC: 2.238 cumulative IPC: 2.357 (Simulation time: 00 hr 09 min 00 sec)
Heartbeat CPU 0 instructions: 90000000 cycles: 28919011 heartbeat IPC: 2.709 cumulative IPC: 2.436 (Simulation time: 00 hr 10 min 19 sec)
Heartbeat CPU 0 instructions: 100000003 cycles: 32816151 heartbeat IPC: 2.566 cumulative IPC: 2.461 (Simulation time: 00 hr 11 min 37 sec)
Heartbeat CPU 0 instructions: 110000002 cycles: 36917375 heartbeat IPC: 2.438 cumulative IPC: 2.457 (Simulation time: 00 hr 12 min 57 sec)
Heartbeat CPU 0 instructions: 120000001 cycles: 40633193 heartbeat IPC: 2.691 cumulative IPC: 2.488 (Simulation time: 00 hr 14 min 30 sec)
Heartbeat CPU 0 instructions: 130000003 cycles: 44403228 heartbeat IPC: 2.652 cumulative IPC: 2.508 (Simulation time: 00 hr 16 min 08 sec)
Heartbeat CPU 0 instructions: 140000002 cycles: 48536109 heartbeat IPC: 2.42 cumulative IPC: 2.497 (Simulation time: 00 hr 17 min 49 sec)
Heartbeat CPU 0 instructions: 150000001 cycles: 52588514 heartbeat IPC: 2.468 cumulative IPC: 2.494 (Simulation time: 00 hr 19 min 33 sec)
Heartbeat CPU 0 instructions: 160000000 cycles: 56246657 heartbeat IPC: 2.734 cumulative IPC: 2.514 (Simulation time: 00 hr 21 min 15 sec)
Heartbeat CPU 0 instructions: 170000001 cycles: 60420087 heartbeat IPC: 2.396 cumulative IPC: 2.504 (Simulation time: 00 hr 23 min 02 sec)
Heartbeat CPU 0 instructions: 180000001 cycles: 63879893 heartbeat IPC: 2.89 cumulative IPC: 2.53 (Simulation time: 00 hr 24 min 44 sec)
Heartbeat CPU 0 instructions: 190000002 cycles: 67463337 heartbeat IPC: 2.791 cumulative IPC: 2.547 (Simulation time: 00 hr 25 min 34 sec)
Heartbeat CPU 0 instructions: 200000002 cycles: 71247240 heartbeat IPC: 2.643 cumulative IPC: 2.553 (Simulation time: 00 hr 26 min 22 sec)
Heartbeat CPU 0 instructions: 210000000 cycles: 74886058 heartbeat IPC: 2.748 cumulative IPC: 2.565 (Simulation time: 00 hr 27 min 10 sec)
Heartbeat CPU 0 instructions: 220000001 cycles: 78751216 heartbeat IPC: 2.587 cumulative IPC: 2.566 (Simulation time: 00 hr 27 min 58 sec)
Heartbeat CPU 0 instructions: 230000002 cycles: 82591197 heartbeat IPC: 2.604 cumulative IPC: 2.568 (Simulation time: 00 hr 28 min 47 sec)
Heartbeat CPU 0 instructions: 240000001 cycles: 86796759 heartbeat IPC: 2.378 cumulative IPC: 2.557 (Simulation time: 00 hr 29 min 37 sec)
Heartbeat CPU 0 instructions: 250000003 cycles: 91361000 heartbeat IPC: 2.191 cumulative IPC: 2.536 (Simulation time: 00 hr 30 min 28 sec)
Heartbeat CPU 0 instructions: 260000000 cycles: 95158073 heartbeat IPC: 2.634 cumulative IPC: 2.541 (Simulation time: 00 hr 31 min 19 sec)
Heartbeat CPU 0 instructions: 270000003 cycles: 102285956 heartbeat IPC: 1.403 cumulative IPC: 2.45 (Simulation time: 00 hr 32 min 33 sec)
Heartbeat CPU 0 instructions: 280000000 cycles: 113580075 heartbeat IPC: 0.8854 cumulative IPC: 2.275 (Simulation time: 00 hr 34 min 18 sec)
Heartbeat CPU 0 instructions: 290000000 cycles: 123681958 heartbeat IPC: 0.9899 cumulative IPC: 2.159 (Simulation time: 00 hr 35 min 52 sec)
Heartbeat CPU 0 instructions: 300000003 cycles: 131094921 heartbeat IPC: 1.349 cumulative IPC: 2.108 (Simulation time: 00 hr 37 min 08 sec)
Heartbeat CPU 0 instructions: 310000004 cycles: 141900246 heartbeat IPC: 0.9255 cumulative IPC: 2.009 (Simulation time: 00 hr 38 min 47 sec)
Heartbeat CPU 0 instructions: 320000004 cycles: 146954977 heartbeat IPC: 1.978 cumulative IPC: 2.008 (Simulation time: 00 hr 39 min 46 sec)
Heartbeat CPU 0 instructions: 330000000 cycles: 151030453 heartbeat IPC: 2.454 cumulative IPC: 2.021 (Simulation time: 00 hr 40 min 37 sec)
Heartbeat CPU 0 instructions: 340000001 cycles: 155367082 heartbeat IPC: 2.306 cumulative IPC: 2.03 (Simulation time: 00 hr 41 min 29 sec)
Heartbeat CPU 0 instructions: 350000004 cycles: 159846563 heartbeat IPC: 2.232 cumulative IPC: 2.036 (Simulation time: 00 hr 42 min 25 sec)
Heartbeat CPU 0 instructions: 360000003 cycles: 164016399 heartbeat IPC: 2.398 cumulative IPC: 2.046 (Simulation time: 00 hr 43 min 20 sec)
Heartbeat CPU 0 instructions: 370000001 cycles: 168067083 heartbeat IPC: 2.469 cumulative IPC: 2.057 (Simulation time: 00 hr 44 min 11 sec)
Heartbeat CPU 0 instructions: 380000004 cycles: 171972161 heartbeat IPC: 2.561 cumulative IPC: 2.069 (Simulation time: 00 hr 45 min 02 sec)
Heartbeat CPU 0 instructions: 390000002 cycles: 176074402 heartbeat IPC: 2.438 cumulative IPC: 2.079 (Simulation time: 00 hr 45 min 57 sec)
Heartbeat CPU 0 instructions: 400000000 cycles: 180462271 heartbeat IPC: 2.279 cumulative IPC: 2.084 (Simulation time: 00 hr 46 min 52 sec)
Heartbeat CPU 0 instructions: 410000000 cycles: 188631962 heartbeat IPC: 1.224 cumulative IPC: 2.044 (Simulation time: 00 hr 48 min 07 sec)
Heartbeat CPU 0 instructions: 420000003 cycles: 200742522 heartbeat IPC: 0.8257 cumulative IPC: 1.966 (Simulation time: 00 hr 49 min 53 sec)
Heartbeat CPU 0 instructions: 430000000 cycles: 209359610 heartbeat IPC: 1.16 cumulative IPC: 1.93 (Simulation time: 00 hr 51 min 19 sec)
Heartbeat CPU 0 instructions: 440000004 cycles: 216763440 heartbeat IPC: 1.351 cumulative IPC: 1.909 (Simulation time: 00 hr 52 min 36 sec)
Heartbeat CPU 0 instructions: 450000000 cycles: 224099528 heartbeat IPC: 1.363 cumulative IPC: 1.89 (Simulation time: 00 hr 53 min 55 sec)
Heartbeat CPU 0 instructions: 460000002 cycles: 235808625 heartbeat IPC: 0.854 cumulative IPC: 1.836 (Simulation time: 00 hr 55 min 35 sec)
Heartbeat CPU 0 instructions: 470000003 cycles: 245352533 heartbeat IPC: 1.048 cumulative IPC: 1.804 (Simulation time: 00 hr 57 min 07 sec)
Heartbeat CPU 0 instructions: 480000003 cycles: 249664059 heartbeat IPC: 2.319 cumulative IPC: 1.813 (Simulation time: 00 hr 58 min 02 sec)
Heartbeat CPU 0 instructions: 490000001 cycles: 254408155 heartbeat IPC: 2.108 cumulative IPC: 1.819 (Simulation time: 00 hr 58 min 57 sec)
Heartbeat CPU 0 instructions: 500000002 cycles: 258891934 heartbeat IPC: 2.23 cumulative IPC: 1.826 (Simulation time: 00 hr 59 min 53 sec)
Heartbeat CPU 0 instructions: 510000000 cycles: 263171540 heartbeat IPC: 2.337 cumulative IPC: 1.835 (Simulation time: 01 hr 00 min 51 sec)
Heartbeat CPU 0 instructions: 520000000 cycles: 267632651 heartbeat IPC: 2.242 cumulative IPC: 1.842 (Simulation time: 01 hr 01 min 49 sec)
Heartbeat CPU 0 instructions: 530000001 cycles: 280454816 heartbeat IPC: 0.7799 cumulative IPC: 1.791 (Simulation time: 01 hr 03 min 33 sec)
Heartbeat CPU 0 instructions: 540000000 cycles: 292742654 heartbeat IPC: 0.8138 cumulative IPC: 1.748 (Simulation time: 01 hr 05 min 17 sec)
Heartbeat CPU 0 instructions: 550000004 cycles: 306235058 heartbeat IPC: 0.7412 cumulative IPC: 1.702 (Simulation time: 01 hr 07 min 08 sec)
Heartbeat CPU 0 instructions: 560000004 cycles: 310483005 heartbeat IPC: 2.354 cumulative IPC: 1.712 (Simulation time: 01 hr 07 min 59 sec)
Heartbeat CPU 0 instructions: 570000001 cycles: 313610161 heartbeat IPC: 3.198 cumulative IPC: 1.727 (Simulation time: 01 hr 08 min 46 sec)
Heartbeat CPU 0 instructions: 580000003 cycles: 317153550 heartbeat IPC: 2.822 cumulative IPC: 1.74 (Simulation time: 01 hr 09 min 34 sec)
Heartbeat CPU 0 instructions: 590000002 cycles: 320778601 heartbeat IPC: 2.759 cumulative IPC: 1.752 (Simulation time: 01 hr 10 min 23 sec)
Heartbeat CPU 0 instructions: 600000003 cycles: 323843556 heartbeat IPC: 3.263 cumulative IPC: 1.767 (Simulation time: 01 hr 11 min 11 sec)
Heartbeat CPU 0 instructions: 610000001 cycles: 327352987 heartbeat IPC: 2.849 cumulative IPC: 1.779 (Simulation time: 01 hr 12 min 01 sec)
Heartbeat CPU 0 instructions: 620000000 cycles: 331370988 heartbeat IPC: 2.489 cumulative IPC: 1.788 (Simulation time: 01 hr 12 min 49 sec)
Heartbeat CPU 0 instructions: 630000002 cycles: 334739617 heartbeat IPC: 2.969 cumulative IPC: 1.8 (Simulation time: 01 hr 13 min 34 sec)
Heartbeat CPU 0 instructions: 640000004 cycles: 338753726 heartbeat IPC: 2.491 cumulative IPC: 1.808 (Simulation time: 01 hr 14 min 19 sec)
Heartbeat CPU 0 instructions: 650000001 cycles: 342578444 heartbeat IPC: 2.615 cumulative IPC: 1.818 (Simulation time: 01 hr 14 min 58 sec)
Simulation finished CPU 0 instructions: 600000001 cycles: 330078383 cumulative IPC: 1.818 (Simulation time: 01 hr 14 min 58 sec)
Simulation complete CPU 0 instructions: 600000001 cycles: 330078383 cumulative IPC: 1.818 (Simulation time: 01 hr 14 min 58 sec)

ChampSim completed all CPUs

=== Simulation ===
CPU 0 runs traces/400.perlbench-50B.champsimtrace.xz
Region of Interest Statistics

CPU 0 cumulative IPC: 1.818 instructions: 600000001 cycles: 330078383
CPU 0 Branch Prediction Accuracy: 96.2% MPKI: 7.839 Average ROB Occupancy at Mispredict: 43.68
Branch type MPKI
BRANCH_DIRECT_JUMP: 0.0176
BRANCH_INDIRECT: 0.38
BRANCH_CONDITIONAL: 6.99
BRANCH_DIRECT_CALL: 0.0067
BRANCH_INDIRECT_CALL: 0.431
BRANCH_RETURN: 0.0161

LLC TOTAL        ACCESS:     846923 HIT:     497440 MISS:     349483
LLC LOAD         ACCESS:     582220 HIT:     306696 MISS:     275524
LLC RFO          ACCESS:      47407 HIT:      26818 MISS:      20589
LLC PREFETCH     ACCESS:      65355 HIT:      34701 MISS:      30654
LLC WRITE        ACCESS:     130087 HIT:     119091 MISS:      10996
LLC TRANSLATION  ACCESS:      21854 HIT:      10134 MISS:      11720
LLC PREFETCH REQUESTED:      65355 ISSUED:      65355 USEFUL:      18845 USELESS:       6588
LLC AVERAGE MISS LATENCY: 525.8 cycles
cpu0_DTLB TOTAL        ACCESS:  146486207 HIT:  145182403 MISS:    1303804
cpu0_DTLB LOAD         ACCESS:  146486207 HIT:  145182403 MISS:    1303804
cpu0_DTLB RFO          ACCESS:          0 HIT:          0 MISS:          0
cpu0_DTLB PREFETCH     ACCESS:          0 HIT:          0 MISS:          0
cpu0_DTLB WRITE        ACCESS:          0 HIT:          0 MISS:          0
cpu0_DTLB TRANSLATION  ACCESS:          0 HIT:          0 MISS:          0
cpu0_DTLB PREFETCH REQUESTED:          0 ISSUED:          0 USEFUL:          0 USELESS:          0
cpu0_DTLB AVERAGE MISS LATENCY: 11.82 cycles
cpu0_ITLB TOTAL        ACCESS:    8991115 HIT:    8806550 MISS:     184565
cpu0_ITLB LOAD         ACCESS:    8991115 HIT:    8806550 MISS:     184565
cpu0_ITLB RFO          ACCESS:          0 HIT:          0 MISS:          0
cpu0_ITLB PREFETCH     ACCESS:          0 HIT:          0 MISS:          0
cpu0_ITLB WRITE        ACCESS:          0 HIT:          0 MISS:          0
cpu0_ITLB TRANSLATION  ACCESS:          0 HIT:          0 MISS:          0
cpu0_ITLB PREFETCH REQUESTED:          0 ISSUED:          0 USEFUL:          0 USELESS:          0
cpu0_ITLB AVERAGE MISS LATENCY: 3.405 cycles
cpu0_L1D TOTAL        ACCESS:  193282915 HIT:  190398582 MISS:    2884333
cpu0_L1D LOAD         ACCESS:  107436488 HIT:  105063503 MISS:    2372985
cpu0_L1D RFO          ACCESS:          0 HIT:          0 MISS:          0
cpu0_L1D PREFETCH     ACCESS:          0 HIT:          0 MISS:          0
cpu0_L1D WRITE        ACCESS:   85817904 HIT:   85333064 MISS:     484840
cpu0_L1D TRANSLATION  ACCESS:      28523 HIT:       2015 MISS:      26508
cpu0_L1D PREFETCH REQUESTED:          0 ISSUED:          0 USEFUL:          0 USELESS:          0
cpu0_L1D AVERAGE MISS LATENCY: 62.23 cycles
cpu0_L1I TOTAL        ACCESS:   10424925 HIT:    8662550 MISS:    1762375
cpu0_L1I LOAD         ACCESS:   10424925 HIT:    8662550 MISS:    1762375
cpu0_L1I RFO          ACCESS:          0 HIT:          0 MISS:          0
cpu0_L1I PREFETCH     ACCESS:          0 HIT:          0 MISS:          0
cpu0_L1I WRITE        ACCESS:          0 HIT:          0 MISS:          0
cpu0_L1I TRANSLATION  ACCESS:          0 HIT:          0 MISS:          0
cpu0_L1I PREFETCH REQUESTED:          0 ISSUED:          0 USEFUL:          0 USELESS:          0
cpu0_L1I AVERAGE MISS LATENCY: 11.92 cycles
cpu0_L2C TOTAL        ACCESS:    3232210 HIT:    2574664 MISS:     657546
cpu0_L2C LOAD         ACCESS:    2710045 HIT:    2127824 MISS:     582221
cpu0_L2C RFO          ACCESS:     133266 HIT:      85859 MISS:      47407
cpu0_L2C PREFETCH     ACCESS:          0 HIT:          0 MISS:          0
cpu0_L2C WRITE        ACCESS:     362455 HIT:     356391 MISS:       6064
cpu0_L2C TRANSLATION  ACCESS:      26444 HIT:       4590 MISS:      21854
cpu0_L2C PREFETCH REQUESTED:          0 ISSUED:          0 USEFUL:          0 USELESS:          0
cpu0_L2C AVERAGE MISS LATENCY: 272.4 cycles
cpu0_STLB TOTAL        ACCESS:    1008735 HIT:     982041 MISS:      26694
cpu0_STLB LOAD         ACCESS:    1008735 HIT:     982041 MISS:      26694
cpu0_STLB RFO          ACCESS:          0 HIT:          0 MISS:          0
cpu0_STLB PREFETCH     ACCESS:          0 HIT:          0 MISS:          0
cpu0_STLB WRITE        ACCESS:          0 HIT:          0 MISS:          0
cpu0_STLB TRANSLATION  ACCESS:          0 HIT:          0 MISS:          0
cpu0_STLB PREFETCH REQUESTED:          0 ISSUED:          0 USEFUL:          0 USELESS:          0
cpu0_STLB AVERAGE MISS LATENCY: 357.5 cycles

DRAM Statistics

Channel 0 RQ ROW_BUFFER_HIT:      67510
  ROW_BUFFER_MISS:     265313
 AVG DBUS CONGESTED CYCLE: 3.811
WQ ROW_BUFFER_HIT: Channel 0 
  ROW_BUFFER_MISS:       9947
  FULL:      37829
