WARNING: physical memory size is smaller than virtual memory size.

*** ChampSim Multicore Out-of-Order Simulator ***
Warmup Instructions: 50000000
Simulation Instructions: 600000000
Number of CPUs: 1
Page size: 4096

Off-chip DRAM Size: 4 GiB Channels: 1 Width: 64-bit Data Race: 3200 MT/s
Heartbeat CPU 0 instructions: 10000001 cycles: 2500318 heartbeat IPC: 3.999 cumulative IPC: 3.999 (Simulation time: 00 hr 00 min 57 sec)
Heartbeat CPU 0 instructions: 20000002 cycles: 5037135 heartbeat IPC: 3.942 cumulative IPC: 3.971 (Simulation time: 00 hr 01 min 54 sec)
Heartbeat CPU 0 instructions: 30000002 cycles: 7537135 heartbeat IPC: 4 cumulative IPC: 3.98 (Simulation time: 00 hr 02 min 48 sec)
Heartbeat CPU 0 instructions: 40000002 cycles: 10037135 heartbeat IPC: 4 cumulative IPC: 3.985 (Simulation time: 00 hr 03 min 48 sec)
Heartbeat CPU 0 instructions: 50000002 cycles: 12537135 heartbeat IPC: 4 cumulative IPC: 3.988 (Simulation time: 00 hr 04 min 39 sec)
Warmup finished CPU 0 instructions: 50000002 cycles: 12537136 cumulative IPC: 3.988 (Simulation time: 00 hr 04 min 39 sec)
Warmup complete CPU 0 instructions: 50000002 cycles: 12537136 cumulative IPC: 3.988 (Simulation time: 00 hr 04 min 39 sec)
Heartbeat CPU 0 instructions: 60000000 cycles: 17693709 heartbeat IPC: 1.939 cumulative IPC: 1.939 (Simulation time: 00 hr 05 min 59 sec)
Heartbeat CPU 0 instructions: 70000002 cycles: 22580470 heartbeat IPC: 2.046 cumulative IPC: 1.991 (Simulation time: 00 hr 07 min 11 sec)
Heartbeat CPU 0 instructions: 80000001 cycles: 27937570 heartbeat IPC: 1.867 cumulative IPC: 1.948 (Simulation time: 00 hr 08 min 23 sec)
Heartbeat CPU 0 instructions: 90000001 cycles: 32809467 heartbeat IPC: 2.053 cumulative IPC: 1.973 (Simulation time: 00 hr 09 min 43 sec)
Heartbeat CPU 0 instructions: 100000000 cycles: 37924575 heartbeat IPC: 1.955 cumulative IPC: 1.969 (Simulation time: 00 hr 11 min 21 sec)
Heartbeat CPU 0 instructions: 110000000 cycles: 42813497 heartbeat IPC: 2.045 cumulative IPC: 1.982 (Simulation time: 00 hr 12 min 47 sec)
Heartbeat CPU 0 instructions: 120000001 cycles: 48003491 heartbeat IPC: 1.927 cumulative IPC: 1.974 (Simulation time: 00 hr 14 min 03 sec)
Heartbeat CPU 0 instructions: 130000001 cycles: 53157321 heartbeat IPC: 1.94 cumulative IPC: 1.969 (Simulation time: 00 hr 15 min 16 sec)
Heartbeat CPU 0 instructions: 140000001 cycles: 58465014 heartbeat IPC: 1.884 cumulative IPC: 1.96 (Simulation time: 00 hr 16 min 33 sec)
Heartbeat CPU 0 instructions: 150000001 cycles: 63786197 heartbeat IPC: 1.879 cumulative IPC: 1.951 (Simulation time: 00 hr 18 min 00 sec)
Heartbeat CPU 0 instructions: 160000004 cycles: 68984497 heartbeat IPC: 1.924 cumulative IPC: 1.949 (Simulation time: 00 hr 19 min 13 sec)
Heartbeat CPU 0 instructions: 170000000 cycles: 78248140 heartbeat IPC: 1.079 cumulative IPC: 1.826 (Simulation time: 00 hr 20 min 54 sec)
Heartbeat CPU 0 instructions: 180000004 cycles: 87253150 heartbeat IPC: 1.11 cumulative IPC: 1.74 (Simulation time: 00 hr 22 min 48 sec)
Heartbeat CPU 0 instructions: 190000001 cycles: 97928247 heartbeat IPC: 0.9368 cumulative IPC: 1.64 (Simulation time: 00 hr 25 min 26 sec)
Heartbeat CPU 0 instructions: 200000003 cycles: 102674957 heartbeat IPC: 2.107 cumulative IPC: 1.664 (Simulation time: 00 hr 26 min 46 sec)
Heartbeat CPU 0 instructions: 210000001 cycles: 107575523 heartbeat IPC: 2.041 cumulative IPC: 1.684 (Simulation time: 00 hr 28 min 03 sec)
Heartbeat CPU 0 instructions: 220000000 cycles: 112391996 heartbeat IPC: 2.076 cumulative IPC: 1.702 (Simulation time: 00 hr 29 min 19 sec)
Heartbeat CPU 0 instructions: 230000002 cycles: 117659295 heartbeat IPC: 1.899 cumulative IPC: 1.712 (Simulation time: 00 hr 30 min 39 sec)
Heartbeat CPU 0 instructions: 240000000 cycles: 122486660 heartbeat IPC: 2.072 cumulative IPC: 1.728 (Simulation time: 00 hr 31 min 55 sec)
Heartbeat CPU 0 instructions: 250000000 cycles: 127614854 heartbeat IPC: 1.95 cumulative IPC: 1.738 (Simulation time: 00 hr 33 min 11 sec)
Heartbeat CPU 0 instructions: 260000000 cycles: 132612641 heartbeat IPC: 2.001 cumulative IPC: 1.749 (Simulation time: 00 hr 34 min 23 sec)
Heartbeat CPU 0 instructions: 270000002 cycles: 137488964 heartbeat IPC: 2.051 cumulative IPC: 1.761 (Simulation time: 00 hr 35 min 47 sec)
Heartbeat CPU 0 instructions: 280000002 cycles: 142372225 heartbeat IPC: 2.048 cumulative IPC: 1.771 (Simulation time: 00 hr 37 min 25 sec)
Heartbeat CPU 0 instructions: 290000001 cycles: 147722088 heartbeat IPC: 1.869 cumulative IPC: 1.775 (Simulation time: 00 hr 38 min 58 sec)
Heartbeat CPU 0 instructions: 300000003 cycles: 152755903 heartbeat IPC: 1.987 cumulative IPC: 1.783 (Simulation time: 00 hr 40 min 20 sec)
Heartbeat CPU 0 instructions: 310000001 cycles: 158025012 heartbeat IPC: 1.898 cumulative IPC: 1.787 (Simulation time: 00 hr 41 min 39 sec)
Heartbeat CPU 0 instructions: 320000003 cycles: 163210115 heartbeat IPC: 1.929 cumulative IPC: 1.792 (Simulation time: 00 hr 43 min 02 sec)
Heartbeat CPU 0 instructions: 330000003 cycles: 168484961 heartbeat IPC: 1.896 cumulative IPC: 1.795 (Simulation time: 00 hr 44 min 23 sec)
Heartbeat CPU 0 instructions: 340000000 cycles: 177999923 heartbeat IPC: 1.051 cumulative IPC: 1.753 (Simulation time: 00 hr 46 min 20 sec)
Heartbeat CPU 0 instructions: 350000000 cycles: 187943461 heartbeat IPC: 1.006 cumulative IPC: 1.71 (Simulation time: 00 hr 48 min 31 sec)
Heartbeat CPU 0 instructions: 360000004 cycles: 198897927 heartbeat IPC: 0.9129 cumulative IPC: 1.663 (Simulation time: 00 hr 51 min 15 sec)
Heartbeat CPU 0 instructions: 370000000 cycles: 203296289 heartbeat IPC: 2.274 cumulative IPC: 1.678 (Simulation time: 00 hr 52 min 30 sec)
Heartbeat CPU 0 instructions: 380000001 cycles: 208204721 heartbeat IPC: 2.037 cumulative IPC: 1.687 (Simulation time: 00 hr 53 min 42 sec)
Heartbeat CPU 0 instructions: 390000002 cycles: 213019547 heartbeat IPC: 2.077 cumulative IPC: 1.696 (Simulation time: 00 hr 54 min 56 sec)
Heartbeat CPU 0 instructions: 400000004 cycles: 217948132 heartbeat IPC: 2.029 cumulative IPC: 1.704 (Simulation time: 00 hr 56 min 10 sec)
Heartbeat CPU 0 instructions: 410000000 cycles: 222668188 heartbeat IPC: 2.119 cumulative IPC: 1.713 (Simulation time: 00 hr 57 min 19 sec)
Heartbeat CPU 0 instructions: 420000000 cycles: 227790114 heartbeat IPC: 1.952 cumulative IPC: 1.719 (Simulation time: 00 hr 58 min 30 sec)
Heartbeat CPU 0 instructions: 430000001 cycles: 232260703 heartbeat IPC: 2.237 cumulative IPC: 1.729 (Simulation time: 00 hr 59 min 36 sec)
Heartbeat CPU 0 instructions: 440000000 cycles: 237603094 heartbeat IPC: 1.872 cumulative IPC: 1.733 (Simulation time: 01 hr 00 min 48 sec)
Heartbeat CPU 0 instructions: 450000002 cycles: 242250570 heartbeat IPC: 2.152 cumulative IPC: 1.741 (Simulation time: 01 hr 02 min 20 sec)
Heartbeat CPU 0 instructions: 460000000 cycles: 247035059 heartbeat IPC: 2.09 cumulative IPC: 1.748 (Simulation time: 01 hr 03 min 54 sec)
Heartbeat CPU 0 instructions: 470000000 cycles: 252004410 heartbeat IPC: 2.012 cumulative IPC: 1.754 (Simulation time: 01 hr 05 min 19 sec)
Heartbeat CPU 0 instructions: 480000003 cycles: 256802760 heartbeat IPC: 2.084 cumulative IPC: 1.76 (Simulation time: 01 hr 06 min 38 sec)
Heartbeat CPU 0 instructions: 490000000 cycles: 261401104 heartbeat IPC: 2.175 cumulative IPC: 1.768 (Simulation time: 01 hr 07 min 55 sec)
Heartbeat CPU 0 instructions: 500000000 cycles: 266409079 heartbeat IPC: 1.997 cumulative IPC: 1.773 (Simulation time: 01 hr 09 min 15 sec)
Heartbeat CPU 0 instructions: 510000003 cycles: 272069582 heartbeat IPC: 1.767 cumulative IPC: 1.772 (Simulation time: 01 hr 10 min 36 sec)
Heartbeat CPU 0 instructions: 520000001 cycles: 276740272 heartbeat IPC: 2.141 cumulative IPC: 1.779 (Simulation time: 01 hr 11 min 50 sec)
Heartbeat CPU 0 instructions: 530000002 cycles: 281904484 heartbeat IPC: 1.936 cumulative IPC: 1.782 (Simulation time: 01 hr 13 min 05 sec)
Heartbeat CPU 0 instructions: 540000000 cycles: 287006593 heartbeat IPC: 1.96 cumulative IPC: 1.785 (Simulation time: 01 hr 14 min 23 sec)
Heartbeat CPU 0 instructions: 550000001 cycles: 291805210 heartbeat IPC: 2.084 cumulative IPC: 1.79 (Simulation time: 01 hr 16 min 00 sec)
Heartbeat CPU 0 instructions: 560000000 cycles: 297071590 heartbeat IPC: 1.899 cumulative IPC: 1.792 (Simulation time: 01 hr 17 min 33 sec)
Heartbeat CPU 0 instructions: 570000004 cycles: 304086491 heartbeat IPC: 1.426 cumulative IPC: 1.784 (Simulation time: 01 hr 19 min 18 sec)
Heartbeat CPU 0 instructions: 580000003 cycles: 314913556 heartbeat IPC: 0.9236 cumulative IPC: 1.753 (Simulation time: 01 hr 21 min 35 sec)
Heartbeat CPU 0 instructions: 590000002 cycles: 327896408 heartbeat IPC: 0.7702 cumulative IPC: 1.712 (Simulation time: 01 hr 24 min 05 sec)
Heartbeat CPU 0 instructions: 600000000 cycles: 332488460 heartbeat IPC: 2.178 cumulative IPC: 1.719 (Simulation time: 01 hr 25 min 16 sec)
Heartbeat CPU 0 instructions: 610000002 cycles: 336964565 heartbeat IPC: 2.234 cumulative IPC: 1.726 (Simulation time: 01 hr 26 min 23 sec)
Heartbeat CPU 0 instructions: 620000000 cycles: 341760573 heartbeat IPC: 2.085 cumulative IPC: 1.731 (Simulation time: 01 hr 27 min 42 sec)
Heartbeat CPU 0 instructions: 630000002 cycles: 346830355 heartbeat IPC: 1.972 cumulative IPC: 1.735 (Simulation time: 01 hr 29 min 12 sec)
Heartbeat CPU 0 instructions: 640000001 cycles: 351676063 heartbeat IPC: 2.064 cumulative IPC: 1.74 (Simulation time: 01 hr 30 min 47 sec)
Heartbeat CPU 0 instructions: 650000000 cycles: 356223877 heartbeat IPC: 2.199 cumulative IPC: 1.746 (Simulation time: 01 hr 32 min 08 sec)
Simulation finished CPU 0 instructions: 600000001 cycles: 343686743 cumulative IPC: 1.746 (Simulation time: 01 hr 32 min 08 sec)
Simulation complete CPU 0 instructions: 600000001 cycles: 343686743 cumulative IPC: 1.746 (Simulation time: 01 hr 32 min 08 sec)

ChampSim completed all CPUs

=== Simulation ===
CPU 0 runs traces/400.perlbench-41B.champsimtrace.xz
Region of Interest Statistics

CPU 0 cumulative IPC: 1.746 instructions: 600000001 cycles: 343686743
CPU 0 Branch Prediction Accuracy: 93.95% MPKI: 12.5 Average ROB Occupancy at Mispredict: 29.55
Branch type MPKI
BRANCH_DIRECT_JUMP: 0.0123
BRANCH_INDIRECT: 0.323
BRANCH_CONDITIONAL: 12
BRANCH_DIRECT_CALL: 0.0043
BRANCH_INDIRECT_CALL: 0.2
BRANCH_RETURN: 0.00828

LLC TOTAL        ACCESS:     595002 HIT:     355459 MISS:     239543
LLC LOAD         ACCESS:     402367 HIT:     205223 MISS:     197144
LLC RFO          ACCESS:      32362 HIT:      24813 MISS:       7549
LLC PREFETCH     ACCESS:      54984 HIT:      43171 MISS:      11813
LLC WRITE        ACCESS:      86320 HIT:      76513 MISS:       9807
LLC TRANSLATION  ACCESS:      18969 HIT:       5739 MISS:      13230
LLC PREFETCH REQUESTED:      54984 ISSUED:      54984 USEFUL:       4683 USELESS:       5962
LLC AVERAGE MISS LATENCY: 491.1 cycles
cpu0_DTLB TOTAL        ACCESS:  153689091 HIT:  153011378 MISS:     677713
cpu0_DTLB LOAD         ACCESS:  153689091 HIT:  153011378 MISS:     677713
cpu0_DTLB RFO          ACCESS:          0 HIT:          0 MISS:          0
cpu0_DTLB PREFETCH     ACCESS:          0 HIT:          0 MISS:          0
cpu0_DTLB WRITE        ACCESS:          0 HIT:          0 MISS:          0
cpu0_DTLB TRANSLATION  ACCESS:          0 HIT:          0 MISS:          0
cpu0_DTLB PREFETCH REQUESTED:          0 ISSUED:          0 USEFUL:          0 USELESS:          0
cpu0_DTLB AVERAGE MISS LATENCY: 17.28 cycles
cpu0_ITLB TOTAL        ACCESS:    4840103 HIT:    4782261 MISS:      57842
cpu0_ITLB LOAD         ACCESS:    4840103 HIT:    4782261 MISS:      57842
cpu0_ITLB RFO          ACCESS:          0 HIT:          0 MISS:          0
cpu0_ITLB PREFETCH     ACCESS:          0 HIT:          0 MISS:          0
cpu0_ITLB WRITE        ACCESS:          0 HIT:          0 MISS:          0
cpu0_ITLB TRANSLATION  ACCESS:          0 HIT:          0 MISS:          0
cpu0_ITLB PREFETCH REQUESTED:          0 ISSUED:          0 USEFUL:          0 USELESS:          0
cpu0_ITLB AVERAGE MISS LATENCY: 7.26 cycles
cpu0_L1D TOTAL        ACCESS:  200308856 HIT:  198986113 MISS:    1322743
cpu0_L1D LOAD         ACCESS:  117064421 HIT:  116043010 MISS:    1021411
cpu0_L1D RFO          ACCESS:          0 HIT:          0 MISS:          0
cpu0_L1D PREFETCH     ACCESS:          0 HIT:          0 MISS:          0
cpu0_L1D WRITE        ACCESS:   83219973 HIT:   82941528 MISS:     278445
cpu0_L1D TRANSLATION  ACCESS:      24462 HIT:       1575 MISS:      22887
cpu0_L1D PREFETCH REQUESTED:          0 ISSUED:          0 USEFUL:          0 USELESS:          0
cpu0_L1D AVERAGE MISS LATENCY: 89.54 cycles
cpu0_L1I TOTAL        ACCESS:    5582179 HIT:    4820904 MISS:     761275
cpu0_L1I LOAD         ACCESS:    5582179 HIT:    4820904 MISS:     761275
cpu0_L1I RFO          ACCESS:          0 HIT:          0 MISS:          0
cpu0_L1I PREFETCH     ACCESS:          0 HIT:          0 MISS:          0
cpu0_L1I WRITE        ACCESS:          0 HIT:          0 MISS:          0
cpu0_L1I TRANSLATION  ACCESS:          0 HIT:          0 MISS:          0
cpu0_L1I PREFETCH REQUESTED:          0 ISSUED:          0 USEFUL:          0 USELESS:          0
cpu0_L1I AVERAGE MISS LATENCY: 13.53 cycles
cpu0_L2C TOTAL        ACCESS:    1382545 HIT:     925202 MISS:     457343
cpu0_L2C LOAD         ACCESS:    1125653 HIT:     723286 MISS:     402367
cpu0_L2C RFO          ACCESS:      63870 HIT:      31508 MISS:      32362
cpu0_L2C PREFETCH     ACCESS:          0 HIT:          0 MISS:          0
cpu0_L2C WRITE        ACCESS:     170219 HIT:     166574 MISS:       3645
cpu0_L2C TRANSLATION  ACCESS:      22803 HIT:       3834 MISS:      18969
cpu0_L2C PREFETCH REQUESTED:          0 ISSUED:          0 USEFUL:          0 USELESS:          0
cpu0_L2C AVERAGE MISS LATENCY: 262.1 cycles
cpu0_STLB TOTAL        ACCESS:     505147 HIT:     482359 MISS:      22788
cpu0_STLB LOAD         ACCESS:     505147 HIT:     482359 MISS:      22788
cpu0_STLB RFO          ACCESS:          0 HIT:          0 MISS:          0
cpu0_STLB PREFETCH     ACCESS:          0 HIT:          0 MISS:          0
cpu0_STLB WRITE        ACCESS:          0 HIT:          0 MISS:          0
cpu0_STLB TRANSLATION  ACCESS:          0 HIT:          0 MISS:          0
cpu0_STLB PREFETCH REQUESTED:          0 ISSUED:          0 USEFUL:          0 USELESS:          0
cpu0_STLB AVERAGE MISS LATENCY: 392.4 cycles

DRAM Statistics

Channel 0 RQ ROW_BUFFER_HIT:      48415
  ROW_BUFFER_MISS:     179786
 AVG DBUS CONGESTED CYCLE: 3.735
WQ ROW_BUFFER_HIT: Channel 0 
  ROW_BUFFER_MISS:       5632
  FULL:       8828
