WARNING: physical memory size is smaller than virtual memory size.

*** ChampSim Multicore Out-of-Order Simulator ***
Warmup Instructions: 50000000
Simulation Instructions: 600000000
Number of CPUs: 1
Page size: 4096

Off-chip DRAM Size: 4 GiB Channels: 1 Width: 64-bit Data Race: 3200 MT/s
Heartbeat CPU 0 instructions: 10000000 cycles: 2500061 heartbeat IPC: 4 cumulative IPC: 4 (Simulation time: 00 hr 00 min 33 sec)
Heartbeat CPU 0 instructions: 20000000 cycles: 5000061 heartbeat IPC: 4 cumulative IPC: 4 (Simulation time: 00 hr 01 min 13 sec)
Heartbeat CPU 0 instructions: 30000000 cycles: 7500061 heartbeat IPC: 4 cumulative IPC: 4 (Simulation time: 00 hr 02 min 03 sec)
Heartbeat CPU 0 instructions: 40000000 cycles: 10000061 heartbeat IPC: 4 cumulative IPC: 4 (Simulation time: 00 hr 02 min 54 sec)
Heartbeat CPU 0 instructions: 50000000 cycles: 12500061 heartbeat IPC: 4 cumulative IPC: 4 (Simulation time: 00 hr 03 min 54 sec)
Warmup finished CPU 0 instructions: 50000000 cycles: 12500062 cumulative IPC: 4 (Simulation time: 00 hr 03 min 54 sec)
Warmup complete CPU 0 instructions: 50000000 cycles: 12500062 cumulative IPC: 4 (Simulation time: 00 hr 03 min 54 sec)
Heartbeat CPU 0 instructions: 60000002 cycles: 16896901 heartbeat IPC: 2.274 cumulative IPC: 2.274 (Simulation time: 00 hr 05 min 19 sec)
Heartbeat CPU 0 instructions: 70000003 cycles: 21873886 heartbeat IPC: 2.009 cumulative IPC: 2.134 (Simulation time: 00 hr 06 min 53 sec)
Heartbeat CPU 0 instructions: 80000001 cycles: 27216612 heartbeat IPC: 1.872 cumulative IPC: 2.039 (Simulation time: 00 hr 08 min 26 sec)
Heartbeat CPU 0 instructions: 90000000 cycles: 31511289 heartbeat IPC: 2.328 cumulative IPC: 2.104 (Simulation time: 00 hr 09 min 49 sec)
Heartbeat CPU 0 instructions: 100000003 cycles: 36359280 heartbeat IPC: 2.063 cumulative IPC: 2.096 (Simulation time: 00 hr 11 min 12 sec)
Heartbeat CPU 0 instructions: 110000002 cycles: 41221329 heartbeat IPC: 2.057 cumulative IPC: 2.089 (Simulation time: 00 hr 12 min 40 sec)
Heartbeat CPU 0 instructions: 120000001 cycles: 46213575 heartbeat IPC: 2.003 cumulative IPC: 2.076 (Simulation time: 00 hr 14 min 06 sec)
Heartbeat CPU 0 instructions: 130000003 cycles: 50771865 heartbeat IPC: 2.194 cumulative IPC: 2.09 (Simulation time: 00 hr 15 min 41 sec)
Heartbeat CPU 0 instructions: 140000002 cycles: 55654353 heartbeat IPC: 2.048 cumulative IPC: 2.086 (Simulation time: 00 hr 17 min 28 sec)
Heartbeat CPU 0 instructions: 150000001 cycles: 60312927 heartbeat IPC: 2.147 cumulative IPC: 2.091 (Simulation time: 00 hr 19 min 16 sec)
Heartbeat CPU 0 instructions: 160000000 cycles: 64941558 heartbeat IPC: 2.16 cumulative IPC: 2.098 (Simulation time: 00 hr 21 min 07 sec)
Heartbeat CPU 0 instructions: 170000000 cycles: 70266544 heartbeat IPC: 1.878 cumulative IPC: 2.077 (Simulation time: 00 hr 23 min 06 sec)
Heartbeat CPU 0 instructions: 180000001 cycles: 75980624 heartbeat IPC: 1.75 cumulative IPC: 2.048 (Simulation time: 00 hr 25 min 10 sec)
Heartbeat CPU 0 instructions: 190000002 cycles: 80441794 heartbeat IPC: 2.242 cumulative IPC: 2.061 (Simulation time: 00 hr 26 min 41 sec)
Heartbeat CPU 0 instructions: 200000002 cycles: 85332805 heartbeat IPC: 2.045 cumulative IPC: 2.06 (Simulation time: 00 hr 27 min 35 sec)
Heartbeat CPU 0 instructions: 210000000 cycles: 90330704 heartbeat IPC: 2.001 cumulative IPC: 2.056 (Simulation time: 00 hr 28 min 30 sec)
Heartbeat CPU 0 instructions: 220000001 cycles: 95252402 heartbeat IPC: 2.032 cumulative IPC: 2.054 (Simulation time: 00 hr 29 min 24 sec)
Heartbeat CPU 0 instructions: 230000002 cycles: 100491020 heartbeat IPC: 1.909 cumulative IPC: 2.046 (Simulation time: 00 hr 30 min 20 sec)
Heartbeat CPU 0 instructions: 240000001 cycles: 105449351 heartbeat IPC: 2.017 cumulative IPC: 2.044 (Simulation time: 00 hr 31 min 14 sec)
Heartbeat CPU 0 instructions: 250000003 cycles: 110628206 heartbeat IPC: 1.931 cumulative IPC: 2.038 (Simulation time: 00 hr 32 min 09 sec)
Heartbeat CPU 0 instructions: 260000001 cycles: 115494581 heartbeat IPC: 2.055 cumulative IPC: 2.039 (Simulation time: 00 hr 33 min 05 sec)
Heartbeat CPU 0 instructions: 270000000 cycles: 122893040 heartbeat IPC: 1.352 cumulative IPC: 1.993 (Simulation time: 00 hr 34 min 20 sec)
Heartbeat CPU 0 instructions: 280000000 cycles: 134074622 heartbeat IPC: 0.8943 cumulative IPC: 1.892 (Simulation time: 00 hr 36 min 04 sec)
Heartbeat CPU 0 instructions: 290000001 cycles: 143910953 heartbeat IPC: 1.017 cumulative IPC: 1.826 (Simulation time: 00 hr 37 min 36 sec)
Heartbeat CPU 0 instructions: 300000003 cycles: 151466783 heartbeat IPC: 1.323 cumulative IPC: 1.799 (Simulation time: 00 hr 38 min 51 sec)
Heartbeat CPU 0 instructions: 310000004 cycles: 162800977 heartbeat IPC: 0.8823 cumulative IPC: 1.73 (Simulation time: 00 hr 40 min 33 sec)
Heartbeat CPU 0 instructions: 320000004 cycles: 168622475 heartbeat IPC: 1.718 cumulative IPC: 1.729 (Simulation time: 00 hr 41 min 36 sec)
Heartbeat CPU 0 instructions: 330000000 cycles: 173917334 heartbeat IPC: 1.889 cumulative IPC: 1.735 (Simulation time: 00 hr 42 min 33 sec)
Heartbeat CPU 0 instructions: 340000001 cycles: 179155996 heartbeat IPC: 1.909 cumulative IPC: 1.74 (Simulation time: 00 hr 43 min 30 sec)
Heartbeat CPU 0 instructions: 350000000 cycles: 184589760 heartbeat IPC: 1.84 cumulative IPC: 1.743 (Simulation time: 00 hr 44 min 34 sec)
Heartbeat CPU 0 instructions: 360000003 cycles: 189786479 heartbeat IPC: 1.924 cumulative IPC: 1.749 (Simulation time: 00 hr 45 min 31 sec)
Heartbeat CPU 0 instructions: 370000001 cycles: 194866067 heartbeat IPC: 1.969 cumulative IPC: 1.755 (Simulation time: 00 hr 46 min 28 sec)
Heartbeat CPU 0 instructions: 380000004 cycles: 200221051 heartbeat IPC: 1.867 cumulative IPC: 1.758 (Simulation time: 00 hr 47 min 29 sec)
Heartbeat CPU 0 instructions: 390000002 cycles: 205660639 heartbeat IPC: 1.838 cumulative IPC: 1.76 (Simulation time: 00 hr 48 min 29 sec)
Heartbeat CPU 0 instructions: 400000000 cycles: 211179579 heartbeat IPC: 1.812 cumulative IPC: 1.762 (Simulation time: 00 hr 49 min 26 sec)
Heartbeat CPU 0 instructions: 410000000 cycles: 219630809 heartbeat IPC: 1.183 cumulative IPC: 1.738 (Simulation time: 00 hr 50 min 46 sec)
Heartbeat CPU 0 instructions: 420000001 cycles: 231098152 heartbeat IPC: 0.872 cumulative IPC: 1.693 (Simulation time: 00 hr 52 min 30 sec)
Heartbeat CPU 0 instructions: 430000000 cycles: 239328377 heartbeat IPC: 1.215 cumulative IPC: 1.675 (Simulation time: 00 hr 53 min 53 sec)
Heartbeat CPU 0 instructions: 440000002 cycles: 247007930 heartbeat IPC: 1.302 cumulative IPC: 1.663 (Simulation time: 00 hr 55 min 14 sec)
Heartbeat CPU 0 instructions: 450000000 cycles: 254255994 heartbeat IPC: 1.38 cumulative IPC: 1.655 (Simulation time: 00 hr 56 min 30 sec)
Heartbeat CPU 0 instructions: 460000002 cycles: 266039244 heartbeat IPC: 0.8487 cumulative IPC: 1.617 (Simulation time: 00 hr 58 min 12 sec)
Heartbeat CPU 0 instructions: 470000000 cycles: 276498125 heartbeat IPC: 0.9561 cumulative IPC: 1.591 (Simulation time: 00 hr 59 min 48 sec)
Heartbeat CPU 0 instructions: 480000000 cycles: 282045722 heartbeat IPC: 1.803 cumulative IPC: 1.595 (Simulation time: 01 hr 00 min 48 sec)
Heartbeat CPU 0 instructions: 490000001 cycles: 287836737 heartbeat IPC: 1.727 cumulative IPC: 1.598 (Simulation time: 01 hr 01 min 51 sec)
Heartbeat CPU 0 instructions: 500000002 cycles: 293521863 heartbeat IPC: 1.759 cumulative IPC: 1.601 (Simulation time: 01 hr 02 min 58 sec)
Heartbeat CPU 0 instructions: 510000000 cycles: 299288181 heartbeat IPC: 1.734 cumulative IPC: 1.604 (Simulation time: 01 hr 04 min 00 sec)
Heartbeat CPU 0 instructions: 520000000 cycles: 305100275 heartbeat IPC: 1.721 cumulative IPC: 1.606 (Simulation time: 01 hr 05 min 00 sec)
Heartbeat CPU 0 instructions: 530000001 cycles: 317326162 heartbeat IPC: 0.8179 cumulative IPC: 1.575 (Simulation time: 01 hr 06 min 42 sec)
Heartbeat CPU 0 instructions: 540000000 cycles: 329020011 heartbeat IPC: 0.8552 cumulative IPC: 1.548 (Simulation time: 01 hr 08 min 22 sec)
Heartbeat CPU 0 instructions: 550000002 cycles: 343130155 heartbeat IPC: 0.7087 cumulative IPC: 1.512 (Simulation time: 01 hr 10 min 12 sec)
Heartbeat CPU 0 instructions: 560000004 cycles: 348034707 heartbeat IPC: 2.039 cumulative IPC: 1.52 (Simulation time: 01 hr 11 min 07 sec)
Heartbeat CPU 0 instructions: 570000001 cycles: 352451603 heartbeat IPC: 2.264 cumulative IPC: 1.53 (Simulation time: 01 hr 12 min 01 sec)
Heartbeat CPU 0 instructions: 580000003 cycles: 356699814 heartbeat IPC: 2.354 cumulative IPC: 1.54 (Simulation time: 01 hr 12 min 53 sec)
Heartbeat CPU 0 instructions: 590000001 cycles: 361617267 heartbeat IPC: 2.034 cumulative IPC: 1.547 (Simulation time: 01 hr 13 min 48 sec)
Heartbeat CPU 0 instructions: 600000003 cycles: 366271396 heartbeat IPC: 2.149 cumulative IPC: 1.555 (Simulation time: 01 hr 14 min 40 sec)
Heartbeat CPU 0 instructions: 610000001 cycles: 371143536 heartbeat IPC: 2.052 cumulative IPC: 1.561 (Simulation time: 01 hr 15 min 31 sec)
Heartbeat CPU 0 instructions: 620000000 cycles: 376217321 heartbeat IPC: 1.971 cumulative IPC: 1.567 (Simulation time: 01 hr 16 min 17 sec)
Heartbeat CPU 0 instructions: 630000002 cycles: 380469170 heartbeat IPC: 2.352 cumulative IPC: 1.576 (Simulation time: 01 hr 16 min 55 sec)
Heartbeat CPU 0 instructions: 640000004 cycles: 385797584 heartbeat IPC: 1.877 cumulative IPC: 1.581 (Simulation time: 01 hr 17 min 28 sec)
Heartbeat CPU 0 instructions: 650000001 cycles: 390562020 heartbeat IPC: 2.099 cumulative IPC: 1.587 (Simulation time: 01 hr 17 min 53 sec)
Simulation finished CPU 0 instructions: 600000001 cycles: 378061959 cumulative IPC: 1.587 (Simulation time: 01 hr 17 min 53 sec)
Simulation complete CPU 0 instructions: 600000001 cycles: 378061959 cumulative IPC: 1.587 (Simulation time: 01 hr 17 min 53 sec)

ChampSim completed all CPUs

=== Simulation ===
CPU 0 runs traces/400.perlbench-50B.champsimtrace.xz
Region of Interest Statistics

CPU 0 cumulative IPC: 1.587 instructions: 600000001 cycles: 378061959
CPU 0 Branch Prediction Accuracy: 93.83% MPKI: 12.71 Average ROB Occupancy at Mispredict: 29.35
Branch type MPKI
BRANCH_DIRECT_JUMP: 0.0176
BRANCH_INDIRECT: 0.38
BRANCH_CONDITIONAL: 11.9
BRANCH_DIRECT_CALL: 0.0067
BRANCH_INDIRECT_CALL: 0.431
BRANCH_RETURN: 0.0161

LLC TOTAL        ACCESS:    1383185 HIT:     839291 MISS:     543894
LLC LOAD         ACCESS:     591734 HIT:     347877 MISS:     243857
LLC RFO          ACCESS:      47373 HIT:      26323 MISS:      21050
LLC PREFETCH     ACCESS:     591734 HIT:     341549 MISS:     250185
LLC WRITE        ACCESS:     130474 HIT:     115066 MISS:      15408
LLC TRANSLATION  ACCESS:      21870 HIT:       8476 MISS:      13394
LLC PREFETCH REQUESTED:     591734 ISSUED:     591734 USEFUL:      78343 USELESS:      69404
LLC AVERAGE MISS LATENCY: 532 cycles
cpu0_DTLB TOTAL        ACCESS:  156767393 HIT:  155466661 MISS:    1300732
cpu0_DTLB LOAD         ACCESS:  156767393 HIT:  155466661 MISS:    1300732
cpu0_DTLB RFO          ACCESS:          0 HIT:          0 MISS:          0
cpu0_DTLB PREFETCH     ACCESS:          0 HIT:          0 MISS:          0
cpu0_DTLB WRITE        ACCESS:          0 HIT:          0 MISS:          0
cpu0_DTLB TRANSLATION  ACCESS:          0 HIT:          0 MISS:          0
cpu0_DTLB PREFETCH REQUESTED:          0 ISSUED:          0 USEFUL:          0 USELESS:          0
cpu0_DTLB AVERAGE MISS LATENCY: 13.49 cycles
cpu0_ITLB TOTAL        ACCESS:    8932177 HIT:    8733537 MISS:     198640
cpu0_ITLB LOAD         ACCESS:    8932177 HIT:    8733537 MISS:     198640
cpu0_ITLB RFO          ACCESS:          0 HIT:          0 MISS:          0
cpu0_ITLB PREFETCH     ACCESS:          0 HIT:          0 MISS:          0
cpu0_ITLB WRITE        ACCESS:          0 HIT:          0 MISS:          0
cpu0_ITLB TRANSLATION  ACCESS:          0 HIT:          0 MISS:          0
cpu0_ITLB PREFETCH REQUESTED:          0 ISSUED:          0 USEFUL:          0 USELESS:          0
cpu0_ITLB AVERAGE MISS LATENCY: 3.505 cycles
cpu0_L1D TOTAL        ACCESS:  203633125 HIT:  200745767 MISS:    2887358
cpu0_L1D LOAD         ACCESS:  117956070 HIT:  115586382 MISS:    2369688
cpu0_L1D RFO          ACCESS:          0 HIT:          0 MISS:          0
cpu0_L1D PREFETCH     ACCESS:          0 HIT:          0 MISS:          0
cpu0_L1D WRITE        ACCESS:   85648519 HIT:   85157388 MISS:     491131
cpu0_L1D TRANSLATION  ACCESS:      28536 HIT:       1997 MISS:      26539
cpu0_L1D PREFETCH REQUESTED:          0 ISSUED:          0 USEFUL:          0 USELESS:          0
cpu0_L1D AVERAGE MISS LATENCY: 61.74 cycles
cpu0_L1I TOTAL        ACCESS:   10370946 HIT:    8573857 MISS:    1797089
cpu0_L1I LOAD         ACCESS:   10370946 HIT:    8573857 MISS:    1797089
cpu0_L1I RFO          ACCESS:          0 HIT:          0 MISS:          0
cpu0_L1I PREFETCH     ACCESS:          0 HIT:          0 MISS:          0
cpu0_L1I WRITE        ACCESS:          0 HIT:          0 MISS:          0
cpu0_L1I TRANSLATION  ACCESS:          0 HIT:          0 MISS:          0
cpu0_L1I PREFETCH REQUESTED:          0 ISSUED:          0 USEFUL:          0 USELESS:          0
cpu0_L1I AVERAGE MISS LATENCY: 11.51 cycles
cpu0_L2C TOTAL        ACCESS:    3235132 HIT:    2567522 MISS:     667610
cpu0_L2C LOAD         ACCESS:    2711656 HIT:    2119920 MISS:     591736
cpu0_L2C RFO          ACCESS:     133684 HIT:      86311 MISS:      47373
cpu0_L2C PREFETCH     ACCESS:          0 HIT:          0 MISS:          0
cpu0_L2C WRITE        ACCESS:     363334 HIT:     356703 MISS:       6631
cpu0_L2C TRANSLATION  ACCESS:      26458 HIT:       4588 MISS:      21870
cpu0_L2C PREFETCH REQUESTED:          0 ISSUED:          0 USEFUL:          0 USELESS:          0
cpu0_L2C AVERAGE MISS LATENCY: 265.1 cycles
cpu0_STLB TOTAL        ACCESS:    1009186 HIT:     982499 MISS:      26687
cpu0_STLB LOAD         ACCESS:    1009186 HIT:     982499 MISS:      26687
cpu0_STLB RFO          ACCESS:          0 HIT:          0 MISS:          0
cpu0_STLB PREFETCH     ACCESS:          0 HIT:          0 MISS:          0
cpu0_STLB WRITE        ACCESS:          0 HIT:          0 MISS:          0
cpu0_STLB TRANSLATION  ACCESS:          0 HIT:          0 MISS:          0
cpu0_STLB PREFETCH REQUESTED:          0 ISSUED:          0 USEFUL:          0 USELESS:          0
cpu0_STLB AVERAGE MISS LATENCY: 442 cycles

DRAM Statistics

Channel 0 RQ ROW_BUFFER_HIT:      96045
  ROW_BUFFER_MISS:     358492
 AVG DBUS CONGESTED CYCLE: 3.863
WQ ROW_BUFFER_HIT: Channel 0 
  ROW_BUFFER_MISS:       7728
  FULL:      46178
