WARNING: physical memory size is smaller than virtual memory size.

*** ChampSim Multicore Out-of-Order Simulator ***
Warmup Instructions: 50000000
Simulation Instructions: 600000000
Number of CPUs: 1
Page size: 4096

CPU 0 Tage branch predictor
Off-chip DRAM Size: 4 GiB Channels: 1 Width: 64-bit Data Race: 3200 MT/s
Heartbeat CPU 0 instructions: 10000001 cycles: 2500318 heartbeat IPC: 3.999 cumulative IPC: 3.999 (Simulation time: 00 hr 01 min 09 sec)
Heartbeat CPU 0 instructions: 20000002 cycles: 5037130 heartbeat IPC: 3.942 cumulative IPC: 3.971 (Simulation time: 00 hr 02 min 19 sec)
Heartbeat CPU 0 instructions: 30000002 cycles: 7537130 heartbeat IPC: 4 cumulative IPC: 3.98 (Simulation time: 00 hr 03 min 23 sec)
Heartbeat CPU 0 instructions: 40000002 cycles: 10037130 heartbeat IPC: 4 cumulative IPC: 3.985 (Simulation time: 00 hr 04 min 32 sec)
Heartbeat CPU 0 instructions: 50000002 cycles: 12537130 heartbeat IPC: 4 cumulative IPC: 3.988 (Simulation time: 00 hr 05 min 33 sec)
Warmup finished CPU 0 instructions: 50000002 cycles: 12537131 cumulative IPC: 3.988 (Simulation time: 00 hr 05 min 33 sec)
Warmup complete CPU 0 instructions: 50000002 cycles: 12537131 cumulative IPC: 3.988 (Simulation time: 00 hr 05 min 33 sec)
Heartbeat CPU 0 instructions: 60000001 cycles: 15514823 heartbeat IPC: 3.358 cumulative IPC: 3.358 (Simulation time: 00 hr 06 min 47 sec)
Heartbeat CPU 0 instructions: 70000004 cycles: 18587381 heartbeat IPC: 3.255 cumulative IPC: 3.306 (Simulation time: 00 hr 08 min 20 sec)
Heartbeat CPU 0 instructions: 80000001 cycles: 21636843 heartbeat IPC: 3.279 cumulative IPC: 3.297 (Simulation time: 00 hr 09 min 52 sec)
Heartbeat CPU 0 instructions: 90000001 cycles: 24583827 heartbeat IPC: 3.393 cumulative IPC: 3.32 (Simulation time: 00 hr 11 min 18 sec)
Heartbeat CPU 0 instructions: 100000000 cycles: 27496691 heartbeat IPC: 3.433 cumulative IPC: 3.342 (Simulation time: 00 hr 12 min 30 sec)
Heartbeat CPU 0 instructions: 110000000 cycles: 30442996 heartbeat IPC: 3.394 cumulative IPC: 3.351 (Simulation time: 00 hr 13 min 39 sec)
Heartbeat CPU 0 instructions: 120000001 cycles: 33416029 heartbeat IPC: 3.364 cumulative IPC: 3.353 (Simulation time: 00 hr 14 min 53 sec)
Heartbeat CPU 0 instructions: 130000001 cycles: 36273255 heartbeat IPC: 3.5 cumulative IPC: 3.37 (Simulation time: 00 hr 16 min 04 sec)
Heartbeat CPU 0 instructions: 140000001 cycles: 39321977 heartbeat IPC: 3.28 cumulative IPC: 3.36 (Simulation time: 00 hr 17 min 18 sec)
Heartbeat CPU 0 instructions: 150000001 cycles: 42330793 heartbeat IPC: 3.324 cumulative IPC: 3.356 (Simulation time: 00 hr 18 min 27 sec)
Heartbeat CPU 0 instructions: 160000004 cycles: 45340853 heartbeat IPC: 3.322 cumulative IPC: 3.353 (Simulation time: 00 hr 19 min 40 sec)
Heartbeat CPU 0 instructions: 170000000 cycles: 53435589 heartbeat IPC: 1.235 cumulative IPC: 2.934 (Simulation time: 00 hr 22 min 04 sec)
Heartbeat CPU 0 instructions: 180000004 cycles: 62181411 heartbeat IPC: 1.143 cumulative IPC: 2.619 (Simulation time: 00 hr 24 min 23 sec)
Heartbeat CPU 0 instructions: 190000001 cycles: 70269790 heartbeat IPC: 1.236 cumulative IPC: 2.425 (Simulation time: 00 hr 26 min 22 sec)
Heartbeat CPU 0 instructions: 200000004 cycles: 73224443 heartbeat IPC: 3.384 cumulative IPC: 2.472 (Simulation time: 00 hr 27 min 34 sec)
Heartbeat CPU 0 instructions: 210000001 cycles: 76176049 heartbeat IPC: 3.388 cumulative IPC: 2.514 (Simulation time: 00 hr 28 min 46 sec)
Heartbeat CPU 0 instructions: 220000000 cycles: 79067281 heartbeat IPC: 3.459 cumulative IPC: 2.555 (Simulation time: 00 hr 29 min 55 sec)
Heartbeat CPU 0 instructions: 230000002 cycles: 82082324 heartbeat IPC: 3.317 cumulative IPC: 2.588 (Simulation time: 00 hr 31 min 05 sec)
Heartbeat CPU 0 instructions: 240000003 cycles: 85117362 heartbeat IPC: 3.295 cumulative IPC: 2.618 (Simulation time: 00 hr 32 min 15 sec)
Heartbeat CPU 0 instructions: 250000000 cycles: 88144080 heartbeat IPC: 3.304 cumulative IPC: 2.645 (Simulation time: 00 hr 33 min 30 sec)
Heartbeat CPU 0 instructions: 260000002 cycles: 91112597 heartbeat IPC: 3.369 cumulative IPC: 2.673 (Simulation time: 00 hr 35 min 00 sec)
Heartbeat CPU 0 instructions: 270000002 cycles: 94023325 heartbeat IPC: 3.436 cumulative IPC: 2.7 (Simulation time: 00 hr 36 min 24 sec)
Heartbeat CPU 0 instructions: 280000002 cycles: 96912240 heartbeat IPC: 3.462 cumulative IPC: 2.726 (Simulation time: 00 hr 37 min 43 sec)
Heartbeat CPU 0 instructions: 290000002 cycles: 99876492 heartbeat IPC: 3.374 cumulative IPC: 2.748 (Simulation time: 00 hr 38 min 58 sec)
Heartbeat CPU 0 instructions: 300000003 cycles: 102775897 heartbeat IPC: 3.449 cumulative IPC: 2.77 (Simulation time: 00 hr 40 min 17 sec)
Heartbeat CPU 0 instructions: 310000001 cycles: 105814369 heartbeat IPC: 3.291 cumulative IPC: 2.787 (Simulation time: 00 hr 41 min 33 sec)
Heartbeat CPU 0 instructions: 320000003 cycles: 108824124 heartbeat IPC: 3.323 cumulative IPC: 2.804 (Simulation time: 00 hr 42 min 46 sec)
Heartbeat CPU 0 instructions: 330000003 cycles: 111815953 heartbeat IPC: 3.342 cumulative IPC: 2.82 (Simulation time: 00 hr 43 min 57 sec)
Heartbeat CPU 0 instructions: 340000000 cycles: 119791915 heartbeat IPC: 1.254 cumulative IPC: 2.704 (Simulation time: 00 hr 46 min 09 sec)
Heartbeat CPU 0 instructions: 350000000 cycles: 128632718 heartbeat IPC: 1.131 cumulative IPC: 2.584 (Simulation time: 00 hr 48 min 52 sec)
Heartbeat CPU 0 instructions: 360000004 cycles: 136798473 heartbeat IPC: 1.225 cumulative IPC: 2.495 (Simulation time: 00 hr 51 min 02 sec)
Heartbeat CPU 0 instructions: 370000000 cycles: 139766967 heartbeat IPC: 3.369 cumulative IPC: 2.515 (Simulation time: 00 hr 52 min 21 sec)
Heartbeat CPU 0 instructions: 380000003 cycles: 142685417 heartbeat IPC: 3.426 cumulative IPC: 2.536 (Simulation time: 00 hr 53 min 37 sec)
Heartbeat CPU 0 instructions: 390000002 cycles: 145660249 heartbeat IPC: 3.362 cumulative IPC: 2.554 (Simulation time: 00 hr 54 min 49 sec)
Heartbeat CPU 0 instructions: 400000004 cycles: 148561792 heartbeat IPC: 3.446 cumulative IPC: 2.573 (Simulation time: 00 hr 55 min 59 sec)
Heartbeat CPU 0 instructions: 410000002 cycles: 151500327 heartbeat IPC: 3.403 cumulative IPC: 2.591 (Simulation time: 00 hr 57 min 10 sec)
Heartbeat CPU 0 instructions: 420000003 cycles: 154598967 heartbeat IPC: 3.227 cumulative IPC: 2.604 (Simulation time: 00 hr 58 min 40 sec)
Heartbeat CPU 0 instructions: 430000001 cycles: 157612437 heartbeat IPC: 3.318 cumulative IPC: 2.619 (Simulation time: 01 hr 00 min 09 sec)
Heartbeat CPU 0 instructions: 440000004 cycles: 160752725 heartbeat IPC: 3.184 cumulative IPC: 2.631 (Simulation time: 01 hr 01 min 30 sec)
Heartbeat CPU 0 instructions: 450000002 cycles: 163679470 heartbeat IPC: 3.417 cumulative IPC: 2.647 (Simulation time: 01 hr 02 min 44 sec)
Heartbeat CPU 0 instructions: 460000000 cycles: 166614119 heartbeat IPC: 3.408 cumulative IPC: 2.661 (Simulation time: 01 hr 04 min 00 sec)
Heartbeat CPU 0 instructions: 470000001 cycles: 169470263 heartbeat IPC: 3.501 cumulative IPC: 2.676 (Simulation time: 01 hr 05 min 14 sec)
Heartbeat CPU 0 instructions: 480000003 cycles: 172520589 heartbeat IPC: 3.278 cumulative IPC: 2.688 (Simulation time: 01 hr 06 min 25 sec)
Heartbeat CPU 0 instructions: 490000004 cycles: 175349125 heartbeat IPC: 3.535 cumulative IPC: 2.703 (Simulation time: 01 hr 07 min 33 sec)
Heartbeat CPU 0 instructions: 500000004 cycles: 178334670 heartbeat IPC: 3.349 cumulative IPC: 2.714 (Simulation time: 01 hr 08 min 38 sec)
Heartbeat CPU 0 instructions: 510000003 cycles: 181351160 heartbeat IPC: 3.315 cumulative IPC: 2.725 (Simulation time: 01 hr 09 min 44 sec)
Heartbeat CPU 0 instructions: 520000001 cycles: 184240991 heartbeat IPC: 3.46 cumulative IPC: 2.737 (Simulation time: 01 hr 10 min 58 sec)
Heartbeat CPU 0 instructions: 530000001 cycles: 187245726 heartbeat IPC: 3.328 cumulative IPC: 2.747 (Simulation time: 01 hr 12 min 30 sec)
Heartbeat CPU 0 instructions: 540000000 cycles: 190202517 heartbeat IPC: 3.382 cumulative IPC: 2.758 (Simulation time: 01 hr 13 min 59 sec)
Heartbeat CPU 0 instructions: 550000001 cycles: 193185482 heartbeat IPC: 3.352 cumulative IPC: 2.768 (Simulation time: 01 hr 15 min 20 sec)
Heartbeat CPU 0 instructions: 560000000 cycles: 196265837 heartbeat IPC: 3.246 cumulative IPC: 2.776 (Simulation time: 01 hr 16 min 44 sec)
Heartbeat CPU 0 instructions: 570000004 cycles: 201584588 heartbeat IPC: 1.88 cumulative IPC: 2.751 (Simulation time: 01 hr 18 min 28 sec)
Heartbeat CPU 0 instructions: 580000003 cycles: 210683510 heartbeat IPC: 1.099 cumulative IPC: 2.675 (Simulation time: 01 hr 20 min 35 sec)
Heartbeat CPU 0 instructions: 590000002 cycles: 221206702 heartbeat IPC: 0.9503 cumulative IPC: 2.588 (Simulation time: 01 hr 22 min 51 sec)
Heartbeat CPU 0 instructions: 600000004 cycles: 224259133 heartbeat IPC: 3.276 cumulative IPC: 2.598 (Simulation time: 01 hr 24 min 07 sec)
Heartbeat CPU 0 instructions: 610000002 cycles: 227226665 heartbeat IPC: 3.37 cumulative IPC: 2.608 (Simulation time: 01 hr 25 min 46 sec)
Heartbeat CPU 0 instructions: 620000001 cycles: 230001011 heartbeat IPC: 3.604 cumulative IPC: 2.621 (Simulation time: 01 hr 27 min 10 sec)
Heartbeat CPU 0 instructions: 630000002 cycles: 232968792 heartbeat IPC: 3.37 cumulative IPC: 2.631 (Simulation time: 01 hr 28 min 31 sec)
Heartbeat CPU 0 instructions: 640000004 cycles: 235919671 heartbeat IPC: 3.389 cumulative IPC: 2.641 (Simulation time: 01 hr 29 min 48 sec)
Heartbeat CPU 0 instructions: 650000000 cycles: 238670121 heartbeat IPC: 3.636 cumulative IPC: 2.653 (Simulation time: 01 hr 31 min 03 sec)
Simulation finished CPU 0 instructions: 600000001 cycles: 226132992 cumulative IPC: 2.653 (Simulation time: 01 hr 31 min 03 sec)
Simulation complete CPU 0 instructions: 600000001 cycles: 226132992 cumulative IPC: 2.653 (Simulation time: 01 hr 31 min 03 sec)

ChampSim completed all CPUs

=== Simulation ===
CPU 0 runs traces/400.perlbench-41B.champsimtrace.xz
Region of Interest Statistics

CPU 0 cumulative IPC: 2.653 instructions: 600000001 cycles: 226132992
CPU 0 Branch Prediction Accuracy: 99.19% MPKI: 1.684 Average ROB Occupancy at Mispredict: 102.3
Branch type MPKI
BRANCH_DIRECT_JUMP: 0.0123
BRANCH_INDIRECT: 0.323
BRANCH_CONDITIONAL: 1.14
BRANCH_DIRECT_CALL: 0.0043
BRANCH_INDIRECT_CALL: 0.2
BRANCH_RETURN: 0.00828

LLC TOTAL        ACCESS:     539385 HIT:     268459 MISS:     270926
LLC LOAD         ACCESS:     402627 HIT:     163671 MISS:     238956
LLC RFO          ACCESS:      32334 HIT:      16442 MISS:      15892
LLC PREFETCH     ACCESS:          0 HIT:          0 MISS:          0
LLC WRITE        ACCESS:      85640 HIT:      80007 MISS:       5633
LLC TRANSLATION  ACCESS:      18784 HIT:       8339 MISS:      10445
LLC PREFETCH REQUESTED:          0 ISSUED:          0 USEFUL:          0 USELESS:          0
LLC AVERAGE MISS LATENCY: 619.2 cycles
cpu0_DTLB TOTAL        ACCESS:  129758968 HIT:  129055027 MISS:     703941
cpu0_DTLB LOAD         ACCESS:  129758968 HIT:  129055027 MISS:     703941
cpu0_DTLB RFO          ACCESS:          0 HIT:          0 MISS:          0
cpu0_DTLB PREFETCH     ACCESS:          0 HIT:          0 MISS:          0
cpu0_DTLB WRITE        ACCESS:          0 HIT:          0 MISS:          0
cpu0_DTLB TRANSLATION  ACCESS:          0 HIT:          0 MISS:          0
cpu0_DTLB PREFETCH REQUESTED:          0 ISSUED:          0 USEFUL:          0 USELESS:          0
cpu0_DTLB AVERAGE MISS LATENCY: 15.85 cycles
cpu0_ITLB TOTAL        ACCESS:    4877364 HIT:    4815187 MISS:      62177
cpu0_ITLB LOAD         ACCESS:    4877364 HIT:    4815187 MISS:      62177
cpu0_ITLB RFO          ACCESS:          0 HIT:          0 MISS:          0
cpu0_ITLB PREFETCH     ACCESS:          0 HIT:          0 MISS:          0
cpu0_ITLB WRITE        ACCESS:          0 HIT:          0 MISS:          0
cpu0_ITLB TRANSLATION  ACCESS:          0 HIT:          0 MISS:          0
cpu0_ITLB PREFETCH REQUESTED:          0 ISSUED:          0 USEFUL:          0 USELESS:          0
cpu0_ITLB AVERAGE MISS LATENCY: 6.898 cycles
cpu0_L1D TOTAL        ACCESS:  174353454 HIT:  172924242 MISS:    1429212
cpu0_L1D LOAD         ACCESS:   91332564 HIT:   90228800 MISS:    1103764
cpu0_L1D RFO          ACCESS:          0 HIT:          0 MISS:          0
cpu0_L1D PREFETCH     ACCESS:          0 HIT:          0 MISS:          0
cpu0_L1D WRITE        ACCESS:   82996432 HIT:   82693843 MISS:     302589
cpu0_L1D TRANSLATION  ACCESS:      24458 HIT:       1599 MISS:      22859
cpu0_L1D PREFETCH REQUESTED:          0 ISSUED:          0 USEFUL:          0 USELESS:          0
cpu0_L1D AVERAGE MISS LATENCY: 115.6 cycles
cpu0_L1I TOTAL        ACCESS:    5656137 HIT:    4851195 MISS:     804942
cpu0_L1I LOAD         ACCESS:    5656137 HIT:    4851195 MISS:     804942
cpu0_L1I RFO          ACCESS:          0 HIT:          0 MISS:          0
cpu0_L1I PREFETCH     ACCESS:          0 HIT:          0 MISS:          0
cpu0_L1I WRITE        ACCESS:          0 HIT:          0 MISS:          0
cpu0_L1I TRANSLATION  ACCESS:          0 HIT:          0 MISS:          0
cpu0_L1I PREFETCH REQUESTED:          0 ISSUED:          0 USEFUL:          0 USELESS:          0
cpu0_L1I AVERAGE MISS LATENCY: 12.44 cycles
cpu0_L2C TOTAL        ACCESS:    1381547 HIT:     924132 MISS:     457415
cpu0_L2C LOAD         ACCESS:    1124029 HIT:     721401 MISS:     402628
cpu0_L2C RFO          ACCESS:      64506 HIT:      32172 MISS:      32334
cpu0_L2C PREFETCH     ACCESS:          0 HIT:          0 MISS:          0
cpu0_L2C WRITE        ACCESS:     170234 HIT:     166565 MISS:       3669
cpu0_L2C TRANSLATION  ACCESS:      22778 HIT:       3994 MISS:      18784
cpu0_L2C PREFETCH REQUESTED:          0 ISSUED:          0 USEFUL:          0 USELESS:          0
cpu0_L2C AVERAGE MISS LATENCY: 387.2 cycles
cpu0_STLB TOTAL        ACCESS:     508958 HIT:     486175 MISS:      22783
cpu0_STLB LOAD         ACCESS:     508958 HIT:     486175 MISS:      22783
cpu0_STLB RFO          ACCESS:          0 HIT:          0 MISS:          0
cpu0_STLB PREFETCH     ACCESS:          0 HIT:          0 MISS:          0
cpu0_STLB WRITE        ACCESS:          0 HIT:          0 MISS:          0
cpu0_STLB TRANSLATION  ACCESS:          0 HIT:          0 MISS:          0
cpu0_STLB PREFETCH REQUESTED:          0 ISSUED:          0 USEFUL:          0 USELESS:          0
cpu0_STLB AVERAGE MISS LATENCY: 386.3 cycles

DRAM Statistics

Channel 0 RQ ROW_BUFFER_HIT:      47708
  ROW_BUFFER_MISS:     217557
 AVG DBUS CONGESTED CYCLE: 3.836
WQ ROW_BUFFER_HIT: Channel 0 
  ROW_BUFFER_MISS:       5395
  FULL:      34826
