WARNING: physical memory size is smaller than virtual memory size.

*** ChampSim Multicore Out-of-Order Simulator ***
Warmup Instructions: 50000000
Simulation Instructions: 600000000
Number of CPUs: 1
Page size: 4096

CPU 0 Tage branch predictor
Off-chip DRAM Size: 4 GiB Channels: 1 Width: 64-bit Data Race: 3200 MT/s
Heartbeat CPU 0 instructions: 10000001 cycles: 2500318 heartbeat IPC: 3.999 cumulative IPC: 3.999 (Simulation time: 00 hr 00 min 36 sec)
Heartbeat CPU 0 instructions: 20000002 cycles: 5037108 heartbeat IPC: 3.942 cumulative IPC: 3.971 (Simulation time: 00 hr 01 min 20 sec)
Heartbeat CPU 0 instructions: 30000002 cycles: 7537108 heartbeat IPC: 4 cumulative IPC: 3.98 (Simulation time: 00 hr 02 min 05 sec)
Heartbeat CPU 0 instructions: 40000002 cycles: 10037108 heartbeat IPC: 4 cumulative IPC: 3.985 (Simulation time: 00 hr 02 min 57 sec)
Heartbeat CPU 0 instructions: 50000002 cycles: 12537108 heartbeat IPC: 4 cumulative IPC: 3.988 (Simulation time: 00 hr 03 min 52 sec)
Warmup finished CPU 0 instructions: 50000002 cycles: 12537109 cumulative IPC: 3.988 (Simulation time: 00 hr 03 min 52 sec)
Warmup complete CPU 0 instructions: 50000002 cycles: 12537109 cumulative IPC: 3.988 (Simulation time: 00 hr 03 min 52 sec)
Heartbeat CPU 0 instructions: 60000001 cycles: 15512549 heartbeat IPC: 3.361 cumulative IPC: 3.361 (Simulation time: 00 hr 04 min 59 sec)
Heartbeat CPU 0 instructions: 70000004 cycles: 18587291 heartbeat IPC: 3.252 cumulative IPC: 3.306 (Simulation time: 00 hr 06 min 05 sec)
Heartbeat CPU 0 instructions: 80000001 cycles: 21632320 heartbeat IPC: 3.284 cumulative IPC: 3.298 (Simulation time: 00 hr 07 min 11 sec)
Heartbeat CPU 0 instructions: 90000001 cycles: 24584032 heartbeat IPC: 3.388 cumulative IPC: 3.32 (Simulation time: 00 hr 08 min 17 sec)
Heartbeat CPU 0 instructions: 100000000 cycles: 27495823 heartbeat IPC: 3.434 cumulative IPC: 3.343 (Simulation time: 00 hr 09 min 22 sec)
Heartbeat CPU 0 instructions: 110000000 cycles: 30447903 heartbeat IPC: 3.387 cumulative IPC: 3.35 (Simulation time: 00 hr 10 min 27 sec)
Heartbeat CPU 0 instructions: 120000001 cycles: 33424304 heartbeat IPC: 3.36 cumulative IPC: 3.351 (Simulation time: 00 hr 11 min 32 sec)
Heartbeat CPU 0 instructions: 130000001 cycles: 36286771 heartbeat IPC: 3.493 cumulative IPC: 3.368 (Simulation time: 00 hr 12 min 42 sec)
Heartbeat CPU 0 instructions: 140000001 cycles: 39340946 heartbeat IPC: 3.274 cumulative IPC: 3.358 (Simulation time: 00 hr 13 min 52 sec)
Heartbeat CPU 0 instructions: 150000001 cycles: 42357192 heartbeat IPC: 3.315 cumulative IPC: 3.353 (Simulation time: 00 hr 15 min 00 sec)
Heartbeat CPU 0 instructions: 160000004 cycles: 45377977 heartbeat IPC: 3.31 cumulative IPC: 3.349 (Simulation time: 00 hr 16 min 05 sec)
Heartbeat CPU 0 instructions: 170000004 cycles: 52149840 heartbeat IPC: 1.477 cumulative IPC: 3.029 (Simulation time: 00 hr 17 min 45 sec)
Heartbeat CPU 0 instructions: 180000004 cycles: 57372844 heartbeat IPC: 1.915 cumulative IPC: 2.899 (Simulation time: 00 hr 19 min 16 sec)
Heartbeat CPU 0 instructions: 190000001 cycles: 62578016 heartbeat IPC: 1.921 cumulative IPC: 2.798 (Simulation time: 00 hr 20 min 43 sec)
Heartbeat CPU 0 instructions: 200000004 cycles: 65445465 heartbeat IPC: 3.487 cumulative IPC: 2.835 (Simulation time: 00 hr 21 min 46 sec)
Heartbeat CPU 0 instructions: 210000001 cycles: 68323683 heartbeat IPC: 3.474 cumulative IPC: 2.868 (Simulation time: 00 hr 22 min 47 sec)
Heartbeat CPU 0 instructions: 220000000 cycles: 71177590 heartbeat IPC: 3.504 cumulative IPC: 2.899 (Simulation time: 00 hr 23 min 50 sec)
Heartbeat CPU 0 instructions: 230000002 cycles: 74087005 heartbeat IPC: 3.437 cumulative IPC: 2.924 (Simulation time: 00 hr 24 min 52 sec)
Heartbeat CPU 0 instructions: 240000003 cycles: 77063894 heartbeat IPC: 3.359 cumulative IPC: 2.945 (Simulation time: 00 hr 25 min 57 sec)
Heartbeat CPU 0 instructions: 250000000 cycles: 80023124 heartbeat IPC: 3.379 cumulative IPC: 2.964 (Simulation time: 00 hr 27 min 06 sec)
Heartbeat CPU 0 instructions: 260000002 cycles: 82946690 heartbeat IPC: 3.42 cumulative IPC: 2.983 (Simulation time: 00 hr 28 min 13 sec)
Heartbeat CPU 0 instructions: 270000002 cycles: 85819490 heartbeat IPC: 3.481 cumulative IPC: 3.002 (Simulation time: 00 hr 29 min 17 sec)
Heartbeat CPU 0 instructions: 280000002 cycles: 88686245 heartbeat IPC: 3.488 cumulative IPC: 3.02 (Simulation time: 00 hr 30 min 24 sec)
Heartbeat CPU 0 instructions: 290000002 cycles: 91623796 heartbeat IPC: 3.404 cumulative IPC: 3.035 (Simulation time: 00 hr 31 min 31 sec)
Heartbeat CPU 0 instructions: 300000003 cycles: 94501722 heartbeat IPC: 3.475 cumulative IPC: 3.05 (Simulation time: 00 hr 32 min 36 sec)
Heartbeat CPU 0 instructions: 310000001 cycles: 97502351 heartbeat IPC: 3.333 cumulative IPC: 3.06 (Simulation time: 00 hr 33 min 46 sec)
Heartbeat CPU 0 instructions: 320000003 cycles: 100499837 heartbeat IPC: 3.336 cumulative IPC: 3.069 (Simulation time: 00 hr 34 min 52 sec)
Heartbeat CPU 0 instructions: 330000003 cycles: 103469364 heartbeat IPC: 3.368 cumulative IPC: 3.079 (Simulation time: 00 hr 35 min 59 sec)
Heartbeat CPU 0 instructions: 340000000 cycles: 110548425 heartbeat IPC: 1.413 cumulative IPC: 2.959 (Simulation time: 00 hr 37 min 44 sec)
Heartbeat CPU 0 instructions: 350000000 cycles: 116031082 heartbeat IPC: 1.824 cumulative IPC: 2.899 (Simulation time: 00 hr 39 min 13 sec)
Heartbeat CPU 0 instructions: 360000004 cycles: 121646866 heartbeat IPC: 1.781 cumulative IPC: 2.841 (Simulation time: 00 hr 40 min 49 sec)
Heartbeat CPU 0 instructions: 370000000 cycles: 124535003 heartbeat IPC: 3.462 cumulative IPC: 2.857 (Simulation time: 00 hr 41 min 52 sec)
Heartbeat CPU 0 instructions: 380000003 cycles: 127380775 heartbeat IPC: 3.514 cumulative IPC: 2.873 (Simulation time: 00 hr 42 min 56 sec)
Heartbeat CPU 0 instructions: 390000002 cycles: 130309348 heartbeat IPC: 3.415 cumulative IPC: 2.887 (Simulation time: 00 hr 44 min 00 sec)
Heartbeat CPU 0 instructions: 400000004 cycles: 133183013 heartbeat IPC: 3.48 cumulative IPC: 2.901 (Simulation time: 00 hr 45 min 04 sec)
Heartbeat CPU 0 instructions: 410000002 cycles: 136055775 heartbeat IPC: 3.481 cumulative IPC: 2.915 (Simulation time: 00 hr 46 min 11 sec)
Heartbeat CPU 0 instructions: 420000003 cycles: 139073294 heartbeat IPC: 3.314 cumulative IPC: 2.924 (Simulation time: 00 hr 47 min 17 sec)
Heartbeat CPU 0 instructions: 430000001 cycles: 142044789 heartbeat IPC: 3.365 cumulative IPC: 2.934 (Simulation time: 00 hr 48 min 23 sec)
Heartbeat CPU 0 instructions: 440000004 cycles: 145131418 heartbeat IPC: 3.24 cumulative IPC: 2.941 (Simulation time: 00 hr 49 min 28 sec)
Heartbeat CPU 0 instructions: 450000002 cycles: 148010803 heartbeat IPC: 3.473 cumulative IPC: 2.953 (Simulation time: 00 hr 50 min 32 sec)
Heartbeat CPU 0 instructions: 460000000 cycles: 150913434 heartbeat IPC: 3.445 cumulative IPC: 2.963 (Simulation time: 00 hr 51 min 37 sec)
Heartbeat CPU 0 instructions: 470000001 cycles: 153733348 heartbeat IPC: 3.546 cumulative IPC: 2.975 (Simulation time: 00 hr 52 min 41 sec)
Heartbeat CPU 0 instructions: 480000003 cycles: 156773589 heartbeat IPC: 3.289 cumulative IPC: 2.981 (Simulation time: 00 hr 53 min 46 sec)
Heartbeat CPU 0 instructions: 490000004 cycles: 159595096 heartbeat IPC: 3.544 cumulative IPC: 2.992 (Simulation time: 00 hr 54 min 50 sec)
Heartbeat CPU 0 instructions: 500000004 cycles: 162568979 heartbeat IPC: 3.363 cumulative IPC: 2.999 (Simulation time: 00 hr 55 min 55 sec)
Heartbeat CPU 0 instructions: 510000003 cycles: 165588011 heartbeat IPC: 3.312 cumulative IPC: 3.006 (Simulation time: 00 hr 57 min 01 sec)
Heartbeat CPU 0 instructions: 520000001 cycles: 168456407 heartbeat IPC: 3.486 cumulative IPC: 3.014 (Simulation time: 00 hr 58 min 10 sec)
Heartbeat CPU 0 instructions: 530000001 cycles: 171459379 heartbeat IPC: 3.33 cumulative IPC: 3.02 (Simulation time: 00 hr 59 min 14 sec)
Heartbeat CPU 0 instructions: 540000000 cycles: 174398808 heartbeat IPC: 3.402 cumulative IPC: 3.027 (Simulation time: 01 hr 00 min 15 sec)
Heartbeat CPU 0 instructions: 550000001 cycles: 177379099 heartbeat IPC: 3.355 cumulative IPC: 3.033 (Simulation time: 01 hr 01 min 17 sec)
Heartbeat CPU 0 instructions: 560000000 cycles: 180464272 heartbeat IPC: 3.241 cumulative IPC: 3.037 (Simulation time: 01 hr 02 min 19 sec)
Heartbeat CPU 0 instructions: 570000004 cycles: 185673125 heartbeat IPC: 1.92 cumulative IPC: 3.003 (Simulation time: 01 hr 03 min 42 sec)
Heartbeat CPU 0 instructions: 580000003 cycles: 192267956 heartbeat IPC: 1.516 cumulative IPC: 2.949 (Simulation time: 01 hr 05 min 20 sec)
Heartbeat CPU 0 instructions: 590000002 cycles: 198835814 heartbeat IPC: 1.523 cumulative IPC: 2.899 (Simulation time: 01 hr 06 min 59 sec)
Heartbeat CPU 0 instructions: 600000004 cycles: 201788663 heartbeat IPC: 3.387 cumulative IPC: 2.906 (Simulation time: 01 hr 08 min 03 sec)
Heartbeat CPU 0 instructions: 610000002 cycles: 204689090 heartbeat IPC: 3.448 cumulative IPC: 2.914 (Simulation time: 01 hr 09 min 06 sec)
Heartbeat CPU 0 instructions: 620000001 cycles: 207422170 heartbeat IPC: 3.659 cumulative IPC: 2.925 (Simulation time: 01 hr 10 min 10 sec)
Heartbeat CPU 0 instructions: 630000002 cycles: 210329879 heartbeat IPC: 3.439 cumulative IPC: 2.932 (Simulation time: 01 hr 11 min 18 sec)
Heartbeat CPU 0 instructions: 640000004 cycles: 213257465 heartbeat IPC: 3.416 cumulative IPC: 2.939 (Simulation time: 01 hr 12 min 26 sec)
Heartbeat CPU 0 instructions: 650000000 cycles: 215983911 heartbeat IPC: 3.668 cumulative IPC: 2.949 (Simulation time: 01 hr 13 min 30 sec)
Simulation finished CPU 0 instructions: 600000001 cycles: 203446804 cumulative IPC: 2.949 (Simulation time: 01 hr 13 min 30 sec)
Simulation complete CPU 0 instructions: 600000001 cycles: 203446804 cumulative IPC: 2.949 (Simulation time: 01 hr 13 min 30 sec)

ChampSim completed all CPUs

=== Simulation ===
CPU 0 runs traces/400.perlbench-41B.champsimtrace.xz
Region of Interest Statistics

CPU 0 cumulative IPC: 2.949 instructions: 600000001 cycles: 203446804
CPU 0 Branch Prediction Accuracy: 99.19% MPKI: 1.684 Average ROB Occupancy at Mispredict: 101.7
Branch type MPKI
BRANCH_DIRECT_JUMP: 0.0123
BRANCH_INDIRECT: 0.323
BRANCH_CONDITIONAL: 1.14
BRANCH_DIRECT_CALL: 0.0043
BRANCH_INDIRECT_CALL: 0.2
BRANCH_RETURN: 0.00828

LLC TOTAL        ACCESS:     593396 HIT:     448292 MISS:     145104
LLC LOAD         ACCESS:     403671 HIT:     298613 MISS:     105058
LLC RFO          ACCESS:      32503 HIT:      21865 MISS:      10638
LLC PREFETCH     ACCESS:      52868 HIT:      41115 MISS:      11753
LLC WRITE        ACCESS:      85286 HIT:      77670 MISS:       7616
LLC TRANSLATION  ACCESS:      19068 HIT:       9029 MISS:      10039
LLC PREFETCH REQUESTED:      52868 ISSUED:      52868 USEFUL:       6899 USELESS:       3356
LLC AVERAGE MISS LATENCY: 572.3 cycles
cpu0_DTLB TOTAL        ACCESS:  129756453 HIT:  129052345 MISS:     704108
cpu0_DTLB LOAD         ACCESS:  129756453 HIT:  129052345 MISS:     704108
cpu0_DTLB RFO          ACCESS:          0 HIT:          0 MISS:          0
cpu0_DTLB PREFETCH     ACCESS:          0 HIT:          0 MISS:          0
cpu0_DTLB WRITE        ACCESS:          0 HIT:          0 MISS:          0
cpu0_DTLB TRANSLATION  ACCESS:          0 HIT:          0 MISS:          0
cpu0_DTLB PREFETCH REQUESTED:          0 ISSUED:          0 USEFUL:          0 USELESS:          0
cpu0_DTLB AVERAGE MISS LATENCY: 13.76 cycles
cpu0_ITLB TOTAL        ACCESS:    4874127 HIT:    4812043 MISS:      62084
cpu0_ITLB LOAD         ACCESS:    4874127 HIT:    4812043 MISS:      62084
cpu0_ITLB RFO          ACCESS:          0 HIT:          0 MISS:          0
cpu0_ITLB PREFETCH     ACCESS:          0 HIT:          0 MISS:          0
cpu0_ITLB WRITE        ACCESS:          0 HIT:          0 MISS:          0
cpu0_ITLB TRANSLATION  ACCESS:          0 HIT:          0 MISS:          0
cpu0_ITLB PREFETCH REQUESTED:          0 ISSUED:          0 USEFUL:          0 USELESS:          0
cpu0_ITLB AVERAGE MISS LATENCY: 5.151 cycles
cpu0_L1D TOTAL        ACCESS:  174360567 HIT:  172609825 MISS:    1750742
cpu0_L1D LOAD         ACCESS:   91337045 HIT:   89977357 MISS:    1359688
cpu0_L1D RFO          ACCESS:          0 HIT:          0 MISS:          0
cpu0_L1D PREFETCH     ACCESS:          0 HIT:          0 MISS:          0
cpu0_L1D WRITE        ACCESS:   82999062 HIT:   82631412 MISS:     367650
cpu0_L1D TRANSLATION  ACCESS:      24460 HIT:       1056 MISS:      23404
cpu0_L1D PREFETCH REQUESTED:          0 ISSUED:          0 USEFUL:          0 USELESS:          0
cpu0_L1D AVERAGE MISS LATENCY: 47.53 cycles
cpu0_L1I TOTAL        ACCESS:    5653227 HIT:    4848710 MISS:     804517
cpu0_L1I LOAD         ACCESS:    5653227 HIT:    4848710 MISS:     804517
cpu0_L1I RFO          ACCESS:          0 HIT:          0 MISS:          0
cpu0_L1I PREFETCH     ACCESS:          0 HIT:          0 MISS:          0
cpu0_L1I WRITE        ACCESS:          0 HIT:          0 MISS:          0
cpu0_L1I TRANSLATION  ACCESS:          0 HIT:          0 MISS:          0
cpu0_L1I PREFETCH REQUESTED:          0 ISSUED:          0 USEFUL:          0 USELESS:          0
cpu0_L1I AVERAGE MISS LATENCY: 10.98 cycles
cpu0_L2C TOTAL        ACCESS:    1668121 HIT:    1211032 MISS:     457089
cpu0_L2C LOAD         ACCESS:    1315308 HIT:     911637 MISS:     403671
cpu0_L2C RFO          ACCESS:      89570 HIT:      57066 MISS:      32504
cpu0_L2C PREFETCH     ACCESS:          0 HIT:          0 MISS:          0
cpu0_L2C WRITE        ACCESS:     239921 HIT:     238075 MISS:       1846
cpu0_L2C TRANSLATION  ACCESS:      23322 HIT:       4254 MISS:      19068
cpu0_L2C PREFETCH REQUESTED:          0 ISSUED:          0 USEFUL:          0 USELESS:          0
cpu0_L2C AVERAGE MISS LATENCY: 184.6 cycles
cpu0_STLB TOTAL        ACCESS:     508747 HIT:     485960 MISS:      22787
cpu0_STLB LOAD         ACCESS:     508747 HIT:     485960 MISS:      22787
cpu0_STLB RFO          ACCESS:          0 HIT:          0 MISS:          0
cpu0_STLB PREFETCH     ACCESS:          0 HIT:          0 MISS:          0
cpu0_STLB WRITE        ACCESS:          0 HIT:          0 MISS:          0
cpu0_STLB TRANSLATION  ACCESS:          0 HIT:          0 MISS:          0
cpu0_STLB PREFETCH REQUESTED:          0 ISSUED:          0 USEFUL:          0 USELESS:          0
cpu0_STLB AVERAGE MISS LATENCY: 311.8 cycles

DRAM Statistics

Channel 0 RQ ROW_BUFFER_HIT:      24452
  ROW_BUFFER_MISS:     111027
 AVG DBUS CONGESTED CYCLE: 3.829
WQ ROW_BUFFER_HIT: Channel 0 
  ROW_BUFFER_MISS:       6313
  FULL:      18232
