WARNING: physical memory size is smaller than virtual memory size.

*** ChampSim Multicore Out-of-Order Simulator ***
Warmup Instructions: 50000000
Simulation Instructions: 600000000
Number of CPUs: 1
Page size: 4096

CPU 0 Tage branch predictor
Off-chip DRAM Size: 4 GiB Channels: 1 Width: 64-bit Data Race: 3200 MT/s
Heartbeat CPU 0 instructions: 10000000 cycles: 2500061 heartbeat IPC: 4 cumulative IPC: 4 (Simulation time: 00 hr 00 min 51 sec)
Heartbeat CPU 0 instructions: 20000000 cycles: 5000061 heartbeat IPC: 4 cumulative IPC: 4 (Simulation time: 00 hr 01 min 42 sec)
Heartbeat CPU 0 instructions: 30000000 cycles: 7500061 heartbeat IPC: 4 cumulative IPC: 4 (Simulation time: 00 hr 02 min 32 sec)
Heartbeat CPU 0 instructions: 40000000 cycles: 10000061 heartbeat IPC: 4 cumulative IPC: 4 (Simulation time: 00 hr 03 min 20 sec)
Heartbeat CPU 0 instructions: 50000000 cycles: 12500061 heartbeat IPC: 4 cumulative IPC: 4 (Simulation time: 00 hr 04 min 08 sec)
Warmup finished CPU 0 instructions: 50000000 cycles: 12500062 cumulative IPC: 4 (Simulation time: 00 hr 04 min 08 sec)
Warmup complete CPU 0 instructions: 50000000 cycles: 12500062 cumulative IPC: 4 (Simulation time: 00 hr 04 min 08 sec)
Heartbeat CPU 0 instructions: 60000004 cycles: 15504489 heartbeat IPC: 3.328 cumulative IPC: 3.328 (Simulation time: 00 hr 05 min 04 sec)
Heartbeat CPU 0 instructions: 70000003 cycles: 18370762 heartbeat IPC: 3.489 cumulative IPC: 3.407 (Simulation time: 00 hr 05 min 59 sec)
Heartbeat CPU 0 instructions: 80000002 cycles: 21382300 heartbeat IPC: 3.321 cumulative IPC: 3.378 (Simulation time: 00 hr 06 min 55 sec)
Heartbeat CPU 0 instructions: 90000000 cycles: 24100329 heartbeat IPC: 3.679 cumulative IPC: 3.448 (Simulation time: 00 hr 07 min 49 sec)
Heartbeat CPU 0 instructions: 100000003 cycles: 26857493 heartbeat IPC: 3.627 cumulative IPC: 3.483 (Simulation time: 00 hr 08 min 44 sec)
Heartbeat CPU 0 instructions: 110000001 cycles: 29755202 heartbeat IPC: 3.451 cumulative IPC: 3.477 (Simulation time: 00 hr 09 min 39 sec)
Heartbeat CPU 0 instructions: 120000001 cycles: 32471687 heartbeat IPC: 3.681 cumulative IPC: 3.505 (Simulation time: 00 hr 10 min 34 sec)
Heartbeat CPU 0 instructions: 130000003 cycles: 35371153 heartbeat IPC: 3.449 cumulative IPC: 3.498 (Simulation time: 00 hr 11 min 29 sec)
Heartbeat CPU 0 instructions: 140000002 cycles: 38204957 heartbeat IPC: 3.529 cumulative IPC: 3.501 (Simulation time: 00 hr 12 min 24 sec)
Heartbeat CPU 0 instructions: 150000001 cycles: 40975005 heartbeat IPC: 3.61 cumulative IPC: 3.512 (Simulation time: 00 hr 13 min 18 sec)
Heartbeat CPU 0 instructions: 160000000 cycles: 43892634 heartbeat IPC: 3.427 cumulative IPC: 3.504 (Simulation time: 00 hr 14 min 13 sec)
Heartbeat CPU 0 instructions: 170000001 cycles: 46821114 heartbeat IPC: 3.415 cumulative IPC: 3.496 (Simulation time: 00 hr 15 min 09 sec)
Heartbeat CPU 0 instructions: 180000000 cycles: 49612148 heartbeat IPC: 3.583 cumulative IPC: 3.503 (Simulation time: 00 hr 16 min 04 sec)
Heartbeat CPU 0 instructions: 190000002 cycles: 52319155 heartbeat IPC: 3.694 cumulative IPC: 3.516 (Simulation time: 00 hr 17 min 00 sec)
Heartbeat CPU 0 instructions: 200000002 cycles: 55139904 heartbeat IPC: 3.545 cumulative IPC: 3.518 (Simulation time: 00 hr 17 min 55 sec)
Heartbeat CPU 0 instructions: 210000000 cycles: 58032602 heartbeat IPC: 3.457 cumulative IPC: 3.514 (Simulation time: 00 hr 18 min 51 sec)
Heartbeat CPU 0 instructions: 220000001 cycles: 60784611 heartbeat IPC: 3.634 cumulative IPC: 3.521 (Simulation time: 00 hr 19 min 46 sec)
Heartbeat CPU 0 instructions: 230000002 cycles: 63673784 heartbeat IPC: 3.461 cumulative IPC: 3.517 (Simulation time: 00 hr 20 min 42 sec)
Heartbeat CPU 0 instructions: 240000004 cycles: 66624801 heartbeat IPC: 3.389 cumulative IPC: 3.51 (Simulation time: 00 hr 21 min 37 sec)
Heartbeat CPU 0 instructions: 250000003 cycles: 69515661 heartbeat IPC: 3.459 cumulative IPC: 3.508 (Simulation time: 00 hr 22 min 33 sec)
Heartbeat CPU 0 instructions: 260000001 cycles: 72300103 heartbeat IPC: 3.591 cumulative IPC: 3.512 (Simulation time: 00 hr 23 min 28 sec)
Heartbeat CPU 0 instructions: 270000002 cycles: 78059363 heartbeat IPC: 1.736 cumulative IPC: 3.356 (Simulation time: 00 hr 24 min 44 sec)
Heartbeat CPU 0 instructions: 280000000 cycles: 86640142 heartbeat IPC: 1.165 cumulative IPC: 3.102 (Simulation time: 00 hr 26 min 22 sec)
Heartbeat CPU 0 instructions: 290000000 cycles: 93839093 heartbeat IPC: 1.389 cumulative IPC: 2.951 (Simulation time: 00 hr 27 min 51 sec)
Heartbeat CPU 0 instructions: 300000003 cycles: 98884689 heartbeat IPC: 1.982 cumulative IPC: 2.894 (Simulation time: 00 hr 29 min 08 sec)
Heartbeat CPU 0 instructions: 310000001 cycles: 106228348 heartbeat IPC: 1.362 cumulative IPC: 2.774 (Simulation time: 00 hr 30 min 41 sec)
Heartbeat CPU 0 instructions: 320000004 cycles: 109888877 heartbeat IPC: 2.732 cumulative IPC: 2.772 (Simulation time: 00 hr 31 min 44 sec)
Heartbeat CPU 0 instructions: 330000000 cycles: 113029444 heartbeat IPC: 3.184 cumulative IPC: 2.785 (Simulation time: 00 hr 32 min 43 sec)
Heartbeat CPU 0 instructions: 340000001 cycles: 116102690 heartbeat IPC: 3.254 cumulative IPC: 2.799 (Simulation time: 00 hr 33 min 40 sec)
Heartbeat CPU 0 instructions: 350000000 cycles: 119366871 heartbeat IPC: 3.064 cumulative IPC: 2.807 (Simulation time: 00 hr 34 min 40 sec)
Heartbeat CPU 0 instructions: 360000004 cycles: 122431889 heartbeat IPC: 3.263 cumulative IPC: 2.82 (Simulation time: 00 hr 35 min 38 sec)
Heartbeat CPU 0 instructions: 370000001 cycles: 125472774 heartbeat IPC: 3.289 cumulative IPC: 2.833 (Simulation time: 00 hr 36 min 35 sec)
Heartbeat CPU 0 instructions: 380000004 cycles: 128546696 heartbeat IPC: 3.253 cumulative IPC: 2.844 (Simulation time: 00 hr 37 min 33 sec)
Heartbeat CPU 0 instructions: 390000002 cycles: 131730278 heartbeat IPC: 3.141 cumulative IPC: 2.852 (Simulation time: 00 hr 38 min 32 sec)
Heartbeat CPU 0 instructions: 400000000 cycles: 134970956 heartbeat IPC: 3.086 cumulative IPC: 2.858 (Simulation time: 00 hr 39 min 31 sec)
Heartbeat CPU 0 instructions: 410000000 cycles: 140716172 heartbeat IPC: 1.741 cumulative IPC: 2.808 (Simulation time: 00 hr 40 min 48 sec)
Heartbeat CPU 0 instructions: 420000003 cycles: 148889495 heartbeat IPC: 1.223 cumulative IPC: 2.713 (Simulation time: 00 hr 42 min 25 sec)
Heartbeat CPU 0 instructions: 430000000 cycles: 153675528 heartbeat IPC: 2.089 cumulative IPC: 2.692 (Simulation time: 00 hr 43 min 40 sec)
Heartbeat CPU 0 instructions: 440000004 cycles: 158307479 heartbeat IPC: 2.159 cumulative IPC: 2.675 (Simulation time: 00 hr 44 min 52 sec)
Heartbeat CPU 0 instructions: 450000001 cycles: 163129894 heartbeat IPC: 2.074 cumulative IPC: 2.656 (Simulation time: 00 hr 46 min 05 sec)
Heartbeat CPU 0 instructions: 460000002 cycles: 170486434 heartbeat IPC: 1.359 cumulative IPC: 2.595 (Simulation time: 00 hr 47 min 37 sec)
Heartbeat CPU 0 instructions: 470000003 cycles: 176870587 heartbeat IPC: 1.566 cumulative IPC: 2.555 (Simulation time: 00 hr 49 min 02 sec)
Heartbeat CPU 0 instructions: 480000000 cycles: 180110595 heartbeat IPC: 3.086 cumulative IPC: 2.565 (Simulation time: 00 hr 50 min 01 sec)
Heartbeat CPU 0 instructions: 490000001 cycles: 183512600 heartbeat IPC: 2.939 cumulative IPC: 2.573 (Simulation time: 00 hr 51 min 02 sec)
Heartbeat CPU 0 instructions: 500000002 cycles: 186826070 heartbeat IPC: 3.018 cumulative IPC: 2.581 (Simulation time: 00 hr 52 min 02 sec)
Heartbeat CPU 0 instructions: 510000000 cycles: 190169140 heartbeat IPC: 2.991 cumulative IPC: 2.589 (Simulation time: 00 hr 53 min 02 sec)
Heartbeat CPU 0 instructions: 520000000 cycles: 193526299 heartbeat IPC: 2.979 cumulative IPC: 2.596 (Simulation time: 00 hr 54 min 01 sec)
Heartbeat CPU 0 instructions: 530000001 cycles: 201375257 heartbeat IPC: 1.274 cumulative IPC: 2.541 (Simulation time: 00 hr 55 min 31 sec)
Heartbeat CPU 0 instructions: 540000000 cycles: 208540119 heartbeat IPC: 1.396 cumulative IPC: 2.499 (Simulation time: 00 hr 56 min 58 sec)
Heartbeat CPU 0 instructions: 550000004 cycles: 216493114 heartbeat IPC: 1.257 cumulative IPC: 2.451 (Simulation time: 00 hr 58 min 23 sec)
Heartbeat CPU 0 instructions: 560000004 cycles: 219839719 heartbeat IPC: 2.988 cumulative IPC: 2.46 (Simulation time: 00 hr 59 min 12 sec)
Heartbeat CPU 0 instructions: 570000002 cycles: 222641109 heartbeat IPC: 3.57 cumulative IPC: 2.475 (Simulation time: 00 hr 59 min 57 sec)
Heartbeat CPU 0 instructions: 580000000 cycles: 225527195 heartbeat IPC: 3.465 cumulative IPC: 2.488 (Simulation time: 01 hr 00 min 40 sec)
Heartbeat CPU 0 instructions: 590000001 cycles: 228417816 heartbeat IPC: 3.459 cumulative IPC: 2.501 (Simulation time: 01 hr 01 min 17 sec)
Heartbeat CPU 0 instructions: 600000003 cycles: 231091063 heartbeat IPC: 3.741 cumulative IPC: 2.516 (Simulation time: 01 hr 01 min 48 sec)
Heartbeat CPU 0 instructions: 610000001 cycles: 233931347 heartbeat IPC: 3.521 cumulative IPC: 2.529 (Simulation time: 01 hr 02 min 15 sec)
Heartbeat CPU 0 instructions: 620000004 cycles: 236868778 heartbeat IPC: 3.404 cumulative IPC: 2.54 (Simulation time: 01 hr 02 min 42 sec)
Heartbeat CPU 0 instructions: 630000002 cycles: 239666226 heartbeat IPC: 3.575 cumulative IPC: 2.553 (Simulation time: 01 hr 03 min 03 sec)
Heartbeat CPU 0 instructions: 640000004 cycles: 242702066 heartbeat IPC: 3.294 cumulative IPC: 2.563 (Simulation time: 01 hr 03 min 21 sec)
Heartbeat CPU 0 instructions: 650000001 cycles: 245403507 heartbeat IPC: 3.702 cumulative IPC: 2.576 (Simulation time: 01 hr 03 min 38 sec)
Simulation finished CPU 0 instructions: 600000001 cycles: 232903446 cumulative IPC: 2.576 (Simulation time: 01 hr 03 min 38 sec)
Simulation complete CPU 0 instructions: 600000001 cycles: 232903446 cumulative IPC: 2.576 (Simulation time: 01 hr 03 min 38 sec)

ChampSim completed all CPUs

=== Simulation ===
CPU 0 runs traces/400.perlbench-50B.champsimtrace.xz
Region of Interest Statistics

CPU 0 cumulative IPC: 2.576 instructions: 600000001 cycles: 232903446
CPU 0 Branch Prediction Accuracy: 99.01% MPKI: 2.04 Average ROB Occupancy at Mispredict: 94.48
Branch type MPKI
BRANCH_DIRECT_JUMP: 0.0176
BRANCH_INDIRECT: 0.38
BRANCH_CONDITIONAL: 1.19
BRANCH_DIRECT_CALL: 0.0067
BRANCH_INDIRECT_CALL: 0.431
BRANCH_RETURN: 0.0161

LLC TOTAL        ACCESS:     771139 HIT:     526955 MISS:     244184
LLC LOAD         ACCESS:     575584 HIT:     361698 MISS:     213886
LLC RFO          ACCESS:      46997 HIT:      31372 MISS:      15625
LLC PREFETCH     ACCESS:          0 HIT:          0 MISS:          0
LLC WRITE        ACCESS:     126498 HIT:     121876 MISS:       4622
LLC TRANSLATION  ACCESS:      22060 HIT:      12009 MISS:      10051
LLC PREFETCH REQUESTED:          0 ISSUED:          0 USEFUL:          0 USELESS:          0
LLC AVERAGE MISS LATENCY: 550.8 cycles
cpu0_DTLB TOTAL        ACCESS:  133235519 HIT:  131880511 MISS:    1355008
cpu0_DTLB LOAD         ACCESS:  133235519 HIT:  131880511 MISS:    1355008
cpu0_DTLB RFO          ACCESS:          0 HIT:          0 MISS:          0
cpu0_DTLB PREFETCH     ACCESS:          0 HIT:          0 MISS:          0
cpu0_DTLB WRITE        ACCESS:          0 HIT:          0 MISS:          0
cpu0_DTLB TRANSLATION  ACCESS:          0 HIT:          0 MISS:          0
cpu0_DTLB PREFETCH REQUESTED:          0 ISSUED:          0 USEFUL:          0 USELESS:          0
cpu0_DTLB AVERAGE MISS LATENCY: 10.45 cycles
cpu0_ITLB TOTAL        ACCESS:    8997000 HIT:    8787578 MISS:     209422
cpu0_ITLB LOAD         ACCESS:    8997000 HIT:    8787578 MISS:     209422
cpu0_ITLB RFO          ACCESS:          0 HIT:          0 MISS:          0
cpu0_ITLB PREFETCH     ACCESS:          0 HIT:          0 MISS:          0
cpu0_ITLB WRITE        ACCESS:          0 HIT:          0 MISS:          0
cpu0_ITLB TRANSLATION  ACCESS:          0 HIT:          0 MISS:          0
cpu0_ITLB PREFETCH REQUESTED:          0 ISSUED:          0 USEFUL:          0 USELESS:          0
cpu0_ITLB AVERAGE MISS LATENCY: 2.582 cycles
cpu0_L1D TOTAL        ACCESS:  178269458 HIT:  174486521 MISS:    3782937
cpu0_L1D LOAD         ACCESS:   92749829 HIT:   89645655 MISS:    3104174
cpu0_L1D RFO          ACCESS:          0 HIT:          0 MISS:          0
cpu0_L1D PREFETCH     ACCESS:          0 HIT:          0 MISS:          0
cpu0_L1D WRITE        ACCESS:   85491105 HIT:   84839450 MISS:     651655
cpu0_L1D TRANSLATION  ACCESS:      28524 HIT:       1416 MISS:      27108
cpu0_L1D PREFETCH REQUESTED:          0 ISSUED:          0 USEFUL:          0 USELESS:          0
cpu0_L1D AVERAGE MISS LATENCY: 39.57 cycles
cpu0_L1I TOTAL        ACCESS:   10516496 HIT:    8617515 MISS:    1898981
cpu0_L1I LOAD         ACCESS:   10516496 HIT:    8617515 MISS:    1898981
cpu0_L1I RFO          ACCESS:          0 HIT:          0 MISS:          0
cpu0_L1I PREFETCH     ACCESS:          0 HIT:          0 MISS:          0
cpu0_L1I WRITE        ACCESS:          0 HIT:          0 MISS:          0
cpu0_L1I TRANSLATION  ACCESS:          0 HIT:          0 MISS:          0
cpu0_L1I PREFETCH REQUESTED:          0 ISSUED:          0 USEFUL:          0 USELESS:          0
cpu0_L1I AVERAGE MISS LATENCY: 9.265 cycles
cpu0_L2C TOTAL        ACCESS:    3840492 HIT:    3192732 MISS:     647760
cpu0_L2C LOAD         ACCESS:    3103824 HIT:    2528240 MISS:     575584
cpu0_L2C RFO          ACCESS:     194873 HIT:     147876 MISS:      46997
cpu0_L2C PREFETCH     ACCESS:          0 HIT:          0 MISS:          0
cpu0_L2C WRITE        ACCESS:     514760 HIT:     511641 MISS:       3119
cpu0_L2C TRANSLATION  ACCESS:      27035 HIT:       4975 MISS:      22060
cpu0_L2C PREFETCH REQUESTED:          0 ISSUED:          0 USEFUL:          0 USELESS:          0
cpu0_L2C AVERAGE MISS LATENCY: 227.9 cycles
cpu0_STLB TOTAL        ACCESS:    1009904 HIT:     983214 MISS:      26690
cpu0_STLB LOAD         ACCESS:    1009904 HIT:     983214 MISS:      26690
cpu0_STLB RFO          ACCESS:          0 HIT:          0 MISS:          0
cpu0_STLB PREFETCH     ACCESS:          0 HIT:          0 MISS:          0
cpu0_STLB WRITE        ACCESS:          0 HIT:          0 MISS:          0
cpu0_STLB TRANSLATION  ACCESS:          0 HIT:          0 MISS:          0
cpu0_STLB PREFETCH REQUESTED:          0 ISSUED:          0 USEFUL:          0 USELESS:          0
cpu0_STLB AVERAGE MISS LATENCY: 320.8 cycles

DRAM Statistics

Channel 0 RQ ROW_BUFFER_HIT:      56973
  ROW_BUFFER_MISS:     182573
 AVG DBUS CONGESTED CYCLE: 3.793
WQ ROW_BUFFER_HIT: Channel 0 
  ROW_BUFFER_MISS:       5771
  FULL:      20347
