WARNING: physical memory size is smaller than virtual memory size.

*** ChampSim Multicore Out-of-Order Simulator ***
Warmup Instructions: 50000000
Simulation Instructions: 600000000
Number of CPUs: 1
Page size: 4096

Off-chip DRAM Size: 4 GiB Channels: 1 Width: 64-bit Data Race: 3200 MT/s
Heartbeat CPU 0 instructions: 10000000 cycles: 2500061 heartbeat IPC: 4 cumulative IPC: 4 (Simulation time: 00 hr 00 min 20 sec)
Heartbeat CPU 0 instructions: 20000000 cycles: 5000061 heartbeat IPC: 4 cumulative IPC: 4 (Simulation time: 00 hr 00 min 48 sec)
Heartbeat CPU 0 instructions: 30000000 cycles: 7500061 heartbeat IPC: 4 cumulative IPC: 4 (Simulation time: 00 hr 01 min 21 sec)
Heartbeat CPU 0 instructions: 40000000 cycles: 10000061 heartbeat IPC: 4 cumulative IPC: 4 (Simulation time: 00 hr 02 min 05 sec)
Heartbeat CPU 0 instructions: 50000000 cycles: 12500061 heartbeat IPC: 4 cumulative IPC: 4 (Simulation time: 00 hr 02 min 57 sec)
Warmup finished CPU 0 instructions: 50000000 cycles: 12500062 cumulative IPC: 4 (Simulation time: 00 hr 02 min 57 sec)
Warmup complete CPU 0 instructions: 50000000 cycles: 12500062 cumulative IPC: 4 (Simulation time: 00 hr 02 min 57 sec)
Heartbeat CPU 0 instructions: 60000002 cycles: 16910921 heartbeat IPC: 2.267 cumulative IPC: 2.267 (Simulation time: 00 hr 04 min 20 sec)
Heartbeat CPU 0 instructions: 70000003 cycles: 21896816 heartbeat IPC: 2.006 cumulative IPC: 2.128 (Simulation time: 00 hr 05 min 47 sec)
Heartbeat CPU 0 instructions: 80000001 cycles: 27246155 heartbeat IPC: 1.869 cumulative IPC: 2.034 (Simulation time: 00 hr 07 min 25 sec)
Heartbeat CPU 0 instructions: 90000000 cycles: 31544699 heartbeat IPC: 2.326 cumulative IPC: 2.1 (Simulation time: 00 hr 08 min 51 sec)
Heartbeat CPU 0 instructions: 100000003 cycles: 36404102 heartbeat IPC: 2.058 cumulative IPC: 2.092 (Simulation time: 00 hr 10 min 18 sec)
Heartbeat CPU 0 instructions: 110000002 cycles: 41281735 heartbeat IPC: 2.05 cumulative IPC: 2.085 (Simulation time: 00 hr 11 min 40 sec)
Heartbeat CPU 0 instructions: 120000001 cycles: 46278078 heartbeat IPC: 2.001 cumulative IPC: 2.072 (Simulation time: 00 hr 13 min 09 sec)
Heartbeat CPU 0 instructions: 130000003 cycles: 50848441 heartbeat IPC: 2.188 cumulative IPC: 2.086 (Simulation time: 00 hr 14 min 33 sec)
Heartbeat CPU 0 instructions: 140000002 cycles: 55741837 heartbeat IPC: 2.044 cumulative IPC: 2.081 (Simulation time: 00 hr 16 min 08 sec)
Heartbeat CPU 0 instructions: 150000001 cycles: 60413534 heartbeat IPC: 2.141 cumulative IPC: 2.087 (Simulation time: 00 hr 17 min 52 sec)
Heartbeat CPU 0 instructions: 160000000 cycles: 65054061 heartbeat IPC: 2.155 cumulative IPC: 2.093 (Simulation time: 00 hr 19 min 39 sec)
Heartbeat CPU 0 instructions: 170000000 cycles: 70390892 heartbeat IPC: 1.874 cumulative IPC: 2.073 (Simulation time: 00 hr 21 min 36 sec)
Heartbeat CPU 0 instructions: 180000001 cycles: 76112662 heartbeat IPC: 1.748 cumulative IPC: 2.044 (Simulation time: 00 hr 23 min 39 sec)
Heartbeat CPU 0 instructions: 190000002 cycles: 80589282 heartbeat IPC: 2.234 cumulative IPC: 2.056 (Simulation time: 00 hr 25 min 31 sec)
Heartbeat CPU 0 instructions: 200000002 cycles: 85498894 heartbeat IPC: 2.037 cumulative IPC: 2.055 (Simulation time: 00 hr 27 min 11 sec)
Heartbeat CPU 0 instructions: 210000000 cycles: 90504729 heartbeat IPC: 1.998 cumulative IPC: 2.051 (Simulation time: 00 hr 28 min 06 sec)
Heartbeat CPU 0 instructions: 220000001 cycles: 95431335 heartbeat IPC: 2.03 cumulative IPC: 2.05 (Simulation time: 00 hr 28 min 59 sec)
Heartbeat CPU 0 instructions: 230000002 cycles: 100680532 heartbeat IPC: 1.905 cumulative IPC: 2.041 (Simulation time: 00 hr 29 min 54 sec)
Heartbeat CPU 0 instructions: 240000001 cycles: 105647247 heartbeat IPC: 2.013 cumulative IPC: 2.04 (Simulation time: 00 hr 30 min 48 sec)
Heartbeat CPU 0 instructions: 250000003 cycles: 110834790 heartbeat IPC: 1.928 cumulative IPC: 2.034 (Simulation time: 00 hr 31 min 42 sec)
Heartbeat CPU 0 instructions: 260000001 cycles: 115697669 heartbeat IPC: 2.056 cumulative IPC: 2.035 (Simulation time: 00 hr 32 min 36 sec)
Heartbeat CPU 0 instructions: 270000000 cycles: 123481165 heartbeat IPC: 1.285 cumulative IPC: 1.982 (Simulation time: 00 hr 33 min 51 sec)
Heartbeat CPU 0 instructions: 280000000 cycles: 135201027 heartbeat IPC: 0.8533 cumulative IPC: 1.874 (Simulation time: 00 hr 35 min 37 sec)
Heartbeat CPU 0 instructions: 290000001 cycles: 145508694 heartbeat IPC: 0.9702 cumulative IPC: 1.804 (Simulation time: 00 hr 37 min 15 sec)
Heartbeat CPU 0 instructions: 300000003 cycles: 153029750 heartbeat IPC: 1.33 cumulative IPC: 1.779 (Simulation time: 00 hr 38 min 32 sec)
Heartbeat CPU 0 instructions: 310000004 cycles: 164015468 heartbeat IPC: 0.9103 cumulative IPC: 1.716 (Simulation time: 00 hr 40 min 10 sec)
Heartbeat CPU 0 instructions: 320000004 cycles: 169703012 heartbeat IPC: 1.758 cumulative IPC: 1.718 (Simulation time: 00 hr 41 min 14 sec)
Heartbeat CPU 0 instructions: 330000000 cycles: 175008399 heartbeat IPC: 1.885 cumulative IPC: 1.723 (Simulation time: 00 hr 42 min 10 sec)
Heartbeat CPU 0 instructions: 340000001 cycles: 180250089 heartbeat IPC: 1.908 cumulative IPC: 1.729 (Simulation time: 00 hr 43 min 06 sec)
Heartbeat CPU 0 instructions: 350000000 cycles: 185699080 heartbeat IPC: 1.835 cumulative IPC: 1.732 (Simulation time: 00 hr 44 min 06 sec)
Heartbeat CPU 0 instructions: 360000003 cycles: 190904204 heartbeat IPC: 1.921 cumulative IPC: 1.738 (Simulation time: 00 hr 45 min 07 sec)
Heartbeat CPU 0 instructions: 370000001 cycles: 196028878 heartbeat IPC: 1.951 cumulative IPC: 1.744 (Simulation time: 00 hr 46 min 04 sec)
Heartbeat CPU 0 instructions: 380000004 cycles: 201419839 heartbeat IPC: 1.855 cumulative IPC: 1.747 (Simulation time: 00 hr 47 min 03 sec)
Heartbeat CPU 0 instructions: 390000002 cycles: 206861058 heartbeat IPC: 1.838 cumulative IPC: 1.749 (Simulation time: 00 hr 48 min 05 sec)
Heartbeat CPU 0 instructions: 400000000 cycles: 212388548 heartbeat IPC: 1.809 cumulative IPC: 1.751 (Simulation time: 00 hr 49 min 06 sec)
Heartbeat CPU 0 instructions: 410000000 cycles: 220440861 heartbeat IPC: 1.242 cumulative IPC: 1.731 (Simulation time: 00 hr 50 min 19 sec)
Heartbeat CPU 0 instructions: 420000001 cycles: 231783494 heartbeat IPC: 0.8816 cumulative IPC: 1.687 (Simulation time: 00 hr 52 min 02 sec)
Heartbeat CPU 0 instructions: 430000000 cycles: 239460803 heartbeat IPC: 1.303 cumulative IPC: 1.674 (Simulation time: 00 hr 53 min 24 sec)
Heartbeat CPU 0 instructions: 440000002 cycles: 246498445 heartbeat IPC: 1.421 cumulative IPC: 1.667 (Simulation time: 00 hr 54 min 38 sec)
Heartbeat CPU 0 instructions: 450000000 cycles: 253340667 heartbeat IPC: 1.462 cumulative IPC: 1.661 (Simulation time: 00 hr 55 min 53 sec)
Heartbeat CPU 0 instructions: 460000002 cycles: 264080031 heartbeat IPC: 0.9312 cumulative IPC: 1.63 (Simulation time: 00 hr 57 min 29 sec)
Heartbeat CPU 0 instructions: 470000000 cycles: 273796609 heartbeat IPC: 1.029 cumulative IPC: 1.607 (Simulation time: 00 hr 59 min 00 sec)
Heartbeat CPU 0 instructions: 480000000 cycles: 279299927 heartbeat IPC: 1.817 cumulative IPC: 1.612 (Simulation time: 01 hr 00 min 02 sec)
Heartbeat CPU 0 instructions: 490000001 cycles: 285114040 heartbeat IPC: 1.72 cumulative IPC: 1.614 (Simulation time: 01 hr 01 min 04 sec)
Heartbeat CPU 0 instructions: 500000002 cycles: 290781493 heartbeat IPC: 1.764 cumulative IPC: 1.617 (Simulation time: 01 hr 02 min 05 sec)
Heartbeat CPU 0 instructions: 510000000 cycles: 296541948 heartbeat IPC: 1.736 cumulative IPC: 1.619 (Simulation time: 01 hr 03 min 12 sec)
Heartbeat CPU 0 instructions: 520000000 cycles: 302371296 heartbeat IPC: 1.715 cumulative IPC: 1.621 (Simulation time: 01 hr 04 min 16 sec)
Heartbeat CPU 0 instructions: 530000001 cycles: 313793131 heartbeat IPC: 0.8755 cumulative IPC: 1.593 (Simulation time: 01 hr 05 min 53 sec)
Heartbeat CPU 0 instructions: 540000000 cycles: 324570244 heartbeat IPC: 0.9279 cumulative IPC: 1.57 (Simulation time: 01 hr 07 min 29 sec)
Heartbeat CPU 0 instructions: 550000002 cycles: 337568780 heartbeat IPC: 0.7693 cumulative IPC: 1.538 (Simulation time: 01 hr 09 min 16 sec)
Heartbeat CPU 0 instructions: 560000004 cycles: 342355845 heartbeat IPC: 2.089 cumulative IPC: 1.546 (Simulation time: 01 hr 10 min 10 sec)
Heartbeat CPU 0 instructions: 570000001 cycles: 346768235 heartbeat IPC: 2.266 cumulative IPC: 1.556 (Simulation time: 01 hr 11 min 02 sec)
Heartbeat CPU 0 instructions: 580000003 cycles: 351009555 heartbeat IPC: 2.358 cumulative IPC: 1.566 (Simulation time: 01 hr 11 min 54 sec)
Heartbeat CPU 0 instructions: 590000001 cycles: 355916377 heartbeat IPC: 2.038 cumulative IPC: 1.572 (Simulation time: 01 hr 12 min 50 sec)
Heartbeat CPU 0 instructions: 600000003 cycles: 360559836 heartbeat IPC: 2.154 cumulative IPC: 1.58 (Simulation time: 01 hr 13 min 47 sec)
Heartbeat CPU 0 instructions: 610000001 cycles: 365423030 heartbeat IPC: 2.056 cumulative IPC: 1.587 (Simulation time: 01 hr 14 min 40 sec)
Heartbeat CPU 0 instructions: 620000000 cycles: 370490066 heartbeat IPC: 1.974 cumulative IPC: 1.592 (Simulation time: 01 hr 15 min 33 sec)
Heartbeat CPU 0 instructions: 630000002 cycles: 374738072 heartbeat IPC: 2.354 cumulative IPC: 1.601 (Simulation time: 01 hr 16 min 19 sec)
Heartbeat CPU 0 instructions: 640000004 cycles: 380060267 heartbeat IPC: 1.879 cumulative IPC: 1.605 (Simulation time: 01 hr 17 min 05 sec)
Heartbeat CPU 0 instructions: 650000001 cycles: 384826028 heartbeat IPC: 2.098 cumulative IPC: 1.611 (Simulation time: 01 hr 17 min 40 sec)
Simulation finished CPU 0 instructions: 600000001 cycles: 372325967 cumulative IPC: 1.611 (Simulation time: 01 hr 17 min 40 sec)
Simulation complete CPU 0 instructions: 600000001 cycles: 372325967 cumulative IPC: 1.611 (Simulation time: 01 hr 17 min 40 sec)

ChampSim completed all CPUs

=== Simulation ===
CPU 0 runs traces/400.perlbench-50B.champsimtrace.xz
Region of Interest Statistics

CPU 0 cumulative IPC: 1.611 instructions: 600000001 cycles: 372325967
CPU 0 Branch Prediction Accuracy: 93.83% MPKI: 12.71 Average ROB Occupancy at Mispredict: 29.42
Branch type MPKI
BRANCH_DIRECT_JUMP: 0.0176
BRANCH_INDIRECT: 0.38
BRANCH_CONDITIONAL: 11.9
BRANCH_DIRECT_CALL: 0.0067
BRANCH_INDIRECT_CALL: 0.431
BRANCH_RETURN: 0.0161

LLC TOTAL        ACCESS:     787514 HIT:     492899 MISS:     294615
LLC LOAD         ACCESS:     587475 HIT:     324474 MISS:     263001
LLC RFO          ACCESS:      47362 HIT:      27782 MISS:      19580
LLC PREFETCH     ACCESS:          0 HIT:          0 MISS:          0
LLC WRITE        ACCESS:     130666 HIT:     130353 MISS:        313
LLC TRANSLATION  ACCESS:      22011 HIT:      10290 MISS:      11721
LLC PREFETCH REQUESTED:          0 ISSUED:          0 USEFUL:          0 USELESS:          0
LLC AVERAGE MISS LATENCY: 541.2 cycles
cpu0_DTLB TOTAL        ACCESS:  156762054 HIT:  155461011 MISS:    1301043
cpu0_DTLB LOAD         ACCESS:  156762054 HIT:  155461011 MISS:    1301043
cpu0_DTLB RFO          ACCESS:          0 HIT:          0 MISS:          0
cpu0_DTLB PREFETCH     ACCESS:          0 HIT:          0 MISS:          0
cpu0_DTLB WRITE        ACCESS:          0 HIT:          0 MISS:          0
cpu0_DTLB TRANSLATION  ACCESS:          0 HIT:          0 MISS:          0
cpu0_DTLB PREFETCH REQUESTED:          0 ISSUED:          0 USEFUL:          0 USELESS:          0
cpu0_DTLB AVERAGE MISS LATENCY: 11.93 cycles
cpu0_ITLB TOTAL        ACCESS:    8932400 HIT:    8733750 MISS:     198650
cpu0_ITLB LOAD         ACCESS:    8932400 HIT:    8733750 MISS:     198650
cpu0_ITLB RFO          ACCESS:          0 HIT:          0 MISS:          0
cpu0_ITLB PREFETCH     ACCESS:          0 HIT:          0 MISS:          0
cpu0_ITLB WRITE        ACCESS:          0 HIT:          0 MISS:          0
cpu0_ITLB TRANSLATION  ACCESS:          0 HIT:          0 MISS:          0
cpu0_ITLB PREFETCH REQUESTED:          0 ISSUED:          0 USEFUL:          0 USELESS:          0
cpu0_ITLB AVERAGE MISS LATENCY: 3.188 cycles
cpu0_L1D TOTAL        ACCESS:  203618984 HIT:  200729622 MISS:    2889362
cpu0_L1D LOAD         ACCESS:  117942765 HIT:  115569402 MISS:    2373363
cpu0_L1D RFO          ACCESS:          0 HIT:          0 MISS:          0
cpu0_L1D PREFETCH     ACCESS:          0 HIT:          0 MISS:          0
cpu0_L1D WRITE        ACCESS:   85647674 HIT:   85158220 MISS:     489454
cpu0_L1D TRANSLATION  ACCESS:      28545 HIT:       2000 MISS:      26545
cpu0_L1D PREFETCH REQUESTED:          0 ISSUED:          0 USEFUL:          0 USELESS:          0
cpu0_L1D AVERAGE MISS LATENCY: 60.78 cycles
cpu0_L1I TOTAL        ACCESS:   10371116 HIT:    8573660 MISS:    1797456
cpu0_L1I LOAD         ACCESS:   10371116 HIT:    8573660 MISS:    1797456
cpu0_L1I RFO          ACCESS:          0 HIT:          0 MISS:          0
cpu0_L1I PREFETCH     ACCESS:          0 HIT:          0 MISS:          0
cpu0_L1I WRITE        ACCESS:          0 HIT:          0 MISS:          0
cpu0_L1I TRANSLATION  ACCESS:          0 HIT:          0 MISS:          0
cpu0_L1I PREFETCH REQUESTED:          0 ISSUED:          0 USEFUL:          0 USELESS:          0
cpu0_L1I AVERAGE MISS LATENCY: 10.56 cycles
cpu0_L2C TOTAL        ACCESS:    3235227 HIT:    2571705 MISS:     663522
cpu0_L2C LOAD         ACCESS:    2711670 HIT:    2124195 MISS:     587475
cpu0_L2C RFO          ACCESS:     133679 HIT:      86317 MISS:      47362
cpu0_L2C PREFETCH     ACCESS:          0 HIT:          0 MISS:          0
cpu0_L2C WRITE        ACCESS:     363414 HIT:     356740 MISS:       6674
cpu0_L2C TRANSLATION  ACCESS:      26464 HIT:       4453 MISS:      22011
cpu0_L2C PREFETCH REQUESTED:          0 ISSUED:          0 USEFUL:          0 USELESS:          0
cpu0_L2C AVERAGE MISS LATENCY: 260.5 cycles
cpu0_STLB TOTAL        ACCESS:    1009168 HIT:     982475 MISS:      26693
cpu0_STLB LOAD         ACCESS:    1009168 HIT:     982475 MISS:      26693
cpu0_STLB RFO          ACCESS:          0 HIT:          0 MISS:          0
cpu0_STLB PREFETCH     ACCESS:          0 HIT:          0 MISS:          0
cpu0_STLB WRITE        ACCESS:          0 HIT:          0 MISS:          0
cpu0_STLB TRANSLATION  ACCESS:          0 HIT:          0 MISS:          0
cpu0_STLB PREFETCH REQUESTED:          0 ISSUED:          0 USEFUL:          0 USELESS:          0
cpu0_STLB AVERAGE MISS LATENCY: 361.7 cycles

DRAM Statistics

Channel 0 RQ ROW_BUFFER_HIT:      54591
  ROW_BUFFER_MISS:     239675
 AVG DBUS CONGESTED CYCLE: 3.795
WQ ROW_BUFFER_HIT: Channel 0 
  ROW_BUFFER_MISS:       8884
  FULL:      33696
