WARNING: physical memory size is smaller than virtual memory size.

*** ChampSim Multicore Out-of-Order Simulator ***
Warmup Instructions: 50000000
Simulation Instructions: 600000000
Number of CPUs: 1
Page size: 4096

Off-chip DRAM Size: 4 GiB Channels: 1 Width: 64-bit Data Race: 3200 MT/s
Heartbeat CPU 0 instructions: 10000001 cycles: 2500318 heartbeat IPC: 3.999 cumulative IPC: 3.999 (Simulation time: 00 hr 00 min 56 sec)
Heartbeat CPU 0 instructions: 20000002 cycles: 5037141 heartbeat IPC: 3.942 cumulative IPC: 3.971 (Simulation time: 00 hr 01 min 47 sec)
Heartbeat CPU 0 instructions: 30000002 cycles: 7537141 heartbeat IPC: 4 cumulative IPC: 3.98 (Simulation time: 00 hr 02 min 32 sec)
Heartbeat CPU 0 instructions: 40000002 cycles: 10037141 heartbeat IPC: 4 cumulative IPC: 3.985 (Simulation time: 00 hr 03 min 19 sec)
Heartbeat CPU 0 instructions: 50000002 cycles: 12537141 heartbeat IPC: 4 cumulative IPC: 3.988 (Simulation time: 00 hr 04 min 11 sec)
Warmup finished CPU 0 instructions: 50000002 cycles: 12537142 cumulative IPC: 3.988 (Simulation time: 00 hr 04 min 11 sec)
Warmup complete CPU 0 instructions: 50000002 cycles: 12537142 cumulative IPC: 3.988 (Simulation time: 00 hr 04 min 11 sec)
Heartbeat CPU 0 instructions: 60000000 cycles: 17723152 heartbeat IPC: 1.928 cumulative IPC: 1.928 (Simulation time: 00 hr 05 min 49 sec)
Heartbeat CPU 0 instructions: 70000002 cycles: 22644226 heartbeat IPC: 2.032 cumulative IPC: 1.979 (Simulation time: 00 hr 07 min 20 sec)
Heartbeat CPU 0 instructions: 80000001 cycles: 28031000 heartbeat IPC: 1.856 cumulative IPC: 1.936 (Simulation time: 00 hr 08 min 45 sec)
Heartbeat CPU 0 instructions: 90000001 cycles: 32925960 heartbeat IPC: 2.043 cumulative IPC: 1.962 (Simulation time: 00 hr 10 min 03 sec)
Heartbeat CPU 0 instructions: 100000000 cycles: 38058520 heartbeat IPC: 1.948 cumulative IPC: 1.959 (Simulation time: 00 hr 11 min 23 sec)
Heartbeat CPU 0 instructions: 110000000 cycles: 42962781 heartbeat IPC: 2.039 cumulative IPC: 1.972 (Simulation time: 00 hr 12 min 41 sec)
Heartbeat CPU 0 instructions: 120000001 cycles: 48170070 heartbeat IPC: 1.92 cumulative IPC: 1.964 (Simulation time: 00 hr 13 min 59 sec)
Heartbeat CPU 0 instructions: 130000001 cycles: 53349041 heartbeat IPC: 1.931 cumulative IPC: 1.96 (Simulation time: 00 hr 15 min 16 sec)
Heartbeat CPU 0 instructions: 140000001 cycles: 58680734 heartbeat IPC: 1.876 cumulative IPC: 1.95 (Simulation time: 00 hr 16 min 31 sec)
Heartbeat CPU 0 instructions: 150000001 cycles: 64024420 heartbeat IPC: 1.871 cumulative IPC: 1.942 (Simulation time: 00 hr 17 min 53 sec)
Heartbeat CPU 0 instructions: 160000004 cycles: 69254281 heartbeat IPC: 1.912 cumulative IPC: 1.939 (Simulation time: 00 hr 19 min 34 sec)
Heartbeat CPU 0 instructions: 170000000 cycles: 78076466 heartbeat IPC: 1.134 cumulative IPC: 1.831 (Simulation time: 00 hr 21 min 42 sec)
Heartbeat CPU 0 instructions: 180000004 cycles: 87444332 heartbeat IPC: 1.067 cumulative IPC: 1.735 (Simulation time: 00 hr 23 min 44 sec)
Heartbeat CPU 0 instructions: 190000001 cycles: 99684673 heartbeat IPC: 0.817 cumulative IPC: 1.606 (Simulation time: 00 hr 26 min 11 sec)
Heartbeat CPU 0 instructions: 200000003 cycles: 104477409 heartbeat IPC: 2.086 cumulative IPC: 1.631 (Simulation time: 00 hr 27 min 26 sec)
Heartbeat CPU 0 instructions: 210000001 cycles: 109411953 heartbeat IPC: 2.027 cumulative IPC: 1.652 (Simulation time: 00 hr 28 min 38 sec)
Heartbeat CPU 0 instructions: 220000000 cycles: 114253309 heartbeat IPC: 2.066 cumulative IPC: 1.671 (Simulation time: 00 hr 29 min 47 sec)
Heartbeat CPU 0 instructions: 230000002 cycles: 119593433 heartbeat IPC: 1.873 cumulative IPC: 1.681 (Simulation time: 00 hr 31 min 15 sec)
Heartbeat CPU 0 instructions: 240000000 cycles: 124463026 heartbeat IPC: 2.054 cumulative IPC: 1.698 (Simulation time: 00 hr 32 min 39 sec)
Heartbeat CPU 0 instructions: 250000000 cycles: 129631614 heartbeat IPC: 1.935 cumulative IPC: 1.708 (Simulation time: 00 hr 34 min 06 sec)
Heartbeat CPU 0 instructions: 260000000 cycles: 134675784 heartbeat IPC: 1.982 cumulative IPC: 1.719 (Simulation time: 00 hr 35 min 22 sec)
Heartbeat CPU 0 instructions: 270000002 cycles: 139577209 heartbeat IPC: 2.04 cumulative IPC: 1.732 (Simulation time: 00 hr 36 min 42 sec)
Heartbeat CPU 0 instructions: 280000002 cycles: 144502539 heartbeat IPC: 2.03 cumulative IPC: 1.743 (Simulation time: 00 hr 38 min 01 sec)
Heartbeat CPU 0 instructions: 290000001 cycles: 149887153 heartbeat IPC: 1.857 cumulative IPC: 1.747 (Simulation time: 00 hr 39 min 21 sec)
Heartbeat CPU 0 instructions: 300000003 cycles: 154973605 heartbeat IPC: 1.966 cumulative IPC: 1.755 (Simulation time: 00 hr 40 min 33 sec)
Heartbeat CPU 0 instructions: 310000001 cycles: 160289649 heartbeat IPC: 1.881 cumulative IPC: 1.76 (Simulation time: 00 hr 41 min 43 sec)
Heartbeat CPU 0 instructions: 320000003 cycles: 165515880 heartbeat IPC: 1.913 cumulative IPC: 1.765 (Simulation time: 00 hr 43 min 05 sec)
Heartbeat CPU 0 instructions: 330000003 cycles: 170844396 heartbeat IPC: 1.877 cumulative IPC: 1.769 (Simulation time: 00 hr 44 min 36 sec)
Heartbeat CPU 0 instructions: 340000000 cycles: 179824102 heartbeat IPC: 1.114 cumulative IPC: 1.734 (Simulation time: 00 hr 46 min 33 sec)
Heartbeat CPU 0 instructions: 350000000 cycles: 190102361 heartbeat IPC: 0.9729 cumulative IPC: 1.69 (Simulation time: 00 hr 48 min 31 sec)
Heartbeat CPU 0 instructions: 360000004 cycles: 202014278 heartbeat IPC: 0.8395 cumulative IPC: 1.636 (Simulation time: 00 hr 50 min 52 sec)
Heartbeat CPU 0 instructions: 370000000 cycles: 206444057 heartbeat IPC: 2.257 cumulative IPC: 1.65 (Simulation time: 00 hr 51 min 59 sec)
Heartbeat CPU 0 instructions: 380000001 cycles: 211377695 heartbeat IPC: 2.027 cumulative IPC: 1.66 (Simulation time: 00 hr 53 min 08 sec)
Heartbeat CPU 0 instructions: 390000002 cycles: 216211214 heartbeat IPC: 2.069 cumulative IPC: 1.669 (Simulation time: 00 hr 54 min 17 sec)
Heartbeat CPU 0 instructions: 400000004 cycles: 221150744 heartbeat IPC: 2.024 cumulative IPC: 1.678 (Simulation time: 00 hr 55 min 34 sec)
Heartbeat CPU 0 instructions: 410000000 cycles: 225893338 heartbeat IPC: 2.109 cumulative IPC: 1.687 (Simulation time: 00 hr 57 min 10 sec)
Heartbeat CPU 0 instructions: 420000000 cycles: 231057536 heartbeat IPC: 1.936 cumulative IPC: 1.693 (Simulation time: 00 hr 58 min 45 sec)
Heartbeat CPU 0 instructions: 430000001 cycles: 235560345 heartbeat IPC: 2.221 cumulative IPC: 1.704 (Simulation time: 01 hr 00 min 07 sec)
Heartbeat CPU 0 instructions: 440000000 cycles: 240928895 heartbeat IPC: 1.863 cumulative IPC: 1.708 (Simulation time: 01 hr 01 min 24 sec)
Heartbeat CPU 0 instructions: 450000002 cycles: 245609704 heartbeat IPC: 2.136 cumulative IPC: 1.716 (Simulation time: 01 hr 02 min 36 sec)
Heartbeat CPU 0 instructions: 460000000 cycles: 250421439 heartbeat IPC: 2.078 cumulative IPC: 1.724 (Simulation time: 01 hr 03 min 50 sec)
Heartbeat CPU 0 instructions: 470000000 cycles: 255415333 heartbeat IPC: 2.002 cumulative IPC: 1.729 (Simulation time: 01 hr 05 min 02 sec)
Heartbeat CPU 0 instructions: 480000003 cycles: 260261586 heartbeat IPC: 2.063 cumulative IPC: 1.736 (Simulation time: 01 hr 06 min 13 sec)
Heartbeat CPU 0 instructions: 490000000 cycles: 264884086 heartbeat IPC: 2.163 cumulative IPC: 1.744 (Simulation time: 01 hr 07 min 19 sec)
Heartbeat CPU 0 instructions: 500000000 cycles: 269913935 heartbeat IPC: 1.988 cumulative IPC: 1.748 (Simulation time: 01 hr 08 min 28 sec)
Heartbeat CPU 0 instructions: 510000003 cycles: 275645096 heartbeat IPC: 1.745 cumulative IPC: 1.748 (Simulation time: 01 hr 10 min 05 sec)
Heartbeat CPU 0 instructions: 520000001 cycles: 280349452 heartbeat IPC: 2.126 cumulative IPC: 1.755 (Simulation time: 01 hr 11 min 36 sec)
Heartbeat CPU 0 instructions: 530000002 cycles: 285549984 heartbeat IPC: 1.923 cumulative IPC: 1.758 (Simulation time: 01 hr 13 min 02 sec)
Heartbeat CPU 0 instructions: 540000000 cycles: 290684950 heartbeat IPC: 1.947 cumulative IPC: 1.762 (Simulation time: 01 hr 14 min 23 sec)
Heartbeat CPU 0 instructions: 550000001 cycles: 295509908 heartbeat IPC: 2.073 cumulative IPC: 1.767 (Simulation time: 01 hr 15 min 39 sec)
Heartbeat CPU 0 instructions: 560000000 cycles: 300830308 heartbeat IPC: 1.88 cumulative IPC: 1.769 (Simulation time: 01 hr 17 min 06 sec)
Heartbeat CPU 0 instructions: 570000004 cycles: 308212677 heartbeat IPC: 1.355 cumulative IPC: 1.759 (Simulation time: 01 hr 18 min 40 sec)
Heartbeat CPU 0 instructions: 580000003 cycles: 316553844 heartbeat IPC: 1.199 cumulative IPC: 1.743 (Simulation time: 01 hr 20 min 22 sec)
Heartbeat CPU 0 instructions: 590000002 cycles: 331547968 heartbeat IPC: 0.6669 cumulative IPC: 1.693 (Simulation time: 01 hr 23 min 35 sec)
Heartbeat CPU 0 instructions: 600000000 cycles: 336223555 heartbeat IPC: 2.139 cumulative IPC: 1.699 (Simulation time: 01 hr 25 min 08 sec)
Heartbeat CPU 0 instructions: 610000002 cycles: 340722893 heartbeat IPC: 2.223 cumulative IPC: 1.706 (Simulation time: 01 hr 26 min 32 sec)
Heartbeat CPU 0 instructions: 620000000 cycles: 345532926 heartbeat IPC: 2.079 cumulative IPC: 1.712 (Simulation time: 01 hr 27 min 52 sec)
Heartbeat CPU 0 instructions: 630000002 cycles: 350628300 heartbeat IPC: 1.963 cumulative IPC: 1.716 (Simulation time: 01 hr 29 min 20 sec)
Heartbeat CPU 0 instructions: 640000001 cycles: 355485298 heartbeat IPC: 2.059 cumulative IPC: 1.72 (Simulation time: 01 hr 30 min 41 sec)
Heartbeat CPU 0 instructions: 650000000 cycles: 360045483 heartbeat IPC: 2.193 cumulative IPC: 1.727 (Simulation time: 01 hr 31 min 55 sec)
Simulation finished CPU 0 instructions: 600000001 cycles: 347508343 cumulative IPC: 1.727 (Simulation time: 01 hr 31 min 55 sec)
Simulation complete CPU 0 instructions: 600000001 cycles: 347508343 cumulative IPC: 1.727 (Simulation time: 01 hr 31 min 55 sec)

ChampSim completed all CPUs

=== Simulation ===
CPU 0 runs traces/400.perlbench-41B.champsimtrace.xz
Region of Interest Statistics

CPU 0 cumulative IPC: 1.727 instructions: 600000001 cycles: 347508343
CPU 0 Branch Prediction Accuracy: 93.95% MPKI: 12.5 Average ROB Occupancy at Mispredict: 29.63
Branch type MPKI
BRANCH_DIRECT_JUMP: 0.0123
BRANCH_INDIRECT: 0.323
BRANCH_CONDITIONAL: 12
BRANCH_DIRECT_CALL: 0.0043
BRANCH_INDIRECT_CALL: 0.2
BRANCH_RETURN: 0.00828

LLC TOTAL        ACCESS:     595342 HIT:     316100 MISS:     279242
LLC LOAD         ACCESS:     402630 HIT:     210778 MISS:     191852
LLC RFO          ACCESS:      32396 HIT:      16207 MISS:      16189
LLC PREFETCH     ACCESS:      55041 HIT:      31059 MISS:      23982
LLC WRITE        ACCESS:      86333 HIT:      54495 MISS:      31838
LLC TRANSLATION  ACCESS:      18942 HIT:       3561 MISS:      15381
LLC PREFETCH REQUESTED:      55041 ISSUED:      55041 USEFUL:      13453 USELESS:       7392
LLC AVERAGE MISS LATENCY: 500.3 cycles
cpu0_DTLB TOTAL        ACCESS:  153664841 HIT:  152987409 MISS:     677432
cpu0_DTLB LOAD         ACCESS:  153664841 HIT:  152987409 MISS:     677432
cpu0_DTLB RFO          ACCESS:          0 HIT:          0 MISS:          0
cpu0_DTLB PREFETCH     ACCESS:          0 HIT:          0 MISS:          0
cpu0_DTLB WRITE        ACCESS:          0 HIT:          0 MISS:          0
cpu0_DTLB TRANSLATION  ACCESS:          0 HIT:          0 MISS:          0
cpu0_DTLB PREFETCH REQUESTED:          0 ISSUED:          0 USEFUL:          0 USELESS:          0
cpu0_DTLB AVERAGE MISS LATENCY: 19.93 cycles
cpu0_ITLB TOTAL        ACCESS:    4835662 HIT:    4777802 MISS:      57860
cpu0_ITLB LOAD         ACCESS:    4835662 HIT:    4777802 MISS:      57860
cpu0_ITLB RFO          ACCESS:          0 HIT:          0 MISS:          0
cpu0_ITLB PREFETCH     ACCESS:          0 HIT:          0 MISS:          0
cpu0_ITLB WRITE        ACCESS:          0 HIT:          0 MISS:          0
cpu0_ITLB TRANSLATION  ACCESS:          0 HIT:          0 MISS:          0
cpu0_ITLB PREFETCH REQUESTED:          0 ISSUED:          0 USEFUL:          0 USELESS:          0
cpu0_ITLB AVERAGE MISS LATENCY: 6.978 cycles
cpu0_L1D TOTAL        ACCESS:  200287866 HIT:  198942347 MISS:    1345519
cpu0_L1D LOAD         ACCESS:  117043474 HIT:  116006465 MISS:    1037009
cpu0_L1D RFO          ACCESS:          0 HIT:          0 MISS:          0
cpu0_L1D PREFETCH     ACCESS:          0 HIT:          0 MISS:          0
cpu0_L1D WRITE        ACCESS:   83219931 HIT:   82934312 MISS:     285619
cpu0_L1D TRANSLATION  ACCESS:      24461 HIT:       1570 MISS:      22891
cpu0_L1D PREFETCH REQUESTED:          0 ISSUED:          0 USEFUL:          0 USELESS:          0
cpu0_L1D AVERAGE MISS LATENCY: 95.48 cycles
cpu0_L1I TOTAL        ACCESS:    5578146 HIT:    4817007 MISS:     761139
cpu0_L1I LOAD         ACCESS:    5578146 HIT:    4817007 MISS:     761139
cpu0_L1I RFO          ACCESS:          0 HIT:          0 MISS:          0
cpu0_L1I PREFETCH     ACCESS:          0 HIT:          0 MISS:          0
cpu0_L1I WRITE        ACCESS:          0 HIT:          0 MISS:          0
cpu0_L1I TRANSLATION  ACCESS:          0 HIT:          0 MISS:          0
cpu0_L1I PREFETCH REQUESTED:          0 ISSUED:          0 USEFUL:          0 USELESS:          0
cpu0_L1I AVERAGE MISS LATENCY: 18.1 cycles
cpu0_L2C TOTAL        ACCESS:    1382396 HIT:     924704 MISS:     457692
cpu0_L2C LOAD         ACCESS:    1125666 HIT:     723036 MISS:     402630
cpu0_L2C RFO          ACCESS:      63861 HIT:      31465 MISS:      32396
cpu0_L2C PREFETCH     ACCESS:          0 HIT:          0 MISS:          0
cpu0_L2C WRITE        ACCESS:     170065 HIT:     166341 MISS:       3724
cpu0_L2C TRANSLATION  ACCESS:      22804 HIT:       3862 MISS:      18942
cpu0_L2C PREFETCH REQUESTED:          0 ISSUED:          0 USEFUL:          0 USELESS:          0
cpu0_L2C AVERAGE MISS LATENCY: 292.6 cycles
cpu0_STLB TOTAL        ACCESS:     505069 HIT:     482279 MISS:      22790
cpu0_STLB LOAD         ACCESS:     505069 HIT:     482279 MISS:      22790
cpu0_STLB RFO          ACCESS:          0 HIT:          0 MISS:          0
cpu0_STLB PREFETCH     ACCESS:          0 HIT:          0 MISS:          0
cpu0_STLB WRITE        ACCESS:          0 HIT:          0 MISS:          0
cpu0_STLB TRANSLATION  ACCESS:          0 HIT:          0 MISS:          0
cpu0_STLB PREFETCH REQUESTED:          0 ISSUED:          0 USEFUL:          0 USELESS:          0
cpu0_STLB AVERAGE MISS LATENCY: 474.7 cycles

DRAM Statistics

Channel 0 RQ ROW_BUFFER_HIT:      35169
  ROW_BUFFER_MISS:     208106
 AVG DBUS CONGESTED CYCLE: 3.819
WQ ROW_BUFFER_HIT: Channel 0 
  ROW_BUFFER_MISS:       9407
  FULL:      30995
