WARNING: physical memory size is smaller than virtual memory size.

*** ChampSim Multicore Out-of-Order Simulator ***
Warmup Instructions: 50000000
Simulation Instructions: 600000000
Number of CPUs: 1
Page size: 4096

CPU 0 Tage branch predictor
Off-chip DRAM Size: 4 GiB Channels: 1 Width: 64-bit Data Race: 3200 MT/s
Heartbeat CPU 0 instructions: 10000001 cycles: 2500318 heartbeat IPC: 3.999 cumulative IPC: 3.999 (Simulation time: 00 hr 04 min 21 sec)
Heartbeat CPU 0 instructions: 20000002 cycles: 5037133 heartbeat IPC: 3.942 cumulative IPC: 3.971 (Simulation time: 00 hr 08 min 55 sec)
Heartbeat CPU 0 instructions: 30000002 cycles: 7537133 heartbeat IPC: 4 cumulative IPC: 3.98 (Simulation time: 00 hr 13 min 01 sec)
Heartbeat CPU 0 instructions: 40000002 cycles: 10037133 heartbeat IPC: 4 cumulative IPC: 3.985 (Simulation time: 00 hr 17 min 10 sec)
Heartbeat CPU 0 instructions: 50000002 cycles: 12537133 heartbeat IPC: 4 cumulative IPC: 3.988 (Simulation time: 00 hr 21 min 07 sec)
Warmup finished CPU 0 instructions: 50000002 cycles: 12537134 cumulative IPC: 3.988 (Simulation time: 00 hr 21 min 07 sec)
Warmup complete CPU 0 instructions: 50000002 cycles: 12537134 cumulative IPC: 3.988 (Simulation time: 00 hr 21 min 07 sec)
Heartbeat CPU 0 instructions: 60000001 cycles: 15504749 heartbeat IPC: 3.37 cumulative IPC: 3.37 (Simulation time: 00 hr 25 min 59 sec)
Heartbeat CPU 0 instructions: 70000004 cycles: 18572108 heartbeat IPC: 3.26 cumulative IPC: 3.314 (Simulation time: 00 hr 30 min 49 sec)
Heartbeat CPU 0 instructions: 80000001 cycles: 21614150 heartbeat IPC: 3.287 cumulative IPC: 3.305 (Simulation time: 00 hr 35 min 35 sec)
Heartbeat CPU 0 instructions: 90000001 cycles: 24558371 heartbeat IPC: 3.396 cumulative IPC: 3.327 (Simulation time: 00 hr 40 min 16 sec)
Heartbeat CPU 0 instructions: 100000000 cycles: 27465340 heartbeat IPC: 3.44 cumulative IPC: 3.349 (Simulation time: 00 hr 44 min 56 sec)
Heartbeat CPU 0 instructions: 110000000 cycles: 30409244 heartbeat IPC: 3.397 cumulative IPC: 3.357 (Simulation time: 00 hr 49 min 35 sec)
Heartbeat CPU 0 instructions: 120000001 cycles: 33384256 heartbeat IPC: 3.361 cumulative IPC: 3.358 (Simulation time: 00 hr 54 min 16 sec)
Heartbeat CPU 0 instructions: 130000001 cycles: 36236459 heartbeat IPC: 3.506 cumulative IPC: 3.376 (Simulation time: 00 hr 58 min 57 sec)
Heartbeat CPU 0 instructions: 140000001 cycles: 39275281 heartbeat IPC: 3.291 cumulative IPC: 3.366 (Simulation time: 01 hr 03 min 39 sec)
Heartbeat CPU 0 instructions: 150000001 cycles: 42285007 heartbeat IPC: 3.323 cumulative IPC: 3.362 (Simulation time: 01 hr 08 min 23 sec)
Heartbeat CPU 0 instructions: 160000004 cycles: 45296748 heartbeat IPC: 3.32 cumulative IPC: 3.358 (Simulation time: 01 hr 13 min 06 sec)
Heartbeat CPU 0 instructions: 170000000 cycles: 51383124 heartbeat IPC: 1.643 cumulative IPC: 3.089 (Simulation time: 01 hr 19 min 54 sec)
Heartbeat CPU 0 instructions: 180000004 cycles: 56227643 heartbeat IPC: 2.064 cumulative IPC: 2.975 (Simulation time: 01 hr 26 min 06 sec)
Heartbeat CPU 0 instructions: 190000001 cycles: 61280926 heartbeat IPC: 1.979 cumulative IPC: 2.872 (Simulation time: 01 hr 32 min 22 sec)
Heartbeat CPU 0 instructions: 200000004 cycles: 64141022 heartbeat IPC: 3.496 cumulative IPC: 2.907 (Simulation time: 01 hr 36 min 59 sec)
Heartbeat CPU 0 instructions: 210000001 cycles: 67016962 heartbeat IPC: 3.477 cumulative IPC: 2.937 (Simulation time: 01 hr 41 min 38 sec)
Heartbeat CPU 0 instructions: 220000000 cycles: 69866026 heartbeat IPC: 3.51 cumulative IPC: 2.965 (Simulation time: 01 hr 46 min 15 sec)
Heartbeat CPU 0 instructions: 230000002 cycles: 72765300 heartbeat IPC: 3.449 cumulative IPC: 2.989 (Simulation time: 01 hr 50 min 54 sec)
Heartbeat CPU 0 instructions: 240000003 cycles: 75724720 heartbeat IPC: 3.379 cumulative IPC: 3.007 (Simulation time: 01 hr 55 min 37 sec)
Heartbeat CPU 0 instructions: 250000000 cycles: 78677539 heartbeat IPC: 3.387 cumulative IPC: 3.024 (Simulation time: 02 hr 00 min 18 sec)
Heartbeat CPU 0 instructions: 260000002 cycles: 81586115 heartbeat IPC: 3.438 cumulative IPC: 3.041 (Simulation time: 02 hr 05 min 00 sec)
Heartbeat CPU 0 instructions: 270000002 cycles: 84454118 heartbeat IPC: 3.487 cumulative IPC: 3.059 (Simulation time: 02 hr 09 min 39 sec)
Heartbeat CPU 0 instructions: 280000002 cycles: 87311158 heartbeat IPC: 3.5 cumulative IPC: 3.076 (Simulation time: 02 hr 14 min 15 sec)
Heartbeat CPU 0 instructions: 290000002 cycles: 90243879 heartbeat IPC: 3.41 cumulative IPC: 3.089 (Simulation time: 02 hr 18 min 57 sec)
Heartbeat CPU 0 instructions: 300000003 cycles: 93105134 heartbeat IPC: 3.495 cumulative IPC: 3.103 (Simulation time: 02 hr 23 min 41 sec)
Heartbeat CPU 0 instructions: 310000001 cycles: 96090116 heartbeat IPC: 3.35 cumulative IPC: 3.112 (Simulation time: 02 hr 28 min 24 sec)
Heartbeat CPU 0 instructions: 320000003 cycles: 99079152 heartbeat IPC: 3.346 cumulative IPC: 3.12 (Simulation time: 02 hr 33 min 06 sec)
Heartbeat CPU 0 instructions: 330000003 cycles: 102040866 heartbeat IPC: 3.376 cumulative IPC: 3.128 (Simulation time: 02 hr 37 min 50 sec)
Heartbeat CPU 0 instructions: 340000000 cycles: 108214506 heartbeat IPC: 1.62 cumulative IPC: 3.031 (Simulation time: 02 hr 44 min 43 sec)
Heartbeat CPU 0 instructions: 350000000 cycles: 113248223 heartbeat IPC: 1.987 cumulative IPC: 2.979 (Simulation time: 02 hr 50 min 57 sec)
Heartbeat CPU 0 instructions: 360000004 cycles: 118638341 heartbeat IPC: 1.855 cumulative IPC: 2.922 (Simulation time: 02 hr 57 min 20 sec)
Heartbeat CPU 0 instructions: 370000000 cycles: 121520579 heartbeat IPC: 3.47 cumulative IPC: 2.936 (Simulation time: 03 hr 01 min 57 sec)
Heartbeat CPU 0 instructions: 380000003 cycles: 124362306 heartbeat IPC: 3.519 cumulative IPC: 2.951 (Simulation time: 03 hr 06 min 35 sec)
Heartbeat CPU 0 instructions: 390000002 cycles: 127287775 heartbeat IPC: 3.418 cumulative IPC: 2.963 (Simulation time: 03 hr 11 min 11 sec)
Heartbeat CPU 0 instructions: 400000004 cycles: 130158032 heartbeat IPC: 3.484 cumulative IPC: 2.976 (Simulation time: 03 hr 15 min 50 sec)
Heartbeat CPU 0 instructions: 410000002 cycles: 133028321 heartbeat IPC: 3.484 cumulative IPC: 2.988 (Simulation time: 03 hr 20 min 28 sec)
Heartbeat CPU 0 instructions: 420000003 cycles: 136026729 heartbeat IPC: 3.335 cumulative IPC: 2.996 (Simulation time: 03 hr 25 min 09 sec)
Heartbeat CPU 0 instructions: 430000001 cycles: 138986389 heartbeat IPC: 3.379 cumulative IPC: 3.005 (Simulation time: 03 hr 29 min 57 sec)
Heartbeat CPU 0 instructions: 440000004 cycles: 142060749 heartbeat IPC: 3.253 cumulative IPC: 3.011 (Simulation time: 03 hr 34 min 41 sec)
Heartbeat CPU 0 instructions: 450000002 cycles: 144937237 heartbeat IPC: 3.476 cumulative IPC: 3.021 (Simulation time: 03 hr 39 min 21 sec)
Heartbeat CPU 0 instructions: 460000000 cycles: 147834639 heartbeat IPC: 3.451 cumulative IPC: 3.03 (Simulation time: 03 hr 43 min 58 sec)
Heartbeat CPU 0 instructions: 470000001 cycles: 150651507 heartbeat IPC: 3.55 cumulative IPC: 3.041 (Simulation time: 03 hr 48 min 34 sec)
Heartbeat CPU 0 instructions: 480000003 cycles: 153675814 heartbeat IPC: 3.307 cumulative IPC: 3.047 (Simulation time: 03 hr 53 min 17 sec)
Heartbeat CPU 0 instructions: 490000004 cycles: 156491056 heartbeat IPC: 3.552 cumulative IPC: 3.057 (Simulation time: 03 hr 57 min 52 sec)
Heartbeat CPU 0 instructions: 500000004 cycles: 159457861 heartbeat IPC: 3.371 cumulative IPC: 3.063 (Simulation time: 04 hr 02 min 33 sec)
Heartbeat CPU 0 instructions: 510000003 cycles: 162451802 heartbeat IPC: 3.34 cumulative IPC: 3.068 (Simulation time: 04 hr 07 min 19 sec)
Heartbeat CPU 0 instructions: 520000001 cycles: 165318731 heartbeat IPC: 3.488 cumulative IPC: 3.076 (Simulation time: 04 hr 12 min 01 sec)
Heartbeat CPU 0 instructions: 530000001 cycles: 168298108 heartbeat IPC: 3.356 cumulative IPC: 3.082 (Simulation time: 04 hr 16 min 41 sec)
Heartbeat CPU 0 instructions: 540000000 cycles: 171229938 heartbeat IPC: 3.411 cumulative IPC: 3.088 (Simulation time: 04 hr 21 min 20 sec)
Heartbeat CPU 0 instructions: 550000001 cycles: 174204027 heartbeat IPC: 3.362 cumulative IPC: 3.093 (Simulation time: 04 hr 26 min 02 sec)
Heartbeat CPU 0 instructions: 560000000 cycles: 177271337 heartbeat IPC: 3.26 cumulative IPC: 3.096 (Simulation time: 04 hr 30 min 48 sec)
Heartbeat CPU 0 instructions: 570000004 cycles: 182132292 heartbeat IPC: 2.057 cumulative IPC: 3.066 (Simulation time: 04 hr 36 min 45 sec)
Heartbeat CPU 0 instructions: 580000003 cycles: 187791890 heartbeat IPC: 1.767 cumulative IPC: 3.024 (Simulation time: 04 hr 43 min 23 sec)
Heartbeat CPU 0 instructions: 590000002 cycles: 193890672 heartbeat IPC: 1.64 cumulative IPC: 2.978 (Simulation time: 04 hr 50 min 27 sec)
Heartbeat CPU 0 instructions: 600000004 cycles: 196830853 heartbeat IPC: 3.401 cumulative IPC: 2.984 (Simulation time: 04 hr 55 min 08 sec)
Heartbeat CPU 0 instructions: 610000002 cycles: 199730982 heartbeat IPC: 3.448 cumulative IPC: 2.992 (Simulation time: 04 hr 59 min 49 sec)
Heartbeat CPU 0 instructions: 620000001 cycles: 202464770 heartbeat IPC: 3.658 cumulative IPC: 3.001 (Simulation time: 05 hr 04 min 47 sec)
Heartbeat CPU 0 instructions: 630000002 cycles: 205372830 heartbeat IPC: 3.439 cumulative IPC: 3.008 (Simulation time: 05 hr 09 min 25 sec)
Heartbeat CPU 0 instructions: 640000004 cycles: 208297806 heartbeat IPC: 3.419 cumulative IPC: 3.014 (Simulation time: 05 hr 14 min 14 sec)
Heartbeat CPU 0 instructions: 650000000 cycles: 211025619 heartbeat IPC: 3.666 cumulative IPC: 3.023 (Simulation time: 05 hr 19 min 07 sec)
Simulation finished CPU 0 instructions: 600000001 cycles: 198488487 cumulative IPC: 3.023 (Simulation time: 05 hr 19 min 07 sec)
Simulation complete CPU 0 instructions: 600000001 cycles: 198488487 cumulative IPC: 3.023 (Simulation time: 05 hr 19 min 07 sec)

ChampSim completed all CPUs

=== Simulation ===
CPU 0 runs traces/400.perlbench-41B.champsimtrace.xz
Region of Interest Statistics

CPU 0 cumulative IPC: 3.023 instructions: 600000001 cycles: 198488487
CPU 0 Branch Prediction Accuracy: 99.19% MPKI: 1.684 Average ROB Occupancy at Mispredict: 101.2
Branch type MPKI
BRANCH_DIRECT_JUMP: 0.0123
BRANCH_INDIRECT: 0.323
BRANCH_CONDITIONAL: 1.14
BRANCH_DIRECT_CALL: 0.0043
BRANCH_INDIRECT_CALL: 0.2
BRANCH_RETURN: 0.00828

LLC TOTAL        ACCESS:     541048 HIT:     421204 MISS:     119844
LLC LOAD         ACCESS:     403915 HIT:     307221 MISS:      96694
LLC RFO          ACCESS:      32521 HIT:      24575 MISS:       7946
LLC PREFETCH     ACCESS:          0 HIT:          0 MISS:          0
LLC WRITE        ACCESS:      85470 HIT:      79673 MISS:       5797
LLC TRANSLATION  ACCESS:      19142 HIT:       9735 MISS:       9407
LLC PREFETCH REQUESTED:          0 ISSUED:          0 USEFUL:          0 USELESS:          0
LLC AVERAGE MISS LATENCY: 553.8 cycles
cpu0_DTLB TOTAL        ACCESS:  129759234 HIT:  129055565 MISS:     703669
cpu0_DTLB LOAD         ACCESS:  129759234 HIT:  129055565 MISS:     703669
cpu0_DTLB RFO          ACCESS:          0 HIT:          0 MISS:          0
cpu0_DTLB PREFETCH     ACCESS:          0 HIT:          0 MISS:          0
cpu0_DTLB WRITE        ACCESS:          0 HIT:          0 MISS:          0
cpu0_DTLB TRANSLATION  ACCESS:          0 HIT:          0 MISS:          0
cpu0_DTLB PREFETCH REQUESTED:          0 ISSUED:          0 USEFUL:          0 USELESS:          0
cpu0_DTLB AVERAGE MISS LATENCY: 12.9 cycles
cpu0_ITLB TOTAL        ACCESS:    4873844 HIT:    4811751 MISS:      62093
cpu0_ITLB LOAD         ACCESS:    4873844 HIT:    4811751 MISS:      62093
cpu0_ITLB RFO          ACCESS:          0 HIT:          0 MISS:          0
cpu0_ITLB PREFETCH     ACCESS:          0 HIT:          0 MISS:          0
cpu0_ITLB WRITE        ACCESS:          0 HIT:          0 MISS:          0
cpu0_ITLB TRANSLATION  ACCESS:          0 HIT:          0 MISS:          0
cpu0_ITLB PREFETCH REQUESTED:          0 ISSUED:          0 USEFUL:          0 USELESS:          0
cpu0_ITLB AVERAGE MISS LATENCY: 4.934 cycles
cpu0_L1D TOTAL        ACCESS:  174368525 HIT:  172620273 MISS:    1748252
cpu0_L1D LOAD         ACCESS:   91346075 HIT:   89986055 MISS:    1360020
cpu0_L1D RFO          ACCESS:          0 HIT:          0 MISS:          0
cpu0_L1D PREFETCH     ACCESS:          0 HIT:          0 MISS:          0
cpu0_L1D WRITE        ACCESS:   82997986 HIT:   82633159 MISS:     364827
cpu0_L1D TRANSLATION  ACCESS:      24464 HIT:       1059 MISS:      23405
cpu0_L1D PREFETCH REQUESTED:          0 ISSUED:          0 USEFUL:          0 USELESS:          0
cpu0_L1D AVERAGE MISS LATENCY: 43.6 cycles
cpu0_L1I TOTAL        ACCESS:    5653105 HIT:    4848210 MISS:     804895
cpu0_L1I LOAD         ACCESS:    5653105 HIT:    4848210 MISS:     804895
cpu0_L1I RFO          ACCESS:          0 HIT:          0 MISS:          0
cpu0_L1I PREFETCH     ACCESS:          0 HIT:          0 MISS:          0
cpu0_L1I WRITE        ACCESS:          0 HIT:          0 MISS:          0
cpu0_L1I TRANSLATION  ACCESS:          0 HIT:          0 MISS:          0
cpu0_L1I PREFETCH REQUESTED:          0 ISSUED:          0 USEFUL:          0 USELESS:          0
cpu0_L1I AVERAGE MISS LATENCY: 8.265 cycles
cpu0_L2C TOTAL        ACCESS:    1668306 HIT:    1210881 MISS:     457425
cpu0_L2C LOAD         ACCESS:    1315340 HIT:     911424 MISS:     403916
cpu0_L2C RFO          ACCESS:      89595 HIT:      57073 MISS:      32522
cpu0_L2C PREFETCH     ACCESS:          0 HIT:          0 MISS:          0
cpu0_L2C WRITE        ACCESS:     240050 HIT:     238205 MISS:       1845
cpu0_L2C TRANSLATION  ACCESS:      23321 HIT:       4179 MISS:      19142
cpu0_L2C PREFETCH REQUESTED:          0 ISSUED:          0 USEFUL:          0 USELESS:          0
cpu0_L2C AVERAGE MISS LATENCY: 165.3 cycles
cpu0_STLB TOTAL        ACCESS:     508695 HIT:     485909 MISS:      22786
cpu0_STLB LOAD         ACCESS:     508695 HIT:     485909 MISS:      22786
cpu0_STLB RFO          ACCESS:          0 HIT:          0 MISS:          0
cpu0_STLB PREFETCH     ACCESS:          0 HIT:          0 MISS:          0
cpu0_STLB WRITE        ACCESS:          0 HIT:          0 MISS:          0
cpu0_STLB TRANSLATION  ACCESS:          0 HIT:          0 MISS:          0
cpu0_STLB PREFETCH REQUESTED:          0 ISSUED:          0 USEFUL:          0 USELESS:          0
cpu0_STLB AVERAGE MISS LATENCY: 282.6 cycles

DRAM Statistics

Channel 0 RQ ROW_BUFFER_HIT:      22656
  ROW_BUFFER_MISS:      91377
 AVG DBUS CONGESTED CYCLE: 3.793
WQ ROW_BUFFER_HIT: Channel 0 
  ROW_BUFFER_MISS:       4418
  FULL:      10280
