WARNING: physical memory size is smaller than virtual memory size.

*** ChampSim Multicore Out-of-Order Simulator ***
Warmup Instructions: 50000000
Simulation Instructions: 600000000
Number of CPUs: 1
Page size: 4096

Off-chip DRAM Size: 4 GiB Channels: 1 Width: 64-bit Data Race: 3200 MT/s
Heartbeat CPU 0 instructions: 10000001 cycles: 2500318 heartbeat IPC: 3.999 cumulative IPC: 3.999 (Simulation time: 00 hr 00 min 55 sec)
Heartbeat CPU 0 instructions: 20000002 cycles: 5037138 heartbeat IPC: 3.942 cumulative IPC: 3.971 (Simulation time: 00 hr 01 min 52 sec)
Heartbeat CPU 0 instructions: 30000002 cycles: 7537138 heartbeat IPC: 4 cumulative IPC: 3.98 (Simulation time: 00 hr 02 min 45 sec)
Heartbeat CPU 0 instructions: 40000002 cycles: 10037138 heartbeat IPC: 4 cumulative IPC: 3.985 (Simulation time: 00 hr 03 min 33 sec)
Heartbeat CPU 0 instructions: 50000002 cycles: 12537138 heartbeat IPC: 4 cumulative IPC: 3.988 (Simulation time: 00 hr 04 min 20 sec)
Warmup finished CPU 0 instructions: 50000002 cycles: 12537139 cumulative IPC: 3.988 (Simulation time: 00 hr 04 min 20 sec)
Warmup complete CPU 0 instructions: 50000002 cycles: 12537139 cumulative IPC: 3.988 (Simulation time: 00 hr 04 min 20 sec)
Heartbeat CPU 0 instructions: 60000000 cycles: 17146130 heartbeat IPC: 2.17 cumulative IPC: 2.17 (Simulation time: 00 hr 05 min 25 sec)
Heartbeat CPU 0 instructions: 70000004 cycles: 21414646 heartbeat IPC: 2.343 cumulative IPC: 2.253 (Simulation time: 00 hr 06 min 49 sec)
Heartbeat CPU 0 instructions: 80000001 cycles: 26009803 heartbeat IPC: 2.176 cumulative IPC: 2.227 (Simulation time: 00 hr 08 min 22 sec)
Heartbeat CPU 0 instructions: 90000001 cycles: 30128802 heartbeat IPC: 2.428 cumulative IPC: 2.274 (Simulation time: 00 hr 09 min 47 sec)
Heartbeat CPU 0 instructions: 100000000 cycles: 34183332 heartbeat IPC: 2.466 cumulative IPC: 2.31 (Simulation time: 00 hr 10 min 59 sec)
Heartbeat CPU 0 instructions: 110000000 cycles: 38419950 heartbeat IPC: 2.36 cumulative IPC: 2.318 (Simulation time: 00 hr 12 min 14 sec)
Heartbeat CPU 0 instructions: 120000001 cycles: 42428984 heartbeat IPC: 2.494 cumulative IPC: 2.342 (Simulation time: 00 hr 13 min 33 sec)
Heartbeat CPU 0 instructions: 130000001 cycles: 46163594 heartbeat IPC: 2.678 cumulative IPC: 2.379 (Simulation time: 00 hr 14 min 48 sec)
Heartbeat CPU 0 instructions: 140000001 cycles: 50323225 heartbeat IPC: 2.404 cumulative IPC: 2.382 (Simulation time: 00 hr 16 min 02 sec)
Heartbeat CPU 0 instructions: 150000001 cycles: 54518518 heartbeat IPC: 2.384 cumulative IPC: 2.382 (Simulation time: 00 hr 17 min 16 sec)
Heartbeat CPU 0 instructions: 160000004 cycles: 58939590 heartbeat IPC: 2.262 cumulative IPC: 2.371 (Simulation time: 00 hr 18 min 35 sec)
Heartbeat CPU 0 instructions: 170000000 cycles: 68407735 heartbeat IPC: 1.056 cumulative IPC: 2.148 (Simulation time: 00 hr 21 min 03 sec)
Heartbeat CPU 0 instructions: 180000004 cycles: 79233475 heartbeat IPC: 0.9237 cumulative IPC: 1.949 (Simulation time: 00 hr 23 min 24 sec)
Heartbeat CPU 0 instructions: 190000001 cycles: 89576485 heartbeat IPC: 0.9668 cumulative IPC: 1.817 (Simulation time: 00 hr 25 min 30 sec)
Heartbeat CPU 0 instructions: 200000004 cycles: 93350705 heartbeat IPC: 2.65 cumulative IPC: 1.856 (Simulation time: 00 hr 26 min 38 sec)
Heartbeat CPU 0 instructions: 210000001 cycles: 97268617 heartbeat IPC: 2.552 cumulative IPC: 1.888 (Simulation time: 00 hr 27 min 49 sec)
Heartbeat CPU 0 instructions: 220000000 cycles: 101228053 heartbeat IPC: 2.526 cumulative IPC: 1.917 (Simulation time: 00 hr 28 min 54 sec)
Heartbeat CPU 0 instructions: 230000002 cycles: 105900143 heartbeat IPC: 2.14 cumulative IPC: 1.928 (Simulation time: 00 hr 30 min 02 sec)
Heartbeat CPU 0 instructions: 240000000 cycles: 110093682 heartbeat IPC: 2.385 cumulative IPC: 1.948 (Simulation time: 00 hr 31 min 23 sec)
Heartbeat CPU 0 instructions: 250000000 cycles: 114418285 heartbeat IPC: 2.312 cumulative IPC: 1.963 (Simulation time: 00 hr 32 min 52 sec)
Heartbeat CPU 0 instructions: 260000000 cycles: 118603730 heartbeat IPC: 2.389 cumulative IPC: 1.98 (Simulation time: 00 hr 34 min 15 sec)
Heartbeat CPU 0 instructions: 270000002 cycles: 122456362 heartbeat IPC: 2.596 cumulative IPC: 2.001 (Simulation time: 00 hr 35 min 30 sec)
Heartbeat CPU 0 instructions: 280000002 cycles: 126632213 heartbeat IPC: 2.395 cumulative IPC: 2.016 (Simulation time: 00 hr 36 min 41 sec)
Heartbeat CPU 0 instructions: 290000001 cycles: 130527323 heartbeat IPC: 2.567 cumulative IPC: 2.034 (Simulation time: 00 hr 37 min 46 sec)
Heartbeat CPU 0 instructions: 300000003 cycles: 134356992 heartbeat IPC: 2.611 cumulative IPC: 2.052 (Simulation time: 00 hr 38 min 54 sec)
Heartbeat CPU 0 instructions: 310000001 cycles: 138489121 heartbeat IPC: 2.42 cumulative IPC: 2.064 (Simulation time: 00 hr 40 min 06 sec)
Heartbeat CPU 0 instructions: 320000003 cycles: 142572220 heartbeat IPC: 2.449 cumulative IPC: 2.076 (Simulation time: 00 hr 41 min 16 sec)
Heartbeat CPU 0 instructions: 330000003 cycles: 146983743 heartbeat IPC: 2.267 cumulative IPC: 2.083 (Simulation time: 00 hr 42 min 27 sec)
Heartbeat CPU 0 instructions: 340000000 cycles: 157365217 heartbeat IPC: 0.9633 cumulative IPC: 2.002 (Simulation time: 00 hr 44 min 43 sec)
Heartbeat CPU 0 instructions: 350000000 cycles: 168771568 heartbeat IPC: 0.8767 cumulative IPC: 1.92 (Simulation time: 00 hr 47 min 20 sec)
Heartbeat CPU 0 instructions: 360000004 cycles: 179027206 heartbeat IPC: 0.9751 cumulative IPC: 1.862 (Simulation time: 00 hr 49 min 22 sec)
Heartbeat CPU 0 instructions: 370000000 cycles: 182470214 heartbeat IPC: 2.904 cumulative IPC: 1.883 (Simulation time: 00 hr 50 min 29 sec)
Heartbeat CPU 0 instructions: 380000001 cycles: 185886273 heartbeat IPC: 2.927 cumulative IPC: 1.904 (Simulation time: 00 hr 51 min 35 sec)
Heartbeat CPU 0 instructions: 390000004 cycles: 189631436 heartbeat IPC: 2.67 cumulative IPC: 1.92 (Simulation time: 00 hr 52 min 39 sec)
Heartbeat CPU 0 instructions: 400000004 cycles: 193445947 heartbeat IPC: 2.622 cumulative IPC: 1.935 (Simulation time: 00 hr 53 min 41 sec)
Heartbeat CPU 0 instructions: 410000001 cycles: 197099289 heartbeat IPC: 2.737 cumulative IPC: 1.951 (Simulation time: 00 hr 54 min 41 sec)
Heartbeat CPU 0 instructions: 420000003 cycles: 201152133 heartbeat IPC: 2.467 cumulative IPC: 1.962 (Simulation time: 00 hr 55 min 45 sec)
Heartbeat CPU 0 instructions: 430000001 cycles: 204812082 heartbeat IPC: 2.732 cumulative IPC: 1.976 (Simulation time: 00 hr 57 min 01 sec)
Heartbeat CPU 0 instructions: 440000004 cycles: 208897444 heartbeat IPC: 2.448 cumulative IPC: 1.986 (Simulation time: 00 hr 58 min 27 sec)
Heartbeat CPU 0 instructions: 450000002 cycles: 212631716 heartbeat IPC: 2.678 cumulative IPC: 1.999 (Simulation time: 00 hr 59 min 44 sec)
Heartbeat CPU 0 instructions: 460000000 cycles: 216302575 heartbeat IPC: 2.724 cumulative IPC: 2.012 (Simulation time: 01 hr 00 min 54 sec)
Heartbeat CPU 0 instructions: 470000000 cycles: 219766342 heartbeat IPC: 2.887 cumulative IPC: 2.027 (Simulation time: 01 hr 01 min 57 sec)
Heartbeat CPU 0 instructions: 480000003 cycles: 223592445 heartbeat IPC: 2.614 cumulative IPC: 2.037 (Simulation time: 01 hr 03 min 06 sec)
Heartbeat CPU 0 instructions: 490000000 cycles: 227222619 heartbeat IPC: 2.755 cumulative IPC: 2.05 (Simulation time: 01 hr 04 min 12 sec)
Heartbeat CPU 0 instructions: 500000000 cycles: 230918734 heartbeat IPC: 2.706 cumulative IPC: 2.061 (Simulation time: 01 hr 05 min 16 sec)
Heartbeat CPU 0 instructions: 510000003 cycles: 234573497 heartbeat IPC: 2.736 cumulative IPC: 2.072 (Simulation time: 01 hr 06 min 18 sec)
Heartbeat CPU 0 instructions: 520000001 cycles: 237987543 heartbeat IPC: 2.929 cumulative IPC: 2.085 (Simulation time: 01 hr 07 min 19 sec)
Heartbeat CPU 0 instructions: 530000002 cycles: 241661302 heartbeat IPC: 2.722 cumulative IPC: 2.095 (Simulation time: 01 hr 08 min 27 sec)
Heartbeat CPU 0 instructions: 540000000 cycles: 245192018 heartbeat IPC: 2.832 cumulative IPC: 2.106 (Simulation time: 01 hr 09 min 47 sec)
Heartbeat CPU 0 instructions: 550000001 cycles: 248888244 heartbeat IPC: 2.705 cumulative IPC: 2.115 (Simulation time: 01 hr 11 min 06 sec)
Heartbeat CPU 0 instructions: 560000000 cycles: 252864171 heartbeat IPC: 2.515 cumulative IPC: 2.122 (Simulation time: 01 hr 12 min 25 sec)
Heartbeat CPU 0 instructions: 570000004 cycles: 259310530 heartbeat IPC: 1.551 cumulative IPC: 2.107 (Simulation time: 01 hr 14 min 04 sec)
Heartbeat CPU 0 instructions: 580000003 cycles: 270857315 heartbeat IPC: 0.866 cumulative IPC: 2.052 (Simulation time: 01 hr 16 min 33 sec)
Heartbeat CPU 0 instructions: 590000002 cycles: 284064387 heartbeat IPC: 0.7572 cumulative IPC: 1.989 (Simulation time: 01 hr 19 min 04 sec)
Heartbeat CPU 0 instructions: 600000000 cycles: 287822916 heartbeat IPC: 2.661 cumulative IPC: 1.998 (Simulation time: 01 hr 20 min 08 sec)
Heartbeat CPU 0 instructions: 610000000 cycles: 291684215 heartbeat IPC: 2.59 cumulative IPC: 2.006 (Simulation time: 01 hr 21 min 12 sec)
Heartbeat CPU 0 instructions: 620000001 cycles: 295119109 heartbeat IPC: 2.911 cumulative IPC: 2.017 (Simulation time: 01 hr 22 min 34 sec)
Heartbeat CPU 0 instructions: 630000002 cycles: 299399888 heartbeat IPC: 2.336 cumulative IPC: 2.022 (Simulation time: 01 hr 24 min 07 sec)
Heartbeat CPU 0 instructions: 640000001 cycles: 303297186 heartbeat IPC: 2.566 cumulative IPC: 2.029 (Simulation time: 01 hr 25 min 29 sec)
Heartbeat CPU 0 instructions: 650000000 cycles: 307051851 heartbeat IPC: 2.663 cumulative IPC: 2.037 (Simulation time: 01 hr 26 min 40 sec)
Simulation finished CPU 0 instructions: 600000001 cycles: 294514714 cumulative IPC: 2.037 (Simulation time: 01 hr 26 min 40 sec)
Simulation complete CPU 0 instructions: 600000001 cycles: 294514714 cumulative IPC: 2.037 (Simulation time: 01 hr 26 min 40 sec)

ChampSim completed all CPUs

=== Simulation ===
CPU 0 runs traces/400.perlbench-41B.champsimtrace.xz
Region of Interest Statistics

CPU 0 cumulative IPC: 2.037 instructions: 600000001 cycles: 294514714
CPU 0 Branch Prediction Accuracy: 96.56% MPKI: 7.112 Average ROB Occupancy at Mispredict: 47.39
Branch type MPKI
BRANCH_DIRECT_JUMP: 0.0123
BRANCH_INDIRECT: 0.323
BRANCH_CONDITIONAL: 6.56
BRANCH_DIRECT_CALL: 0.0043
BRANCH_INDIRECT_CALL: 0.2
BRANCH_RETURN: 0.00828

LLC TOTAL        ACCESS:     592578 HIT:     313551 MISS:     279027
LLC LOAD         ACCESS:     401871 HIT:     179120 MISS:     222751
LLC RFO          ACCESS:      32402 HIT:      16066 MISS:      16336
LLC PREFETCH     ACCESS:      53576 HIT:      27306 MISS:      26270
LLC WRITE        ACCESS:      85777 HIT:      82635 MISS:       3142
LLC TRANSLATION  ACCESS:      18952 HIT:       8424 MISS:      10528
LLC PREFETCH REQUESTED:      53576 ISSUED:      53576 USEFUL:      15284 USELESS:       7399
LLC AVERAGE MISS LATENCY: 571.5 cycles
cpu0_DTLB TOTAL        ACCESS:  141898717 HIT:  141212581 MISS:     686136
cpu0_DTLB LOAD         ACCESS:  141898717 HIT:  141212581 MISS:     686136
cpu0_DTLB RFO          ACCESS:          0 HIT:          0 MISS:          0
cpu0_DTLB PREFETCH     ACCESS:          0 HIT:          0 MISS:          0
cpu0_DTLB WRITE        ACCESS:          0 HIT:          0 MISS:          0
cpu0_DTLB TRANSLATION  ACCESS:          0 HIT:          0 MISS:          0
cpu0_DTLB PREFETCH REQUESTED:          0 ISSUED:          0 USEFUL:          0 USELESS:          0
cpu0_DTLB AVERAGE MISS LATENCY: 15.44 cycles
cpu0_ITLB TOTAL        ACCESS:    4860655 HIT:    4807516 MISS:      53139
cpu0_ITLB LOAD         ACCESS:    4860655 HIT:    4807516 MISS:      53139
cpu0_ITLB RFO          ACCESS:          0 HIT:          0 MISS:          0
cpu0_ITLB PREFETCH     ACCESS:          0 HIT:          0 MISS:          0
cpu0_ITLB WRITE        ACCESS:          0 HIT:          0 MISS:          0
cpu0_ITLB TRANSLATION  ACCESS:          0 HIT:          0 MISS:          0
cpu0_ITLB PREFETCH REQUESTED:          0 ISSUED:          0 USEFUL:          0 USELESS:          0
cpu0_ITLB AVERAGE MISS LATENCY: 8.345 cycles
cpu0_L1D TOTAL        ACCESS:  188564190 HIT:  187206925 MISS:    1357265
cpu0_L1D LOAD         ACCESS:  105196338 HIT:  104152574 MISS:    1043764
cpu0_L1D RFO          ACCESS:          0 HIT:          0 MISS:          0
cpu0_L1D PREFETCH     ACCESS:          0 HIT:          0 MISS:          0
cpu0_L1D WRITE        ACCESS:   83343392 HIT:   83052749 MISS:     290643
cpu0_L1D TRANSLATION  ACCESS:      24460 HIT:       1602 MISS:      22858
cpu0_L1D PREFETCH REQUESTED:          0 ISSUED:          0 USEFUL:          0 USELESS:          0
cpu0_L1D AVERAGE MISS LATENCY: 110.1 cycles
cpu0_L1I TOTAL        ACCESS:    5598346 HIT:    4854698 MISS:     743648
cpu0_L1I LOAD         ACCESS:    5598346 HIT:    4854698 MISS:     743648
cpu0_L1I RFO          ACCESS:          0 HIT:          0 MISS:          0
cpu0_L1I PREFETCH     ACCESS:          0 HIT:          0 MISS:          0
cpu0_L1I WRITE        ACCESS:          0 HIT:          0 MISS:          0
cpu0_L1I TRANSLATION  ACCESS:          0 HIT:          0 MISS:          0
cpu0_L1I PREFETCH REQUESTED:          0 ISSUED:          0 USEFUL:          0 USELESS:          0
cpu0_L1I AVERAGE MISS LATENCY: 13.4 cycles
cpu0_L2C TOTAL        ACCESS:    1380772 HIT:     923931 MISS:     456841
cpu0_L2C LOAD         ACCESS:    1124726 HIT:     722855 MISS:     401871
cpu0_L2C RFO          ACCESS:      63807 HIT:      31405 MISS:      32402
cpu0_L2C PREFETCH     ACCESS:          0 HIT:          0 MISS:          0
cpu0_L2C WRITE        ACCESS:     169447 HIT:     165831 MISS:       3616
cpu0_L2C TRANSLATION  ACCESS:      22792 HIT:       3840 MISS:      18952
cpu0_L2C PREFETCH REQUESTED:          0 ISSUED:          0 USEFUL:          0 USELESS:          0
cpu0_L2C AVERAGE MISS LATENCY: 334.2 cycles
cpu0_STLB TOTAL        ACCESS:     507333 HIT:     484539 MISS:      22794
cpu0_STLB LOAD         ACCESS:     507333 HIT:     484539 MISS:      22794
cpu0_STLB RFO          ACCESS:          0 HIT:          0 MISS:          0
cpu0_STLB PREFETCH     ACCESS:          0 HIT:          0 MISS:          0
cpu0_STLB WRITE        ACCESS:          0 HIT:          0 MISS:          0
cpu0_STLB TRANSLATION  ACCESS:          0 HIT:          0 MISS:          0
cpu0_STLB PREFETCH REQUESTED:          0 ISSUED:          0 USEFUL:          0 USELESS:          0
cpu0_STLB AVERAGE MISS LATENCY: 347.6 cycles

DRAM Statistics

Channel 0 RQ ROW_BUFFER_HIT:      47488
  ROW_BUFFER_MISS:     223357
 AVG DBUS CONGESTED CYCLE: 3.821
WQ ROW_BUFFER_HIT: Channel 0 
  ROW_BUFFER_MISS:       7957
  FULL:      33951
