WARNING: physical memory size is smaller than virtual memory size.

*** ChampSim Multicore Out-of-Order Simulator ***
Warmup Instructions: 50000000
Simulation Instructions: 600000000
Number of CPUs: 1
Page size: 4096

CPU 0 Tage branch predictor
Off-chip DRAM Size: 4 GiB Channels: 1 Width: 64-bit Data Race: 3200 MT/s
Heartbeat CPU 0 instructions: 10000000 cycles: 2500061 heartbeat IPC: 4 cumulative IPC: 4 (Simulation time: 00 hr 00 min 32 sec)
Heartbeat CPU 0 instructions: 20000000 cycles: 5000061 heartbeat IPC: 4 cumulative IPC: 4 (Simulation time: 00 hr 01 min 16 sec)
Heartbeat CPU 0 instructions: 30000000 cycles: 7500061 heartbeat IPC: 4 cumulative IPC: 4 (Simulation time: 00 hr 02 min 13 sec)
Heartbeat CPU 0 instructions: 40000000 cycles: 10000061 heartbeat IPC: 4 cumulative IPC: 4 (Simulation time: 00 hr 03 min 19 sec)
Heartbeat CPU 0 instructions: 50000000 cycles: 12500061 heartbeat IPC: 4 cumulative IPC: 4 (Simulation time: 00 hr 04 min 31 sec)
Warmup finished CPU 0 instructions: 50000000 cycles: 12500062 cumulative IPC: 4 (Simulation time: 00 hr 04 min 31 sec)
Warmup complete CPU 0 instructions: 50000000 cycles: 12500062 cumulative IPC: 4 (Simulation time: 00 hr 04 min 31 sec)
Heartbeat CPU 0 instructions: 60000004 cycles: 15504211 heartbeat IPC: 3.329 cumulative IPC: 3.329 (Simulation time: 00 hr 06 min 01 sec)
Heartbeat CPU 0 instructions: 70000003 cycles: 18370187 heartbeat IPC: 3.489 cumulative IPC: 3.407 (Simulation time: 00 hr 07 min 28 sec)
Heartbeat CPU 0 instructions: 80000002 cycles: 21381308 heartbeat IPC: 3.321 cumulative IPC: 3.378 (Simulation time: 00 hr 08 min 55 sec)
Heartbeat CPU 0 instructions: 90000000 cycles: 24099104 heartbeat IPC: 3.679 cumulative IPC: 3.449 (Simulation time: 00 hr 10 min 18 sec)
Heartbeat CPU 0 instructions: 100000003 cycles: 26855682 heartbeat IPC: 3.628 cumulative IPC: 3.483 (Simulation time: 00 hr 11 min 40 sec)
Heartbeat CPU 0 instructions: 110000001 cycles: 29753191 heartbeat IPC: 3.451 cumulative IPC: 3.478 (Simulation time: 00 hr 13 min 04 sec)
Heartbeat CPU 0 instructions: 120000001 cycles: 32469614 heartbeat IPC: 3.681 cumulative IPC: 3.505 (Simulation time: 00 hr 14 min 25 sec)
Heartbeat CPU 0 instructions: 130000003 cycles: 35368912 heartbeat IPC: 3.449 cumulative IPC: 3.498 (Simulation time: 00 hr 16 min 01 sec)
Heartbeat CPU 0 instructions: 140000002 cycles: 38202933 heartbeat IPC: 3.529 cumulative IPC: 3.502 (Simulation time: 00 hr 17 min 42 sec)
Heartbeat CPU 0 instructions: 150000001 cycles: 40973175 heartbeat IPC: 3.61 cumulative IPC: 3.512 (Simulation time: 00 hr 19 min 27 sec)
Heartbeat CPU 0 instructions: 160000000 cycles: 43890705 heartbeat IPC: 3.428 cumulative IPC: 3.504 (Simulation time: 00 hr 21 min 16 sec)
Heartbeat CPU 0 instructions: 170000001 cycles: 46818939 heartbeat IPC: 3.415 cumulative IPC: 3.497 (Simulation time: 00 hr 23 min 07 sec)
Heartbeat CPU 0 instructions: 180000000 cycles: 49609778 heartbeat IPC: 3.583 cumulative IPC: 3.503 (Simulation time: 00 hr 24 min 58 sec)
Heartbeat CPU 0 instructions: 190000002 cycles: 52317790 heartbeat IPC: 3.693 cumulative IPC: 3.516 (Simulation time: 00 hr 26 min 46 sec)
Heartbeat CPU 0 instructions: 200000002 cycles: 55138349 heartbeat IPC: 3.545 cumulative IPC: 3.518 (Simulation time: 00 hr 27 min 36 sec)
Heartbeat CPU 0 instructions: 210000000 cycles: 58030352 heartbeat IPC: 3.458 cumulative IPC: 3.514 (Simulation time: 00 hr 28 min 27 sec)
Heartbeat CPU 0 instructions: 220000001 cycles: 60782590 heartbeat IPC: 3.633 cumulative IPC: 3.521 (Simulation time: 00 hr 29 min 18 sec)
Heartbeat CPU 0 instructions: 230000002 cycles: 63672000 heartbeat IPC: 3.461 cumulative IPC: 3.518 (Simulation time: 00 hr 30 min 10 sec)
Heartbeat CPU 0 instructions: 240000004 cycles: 66622926 heartbeat IPC: 3.389 cumulative IPC: 3.511 (Simulation time: 00 hr 31 min 02 sec)
Heartbeat CPU 0 instructions: 250000003 cycles: 69513246 heartbeat IPC: 3.46 cumulative IPC: 3.508 (Simulation time: 00 hr 31 min 53 sec)
Heartbeat CPU 0 instructions: 260000001 cycles: 72297943 heartbeat IPC: 3.591 cumulative IPC: 3.512 (Simulation time: 00 hr 32 min 44 sec)
Heartbeat CPU 0 instructions: 270000002 cycles: 78152305 heartbeat IPC: 1.708 cumulative IPC: 3.351 (Simulation time: 00 hr 33 min 59 sec)
Heartbeat CPU 0 instructions: 280000000 cycles: 87352454 heartbeat IPC: 1.087 cumulative IPC: 3.073 (Simulation time: 00 hr 35 min 42 sec)
Heartbeat CPU 0 instructions: 290000000 cycles: 94986383 heartbeat IPC: 1.31 cumulative IPC: 2.91 (Simulation time: 00 hr 37 min 13 sec)
Heartbeat CPU 0 instructions: 300000003 cycles: 100127402 heartbeat IPC: 1.945 cumulative IPC: 2.853 (Simulation time: 00 hr 38 min 26 sec)
Heartbeat CPU 0 instructions: 310000001 cycles: 108066062 heartbeat IPC: 1.26 cumulative IPC: 2.721 (Simulation time: 00 hr 39 min 57 sec)
Heartbeat CPU 0 instructions: 320000004 cycles: 111811778 heartbeat IPC: 2.67 cumulative IPC: 2.719 (Simulation time: 00 hr 40 min 58 sec)
Heartbeat CPU 0 instructions: 330000000 cycles: 114967615 heartbeat IPC: 3.169 cumulative IPC: 2.733 (Simulation time: 00 hr 41 min 52 sec)
Heartbeat CPU 0 instructions: 340000001 cycles: 118131158 heartbeat IPC: 3.161 cumulative IPC: 2.745 (Simulation time: 00 hr 42 min 46 sec)
Heartbeat CPU 0 instructions: 350000000 cycles: 121470267 heartbeat IPC: 2.995 cumulative IPC: 2.753 (Simulation time: 00 hr 43 min 42 sec)
Heartbeat CPU 0 instructions: 360000004 cycles: 124609489 heartbeat IPC: 3.186 cumulative IPC: 2.765 (Simulation time: 00 hr 44 min 41 sec)
Heartbeat CPU 0 instructions: 370000001 cycles: 127699320 heartbeat IPC: 3.236 cumulative IPC: 2.778 (Simulation time: 00 hr 45 min 36 sec)
Heartbeat CPU 0 instructions: 380000004 cycles: 130800120 heartbeat IPC: 3.225 cumulative IPC: 2.79 (Simulation time: 00 hr 46 min 30 sec)
Heartbeat CPU 0 instructions: 390000002 cycles: 134026756 heartbeat IPC: 3.099 cumulative IPC: 2.798 (Simulation time: 00 hr 47 min 28 sec)
Heartbeat CPU 0 instructions: 400000000 cycles: 137310521 heartbeat IPC: 3.045 cumulative IPC: 2.804 (Simulation time: 00 hr 48 min 26 sec)
Heartbeat CPU 0 instructions: 410000000 cycles: 143284728 heartbeat IPC: 1.674 cumulative IPC: 2.753 (Simulation time: 00 hr 49 min 38 sec)
Heartbeat CPU 0 instructions: 420000003 cycles: 151927340 heartbeat IPC: 1.157 cumulative IPC: 2.654 (Simulation time: 00 hr 51 min 14 sec)
Heartbeat CPU 0 instructions: 430000004 cycles: 157349088 heartbeat IPC: 1.844 cumulative IPC: 2.623 (Simulation time: 00 hr 52 min 33 sec)
Heartbeat CPU 0 instructions: 440000004 cycles: 162115504 heartbeat IPC: 2.098 cumulative IPC: 2.607 (Simulation time: 00 hr 53 min 44 sec)
Heartbeat CPU 0 instructions: 450000000 cycles: 166842855 heartbeat IPC: 2.115 cumulative IPC: 2.592 (Simulation time: 00 hr 54 min 55 sec)
Heartbeat CPU 0 instructions: 460000002 cycles: 174624512 heartbeat IPC: 1.285 cumulative IPC: 2.529 (Simulation time: 00 hr 56 min 27 sec)
Heartbeat CPU 0 instructions: 470000003 cycles: 181561974 heartbeat IPC: 1.441 cumulative IPC: 2.484 (Simulation time: 00 hr 57 min 51 sec)
Heartbeat CPU 0 instructions: 480000000 cycles: 184952234 heartbeat IPC: 2.95 cumulative IPC: 2.493 (Simulation time: 00 hr 58 min 52 sec)
Heartbeat CPU 0 instructions: 490000001 cycles: 188571184 heartbeat IPC: 2.763 cumulative IPC: 2.499 (Simulation time: 00 hr 59 min 52 sec)
Heartbeat CPU 0 instructions: 500000002 cycles: 192037529 heartbeat IPC: 2.885 cumulative IPC: 2.506 (Simulation time: 01 hr 00 min 49 sec)
Heartbeat CPU 0 instructions: 510000000 cycles: 195485815 heartbeat IPC: 2.9 cumulative IPC: 2.514 (Simulation time: 01 hr 01 min 48 sec)
Heartbeat CPU 0 instructions: 520000000 cycles: 198964810 heartbeat IPC: 2.874 cumulative IPC: 2.521 (Simulation time: 01 hr 02 min 51 sec)
Heartbeat CPU 0 instructions: 530000001 cycles: 207770312 heartbeat IPC: 1.136 cumulative IPC: 2.458 (Simulation time: 01 hr 04 min 26 sec)
Heartbeat CPU 0 instructions: 540000000 cycles: 216055403 heartbeat IPC: 1.207 cumulative IPC: 2.407 (Simulation time: 01 hr 05 min 58 sec)
Heartbeat CPU 0 instructions: 550000004 cycles: 225819459 heartbeat IPC: 1.024 cumulative IPC: 2.344 (Simulation time: 01 hr 07 min 39 sec)
Heartbeat CPU 0 instructions: 560000004 cycles: 229295679 heartbeat IPC: 2.877 cumulative IPC: 2.352 (Simulation time: 01 hr 08 min 34 sec)
Heartbeat CPU 0 instructions: 570000002 cycles: 232117075 heartbeat IPC: 3.544 cumulative IPC: 2.368 (Simulation time: 01 hr 09 min 26 sec)
Heartbeat CPU 0 instructions: 580000000 cycles: 235040698 heartbeat IPC: 3.42 cumulative IPC: 2.382 (Simulation time: 01 hr 10 min 17 sec)
Heartbeat CPU 0 instructions: 590000001 cycles: 237965533 heartbeat IPC: 3.419 cumulative IPC: 2.395 (Simulation time: 01 hr 11 min 09 sec)
Heartbeat CPU 0 instructions: 600000003 cycles: 240659196 heartbeat IPC: 3.712 cumulative IPC: 2.411 (Simulation time: 01 hr 12 min 02 sec)
Heartbeat CPU 0 instructions: 610000001 cycles: 243523393 heartbeat IPC: 3.491 cumulative IPC: 2.424 (Simulation time: 01 hr 12 min 56 sec)
Heartbeat CPU 0 instructions: 620000004 cycles: 246475505 heartbeat IPC: 3.387 cumulative IPC: 2.436 (Simulation time: 01 hr 13 min 50 sec)
Heartbeat CPU 0 instructions: 630000002 cycles: 249286434 heartbeat IPC: 3.558 cumulative IPC: 2.449 (Simulation time: 01 hr 14 min 39 sec)
Heartbeat CPU 0 instructions: 640000004 cycles: 252334612 heartbeat IPC: 3.281 cumulative IPC: 2.46 (Simulation time: 01 hr 15 min 29 sec)
Heartbeat CPU 0 instructions: 650000001 cycles: 255044524 heartbeat IPC: 3.69 cumulative IPC: 2.474 (Simulation time: 01 hr 16 min 13 sec)
Simulation finished CPU 0 instructions: 600000001 cycles: 242544463 cumulative IPC: 2.474 (Simulation time: 01 hr 16 min 13 sec)
Simulation complete CPU 0 instructions: 600000001 cycles: 242544463 cumulative IPC: 2.474 (Simulation time: 01 hr 16 min 13 sec)

ChampSim completed all CPUs

=== Simulation ===
CPU 0 runs traces/400.perlbench-50B.champsimtrace.xz
Region of Interest Statistics

CPU 0 cumulative IPC: 2.474 instructions: 600000001 cycles: 242544463
CPU 0 Branch Prediction Accuracy: 99.01% MPKI: 2.04 Average ROB Occupancy at Mispredict: 94.45
Branch type MPKI
BRANCH_DIRECT_JUMP: 0.0176
BRANCH_INDIRECT: 0.38
BRANCH_CONDITIONAL: 1.19
BRANCH_DIRECT_CALL: 0.0067
BRANCH_INDIRECT_CALL: 0.431
BRANCH_RETURN: 0.0161

LLC TOTAL        ACCESS:     770490 HIT:     475933 MISS:     294557
LLC LOAD         ACCESS:     573331 HIT:     310335 MISS:     262996
LLC RFO          ACCESS:      46742 HIT:      27179 MISS:      19563
LLC PREFETCH     ACCESS:          0 HIT:          0 MISS:          0
LLC WRITE        ACCESS:     128396 HIT:     128046 MISS:        350
LLC TRANSLATION  ACCESS:      22021 HIT:      10373 MISS:      11648
LLC PREFETCH REQUESTED:          0 ISSUED:          0 USEFUL:          0 USELESS:          0
LLC AVERAGE MISS LATENCY: 602.1 cycles
cpu0_DTLB TOTAL        ACCESS:  133214132 HIT:  131861760 MISS:    1352372
cpu0_DTLB LOAD         ACCESS:  133214132 HIT:  131861760 MISS:    1352372
cpu0_DTLB RFO          ACCESS:          0 HIT:          0 MISS:          0
cpu0_DTLB PREFETCH     ACCESS:          0 HIT:          0 MISS:          0
cpu0_DTLB WRITE        ACCESS:          0 HIT:          0 MISS:          0
cpu0_DTLB TRANSLATION  ACCESS:          0 HIT:          0 MISS:          0
cpu0_DTLB PREFETCH REQUESTED:          0 ISSUED:          0 USEFUL:          0 USELESS:          0
cpu0_DTLB AVERAGE MISS LATENCY: 11.59 cycles
cpu0_ITLB TOTAL        ACCESS:    8999035 HIT:    8789482 MISS:     209553
cpu0_ITLB LOAD         ACCESS:    8999035 HIT:    8789482 MISS:     209553
cpu0_ITLB RFO          ACCESS:          0 HIT:          0 MISS:          0
cpu0_ITLB PREFETCH     ACCESS:          0 HIT:          0 MISS:          0
cpu0_ITLB WRITE        ACCESS:          0 HIT:          0 MISS:          0
cpu0_ITLB TRANSLATION  ACCESS:          0 HIT:          0 MISS:          0
cpu0_ITLB PREFETCH REQUESTED:          0 ISSUED:          0 USEFUL:          0 USELESS:          0
cpu0_ITLB AVERAGE MISS LATENCY: 2.952 cycles
cpu0_L1D TOTAL        ACCESS:  178266557 HIT:  175269851 MISS:    2996706
cpu0_L1D LOAD         ACCESS:   92749076 HIT:   90285559 MISS:    2463517
cpu0_L1D RFO          ACCESS:          0 HIT:          0 MISS:          0
cpu0_L1D PREFETCH     ACCESS:          0 HIT:          0 MISS:          0
cpu0_L1D WRITE        ACCESS:   85488950 HIT:   84982290 MISS:     506660
cpu0_L1D TRANSLATION  ACCESS:      28531 HIT:       2002 MISS:      26529
cpu0_L1D PREFETCH REQUESTED:          0 ISSUED:          0 USEFUL:          0 USELESS:          0
cpu0_L1D AVERAGE MISS LATENCY: 61.6 cycles
cpu0_L1I TOTAL        ACCESS:   10518120 HIT:    8619642 MISS:    1898478
cpu0_L1I LOAD         ACCESS:   10518120 HIT:    8619642 MISS:    1898478
cpu0_L1I RFO          ACCESS:          0 HIT:          0 MISS:          0
cpu0_L1I PREFETCH     ACCESS:          0 HIT:          0 MISS:          0
cpu0_L1I WRITE        ACCESS:          0 HIT:          0 MISS:          0
cpu0_L1I TRANSLATION  ACCESS:          0 HIT:          0 MISS:          0
cpu0_L1I PREFETCH REQUESTED:          0 ISSUED:          0 USEFUL:          0 USELESS:          0
cpu0_L1I AVERAGE MISS LATENCY: 9.818 cycles
cpu0_L2C TOTAL        ACCESS:    3235984 HIT:    2587918 MISS:     648066
cpu0_L2C LOAD         ACCESS:    2709083 HIT:    2135751 MISS:     573332
cpu0_L2C RFO          ACCESS:     135518 HIT:      88775 MISS:      46743
cpu0_L2C PREFETCH     ACCESS:          0 HIT:          0 MISS:          0
cpu0_L2C WRITE        ACCESS:     364934 HIT:     358964 MISS:       5970
cpu0_L2C TRANSLATION  ACCESS:      26449 HIT:       4428 MISS:      22021
cpu0_L2C PREFETCH REQUESTED:          0 ISSUED:          0 USEFUL:          0 USELESS:          0
cpu0_L2C AVERAGE MISS LATENCY: 293.9 cycles
cpu0_STLB TOTAL        ACCESS:    1009646 HIT:     982954 MISS:      26692
cpu0_STLB LOAD         ACCESS:    1009646 HIT:     982954 MISS:      26692
cpu0_STLB RFO          ACCESS:          0 HIT:          0 MISS:          0
cpu0_STLB PREFETCH     ACCESS:          0 HIT:          0 MISS:          0
cpu0_STLB WRITE        ACCESS:          0 HIT:          0 MISS:          0
cpu0_STLB TRANSLATION  ACCESS:          0 HIT:          0 MISS:          0
cpu0_STLB PREFETCH REQUESTED:          0 ISSUED:          0 USEFUL:          0 USELESS:          0
cpu0_STLB AVERAGE MISS LATENCY: 385 cycles

DRAM Statistics

Channel 0 RQ ROW_BUFFER_HIT:      61584
  ROW_BUFFER_MISS:     232588
 AVG DBUS CONGESTED CYCLE: 3.825
WQ ROW_BUFFER_HIT: Channel 0 
  ROW_BUFFER_MISS:       6039
  FULL:      36030
