WARNING: physical memory size is smaller than virtual memory size.

*** ChampSim Multicore Out-of-Order Simulator ***
Warmup Instructions: 50000000
Simulation Instructions: 600000000
Number of CPUs: 1
Page size: 4096

CPU 0 Tage branch predictor
Off-chip DRAM Size: 4 GiB Channels: 1 Width: 64-bit Data Race: 3200 MT/s
Heartbeat CPU 0 instructions: 10000000 cycles: 2500061 heartbeat IPC: 4 cumulative IPC: 4 (Simulation time: 00 hr 00 min 55 sec)
Heartbeat CPU 0 instructions: 20000000 cycles: 5000061 heartbeat IPC: 4 cumulative IPC: 4 (Simulation time: 00 hr 01 min 50 sec)
Heartbeat CPU 0 instructions: 30000000 cycles: 7500061 heartbeat IPC: 4 cumulative IPC: 4 (Simulation time: 00 hr 02 min 44 sec)
Heartbeat CPU 0 instructions: 40000000 cycles: 10000061 heartbeat IPC: 4 cumulative IPC: 4 (Simulation time: 00 hr 03 min 42 sec)
Heartbeat CPU 0 instructions: 50000000 cycles: 12500061 heartbeat IPC: 4 cumulative IPC: 4 (Simulation time: 00 hr 04 min 40 sec)
Warmup finished CPU 0 instructions: 50000000 cycles: 12500062 cumulative IPC: 4 (Simulation time: 00 hr 04 min 40 sec)
Warmup complete CPU 0 instructions: 50000000 cycles: 12500062 cumulative IPC: 4 (Simulation time: 00 hr 04 min 40 sec)
Heartbeat CPU 0 instructions: 60000004 cycles: 15504489 heartbeat IPC: 3.328 cumulative IPC: 3.328 (Simulation time: 00 hr 05 min 50 sec)
Heartbeat CPU 0 instructions: 70000003 cycles: 18370762 heartbeat IPC: 3.489 cumulative IPC: 3.407 (Simulation time: 00 hr 06 min 59 sec)
Heartbeat CPU 0 instructions: 80000002 cycles: 21382300 heartbeat IPC: 3.321 cumulative IPC: 3.378 (Simulation time: 00 hr 08 min 10 sec)
Heartbeat CPU 0 instructions: 90000000 cycles: 24100329 heartbeat IPC: 3.679 cumulative IPC: 3.448 (Simulation time: 00 hr 09 min 18 sec)
Heartbeat CPU 0 instructions: 100000003 cycles: 26857493 heartbeat IPC: 3.627 cumulative IPC: 3.483 (Simulation time: 00 hr 10 min 23 sec)
Heartbeat CPU 0 instructions: 110000001 cycles: 29755202 heartbeat IPC: 3.451 cumulative IPC: 3.477 (Simulation time: 00 hr 11 min 29 sec)
Heartbeat CPU 0 instructions: 120000001 cycles: 32471687 heartbeat IPC: 3.681 cumulative IPC: 3.505 (Simulation time: 00 hr 12 min 37 sec)
Heartbeat CPU 0 instructions: 130000003 cycles: 35371153 heartbeat IPC: 3.449 cumulative IPC: 3.498 (Simulation time: 00 hr 13 min 41 sec)
Heartbeat CPU 0 instructions: 140000002 cycles: 38204957 heartbeat IPC: 3.529 cumulative IPC: 3.501 (Simulation time: 00 hr 14 min 46 sec)
Heartbeat CPU 0 instructions: 150000001 cycles: 40975005 heartbeat IPC: 3.61 cumulative IPC: 3.512 (Simulation time: 00 hr 15 min 51 sec)
Heartbeat CPU 0 instructions: 160000000 cycles: 43892634 heartbeat IPC: 3.427 cumulative IPC: 3.504 (Simulation time: 00 hr 16 min 54 sec)
Heartbeat CPU 0 instructions: 170000001 cycles: 46821114 heartbeat IPC: 3.415 cumulative IPC: 3.496 (Simulation time: 00 hr 17 min 58 sec)
Heartbeat CPU 0 instructions: 180000000 cycles: 49612148 heartbeat IPC: 3.583 cumulative IPC: 3.503 (Simulation time: 00 hr 19 min 02 sec)
Heartbeat CPU 0 instructions: 190000002 cycles: 52319155 heartbeat IPC: 3.694 cumulative IPC: 3.516 (Simulation time: 00 hr 20 min 07 sec)
Heartbeat CPU 0 instructions: 200000002 cycles: 55139904 heartbeat IPC: 3.545 cumulative IPC: 3.518 (Simulation time: 00 hr 21 min 11 sec)
Heartbeat CPU 0 instructions: 210000000 cycles: 58032602 heartbeat IPC: 3.457 cumulative IPC: 3.514 (Simulation time: 00 hr 22 min 15 sec)
Heartbeat CPU 0 instructions: 220000001 cycles: 60784611 heartbeat IPC: 3.634 cumulative IPC: 3.521 (Simulation time: 00 hr 23 min 18 sec)
Heartbeat CPU 0 instructions: 230000002 cycles: 63673784 heartbeat IPC: 3.461 cumulative IPC: 3.517 (Simulation time: 00 hr 24 min 21 sec)
Heartbeat CPU 0 instructions: 240000004 cycles: 66624801 heartbeat IPC: 3.389 cumulative IPC: 3.51 (Simulation time: 00 hr 25 min 25 sec)
Heartbeat CPU 0 instructions: 250000003 cycles: 69515661 heartbeat IPC: 3.459 cumulative IPC: 3.508 (Simulation time: 00 hr 26 min 29 sec)
Heartbeat CPU 0 instructions: 260000001 cycles: 72300103 heartbeat IPC: 3.591 cumulative IPC: 3.512 (Simulation time: 00 hr 27 min 32 sec)
Heartbeat CPU 0 instructions: 270000002 cycles: 78059363 heartbeat IPC: 1.736 cumulative IPC: 3.356 (Simulation time: 00 hr 29 min 00 sec)
Heartbeat CPU 0 instructions: 280000000 cycles: 86631363 heartbeat IPC: 1.167 cumulative IPC: 3.103 (Simulation time: 00 hr 30 min 44 sec)
Heartbeat CPU 0 instructions: 290000000 cycles: 93810473 heartbeat IPC: 1.393 cumulative IPC: 2.952 (Simulation time: 00 hr 32 min 22 sec)
Heartbeat CPU 0 instructions: 300000003 cycles: 98845649 heartbeat IPC: 1.986 cumulative IPC: 2.895 (Simulation time: 00 hr 33 min 47 sec)
Heartbeat CPU 0 instructions: 310000001 cycles: 106190544 heartbeat IPC: 1.361 cumulative IPC: 2.775 (Simulation time: 00 hr 35 min 26 sec)
Heartbeat CPU 0 instructions: 320000004 cycles: 109851182 heartbeat IPC: 2.732 cumulative IPC: 2.773 (Simulation time: 00 hr 36 min 35 sec)
Heartbeat CPU 0 instructions: 330000000 cycles: 113000257 heartbeat IPC: 3.176 cumulative IPC: 2.786 (Simulation time: 00 hr 37 min 42 sec)
Heartbeat CPU 0 instructions: 340000001 cycles: 116148145 heartbeat IPC: 3.177 cumulative IPC: 2.798 (Simulation time: 00 hr 38 min 49 sec)
Heartbeat CPU 0 instructions: 350000000 cycles: 119473296 heartbeat IPC: 3.007 cumulative IPC: 2.804 (Simulation time: 00 hr 39 min 58 sec)
Heartbeat CPU 0 instructions: 360000004 cycles: 122598107 heartbeat IPC: 3.2 cumulative IPC: 2.816 (Simulation time: 00 hr 41 min 05 sec)
Heartbeat CPU 0 instructions: 370000001 cycles: 125675737 heartbeat IPC: 3.249 cumulative IPC: 2.827 (Simulation time: 00 hr 42 min 12 sec)
Heartbeat CPU 0 instructions: 380000004 cycles: 128766981 heartbeat IPC: 3.235 cumulative IPC: 2.838 (Simulation time: 00 hr 43 min 22 sec)
Heartbeat CPU 0 instructions: 390000002 cycles: 131979970 heartbeat IPC: 3.112 cumulative IPC: 2.846 (Simulation time: 00 hr 44 min 32 sec)
Heartbeat CPU 0 instructions: 400000000 cycles: 135248254 heartbeat IPC: 3.06 cumulative IPC: 2.851 (Simulation time: 00 hr 45 min 41 sec)
Heartbeat CPU 0 instructions: 410000000 cycles: 141018155 heartbeat IPC: 1.733 cumulative IPC: 2.801 (Simulation time: 00 hr 47 min 12 sec)
Heartbeat CPU 0 instructions: 420000003 cycles: 149462226 heartbeat IPC: 1.184 cumulative IPC: 2.701 (Simulation time: 00 hr 49 min 05 sec)
Heartbeat CPU 0 instructions: 430000000 cycles: 154659678 heartbeat IPC: 1.924 cumulative IPC: 2.673 (Simulation time: 00 hr 50 min 34 sec)
Heartbeat CPU 0 instructions: 440000004 cycles: 159263302 heartbeat IPC: 2.172 cumulative IPC: 2.657 (Simulation time: 00 hr 51 min 57 sec)
Heartbeat CPU 0 instructions: 450000001 cycles: 163938594 heartbeat IPC: 2.139 cumulative IPC: 2.641 (Simulation time: 00 hr 53 min 21 sec)
Heartbeat CPU 0 instructions: 460000002 cycles: 171058449 heartbeat IPC: 1.405 cumulative IPC: 2.586 (Simulation time: 00 hr 55 min 06 sec)
Heartbeat CPU 0 instructions: 470000003 cycles: 177720696 heartbeat IPC: 1.501 cumulative IPC: 2.542 (Simulation time: 00 hr 56 min 46 sec)
Heartbeat CPU 0 instructions: 480000000 cycles: 181081414 heartbeat IPC: 2.976 cumulative IPC: 2.551 (Simulation time: 00 hr 57 min 55 sec)
Heartbeat CPU 0 instructions: 490000001 cycles: 184690255 heartbeat IPC: 2.771 cumulative IPC: 2.555 (Simulation time: 00 hr 59 min 05 sec)
Heartbeat CPU 0 instructions: 500000002 cycles: 188130150 heartbeat IPC: 2.907 cumulative IPC: 2.562 (Simulation time: 01 hr 00 min 15 sec)
Heartbeat CPU 0 instructions: 510000000 cycles: 191570450 heartbeat IPC: 2.907 cumulative IPC: 2.569 (Simulation time: 01 hr 01 min 25 sec)
Heartbeat CPU 0 instructions: 520000000 cycles: 195028625 heartbeat IPC: 2.892 cumulative IPC: 2.575 (Simulation time: 01 hr 02 min 35 sec)
Heartbeat CPU 0 instructions: 530000001 cycles: 203626182 heartbeat IPC: 1.163 cumulative IPC: 2.511 (Simulation time: 01 hr 04 min 30 sec)
Heartbeat CPU 0 instructions: 540000000 cycles: 211706992 heartbeat IPC: 1.237 cumulative IPC: 2.46 (Simulation time: 01 hr 06 min 22 sec)
Heartbeat CPU 0 instructions: 550000004 cycles: 221028638 heartbeat IPC: 1.073 cumulative IPC: 2.398 (Simulation time: 01 hr 08 min 24 sec)
Heartbeat CPU 0 instructions: 560000004 cycles: 224441049 heartbeat IPC: 2.93 cumulative IPC: 2.406 (Simulation time: 01 hr 09 min 31 sec)
Heartbeat CPU 0 instructions: 570000002 cycles: 227260219 heartbeat IPC: 3.547 cumulative IPC: 2.421 (Simulation time: 01 hr 10 min 36 sec)
Heartbeat CPU 0 instructions: 580000000 cycles: 230181106 heartbeat IPC: 3.424 cumulative IPC: 2.435 (Simulation time: 01 hr 11 min 40 sec)
Heartbeat CPU 0 instructions: 590000001 cycles: 233103856 heartbeat IPC: 3.421 cumulative IPC: 2.448 (Simulation time: 01 hr 12 min 44 sec)
Heartbeat CPU 0 instructions: 600000003 cycles: 235795886 heartbeat IPC: 3.715 cumulative IPC: 2.463 (Simulation time: 01 hr 13 min 50 sec)
Heartbeat CPU 0 instructions: 610000001 cycles: 238658939 heartbeat IPC: 3.493 cumulative IPC: 2.476 (Simulation time: 01 hr 14 min 57 sec)
Heartbeat CPU 0 instructions: 620000004 cycles: 241611221 heartbeat IPC: 3.387 cumulative IPC: 2.488 (Simulation time: 01 hr 16 min 03 sec)
Heartbeat CPU 0 instructions: 630000002 cycles: 244420931 heartbeat IPC: 3.559 cumulative IPC: 2.501 (Simulation time: 01 hr 17 min 09 sec)
Heartbeat CPU 0 instructions: 640000004 cycles: 247469558 heartbeat IPC: 3.28 cumulative IPC: 2.511 (Simulation time: 01 hr 18 min 15 sec)
Heartbeat CPU 0 instructions: 650000001 cycles: 250179474 heartbeat IPC: 3.69 cumulative IPC: 2.524 (Simulation time: 01 hr 19 min 21 sec)
Simulation finished CPU 0 instructions: 600000001 cycles: 237679413 cumulative IPC: 2.524 (Simulation time: 01 hr 19 min 21 sec)
Simulation complete CPU 0 instructions: 600000001 cycles: 237679413 cumulative IPC: 2.524 (Simulation time: 01 hr 19 min 21 sec)

ChampSim completed all CPUs

=== Simulation ===
CPU 0 runs traces/400.perlbench-50B.champsimtrace.xz
Region of Interest Statistics

CPU 0 cumulative IPC: 2.524 instructions: 600000001 cycles: 237679413
CPU 0 Branch Prediction Accuracy: 99.01% MPKI: 2.04 Average ROB Occupancy at Mispredict: 94.64
Branch type MPKI
BRANCH_DIRECT_JUMP: 0.0176
BRANCH_INDIRECT: 0.38
BRANCH_CONDITIONAL: 1.19
BRANCH_DIRECT_CALL: 0.0067
BRANCH_INDIRECT_CALL: 0.431
BRANCH_RETURN: 0.0161

LLC TOTAL        ACCESS:     771374 HIT:     495045 MISS:     276329
LLC LOAD         ACCESS:     575791 HIT:     327830 MISS:     247961
LLC RFO          ACCESS:      47039 HIT:      29236 MISS:      17803
LLC PREFETCH     ACCESS:          0 HIT:          0 MISS:          0
LLC WRITE        ACCESS:     126491 HIT:     126410 MISS:         81
LLC TRANSLATION  ACCESS:      22053 HIT:      11569 MISS:      10484
LLC PREFETCH REQUESTED:          0 ISSUED:          0 USEFUL:          0 USELESS:          0
LLC AVERAGE MISS LATENCY: 587.4 cycles
cpu0_DTLB TOTAL        ACCESS:  133231248 HIT:  131877003 MISS:    1354245
cpu0_DTLB LOAD         ACCESS:  133231248 HIT:  131877003 MISS:    1354245
cpu0_DTLB RFO          ACCESS:          0 HIT:          0 MISS:          0
cpu0_DTLB PREFETCH     ACCESS:          0 HIT:          0 MISS:          0
cpu0_DTLB WRITE        ACCESS:          0 HIT:          0 MISS:          0
cpu0_DTLB TRANSLATION  ACCESS:          0 HIT:          0 MISS:          0
cpu0_DTLB PREFETCH REQUESTED:          0 ISSUED:          0 USEFUL:          0 USELESS:          0
cpu0_DTLB AVERAGE MISS LATENCY: 10.91 cycles
cpu0_ITLB TOTAL        ACCESS:    8998721 HIT:    8789293 MISS:     209428
cpu0_ITLB LOAD         ACCESS:    8998721 HIT:    8789293 MISS:     209428
cpu0_ITLB RFO          ACCESS:          0 HIT:          0 MISS:          0
cpu0_ITLB PREFETCH     ACCESS:          0 HIT:          0 MISS:          0
cpu0_ITLB WRITE        ACCESS:          0 HIT:          0 MISS:          0
cpu0_ITLB TRANSLATION  ACCESS:          0 HIT:          0 MISS:          0
cpu0_ITLB PREFETCH REQUESTED:          0 ISSUED:          0 USEFUL:          0 USELESS:          0
cpu0_ITLB AVERAGE MISS LATENCY: 2.609 cycles
cpu0_L1D TOTAL        ACCESS:  178262149 HIT:  174466031 MISS:    3796118
cpu0_L1D LOAD         ACCESS:   92743937 HIT:   89630212 MISS:    3113725
cpu0_L1D RFO          ACCESS:          0 HIT:          0 MISS:          0
cpu0_L1D PREFETCH     ACCESS:          0 HIT:          0 MISS:          0
cpu0_L1D WRITE        ACCESS:   85489685 HIT:   84834400 MISS:     655285
cpu0_L1D TRANSLATION  ACCESS:      28527 HIT:       1419 MISS:      27108
cpu0_L1D PREFETCH REQUESTED:          0 ISSUED:          0 USEFUL:          0 USELESS:          0
cpu0_L1D AVERAGE MISS LATENCY: 46.06 cycles
cpu0_L1I TOTAL        ACCESS:   10518164 HIT:    8618952 MISS:    1899212
cpu0_L1I LOAD         ACCESS:   10518164 HIT:    8618952 MISS:    1899212
cpu0_L1I RFO          ACCESS:          0 HIT:          0 MISS:          0
cpu0_L1I PREFETCH     ACCESS:          0 HIT:          0 MISS:          0
cpu0_L1I WRITE        ACCESS:          0 HIT:          0 MISS:          0
cpu0_L1I TRANSLATION  ACCESS:          0 HIT:          0 MISS:          0
cpu0_L1I PREFETCH REQUESTED:          0 ISSUED:          0 USEFUL:          0 USELESS:          0
cpu0_L1I AVERAGE MISS LATENCY: 9.459 cycles
cpu0_L2C TOTAL        ACCESS:    3840403 HIT:    3192354 MISS:     648049
cpu0_L2C LOAD         ACCESS:    3103793 HIT:    2528002 MISS:     575791
cpu0_L2C RFO          ACCESS:     194885 HIT:     147846 MISS:      47039
cpu0_L2C PREFETCH     ACCESS:          0 HIT:          0 MISS:          0
cpu0_L2C WRITE        ACCESS:     514689 HIT:     511523 MISS:       3166
cpu0_L2C TRANSLATION  ACCESS:      27036 HIT:       4983 MISS:      22053
cpu0_L2C PREFETCH REQUESTED:          0 ISSUED:          0 USEFUL:          0 USELESS:          0
cpu0_L2C AVERAGE MISS LATENCY: 270.8 cycles
cpu0_STLB TOTAL        ACCESS:    1009815 HIT:     983123 MISS:      26692
cpu0_STLB LOAD         ACCESS:    1009815 HIT:     983123 MISS:      26692
cpu0_STLB RFO          ACCESS:          0 HIT:          0 MISS:          0
cpu0_STLB PREFETCH     ACCESS:          0 HIT:          0 MISS:          0
cpu0_STLB WRITE        ACCESS:          0 HIT:          0 MISS:          0
cpu0_STLB TRANSLATION  ACCESS:          0 HIT:          0 MISS:          0
cpu0_STLB PREFETCH REQUESTED:          0 ISSUED:          0 USEFUL:          0 USELESS:          0
cpu0_STLB AVERAGE MISS LATENCY: 345.8 cycles

DRAM Statistics

Channel 0 RQ ROW_BUFFER_HIT:      63401
  ROW_BUFFER_MISS:     212839
 AVG DBUS CONGESTED CYCLE: 3.813
WQ ROW_BUFFER_HIT: Channel 0 
  ROW_BUFFER_MISS:       5213
  FULL:      28596
