WARNING: physical memory size is smaller than virtual memory size.

*** ChampSim Multicore Out-of-Order Simulator ***
Warmup Instructions: 50000000
Simulation Instructions: 600000000
Number of CPUs: 1
Page size: 4096

CPU 0 Tage branch predictor
Off-chip DRAM Size: 4 GiB Channels: 1 Width: 64-bit Data Race: 3200 MT/s
Heartbeat CPU 0 instructions: 10000001 cycles: 2500318 heartbeat IPC: 3.999 cumulative IPC: 3.999 (Simulation time: 00 hr 01 min 04 sec)
Heartbeat CPU 0 instructions: 20000002 cycles: 5037133 heartbeat IPC: 3.942 cumulative IPC: 3.971 (Simulation time: 00 hr 02 min 06 sec)
Heartbeat CPU 0 instructions: 30000002 cycles: 7537133 heartbeat IPC: 4 cumulative IPC: 3.98 (Simulation time: 00 hr 03 min 02 sec)
Heartbeat CPU 0 instructions: 40000002 cycles: 10037133 heartbeat IPC: 4 cumulative IPC: 3.985 (Simulation time: 00 hr 04 min 08 sec)
Heartbeat CPU 0 instructions: 50000002 cycles: 12537133 heartbeat IPC: 4 cumulative IPC: 3.988 (Simulation time: 00 hr 05 min 24 sec)
Warmup finished CPU 0 instructions: 50000002 cycles: 12537134 cumulative IPC: 3.988 (Simulation time: 00 hr 05 min 24 sec)
Warmup complete CPU 0 instructions: 50000002 cycles: 12537134 cumulative IPC: 3.988 (Simulation time: 00 hr 05 min 24 sec)
Heartbeat CPU 0 instructions: 60000001 cycles: 15503659 heartbeat IPC: 3.371 cumulative IPC: 3.371 (Simulation time: 00 hr 06 min 52 sec)
Heartbeat CPU 0 instructions: 70000004 cycles: 18566111 heartbeat IPC: 3.265 cumulative IPC: 3.317 (Simulation time: 00 hr 08 min 05 sec)
Heartbeat CPU 0 instructions: 80000001 cycles: 21603106 heartbeat IPC: 3.293 cumulative IPC: 3.309 (Simulation time: 00 hr 09 min 14 sec)
Heartbeat CPU 0 instructions: 90000001 cycles: 24542706 heartbeat IPC: 3.402 cumulative IPC: 3.332 (Simulation time: 00 hr 10 min 22 sec)
Heartbeat CPU 0 instructions: 100000000 cycles: 27453555 heartbeat IPC: 3.435 cumulative IPC: 3.352 (Simulation time: 00 hr 11 min 38 sec)
Heartbeat CPU 0 instructions: 110000000 cycles: 30391277 heartbeat IPC: 3.404 cumulative IPC: 3.361 (Simulation time: 00 hr 12 min 54 sec)
Heartbeat CPU 0 instructions: 120000001 cycles: 33363478 heartbeat IPC: 3.365 cumulative IPC: 3.361 (Simulation time: 00 hr 14 min 05 sec)
Heartbeat CPU 0 instructions: 130000001 cycles: 36215775 heartbeat IPC: 3.506 cumulative IPC: 3.379 (Simulation time: 00 hr 15 min 14 sec)
Heartbeat CPU 0 instructions: 140000001 cycles: 39249003 heartbeat IPC: 3.297 cumulative IPC: 3.369 (Simulation time: 00 hr 16 min 28 sec)
Heartbeat CPU 0 instructions: 150000001 cycles: 42253892 heartbeat IPC: 3.328 cumulative IPC: 3.365 (Simulation time: 00 hr 18 min 03 sec)
Heartbeat CPU 0 instructions: 160000004 cycles: 45259698 heartbeat IPC: 3.327 cumulative IPC: 3.362 (Simulation time: 00 hr 19 min 32 sec)
Heartbeat CPU 0 instructions: 170000000 cycles: 51847071 heartbeat IPC: 1.518 cumulative IPC: 3.053 (Simulation time: 00 hr 21 min 28 sec)
Heartbeat CPU 0 instructions: 180000004 cycles: 58676839 heartbeat IPC: 1.464 cumulative IPC: 2.818 (Simulation time: 00 hr 23 min 19 sec)
Heartbeat CPU 0 instructions: 190000001 cycles: 66457631 heartbeat IPC: 1.285 cumulative IPC: 2.596 (Simulation time: 00 hr 25 min 24 sec)
Heartbeat CPU 0 instructions: 200000004 cycles: 69406418 heartbeat IPC: 3.391 cumulative IPC: 2.638 (Simulation time: 00 hr 26 min 35 sec)
Heartbeat CPU 0 instructions: 210000001 cycles: 72347134 heartbeat IPC: 3.401 cumulative IPC: 2.675 (Simulation time: 00 hr 27 min 45 sec)
Heartbeat CPU 0 instructions: 220000000 cycles: 75232931 heartbeat IPC: 3.465 cumulative IPC: 2.712 (Simulation time: 00 hr 28 min 53 sec)
Heartbeat CPU 0 instructions: 230000002 cycles: 78224025 heartbeat IPC: 3.343 cumulative IPC: 2.74 (Simulation time: 00 hr 30 min 18 sec)
Heartbeat CPU 0 instructions: 240000003 cycles: 81236973 heartbeat IPC: 3.319 cumulative IPC: 2.766 (Simulation time: 00 hr 31 min 52 sec)
Heartbeat CPU 0 instructions: 250000000 cycles: 84242830 heartbeat IPC: 3.327 cumulative IPC: 2.789 (Simulation time: 00 hr 33 min 16 sec)
Heartbeat CPU 0 instructions: 260000002 cycles: 87189338 heartbeat IPC: 3.394 cumulative IPC: 2.813 (Simulation time: 00 hr 34 min 32 sec)
Heartbeat CPU 0 instructions: 270000002 cycles: 90089621 heartbeat IPC: 3.448 cumulative IPC: 2.837 (Simulation time: 00 hr 35 min 44 sec)
Heartbeat CPU 0 instructions: 280000002 cycles: 92959217 heartbeat IPC: 3.485 cumulative IPC: 2.86 (Simulation time: 00 hr 37 min 00 sec)
Heartbeat CPU 0 instructions: 290000002 cycles: 95909294 heartbeat IPC: 3.39 cumulative IPC: 2.879 (Simulation time: 00 hr 38 min 15 sec)
Heartbeat CPU 0 instructions: 300000003 cycles: 98783537 heartbeat IPC: 3.479 cumulative IPC: 2.899 (Simulation time: 00 hr 39 min 29 sec)
Heartbeat CPU 0 instructions: 310000001 cycles: 101790075 heartbeat IPC: 3.326 cumulative IPC: 2.913 (Simulation time: 00 hr 40 min 41 sec)
Heartbeat CPU 0 instructions: 320000003 cycles: 104778437 heartbeat IPC: 3.346 cumulative IPC: 2.927 (Simulation time: 00 hr 41 min 51 sec)
Heartbeat CPU 0 instructions: 330000003 cycles: 107745643 heartbeat IPC: 3.37 cumulative IPC: 2.941 (Simulation time: 00 hr 43 min 13 sec)
Heartbeat CPU 0 instructions: 340000000 cycles: 114405297 heartbeat IPC: 1.502 cumulative IPC: 2.847 (Simulation time: 00 hr 45 min 18 sec)
Heartbeat CPU 0 instructions: 350000000 cycles: 121514181 heartbeat IPC: 1.407 cumulative IPC: 2.753 (Simulation time: 00 hr 47 min 21 sec)
Heartbeat CPU 0 instructions: 360000004 cycles: 129443058 heartbeat IPC: 1.261 cumulative IPC: 2.652 (Simulation time: 00 hr 49 min 24 sec)
Heartbeat CPU 0 instructions: 370000000 cycles: 132399030 heartbeat IPC: 3.383 cumulative IPC: 2.67 (Simulation time: 00 hr 50 min 37 sec)
Heartbeat CPU 0 instructions: 380000003 cycles: 135312467 heartbeat IPC: 3.432 cumulative IPC: 2.688 (Simulation time: 00 hr 51 min 50 sec)
Heartbeat CPU 0 instructions: 390000002 cycles: 138278368 heartbeat IPC: 3.372 cumulative IPC: 2.704 (Simulation time: 00 hr 53 min 02 sec)
Heartbeat CPU 0 instructions: 400000004 cycles: 141176231 heartbeat IPC: 3.451 cumulative IPC: 2.721 (Simulation time: 00 hr 54 min 10 sec)
Heartbeat CPU 0 instructions: 410000002 cycles: 144105496 heartbeat IPC: 3.414 cumulative IPC: 2.736 (Simulation time: 00 hr 55 min 23 sec)
Heartbeat CPU 0 instructions: 420000003 cycles: 147183460 heartbeat IPC: 3.249 cumulative IPC: 2.748 (Simulation time: 00 hr 56 min 58 sec)
Heartbeat CPU 0 instructions: 430000001 cycles: 150186193 heartbeat IPC: 3.33 cumulative IPC: 2.761 (Simulation time: 00 hr 58 min 28 sec)
Heartbeat CPU 0 instructions: 440000004 cycles: 153313188 heartbeat IPC: 3.198 cumulative IPC: 2.77 (Simulation time: 00 hr 59 min 47 sec)
Heartbeat CPU 0 instructions: 450000002 cycles: 156219775 heartbeat IPC: 3.44 cumulative IPC: 2.784 (Simulation time: 01 hr 01 min 01 sec)
Heartbeat CPU 0 instructions: 460000000 cycles: 159144549 heartbeat IPC: 3.419 cumulative IPC: 2.797 (Simulation time: 01 hr 02 min 16 sec)
Heartbeat CPU 0 instructions: 470000001 cycles: 161991148 heartbeat IPC: 3.513 cumulative IPC: 2.81 (Simulation time: 01 hr 03 min 31 sec)
Heartbeat CPU 0 instructions: 480000003 cycles: 165048452 heartbeat IPC: 3.271 cumulative IPC: 2.819 (Simulation time: 01 hr 04 min 45 sec)
Heartbeat CPU 0 instructions: 490000004 cycles: 167871255 heartbeat IPC: 3.543 cumulative IPC: 2.833 (Simulation time: 01 hr 05 min 55 sec)
Heartbeat CPU 0 instructions: 500000004 cycles: 170848273 heartbeat IPC: 3.359 cumulative IPC: 2.843 (Simulation time: 01 hr 07 min 04 sec)
Heartbeat CPU 0 instructions: 510000003 cycles: 173882193 heartbeat IPC: 3.296 cumulative IPC: 2.851 (Simulation time: 01 hr 08 min 16 sec)
Heartbeat CPU 0 instructions: 520000001 cycles: 176753641 heartbeat IPC: 3.483 cumulative IPC: 2.862 (Simulation time: 01 hr 09 min 47 sec)
Heartbeat CPU 0 instructions: 530000001 cycles: 179758633 heartbeat IPC: 3.328 cumulative IPC: 2.87 (Simulation time: 01 hr 11 min 18 sec)
Heartbeat CPU 0 instructions: 540000000 cycles: 182705856 heartbeat IPC: 3.393 cumulative IPC: 2.879 (Simulation time: 01 hr 12 min 43 sec)
Heartbeat CPU 0 instructions: 550000001 cycles: 185683730 heartbeat IPC: 3.358 cumulative IPC: 2.888 (Simulation time: 01 hr 13 min 59 sec)
Heartbeat CPU 0 instructions: 560000000 cycles: 188790477 heartbeat IPC: 3.219 cumulative IPC: 2.894 (Simulation time: 01 hr 15 min 19 sec)
Heartbeat CPU 0 instructions: 570000004 cycles: 193693370 heartbeat IPC: 2.04 cumulative IPC: 2.87 (Simulation time: 01 hr 16 min 56 sec)
Heartbeat CPU 0 instructions: 580000003 cycles: 201378544 heartbeat IPC: 1.301 cumulative IPC: 2.807 (Simulation time: 01 hr 18 min 59 sec)
Heartbeat CPU 0 instructions: 590000002 cycles: 210927137 heartbeat IPC: 1.047 cumulative IPC: 2.722 (Simulation time: 01 hr 21 min 11 sec)
Heartbeat CPU 0 instructions: 600000004 cycles: 213968728 heartbeat IPC: 3.288 cumulative IPC: 2.73 (Simulation time: 01 hr 22 min 36 sec)
Heartbeat CPU 0 instructions: 610000002 cycles: 216921927 heartbeat IPC: 3.386 cumulative IPC: 2.74 (Simulation time: 01 hr 24 min 08 sec)
Heartbeat CPU 0 instructions: 620000001 cycles: 219694538 heartbeat IPC: 3.607 cumulative IPC: 2.752 (Simulation time: 01 hr 25 min 33 sec)
Heartbeat CPU 0 instructions: 630000002 cycles: 222655894 heartbeat IPC: 3.377 cumulative IPC: 2.76 (Simulation time: 01 hr 26 min 46 sec)
Heartbeat CPU 0 instructions: 640000004 cycles: 225602984 heartbeat IPC: 3.393 cumulative IPC: 2.769 (Simulation time: 01 hr 28 min 02 sec)
Heartbeat CPU 0 instructions: 650000000 cycles: 228349907 heartbeat IPC: 3.64 cumulative IPC: 2.78 (Simulation time: 01 hr 29 min 22 sec)
Simulation finished CPU 0 instructions: 600000001 cycles: 215812775 cumulative IPC: 2.78 (Simulation time: 01 hr 29 min 22 sec)
Simulation complete CPU 0 instructions: 600000001 cycles: 215812775 cumulative IPC: 2.78 (Simulation time: 01 hr 29 min 22 sec)

ChampSim completed all CPUs

=== Simulation ===
CPU 0 runs traces/400.perlbench-41B.champsimtrace.xz
Region of Interest Statistics

CPU 0 cumulative IPC: 2.78 instructions: 600000001 cycles: 215812775
CPU 0 Branch Prediction Accuracy: 99.19% MPKI: 1.684 Average ROB Occupancy at Mispredict: 101.6
Branch type MPKI
BRANCH_DIRECT_JUMP: 0.0123
BRANCH_INDIRECT: 0.323
BRANCH_CONDITIONAL: 1.14
BRANCH_DIRECT_CALL: 0.0043
BRANCH_INDIRECT_CALL: 0.2
BRANCH_RETURN: 0.00828

LLC TOTAL        ACCESS:     539871 HIT:     316698 MISS:     223173
LLC LOAD         ACCESS:     402518 HIT:     200205 MISS:     202313
LLC RFO          ACCESS:      32387 HIT:      26896 MISS:       5491
LLC PREFETCH     ACCESS:          0 HIT:          0 MISS:          0
LLC WRITE        ACCESS:      86131 HIT:      81880 MISS:       4251
LLC TRANSLATION  ACCESS:      18835 HIT:       7717 MISS:      11118
LLC PREFETCH REQUESTED:          0 ISSUED:          0 USEFUL:          0 USELESS:          0
LLC AVERAGE MISS LATENCY: 561.7 cycles
cpu0_DTLB TOTAL        ACCESS:  129785654 HIT:  129081596 MISS:     704058
cpu0_DTLB LOAD         ACCESS:  129785654 HIT:  129081596 MISS:     704058
cpu0_DTLB RFO          ACCESS:          0 HIT:          0 MISS:          0
cpu0_DTLB PREFETCH     ACCESS:          0 HIT:          0 MISS:          0
cpu0_DTLB WRITE        ACCESS:          0 HIT:          0 MISS:          0
cpu0_DTLB TRANSLATION  ACCESS:          0 HIT:          0 MISS:          0
cpu0_DTLB PREFETCH REQUESTED:          0 ISSUED:          0 USEFUL:          0 USELESS:          0
cpu0_DTLB AVERAGE MISS LATENCY: 14.97 cycles
cpu0_ITLB TOTAL        ACCESS:    4877093 HIT:    4814907 MISS:      62186
cpu0_ITLB LOAD         ACCESS:    4877093 HIT:    4814907 MISS:      62186
cpu0_ITLB RFO          ACCESS:          0 HIT:          0 MISS:          0
cpu0_ITLB PREFETCH     ACCESS:          0 HIT:          0 MISS:          0
cpu0_ITLB WRITE        ACCESS:          0 HIT:          0 MISS:          0
cpu0_ITLB TRANSLATION  ACCESS:          0 HIT:          0 MISS:          0
cpu0_ITLB PREFETCH REQUESTED:          0 ISSUED:          0 USEFUL:          0 USELESS:          0
cpu0_ITLB AVERAGE MISS LATENCY: 6.249 cycles
cpu0_L1D TOTAL        ACCESS:  174384041 HIT:  172985994 MISS:    1398047
cpu0_L1D LOAD         ACCESS:   91361568 HIT:   90271635 MISS:    1089933
cpu0_L1D RFO          ACCESS:          0 HIT:          0 MISS:          0
cpu0_L1D PREFETCH     ACCESS:          0 HIT:          0 MISS:          0
cpu0_L1D WRITE        ACCESS:   82998012 HIT:   82712765 MISS:     285247
cpu0_L1D TRANSLATION  ACCESS:      24461 HIT:       1594 MISS:      22867
cpu0_L1D PREFETCH REQUESTED:          0 ISSUED:          0 USEFUL:          0 USELESS:          0
cpu0_L1D AVERAGE MISS LATENCY: 91.17 cycles
cpu0_L1I TOTAL        ACCESS:    5656068 HIT:    4851108 MISS:     804960
cpu0_L1I LOAD         ACCESS:    5656068 HIT:    4851108 MISS:     804960
cpu0_L1I RFO          ACCESS:          0 HIT:          0 MISS:          0
cpu0_L1I PREFETCH     ACCESS:          0 HIT:          0 MISS:          0
cpu0_L1I WRITE        ACCESS:          0 HIT:          0 MISS:          0
cpu0_L1I TRANSLATION  ACCESS:          0 HIT:          0 MISS:          0
cpu0_L1I PREFETCH REQUESTED:          0 ISSUED:          0 USEFUL:          0 USELESS:          0
cpu0_L1I AVERAGE MISS LATENCY: 10.35 cycles
cpu0_L2C TOTAL        ACCESS:    1382045 HIT:     924572 MISS:     457473
cpu0_L2C LOAD         ACCESS:    1124036 HIT:     721517 MISS:     402519
cpu0_L2C RFO          ACCESS:      64493 HIT:      32106 MISS:      32387
cpu0_L2C PREFETCH     ACCESS:          0 HIT:          0 MISS:          0
cpu0_L2C WRITE        ACCESS:     170732 HIT:     167000 MISS:       3732
cpu0_L2C TRANSLATION  ACCESS:      22784 HIT:       3949 MISS:      18835
cpu0_L2C PREFETCH REQUESTED:          0 ISSUED:          0 USEFUL:          0 USELESS:          0
cpu0_L2C AVERAGE MISS LATENCY: 294.3 cycles
cpu0_STLB TOTAL        ACCESS:     509031 HIT:     486246 MISS:      22785
cpu0_STLB LOAD         ACCESS:     509031 HIT:     486246 MISS:      22785
cpu0_STLB RFO          ACCESS:          0 HIT:          0 MISS:          0
cpu0_STLB PREFETCH     ACCESS:          0 HIT:          0 MISS:          0
cpu0_STLB WRITE        ACCESS:          0 HIT:          0 MISS:          0
cpu0_STLB TRANSLATION  ACCESS:          0 HIT:          0 MISS:          0
cpu0_STLB PREFETCH REQUESTED:          0 ISSUED:          0 USEFUL:          0 USELESS:          0
cpu0_STLB AVERAGE MISS LATENCY: 355.3 cycles

DRAM Statistics

Channel 0 RQ ROW_BUFFER_HIT:      52932
  ROW_BUFFER_MISS:     165983
 AVG DBUS CONGESTED CYCLE: 3.76
WQ ROW_BUFFER_HIT: Channel 0 
  ROW_BUFFER_MISS:       2392
  FULL:       3416
