WARNING: physical memory size is smaller than virtual memory size.

*** ChampSim Multicore Out-of-Order Simulator ***
Warmup Instructions: 50000000
Simulation Instructions: 600000000
Number of CPUs: 1
Page size: 4096

Off-chip DRAM Size: 4 GiB Channels: 1 Width: 64-bit Data Race: 3200 MT/s
Heartbeat CPU 0 instructions: 10000000 cycles: 2500061 heartbeat IPC: 4 cumulative IPC: 4 (Simulation time: 00 hr 03 min 33 sec)
Heartbeat CPU 0 instructions: 20000000 cycles: 5000061 heartbeat IPC: 4 cumulative IPC: 4 (Simulation time: 00 hr 06 min 48 sec)
Heartbeat CPU 0 instructions: 30000000 cycles: 7500061 heartbeat IPC: 4 cumulative IPC: 4 (Simulation time: 00 hr 10 min 08 sec)
Heartbeat CPU 0 instructions: 40000000 cycles: 10000061 heartbeat IPC: 4 cumulative IPC: 4 (Simulation time: 00 hr 13 min 18 sec)
Heartbeat CPU 0 instructions: 50000000 cycles: 12500061 heartbeat IPC: 4 cumulative IPC: 4 (Simulation time: 00 hr 16 min 28 sec)
Warmup finished CPU 0 instructions: 50000000 cycles: 12500062 cumulative IPC: 4 (Simulation time: 00 hr 16 min 28 sec)
Warmup complete CPU 0 instructions: 50000000 cycles: 12500062 cumulative IPC: 4 (Simulation time: 00 hr 16 min 28 sec)
Heartbeat CPU 0 instructions: 60000002 cycles: 16435783 heartbeat IPC: 2.541 cumulative IPC: 2.541 (Simulation time: 00 hr 21 min 06 sec)
Heartbeat CPU 0 instructions: 70000003 cycles: 20749204 heartbeat IPC: 2.318 cumulative IPC: 2.424 (Simulation time: 00 hr 25 min 39 sec)
Heartbeat CPU 0 instructions: 80000003 cycles: 25212938 heartbeat IPC: 2.24 cumulative IPC: 2.36 (Simulation time: 00 hr 30 min 15 sec)
Heartbeat CPU 0 instructions: 90000000 cycles: 28902625 heartbeat IPC: 2.71 cumulative IPC: 2.439 (Simulation time: 00 hr 34 min 29 sec)
Heartbeat CPU 0 instructions: 100000003 cycles: 32797283 heartbeat IPC: 2.568 cumulative IPC: 2.463 (Simulation time: 00 hr 38 min 50 sec)
Heartbeat CPU 0 instructions: 110000002 cycles: 36888882 heartbeat IPC: 2.444 cumulative IPC: 2.46 (Simulation time: 00 hr 43 min 14 sec)
Heartbeat CPU 0 instructions: 120000001 cycles: 40602045 heartbeat IPC: 2.693 cumulative IPC: 2.491 (Simulation time: 00 hr 47 min 26 sec)
Heartbeat CPU 0 instructions: 130000003 cycles: 44366187 heartbeat IPC: 2.657 cumulative IPC: 2.511 (Simulation time: 00 hr 51 min 41 sec)
Heartbeat CPU 0 instructions: 140000002 cycles: 48491614 heartbeat IPC: 2.424 cumulative IPC: 2.501 (Simulation time: 00 hr 56 min 08 sec)
Heartbeat CPU 0 instructions: 150000001 cycles: 52535644 heartbeat IPC: 2.473 cumulative IPC: 2.498 (Simulation time: 01 hr 00 min 29 sec)
Heartbeat CPU 0 instructions: 160000000 cycles: 56184366 heartbeat IPC: 2.741 cumulative IPC: 2.518 (Simulation time: 01 hr 04 min 41 sec)
Heartbeat CPU 0 instructions: 170000001 cycles: 60350038 heartbeat IPC: 2.401 cumulative IPC: 2.508 (Simulation time: 01 hr 09 min 11 sec)
Heartbeat CPU 0 instructions: 180000001 cycles: 63805525 heartbeat IPC: 2.894 cumulative IPC: 2.534 (Simulation time: 01 hr 13 min 21 sec)
Heartbeat CPU 0 instructions: 190000002 cycles: 67382191 heartbeat IPC: 2.796 cumulative IPC: 2.551 (Simulation time: 01 hr 17 min 40 sec)
Heartbeat CPU 0 instructions: 200000002 cycles: 71153161 heartbeat IPC: 2.652 cumulative IPC: 2.557 (Simulation time: 01 hr 21 min 59 sec)
Heartbeat CPU 0 instructions: 210000000 cycles: 74788089 heartbeat IPC: 2.751 cumulative IPC: 2.569 (Simulation time: 01 hr 26 min 15 sec)
Heartbeat CPU 0 instructions: 220000001 cycles: 78655984 heartbeat IPC: 2.585 cumulative IPC: 2.57 (Simulation time: 01 hr 30 min 35 sec)
Heartbeat CPU 0 instructions: 230000002 cycles: 82491062 heartbeat IPC: 2.608 cumulative IPC: 2.572 (Simulation time: 01 hr 34 min 56 sec)
Heartbeat CPU 0 instructions: 240000001 cycles: 86693138 heartbeat IPC: 2.38 cumulative IPC: 2.561 (Simulation time: 01 hr 39 min 28 sec)
Heartbeat CPU 0 instructions: 250000003 cycles: 91251932 heartbeat IPC: 2.194 cumulative IPC: 2.54 (Simulation time: 01 hr 44 min 05 sec)
Heartbeat CPU 0 instructions: 260000000 cycles: 95043028 heartbeat IPC: 2.638 cumulative IPC: 2.544 (Simulation time: 01 hr 48 min 23 sec)
Heartbeat CPU 0 instructions: 270000003 cycles: 101672900 heartbeat IPC: 1.508 cumulative IPC: 2.467 (Simulation time: 01 hr 54 min 24 sec)
Heartbeat CPU 0 instructions: 280000000 cycles: 112068187 heartbeat IPC: 0.962 cumulative IPC: 2.31 (Simulation time: 02 hr 02 min 50 sec)
Heartbeat CPU 0 instructions: 290000000 cycles: 123760519 heartbeat IPC: 0.8553 cumulative IPC: 2.157 (Simulation time: 02 hr 12 min 03 sec)
Heartbeat CPU 0 instructions: 300000003 cycles: 132491301 heartbeat IPC: 1.145 cumulative IPC: 2.083 (Simulation time: 02 hr 19 min 44 sec)
Heartbeat CPU 0 instructions: 310000004 cycles: 145047064 heartbeat IPC: 0.7964 cumulative IPC: 1.962 (Simulation time: 02 hr 29 min 41 sec)
Heartbeat CPU 0 instructions: 320000004 cycles: 150722592 heartbeat IPC: 1.762 cumulative IPC: 1.953 (Simulation time: 02 hr 35 min 18 sec)
Heartbeat CPU 0 instructions: 330000000 cycles: 154785096 heartbeat IPC: 2.462 cumulative IPC: 1.968 (Simulation time: 02 hr 39 min 51 sec)
Heartbeat CPU 0 instructions: 340000001 cycles: 158907666 heartbeat IPC: 2.426 cumulative IPC: 1.981 (Simulation time: 02 hr 44 min 23 sec)
Heartbeat CPU 0 instructions: 350000004 cycles: 162968396 heartbeat IPC: 2.463 cumulative IPC: 1.994 (Simulation time: 02 hr 48 min 55 sec)
Heartbeat CPU 0 instructions: 360000003 cycles: 166691099 heartbeat IPC: 2.686 cumulative IPC: 2.01 (Simulation time: 02 hr 53 min 14 sec)
Heartbeat CPU 0 instructions: 370000001 cycles: 170350226 heartbeat IPC: 2.733 cumulative IPC: 2.027 (Simulation time: 02 hr 57 min 30 sec)
Heartbeat CPU 0 instructions: 380000004 cycles: 173881362 heartbeat IPC: 2.832 cumulative IPC: 2.045 (Simulation time: 03 hr 01 min 44 sec)
Heartbeat CPU 0 instructions: 390000002 cycles: 177471345 heartbeat IPC: 2.786 cumulative IPC: 2.061 (Simulation time: 03 hr 06 min 00 sec)
Heartbeat CPU 0 instructions: 400000000 cycles: 181331438 heartbeat IPC: 2.591 cumulative IPC: 2.073 (Simulation time: 03 hr 10 min 24 sec)
Heartbeat CPU 0 instructions: 410000000 cycles: 187591164 heartbeat IPC: 1.598 cumulative IPC: 2.056 (Simulation time: 03 hr 16 min 24 sec)
Heartbeat CPU 0 instructions: 420000003 cycles: 196508588 heartbeat IPC: 1.121 cumulative IPC: 2.011 (Simulation time: 03 hr 24 min 10 sec)
Heartbeat CPU 0 instructions: 430000000 cycles: 205317330 heartbeat IPC: 1.135 cumulative IPC: 1.971 (Simulation time: 03 hr 31 min 52 sec)
Heartbeat CPU 0 instructions: 440000004 cycles: 213965105 heartbeat IPC: 1.156 cumulative IPC: 1.936 (Simulation time: 03 hr 39 min 21 sec)
Heartbeat CPU 0 instructions: 450000001 cycles: 222349811 heartbeat IPC: 1.193 cumulative IPC: 1.906 (Simulation time: 03 hr 46 min 42 sec)
Heartbeat CPU 0 instructions: 460000002 cycles: 235685406 heartbeat IPC: 0.7499 cumulative IPC: 1.837 (Simulation time: 03 hr 56 min 56 sec)
Heartbeat CPU 0 instructions: 470000003 cycles: 246431470 heartbeat IPC: 0.9306 cumulative IPC: 1.795 (Simulation time: 04 hr 05 min 37 sec)
Heartbeat CPU 0 instructions: 480000003 cycles: 250671972 heartbeat IPC: 2.358 cumulative IPC: 1.805 (Simulation time: 04 hr 10 min 16 sec)
Heartbeat CPU 0 instructions: 490000001 cycles: 254724370 heartbeat IPC: 2.468 cumulative IPC: 1.816 (Simulation time: 04 hr 14 min 47 sec)
Heartbeat CPU 0 instructions: 500000002 cycles: 258462744 heartbeat IPC: 2.675 cumulative IPC: 1.83 (Simulation time: 04 hr 19 min 04 sec)
Heartbeat CPU 0 instructions: 510000000 cycles: 261980489 heartbeat IPC: 2.843 cumulative IPC: 1.844 (Simulation time: 04 hr 23 min 20 sec)
Heartbeat CPU 0 instructions: 520000000 cycles: 265624666 heartbeat IPC: 2.744 cumulative IPC: 1.857 (Simulation time: 04 hr 27 min 40 sec)
Heartbeat CPU 0 instructions: 530000001 cycles: 274389235 heartbeat IPC: 1.141 cumulative IPC: 1.833 (Simulation time: 04 hr 35 min 05 sec)
Heartbeat CPU 0 instructions: 540000000 cycles: 285874035 heartbeat IPC: 0.8707 cumulative IPC: 1.792 (Simulation time: 04 hr 44 min 24 sec)
Heartbeat CPU 0 instructions: 550000004 cycles: 299984575 heartbeat IPC: 0.7087 cumulative IPC: 1.739 (Simulation time: 04 hr 55 min 26 sec)
Heartbeat CPU 0 instructions: 560000004 cycles: 304419685 heartbeat IPC: 2.255 cumulative IPC: 1.747 (Simulation time: 05 hr 00 min 25 sec)
Heartbeat CPU 0 instructions: 570000001 cycles: 307559026 heartbeat IPC: 3.185 cumulative IPC: 1.762 (Simulation time: 05 hr 04 min 29 sec)
Heartbeat CPU 0 instructions: 580000003 cycles: 311108119 heartbeat IPC: 2.818 cumulative IPC: 1.775 (Simulation time: 05 hr 08 min 57 sec)
Heartbeat CPU 0 instructions: 590000002 cycles: 314735249 heartbeat IPC: 2.757 cumulative IPC: 1.787 (Simulation time: 05 hr 13 min 24 sec)
Heartbeat CPU 0 instructions: 600000003 cycles: 317800750 heartbeat IPC: 3.262 cumulative IPC: 1.802 (Simulation time: 05 hr 17 min 30 sec)
Heartbeat CPU 0 instructions: 610000001 cycles: 321313478 heartbeat IPC: 2.847 cumulative IPC: 1.813 (Simulation time: 05 hr 22 min 01 sec)
Heartbeat CPU 0 instructions: 620000000 cycles: 325329549 heartbeat IPC: 2.49 cumulative IPC: 1.822 (Simulation time: 05 hr 26 min 41 sec)
Heartbeat CPU 0 instructions: 630000002 cycles: 328695842 heartbeat IPC: 2.971 cumulative IPC: 1.834 (Simulation time: 05 hr 31 min 00 sec)
Heartbeat CPU 0 instructions: 640000004 cycles: 332697594 heartbeat IPC: 2.499 cumulative IPC: 1.843 (Simulation time: 05 hr 35 min 30 sec)
Heartbeat CPU 0 instructions: 650000001 cycles: 336514820 heartbeat IPC: 2.62 cumulative IPC: 1.852 (Simulation time: 05 hr 39 min 52 sec)
Simulation finished CPU 0 instructions: 600000001 cycles: 324014759 cumulative IPC: 1.852 (Simulation time: 05 hr 39 min 52 sec)
Simulation complete CPU 0 instructions: 600000001 cycles: 324014759 cumulative IPC: 1.852 (Simulation time: 05 hr 39 min 52 sec)

ChampSim completed all CPUs

=== Simulation ===
CPU 0 runs traces/400.perlbench-50B.champsimtrace.xz
Region of Interest Statistics

CPU 0 cumulative IPC: 1.852 instructions: 600000001 cycles: 324014759
CPU 0 Branch Prediction Accuracy: 96.2% MPKI: 7.839 Average ROB Occupancy at Mispredict: 43.68
Branch type MPKI
BRANCH_DIRECT_JUMP: 0.0176
BRANCH_INDIRECT: 0.38
BRANCH_CONDITIONAL: 6.99
BRANCH_DIRECT_CALL: 0.0067
BRANCH_INDIRECT_CALL: 0.431
BRANCH_RETURN: 0.0161

LLC TOTAL        ACCESS:    1356203 HIT:     865611 MISS:     490592
LLC LOAD         ACCESS:     579835 HIT:     376191 MISS:     203644
LLC RFO          ACCESS:      47287 HIT:      26980 MISS:      20307
LLC PREFETCH     ACCESS:     579835 HIT:     361582 MISS:     218253
LLC WRITE        ACCESS:     127070 HIT:      95329 MISS:      31741
LLC TRANSLATION  ACCESS:      22176 HIT:       5529 MISS:      16647
LLC PREFETCH REQUESTED:     579835 ISSUED:     579835 USEFUL:      76639 USELESS:      86285
LLC AVERAGE MISS LATENCY: 494.8 cycles
cpu0_DTLB TOTAL        ACCESS:  146492189 HIT:  145185889 MISS:    1306300
cpu0_DTLB LOAD         ACCESS:  146492189 HIT:  145185889 MISS:    1306300
cpu0_DTLB RFO          ACCESS:          0 HIT:          0 MISS:          0
cpu0_DTLB PREFETCH     ACCESS:          0 HIT:          0 MISS:          0
cpu0_DTLB WRITE        ACCESS:          0 HIT:          0 MISS:          0
cpu0_DTLB TRANSLATION  ACCESS:          0 HIT:          0 MISS:          0
cpu0_DTLB PREFETCH REQUESTED:          0 ISSUED:          0 USEFUL:          0 USELESS:          0
cpu0_DTLB AVERAGE MISS LATENCY: 14.18 cycles
cpu0_ITLB TOTAL        ACCESS:    8983780 HIT:    8799301 MISS:     184479
cpu0_ITLB LOAD         ACCESS:    8983780 HIT:    8799301 MISS:     184479
cpu0_ITLB RFO          ACCESS:          0 HIT:          0 MISS:          0
cpu0_ITLB PREFETCH     ACCESS:          0 HIT:          0 MISS:          0
cpu0_ITLB WRITE        ACCESS:          0 HIT:          0 MISS:          0
cpu0_ITLB TRANSLATION  ACCESS:          0 HIT:          0 MISS:          0
cpu0_ITLB PREFETCH REQUESTED:          0 ISSUED:          0 USEFUL:          0 USELESS:          0
cpu0_ITLB AVERAGE MISS LATENCY: 4.091 cycles
cpu0_L1D TOTAL        ACCESS:  193273682 HIT:  189605685 MISS:    3667997
cpu0_L1D LOAD         ACCESS:  107427586 HIT:  104407897 MISS:    3019689
cpu0_L1D RFO          ACCESS:          0 HIT:          0 MISS:          0
cpu0_L1D PREFETCH     ACCESS:          0 HIT:          0 MISS:          0
cpu0_L1D WRITE        ACCESS:   85817580 HIT:   85196368 MISS:     621212
cpu0_L1D TRANSLATION  ACCESS:      28516 HIT:       1420 MISS:      27096
cpu0_L1D PREFETCH REQUESTED:          0 ISSUED:          0 USEFUL:          0 USELESS:          0
cpu0_L1D AVERAGE MISS LATENCY: 40.9 cycles
cpu0_L1I TOTAL        ACCESS:   10418801 HIT:    8657375 MISS:    1761426
cpu0_L1I LOAD         ACCESS:   10418801 HIT:    8657375 MISS:    1761426
cpu0_L1I RFO          ACCESS:          0 HIT:          0 MISS:          0
cpu0_L1I PREFETCH     ACCESS:          0 HIT:          0 MISS:          0
cpu0_L1I WRITE        ACCESS:          0 HIT:          0 MISS:          0
cpu0_L1I TRANSLATION  ACCESS:          0 HIT:          0 MISS:          0
cpu0_L1I PREFETCH REQUESTED:          0 ISSUED:          0 USEFUL:          0 USELESS:          0
cpu0_L1I AVERAGE MISS LATENCY: 15.27 cycles
cpu0_L2C TOTAL        ACCESS:    3834514 HIT:    3182139 MISS:     652375
cpu0_L2C LOAD         ACCESS:    3104982 HIT:    2525147 MISS:     579835
cpu0_L2C RFO          ACCESS:     191562 HIT:     144275 MISS:      47287
cpu0_L2C PREFETCH     ACCESS:          0 HIT:          0 MISS:          0
cpu0_L2C WRITE        ACCESS:     510947 HIT:     507870 MISS:       3077
cpu0_L2C TRANSLATION  ACCESS:      27023 HIT:       4847 MISS:      22176
cpu0_L2C PREFETCH REQUESTED:          0 ISSUED:          0 USEFUL:          0 USELESS:          0
cpu0_L2C AVERAGE MISS LATENCY: 231.1 cycles
cpu0_STLB TOTAL        ACCESS:    1008478 HIT:     981787 MISS:      26691
cpu0_STLB LOAD         ACCESS:    1008478 HIT:     981787 MISS:      26691
cpu0_STLB RFO          ACCESS:          0 HIT:          0 MISS:          0
cpu0_STLB PREFETCH     ACCESS:          0 HIT:          0 MISS:          0
cpu0_STLB WRITE        ACCESS:          0 HIT:          0 MISS:          0
cpu0_STLB TRANSLATION  ACCESS:          0 HIT:          0 MISS:          0
cpu0_STLB PREFETCH REQUESTED:          0 ISSUED:          0 USEFUL:          0 USELESS:          0
cpu0_STLB AVERAGE MISS LATENCY: 481.5 cycles

DRAM Statistics

Channel 0 RQ ROW_BUFFER_HIT:      66123
  ROW_BUFFER_MISS:     332704
 AVG DBUS CONGESTED CYCLE: 3.867
WQ ROW_BUFFER_HIT: Channel 0 
  ROW_BUFFER_MISS:       9311
  FULL:      41492
