WARNING: physical memory size is smaller than virtual memory size.

*** ChampSim Multicore Out-of-Order Simulator ***
Warmup Instructions: 50000000
Simulation Instructions: 600000000
Number of CPUs: 1
Page size: 4096

Off-chip DRAM Size: 4 GiB Channels: 1 Width: 64-bit Data Race: 3200 MT/s
Heartbeat CPU 0 instructions: 10000000 cycles: 2500061 heartbeat IPC: 4 cumulative IPC: 4 (Simulation time: 00 hr 03 min 18 sec)
Heartbeat CPU 0 instructions: 20000000 cycles: 5000061 heartbeat IPC: 4 cumulative IPC: 4 (Simulation time: 00 hr 06 min 43 sec)
Heartbeat CPU 0 instructions: 30000000 cycles: 7500061 heartbeat IPC: 4 cumulative IPC: 4 (Simulation time: 00 hr 10 min 08 sec)
Heartbeat CPU 0 instructions: 40000000 cycles: 10000061 heartbeat IPC: 4 cumulative IPC: 4 (Simulation time: 00 hr 13 min 34 sec)
Heartbeat CPU 0 instructions: 50000000 cycles: 12500061 heartbeat IPC: 4 cumulative IPC: 4 (Simulation time: 00 hr 16 min 45 sec)
Warmup finished CPU 0 instructions: 50000000 cycles: 12500062 cumulative IPC: 4 (Simulation time: 00 hr 16 min 45 sec)
Warmup complete CPU 0 instructions: 50000000 cycles: 12500062 cumulative IPC: 4 (Simulation time: 00 hr 16 min 45 sec)
Heartbeat CPU 0 instructions: 60000002 cycles: 16907366 heartbeat IPC: 2.269 cumulative IPC: 2.269 (Simulation time: 00 hr 21 min 48 sec)
Heartbeat CPU 0 instructions: 70000003 cycles: 21889050 heartbeat IPC: 2.007 cumulative IPC: 2.13 (Simulation time: 00 hr 26 min 45 sec)
Heartbeat CPU 0 instructions: 80000001 cycles: 27230745 heartbeat IPC: 1.872 cumulative IPC: 2.037 (Simulation time: 00 hr 32 min 00 sec)
Heartbeat CPU 0 instructions: 90000000 cycles: 31527294 heartbeat IPC: 2.327 cumulative IPC: 2.102 (Simulation time: 00 hr 36 min 32 sec)
Heartbeat CPU 0 instructions: 100000003 cycles: 36379334 heartbeat IPC: 2.061 cumulative IPC: 2.094 (Simulation time: 00 hr 41 min 33 sec)
Heartbeat CPU 0 instructions: 110000002 cycles: 41247374 heartbeat IPC: 2.054 cumulative IPC: 2.087 (Simulation time: 00 hr 46 min 25 sec)
Heartbeat CPU 0 instructions: 120000001 cycles: 46240828 heartbeat IPC: 2.003 cumulative IPC: 2.075 (Simulation time: 00 hr 51 min 19 sec)
Heartbeat CPU 0 instructions: 130000003 cycles: 50807189 heartbeat IPC: 2.19 cumulative IPC: 2.088 (Simulation time: 00 hr 56 min 01 sec)
Heartbeat CPU 0 instructions: 140000002 cycles: 55694832 heartbeat IPC: 2.046 cumulative IPC: 2.084 (Simulation time: 01 hr 00 min 52 sec)
Heartbeat CPU 0 instructions: 150000001 cycles: 60360024 heartbeat IPC: 2.144 cumulative IPC: 2.089 (Simulation time: 01 hr 05 min 35 sec)
Heartbeat CPU 0 instructions: 160000000 cycles: 64996045 heartbeat IPC: 2.157 cumulative IPC: 2.095 (Simulation time: 01 hr 10 min 19 sec)
Heartbeat CPU 0 instructions: 170000000 cycles: 70325364 heartbeat IPC: 1.876 cumulative IPC: 2.075 (Simulation time: 01 hr 15 min 20 sec)
Heartbeat CPU 0 instructions: 180000001 cycles: 76043102 heartbeat IPC: 1.749 cumulative IPC: 2.046 (Simulation time: 01 hr 20 min 41 sec)
Heartbeat CPU 0 instructions: 190000002 cycles: 80511237 heartbeat IPC: 2.238 cumulative IPC: 2.058 (Simulation time: 01 hr 25 min 21 sec)
Heartbeat CPU 0 instructions: 200000002 cycles: 85411245 heartbeat IPC: 2.041 cumulative IPC: 2.057 (Simulation time: 01 hr 30 min 15 sec)
Heartbeat CPU 0 instructions: 210000000 cycles: 90413026 heartbeat IPC: 1.999 cumulative IPC: 2.054 (Simulation time: 01 hr 35 min 14 sec)
Heartbeat CPU 0 instructions: 220000001 cycles: 95334767 heartbeat IPC: 2.032 cumulative IPC: 2.052 (Simulation time: 01 hr 40 min 09 sec)
Heartbeat CPU 0 instructions: 230000002 cycles: 100578650 heartbeat IPC: 1.907 cumulative IPC: 2.044 (Simulation time: 01 hr 45 min 15 sec)
Heartbeat CPU 0 instructions: 240000001 cycles: 105540806 heartbeat IPC: 2.015 cumulative IPC: 2.042 (Simulation time: 01 hr 50 min 11 sec)
Heartbeat CPU 0 instructions: 250000003 cycles: 110715200 heartbeat IPC: 1.933 cumulative IPC: 2.036 (Simulation time: 01 hr 55 min 09 sec)
Heartbeat CPU 0 instructions: 260000001 cycles: 115571230 heartbeat IPC: 2.059 cumulative IPC: 2.037 (Simulation time: 02 hr 00 min 03 sec)
Heartbeat CPU 0 instructions: 270000000 cycles: 123225925 heartbeat IPC: 1.306 cumulative IPC: 1.987 (Simulation time: 02 hr 06 min 44 sec)
Heartbeat CPU 0 instructions: 280000000 cycles: 134151553 heartbeat IPC: 0.9153 cumulative IPC: 1.891 (Simulation time: 02 hr 15 min 27 sec)
Heartbeat CPU 0 instructions: 290000001 cycles: 144512563 heartbeat IPC: 0.9652 cumulative IPC: 1.818 (Simulation time: 02 hr 23 min 56 sec)
Heartbeat CPU 0 instructions: 300000003 cycles: 152174224 heartbeat IPC: 1.305 cumulative IPC: 1.79 (Simulation time: 02 hr 30 min 59 sec)
Heartbeat CPU 0 instructions: 310000004 cycles: 163224356 heartbeat IPC: 0.905 cumulative IPC: 1.725 (Simulation time: 02 hr 39 min 58 sec)
Heartbeat CPU 0 instructions: 320000004 cycles: 168961960 heartbeat IPC: 1.743 cumulative IPC: 1.726 (Simulation time: 02 hr 45 min 35 sec)
Heartbeat CPU 0 instructions: 330000000 cycles: 174246084 heartbeat IPC: 1.892 cumulative IPC: 1.731 (Simulation time: 02 hr 50 min 50 sec)
Heartbeat CPU 0 instructions: 340000001 cycles: 179389109 heartbeat IPC: 1.944 cumulative IPC: 1.738 (Simulation time: 02 hr 55 min 54 sec)
Heartbeat CPU 0 instructions: 350000000 cycles: 184694038 heartbeat IPC: 1.885 cumulative IPC: 1.742 (Simulation time: 03 hr 01 min 06 sec)
Heartbeat CPU 0 instructions: 360000003 cycles: 189684132 heartbeat IPC: 2.004 cumulative IPC: 1.75 (Simulation time: 03 hr 06 min 06 sec)
Heartbeat CPU 0 instructions: 370000001 cycles: 194577430 heartbeat IPC: 2.044 cumulative IPC: 1.757 (Simulation time: 03 hr 11 min 01 sec)
Heartbeat CPU 0 instructions: 380000004 cycles: 199705940 heartbeat IPC: 1.95 cumulative IPC: 1.763 (Simulation time: 03 hr 16 min 06 sec)
Heartbeat CPU 0 instructions: 390000002 cycles: 204750347 heartbeat IPC: 1.982 cumulative IPC: 1.769 (Simulation time: 03 hr 21 min 08 sec)
Heartbeat CPU 0 instructions: 400000000 cycles: 209833001 heartbeat IPC: 1.967 cumulative IPC: 1.774 (Simulation time: 03 hr 26 min 12 sec)
Heartbeat CPU 0 instructions: 410000000 cycles: 216233901 heartbeat IPC: 1.562 cumulative IPC: 1.767 (Simulation time: 03 hr 32 min 12 sec)
Heartbeat CPU 0 instructions: 420000001 cycles: 223913357 heartbeat IPC: 1.302 cumulative IPC: 1.75 (Simulation time: 03 hr 39 min 17 sec)
Heartbeat CPU 0 instructions: 430000000 cycles: 231117404 heartbeat IPC: 1.388 cumulative IPC: 1.738 (Simulation time: 03 hr 46 min 03 sec)
Heartbeat CPU 0 instructions: 440000002 cycles: 238263864 heartbeat IPC: 1.399 cumulative IPC: 1.727 (Simulation time: 03 hr 52 min 40 sec)
Heartbeat CPU 0 instructions: 450000000 cycles: 245036351 heartbeat IPC: 1.477 cumulative IPC: 1.72 (Simulation time: 03 hr 59 min 04 sec)
Heartbeat CPU 0 instructions: 460000002 cycles: 254853417 heartbeat IPC: 1.019 cumulative IPC: 1.692 (Simulation time: 04 hr 07 min 12 sec)
Heartbeat CPU 0 instructions: 470000000 cycles: 264574254 heartbeat IPC: 1.029 cumulative IPC: 1.666 (Simulation time: 04 hr 15 min 17 sec)
Heartbeat CPU 0 instructions: 480000000 cycles: 269968419 heartbeat IPC: 1.854 cumulative IPC: 1.67 (Simulation time: 04 hr 20 min 31 sec)
Heartbeat CPU 0 instructions: 490000001 cycles: 275506685 heartbeat IPC: 1.806 cumulative IPC: 1.673 (Simulation time: 04 hr 25 min 49 sec)
Heartbeat CPU 0 instructions: 500000002 cycles: 280802990 heartbeat IPC: 1.888 cumulative IPC: 1.677 (Simulation time: 04 hr 31 min 01 sec)
Heartbeat CPU 0 instructions: 510000000 cycles: 286049709 heartbeat IPC: 1.906 cumulative IPC: 1.682 (Simulation time: 04 hr 36 min 11 sec)
Heartbeat CPU 0 instructions: 520000000 cycles: 291211908 heartbeat IPC: 1.937 cumulative IPC: 1.686 (Simulation time: 04 hr 41 min 18 sec)
Heartbeat CPU 0 instructions: 530000001 cycles: 298834495 heartbeat IPC: 1.312 cumulative IPC: 1.676 (Simulation time: 04 hr 48 min 07 sec)
Heartbeat CPU 0 instructions: 540000000 cycles: 307015544 heartbeat IPC: 1.222 cumulative IPC: 1.664 (Simulation time: 04 hr 55 min 22 sec)
Heartbeat CPU 0 instructions: 550000002 cycles: 318380794 heartbeat IPC: 0.8799 cumulative IPC: 1.635 (Simulation time: 05 hr 04 min 32 sec)
Heartbeat CPU 0 instructions: 560000004 cycles: 323145742 heartbeat IPC: 2.099 cumulative IPC: 1.642 (Simulation time: 05 hr 09 min 26 sec)
Heartbeat CPU 0 instructions: 570000001 cycles: 327553830 heartbeat IPC: 2.269 cumulative IPC: 1.651 (Simulation time: 05 hr 14 min 25 sec)
Heartbeat CPU 0 instructions: 580000003 cycles: 331794521 heartbeat IPC: 2.358 cumulative IPC: 1.66 (Simulation time: 05 hr 19 min 21 sec)
Heartbeat CPU 0 instructions: 590000001 cycles: 336693930 heartbeat IPC: 2.041 cumulative IPC: 1.666 (Simulation time: 05 hr 24 min 28 sec)
Heartbeat CPU 0 instructions: 600000003 cycles: 341333241 heartbeat IPC: 2.155 cumulative IPC: 1.673 (Simulation time: 05 hr 29 min 26 sec)
Heartbeat CPU 0 instructions: 610000001 cycles: 346191306 heartbeat IPC: 2.058 cumulative IPC: 1.678 (Simulation time: 05 hr 34 min 37 sec)
Heartbeat CPU 0 instructions: 620000000 cycles: 351255899 heartbeat IPC: 1.974 cumulative IPC: 1.683 (Simulation time: 05 hr 39 min 50 sec)
Heartbeat CPU 0 instructions: 630000002 cycles: 355502210 heartbeat IPC: 2.355 cumulative IPC: 1.691 (Simulation time: 05 hr 44 min 50 sec)
Heartbeat CPU 0 instructions: 640000004 cycles: 360821058 heartbeat IPC: 1.88 cumulative IPC: 1.694 (Simulation time: 05 hr 50 min 11 sec)
Heartbeat CPU 0 instructions: 650000001 cycles: 365584864 heartbeat IPC: 2.099 cumulative IPC: 1.699 (Simulation time: 05 hr 55 min 11 sec)
Simulation finished CPU 0 instructions: 600000001 cycles: 353084803 cumulative IPC: 1.699 (Simulation time: 05 hr 55 min 11 sec)
Simulation complete CPU 0 instructions: 600000001 cycles: 353084803 cumulative IPC: 1.699 (Simulation time: 05 hr 55 min 11 sec)

ChampSim completed all CPUs

=== Simulation ===
CPU 0 runs traces/400.perlbench-50B.champsimtrace.xz
Region of Interest Statistics

CPU 0 cumulative IPC: 1.699 instructions: 600000001 cycles: 353084803
CPU 0 Branch Prediction Accuracy: 93.83% MPKI: 12.71 Average ROB Occupancy at Mispredict: 29.37
Branch type MPKI
BRANCH_DIRECT_JUMP: 0.0176
BRANCH_INDIRECT: 0.38
BRANCH_CONDITIONAL: 11.9
BRANCH_DIRECT_CALL: 0.0067
BRANCH_INDIRECT_CALL: 0.431
BRANCH_RETURN: 0.0161

LLC TOTAL        ACCESS:     851221 HIT:     632197 MISS:     219024
LLC LOAD         ACCESS:     587736 HIT:     417794 MISS:     169942
LLC RFO          ACCESS:      47585 HIT:      33084 MISS:      14501
LLC PREFETCH     ACCESS:      65613 HIT:      51237 MISS:      14376
LLC WRITE        ACCESS:     128256 HIT:     121008 MISS:       7248
LLC TRANSLATION  ACCESS:      22031 HIT:       9074 MISS:      12957
LLC PREFETCH REQUESTED:      65613 ISSUED:      65613 USEFUL:       7228 USELESS:       4129
LLC AVERAGE MISS LATENCY: 487.3 cycles
cpu0_DTLB TOTAL        ACCESS:  156775195 HIT:  155474527 MISS:    1300668
cpu0_DTLB LOAD         ACCESS:  156775195 HIT:  155474527 MISS:    1300668
cpu0_DTLB RFO          ACCESS:          0 HIT:          0 MISS:          0
cpu0_DTLB PREFETCH     ACCESS:          0 HIT:          0 MISS:          0
cpu0_DTLB WRITE        ACCESS:          0 HIT:          0 MISS:          0
cpu0_DTLB TRANSLATION  ACCESS:          0 HIT:          0 MISS:          0
cpu0_DTLB PREFETCH REQUESTED:          0 ISSUED:          0 USEFUL:          0 USELESS:          0
cpu0_DTLB AVERAGE MISS LATENCY: 11.89 cycles
cpu0_ITLB TOTAL        ACCESS:    8933944 HIT:    8735347 MISS:     198597
cpu0_ITLB LOAD         ACCESS:    8933944 HIT:    8735347 MISS:     198597
cpu0_ITLB RFO          ACCESS:          0 HIT:          0 MISS:          0
cpu0_ITLB PREFETCH     ACCESS:          0 HIT:          0 MISS:          0
cpu0_ITLB WRITE        ACCESS:          0 HIT:          0 MISS:          0
cpu0_ITLB TRANSLATION  ACCESS:          0 HIT:          0 MISS:          0
cpu0_ITLB PREFETCH REQUESTED:          0 ISSUED:          0 USEFUL:          0 USELESS:          0
cpu0_ITLB AVERAGE MISS LATENCY: 3.117 cycles
cpu0_L1D TOTAL        ACCESS:  203627745 HIT:  199974621 MISS:    3653124
cpu0_L1D LOAD         ACCESS:  117950773 HIT:  114946023 MISS:    3004750
cpu0_L1D RFO          ACCESS:          0 HIT:          0 MISS:          0
cpu0_L1D PREFETCH     ACCESS:          0 HIT:          0 MISS:          0
cpu0_L1D WRITE        ACCESS:   85648431 HIT:   85027200 MISS:     621231
cpu0_L1D TRANSLATION  ACCESS:      28541 HIT:       1398 MISS:      27143
cpu0_L1D PREFETCH REQUESTED:          0 ISSUED:          0 USEFUL:          0 USELESS:          0
cpu0_L1D AVERAGE MISS LATENCY: 33.35 cycles
cpu0_L1I TOTAL        ACCESS:   10372556 HIT:    8575108 MISS:    1797448
cpu0_L1I LOAD         ACCESS:   10372556 HIT:    8575108 MISS:    1797448
cpu0_L1I RFO          ACCESS:          0 HIT:          0 MISS:          0
cpu0_L1I PREFETCH     ACCESS:          0 HIT:          0 MISS:          0
cpu0_L1I WRITE        ACCESS:          0 HIT:          0 MISS:          0
cpu0_L1I TRANSLATION  ACCESS:          0 HIT:          0 MISS:          0
cpu0_L1I PREFETCH REQUESTED:          0 ISSUED:          0 USEFUL:          0 USELESS:          0
cpu0_L1I AVERAGE MISS LATENCY: 9.828 cycles
cpu0_L2C TOTAL        ACCESS:    3837164 HIT:    3176556 MISS:     660608
cpu0_L2C LOAD         ACCESS:    3106476 HIT:    2518740 MISS:     587736
cpu0_L2C RFO          ACCESS:     191762 HIT:     144177 MISS:      47585
cpu0_L2C PREFETCH     ACCESS:          0 HIT:          0 MISS:          0
cpu0_L2C WRITE        ACCESS:     511868 HIT:     508612 MISS:       3256
cpu0_L2C TRANSLATION  ACCESS:      27058 HIT:       5027 MISS:      22031
cpu0_L2C PREFETCH REQUESTED:          0 ISSUED:          0 USEFUL:          0 USELESS:          0
cpu0_L2C AVERAGE MISS LATENCY: 170.1 cycles
cpu0_STLB TOTAL        ACCESS:    1009285 HIT:     982595 MISS:      26690
cpu0_STLB LOAD         ACCESS:    1009285 HIT:     982595 MISS:      26690
cpu0_STLB RFO          ACCESS:          0 HIT:          0 MISS:          0
cpu0_STLB PREFETCH     ACCESS:          0 HIT:          0 MISS:          0
cpu0_STLB WRITE        ACCESS:          0 HIT:          0 MISS:          0
cpu0_STLB TRANSLATION  ACCESS:          0 HIT:          0 MISS:          0
cpu0_STLB PREFETCH REQUESTED:          0 ISSUED:          0 USEFUL:          0 USELESS:          0
cpu0_STLB AVERAGE MISS LATENCY: 357.6 cycles

DRAM Statistics

Channel 0 RQ ROW_BUFFER_HIT:      47333
  ROW_BUFFER_MISS:     161740
 AVG DBUS CONGESTED CYCLE: 3.76
WQ ROW_BUFFER_HIT: Channel 0 
  ROW_BUFFER_MISS:       7297
  FULL:      13390
