WARNING: physical memory size is smaller than virtual memory size.

*** ChampSim Multicore Out-of-Order Simulator ***
Warmup Instructions: 50000000
Simulation Instructions: 600000000
Number of CPUs: 1
Page size: 4096

CPU 0 Tage branch predictor
Off-chip DRAM Size: 4 GiB Channels: 1 Width: 64-bit Data Race: 3200 MT/s
Heartbeat CPU 0 instructions: 10000000 cycles: 2500061 heartbeat IPC: 4 cumulative IPC: 4 (Simulation time: 00 hr 00 min 52 sec)
Heartbeat CPU 0 instructions: 20000000 cycles: 5000061 heartbeat IPC: 4 cumulative IPC: 4 (Simulation time: 00 hr 01 min 57 sec)
Heartbeat CPU 0 instructions: 30000000 cycles: 7500061 heartbeat IPC: 4 cumulative IPC: 4 (Simulation time: 00 hr 03 min 06 sec)
Heartbeat CPU 0 instructions: 40000000 cycles: 10000061 heartbeat IPC: 4 cumulative IPC: 4 (Simulation time: 00 hr 04 min 16 sec)
Heartbeat CPU 0 instructions: 50000000 cycles: 12500061 heartbeat IPC: 4 cumulative IPC: 4 (Simulation time: 00 hr 05 min 31 sec)
Warmup finished CPU 0 instructions: 50000000 cycles: 12500062 cumulative IPC: 4 (Simulation time: 00 hr 05 min 31 sec)
Warmup complete CPU 0 instructions: 50000000 cycles: 12500062 cumulative IPC: 4 (Simulation time: 00 hr 05 min 31 sec)
Heartbeat CPU 0 instructions: 60000004 cycles: 15503575 heartbeat IPC: 3.329 cumulative IPC: 3.329 (Simulation time: 00 hr 06 min 58 sec)
Heartbeat CPU 0 instructions: 70000003 cycles: 18381992 heartbeat IPC: 3.474 cumulative IPC: 3.4 (Simulation time: 00 hr 08 min 24 sec)
Heartbeat CPU 0 instructions: 80000002 cycles: 21404034 heartbeat IPC: 3.309 cumulative IPC: 3.369 (Simulation time: 00 hr 09 min 47 sec)
Heartbeat CPU 0 instructions: 90000000 cycles: 24126115 heartbeat IPC: 3.674 cumulative IPC: 3.441 (Simulation time: 00 hr 11 min 10 sec)
Heartbeat CPU 0 instructions: 100000003 cycles: 26892056 heartbeat IPC: 3.615 cumulative IPC: 3.474 (Simulation time: 00 hr 12 min 31 sec)
Heartbeat CPU 0 instructions: 110000001 cycles: 29797837 heartbeat IPC: 3.441 cumulative IPC: 3.469 (Simulation time: 00 hr 13 min 54 sec)
Heartbeat CPU 0 instructions: 120000001 cycles: 32521809 heartbeat IPC: 3.671 cumulative IPC: 3.496 (Simulation time: 00 hr 15 min 32 sec)
Heartbeat CPU 0 instructions: 130000003 cycles: 35424102 heartbeat IPC: 3.446 cumulative IPC: 3.49 (Simulation time: 00 hr 17 min 16 sec)
Heartbeat CPU 0 instructions: 140000002 cycles: 38262157 heartbeat IPC: 3.524 cumulative IPC: 3.494 (Simulation time: 00 hr 18 min 58 sec)
Heartbeat CPU 0 instructions: 150000001 cycles: 41035668 heartbeat IPC: 3.606 cumulative IPC: 3.504 (Simulation time: 00 hr 20 min 46 sec)
Heartbeat CPU 0 instructions: 160000000 cycles: 43951271 heartbeat IPC: 3.43 cumulative IPC: 3.497 (Simulation time: 00 hr 22 min 34 sec)
Heartbeat CPU 0 instructions: 170000001 cycles: 46882275 heartbeat IPC: 3.412 cumulative IPC: 3.49 (Simulation time: 00 hr 24 min 25 sec)
Heartbeat CPU 0 instructions: 180000000 cycles: 49679951 heartbeat IPC: 3.574 cumulative IPC: 3.497 (Simulation time: 00 hr 25 min 58 sec)
Heartbeat CPU 0 instructions: 190000002 cycles: 52388189 heartbeat IPC: 3.692 cumulative IPC: 3.51 (Simulation time: 00 hr 26 min 50 sec)
Heartbeat CPU 0 instructions: 200000002 cycles: 55217859 heartbeat IPC: 3.534 cumulative IPC: 3.511 (Simulation time: 00 hr 27 min 42 sec)
Heartbeat CPU 0 instructions: 210000000 cycles: 58117532 heartbeat IPC: 3.449 cumulative IPC: 3.507 (Simulation time: 00 hr 28 min 32 sec)
Heartbeat CPU 0 instructions: 220000001 cycles: 60883362 heartbeat IPC: 3.616 cumulative IPC: 3.514 (Simulation time: 00 hr 29 min 23 sec)
Heartbeat CPU 0 instructions: 230000002 cycles: 63777383 heartbeat IPC: 3.455 cumulative IPC: 3.51 (Simulation time: 00 hr 30 min 14 sec)
Heartbeat CPU 0 instructions: 240000004 cycles: 66739056 heartbeat IPC: 3.376 cumulative IPC: 3.503 (Simulation time: 00 hr 31 min 06 sec)
Heartbeat CPU 0 instructions: 250000003 cycles: 69653503 heartbeat IPC: 3.431 cumulative IPC: 3.499 (Simulation time: 00 hr 31 min 59 sec)
Heartbeat CPU 0 instructions: 260000001 cycles: 72449500 heartbeat IPC: 3.577 cumulative IPC: 3.503 (Simulation time: 00 hr 32 min 52 sec)
Heartbeat CPU 0 instructions: 270000002 cycles: 77978059 heartbeat IPC: 1.809 cumulative IPC: 3.36 (Simulation time: 00 hr 34 min 07 sec)
Heartbeat CPU 0 instructions: 280000000 cycles: 86852828 heartbeat IPC: 1.127 cumulative IPC: 3.093 (Simulation time: 00 hr 35 min 47 sec)
Heartbeat CPU 0 instructions: 290000000 cycles: 94292668 heartbeat IPC: 1.344 cumulative IPC: 2.934 (Simulation time: 00 hr 37 min 13 sec)
Heartbeat CPU 0 instructions: 300000003 cycles: 99555110 heartbeat IPC: 1.9 cumulative IPC: 2.872 (Simulation time: 00 hr 38 min 25 sec)
Heartbeat CPU 0 instructions: 310000001 cycles: 108420464 heartbeat IPC: 1.128 cumulative IPC: 2.711 (Simulation time: 00 hr 40 min 04 sec)
Heartbeat CPU 0 instructions: 320000004 cycles: 112326370 heartbeat IPC: 2.56 cumulative IPC: 2.705 (Simulation time: 00 hr 41 min 04 sec)
Heartbeat CPU 0 instructions: 330000000 cycles: 115521159 heartbeat IPC: 3.13 cumulative IPC: 2.718 (Simulation time: 00 hr 41 min 57 sec)
Heartbeat CPU 0 instructions: 340000001 cycles: 118754485 heartbeat IPC: 3.093 cumulative IPC: 2.729 (Simulation time: 00 hr 42 min 53 sec)
Heartbeat CPU 0 instructions: 350000000 cycles: 122161655 heartbeat IPC: 2.935 cumulative IPC: 2.736 (Simulation time: 00 hr 43 min 54 sec)
Heartbeat CPU 0 instructions: 360000004 cycles: 125373564 heartbeat IPC: 3.113 cumulative IPC: 2.746 (Simulation time: 00 hr 44 min 50 sec)
Heartbeat CPU 0 instructions: 370000001 cycles: 128502463 heartbeat IPC: 3.196 cumulative IPC: 2.759 (Simulation time: 00 hr 45 min 44 sec)
Heartbeat CPU 0 instructions: 380000004 cycles: 131654311 heartbeat IPC: 3.173 cumulative IPC: 2.77 (Simulation time: 00 hr 46 min 41 sec)
Heartbeat CPU 0 instructions: 390000002 cycles: 134979134 heartbeat IPC: 3.008 cumulative IPC: 2.776 (Simulation time: 00 hr 47 min 39 sec)
Heartbeat CPU 0 instructions: 400000000 cycles: 138360096 heartbeat IPC: 2.958 cumulative IPC: 2.781 (Simulation time: 00 hr 48 min 35 sec)
Heartbeat CPU 0 instructions: 410000000 cycles: 144862918 heartbeat IPC: 1.538 cumulative IPC: 2.72 (Simulation time: 00 hr 49 min 50 sec)
Heartbeat CPU 0 instructions: 420000003 cycles: 153863813 heartbeat IPC: 1.111 cumulative IPC: 2.617 (Simulation time: 00 hr 51 min 31 sec)
Heartbeat CPU 0 instructions: 430000004 cycles: 159948109 heartbeat IPC: 1.644 cumulative IPC: 2.577 (Simulation time: 00 hr 52 min 51 sec)
Heartbeat CPU 0 instructions: 440000004 cycles: 165436893 heartbeat IPC: 1.822 cumulative IPC: 2.55 (Simulation time: 00 hr 54 min 07 sec)
Heartbeat CPU 0 instructions: 450000000 cycles: 170637560 heartbeat IPC: 1.923 cumulative IPC: 2.529 (Simulation time: 00 hr 55 min 21 sec)
Heartbeat CPU 0 instructions: 460000002 cycles: 179645889 heartbeat IPC: 1.11 cumulative IPC: 2.453 (Simulation time: 00 hr 56 min 58 sec)
Heartbeat CPU 0 instructions: 470000003 cycles: 187663815 heartbeat IPC: 1.247 cumulative IPC: 2.398 (Simulation time: 00 hr 58 min 32 sec)
Heartbeat CPU 0 instructions: 480000000 cycles: 191194951 heartbeat IPC: 2.832 cumulative IPC: 2.406 (Simulation time: 00 hr 59 min 30 sec)
Heartbeat CPU 0 instructions: 490000001 cycles: 194933628 heartbeat IPC: 2.675 cumulative IPC: 2.412 (Simulation time: 01 hr 00 min 29 sec)
Heartbeat CPU 0 instructions: 500000002 cycles: 198521775 heartbeat IPC: 2.787 cumulative IPC: 2.419 (Simulation time: 01 hr 01 min 31 sec)
Heartbeat CPU 0 instructions: 510000000 cycles: 202079648 heartbeat IPC: 2.811 cumulative IPC: 2.426 (Simulation time: 01 hr 02 min 35 sec)
Heartbeat CPU 0 instructions: 520000000 cycles: 205665247 heartbeat IPC: 2.789 cumulative IPC: 2.433 (Simulation time: 01 hr 03 min 33 sec)
Heartbeat CPU 0 instructions: 530000001 cycles: 215605757 heartbeat IPC: 1.006 cumulative IPC: 2.363 (Simulation time: 01 hr 05 min 12 sec)
Heartbeat CPU 0 instructions: 540000000 cycles: 225017979 heartbeat IPC: 1.062 cumulative IPC: 2.306 (Simulation time: 01 hr 06 min 51 sec)
Heartbeat CPU 0 instructions: 550000004 cycles: 236181019 heartbeat IPC: 0.8958 cumulative IPC: 2.235 (Simulation time: 01 hr 08 min 39 sec)
Heartbeat CPU 0 instructions: 560000004 cycles: 239788073 heartbeat IPC: 2.772 cumulative IPC: 2.244 (Simulation time: 01 hr 09 min 34 sec)
Heartbeat CPU 0 instructions: 570000002 cycles: 242623248 heartbeat IPC: 3.527 cumulative IPC: 2.26 (Simulation time: 01 hr 10 min 26 sec)
Heartbeat CPU 0 instructions: 580000000 cycles: 245570548 heartbeat IPC: 3.393 cumulative IPC: 2.274 (Simulation time: 01 hr 11 min 19 sec)
Heartbeat CPU 0 instructions: 590000001 cycles: 248519365 heartbeat IPC: 3.391 cumulative IPC: 2.288 (Simulation time: 01 hr 12 min 14 sec)
Heartbeat CPU 0 instructions: 600000003 cycles: 251224867 heartbeat IPC: 3.696 cumulative IPC: 2.304 (Simulation time: 01 hr 13 min 05 sec)
Heartbeat CPU 0 instructions: 610000001 cycles: 254108220 heartbeat IPC: 3.468 cumulative IPC: 2.318 (Simulation time: 01 hr 13 min 53 sec)
Heartbeat CPU 0 instructions: 620000004 cycles: 257072498 heartbeat IPC: 3.374 cumulative IPC: 2.331 (Simulation time: 01 hr 14 min 43 sec)
Heartbeat CPU 0 instructions: 630000002 cycles: 259891370 heartbeat IPC: 3.548 cumulative IPC: 2.344 (Simulation time: 01 hr 15 min 26 sec)
Heartbeat CPU 0 instructions: 640000004 cycles: 262946031 heartbeat IPC: 3.274 cumulative IPC: 2.356 (Simulation time: 01 hr 16 min 06 sec)
Heartbeat CPU 0 instructions: 650000001 cycles: 265657630 heartbeat IPC: 3.688 cumulative IPC: 2.37 (Simulation time: 01 hr 16 min 38 sec)
Simulation finished CPU 0 instructions: 600000001 cycles: 253157569 cumulative IPC: 2.37 (Simulation time: 01 hr 16 min 38 sec)
Simulation complete CPU 0 instructions: 600000001 cycles: 253157569 cumulative IPC: 2.37 (Simulation time: 01 hr 16 min 38 sec)

ChampSim completed all CPUs

=== Simulation ===
CPU 0 runs traces/400.perlbench-50B.champsimtrace.xz
Region of Interest Statistics

CPU 0 cumulative IPC: 2.37 instructions: 600000001 cycles: 253157569
CPU 0 Branch Prediction Accuracy: 99.01% MPKI: 2.04 Average ROB Occupancy at Mispredict: 94.63
Branch type MPKI
BRANCH_DIRECT_JUMP: 0.0176
BRANCH_INDIRECT: 0.38
BRANCH_CONDITIONAL: 1.19
BRANCH_DIRECT_CALL: 0.0067
BRANCH_INDIRECT_CALL: 0.431
BRANCH_RETURN: 0.0161

LLC TOTAL        ACCESS:    1367087 HIT:     805606 MISS:     561481
LLC LOAD         ACCESS:     583963 HIT:     329906 MISS:     254057
LLC RFO          ACCESS:      47155 HIT:      26220 MISS:      20935
LLC PREFETCH     ACCESS:     583963 HIT:     324022 MISS:     259941
LLC WRITE        ACCESS:     129953 HIT:     116250 MISS:      13703
LLC TRANSLATION  ACCESS:      22053 HIT:       9208 MISS:      12845
LLC PREFETCH REQUESTED:     583963 ISSUED:     583963 USEFUL:      77051 USELESS:      61029
LLC AVERAGE MISS LATENCY: 609.3 cycles
cpu0_DTLB TOTAL        ACCESS:  133218200 HIT:  131865004 MISS:    1353196
cpu0_DTLB LOAD         ACCESS:  133218200 HIT:  131865004 MISS:    1353196
cpu0_DTLB RFO          ACCESS:          0 HIT:          0 MISS:          0
cpu0_DTLB PREFETCH     ACCESS:          0 HIT:          0 MISS:          0
cpu0_DTLB WRITE        ACCESS:          0 HIT:          0 MISS:          0
cpu0_DTLB TRANSLATION  ACCESS:          0 HIT:          0 MISS:          0
cpu0_DTLB PREFETCH REQUESTED:          0 ISSUED:          0 USEFUL:          0 USELESS:          0
cpu0_DTLB AVERAGE MISS LATENCY: 13.09 cycles
cpu0_ITLB TOTAL        ACCESS:    8995924 HIT:    8786383 MISS:     209541
cpu0_ITLB LOAD         ACCESS:    8995924 HIT:    8786383 MISS:     209541
cpu0_ITLB RFO          ACCESS:          0 HIT:          0 MISS:          0
cpu0_ITLB PREFETCH     ACCESS:          0 HIT:          0 MISS:          0
cpu0_ITLB WRITE        ACCESS:          0 HIT:          0 MISS:          0
cpu0_ITLB TRANSLATION  ACCESS:          0 HIT:          0 MISS:          0
cpu0_ITLB PREFETCH REQUESTED:          0 ISSUED:          0 USEFUL:          0 USELESS:          0
cpu0_ITLB AVERAGE MISS LATENCY: 3.18 cycles
cpu0_L1D TOTAL        ACCESS:  178267309 HIT:  175268959 MISS:    2998350
cpu0_L1D LOAD         ACCESS:   92749050 HIT:   90285582 MISS:    2463468
cpu0_L1D RFO          ACCESS:          0 HIT:          0 MISS:          0
cpu0_L1D PREFETCH     ACCESS:          0 HIT:          0 MISS:          0
cpu0_L1D WRITE        ACCESS:   85489731 HIT:   84981365 MISS:     508366
cpu0_L1D TRANSLATION  ACCESS:      28528 HIT:       2012 MISS:      26516
cpu0_L1D PREFETCH REQUESTED:          0 ISSUED:          0 USEFUL:          0 USELESS:          0
cpu0_L1D AVERAGE MISS LATENCY: 68.04 cycles
cpu0_L1I TOTAL        ACCESS:   10515052 HIT:    8618313 MISS:    1896739
cpu0_L1I LOAD         ACCESS:   10515052 HIT:    8618313 MISS:    1896739
cpu0_L1I RFO          ACCESS:          0 HIT:          0 MISS:          0
cpu0_L1I PREFETCH     ACCESS:          0 HIT:          0 MISS:          0
cpu0_L1I WRITE        ACCESS:          0 HIT:          0 MISS:          0
cpu0_L1I TRANSLATION  ACCESS:          0 HIT:          0 MISS:          0
cpu0_L1I PREFETCH REQUESTED:          0 ISSUED:          0 USEFUL:          0 USELESS:          0
cpu0_L1I AVERAGE MISS LATENCY: 10.8 cycles
cpu0_L2C TOTAL        ACCESS:    3235931 HIT:    2576321 MISS:     659610
cpu0_L2C LOAD         ACCESS:    2709040 HIT:    2125075 MISS:     583965
cpu0_L2C RFO          ACCESS:     135606 HIT:      88451 MISS:      47155
cpu0_L2C PREFETCH     ACCESS:          0 HIT:          0 MISS:          0
cpu0_L2C WRITE        ACCESS:     364846 HIT:     358409 MISS:       6437
cpu0_L2C TRANSLATION  ACCESS:      26439 HIT:       4386 MISS:      22053
cpu0_L2C PREFETCH REQUESTED:          0 ISSUED:          0 USEFUL:          0 USELESS:          0
cpu0_L2C AVERAGE MISS LATENCY: 320.3 cycles
cpu0_STLB TOTAL        ACCESS:    1009920 HIT:     983230 MISS:      26690
cpu0_STLB LOAD         ACCESS:    1009920 HIT:     983230 MISS:      26690
cpu0_STLB RFO          ACCESS:          0 HIT:          0 MISS:          0
cpu0_STLB PREFETCH     ACCESS:          0 HIT:          0 MISS:          0
cpu0_STLB WRITE        ACCESS:          0 HIT:          0 MISS:          0
cpu0_STLB TRANSLATION  ACCESS:          0 HIT:          0 MISS:          0
cpu0_STLB PREFETCH REQUESTED:          0 ISSUED:          0 USEFUL:          0 USELESS:          0
cpu0_STLB AVERAGE MISS LATENCY: 466.4 cycles

DRAM Statistics

Channel 0 RQ ROW_BUFFER_HIT:     105601
  ROW_BUFFER_MISS:     353004
 AVG DBUS CONGESTED CYCLE: 3.889
WQ ROW_BUFFER_HIT: Channel 0 
  ROW_BUFFER_MISS:       5629
  FULL:      45746
