WARNING: physical memory size is smaller than virtual memory size.

*** ChampSim Multicore Out-of-Order Simulator ***
Warmup Instructions: 50000000
Simulation Instructions: 600000000
Number of CPUs: 1
Page size: 4096

Off-chip DRAM Size: 4 GiB Channels: 1 Width: 64-bit Data Race: 3200 MT/s
Heartbeat CPU 0 instructions: 10000001 cycles: 2500318 heartbeat IPC: 3.999 cumulative IPC: 3.999 (Simulation time: 00 hr 00 min 57 sec)
Heartbeat CPU 0 instructions: 20000002 cycles: 5037135 heartbeat IPC: 3.942 cumulative IPC: 3.971 (Simulation time: 00 hr 01 min 53 sec)
Heartbeat CPU 0 instructions: 30000002 cycles: 7537135 heartbeat IPC: 4 cumulative IPC: 3.98 (Simulation time: 00 hr 02 min 41 sec)
Heartbeat CPU 0 instructions: 40000002 cycles: 10037135 heartbeat IPC: 4 cumulative IPC: 3.985 (Simulation time: 00 hr 03 min 36 sec)
Heartbeat CPU 0 instructions: 50000002 cycles: 12537135 heartbeat IPC: 4 cumulative IPC: 3.988 (Simulation time: 00 hr 04 min 38 sec)
Warmup finished CPU 0 instructions: 50000002 cycles: 12537136 cumulative IPC: 3.988 (Simulation time: 00 hr 04 min 38 sec)
Warmup complete CPU 0 instructions: 50000002 cycles: 12537136 cumulative IPC: 3.988 (Simulation time: 00 hr 04 min 38 sec)
Heartbeat CPU 0 instructions: 60000000 cycles: 17151834 heartbeat IPC: 2.167 cumulative IPC: 2.167 (Simulation time: 00 hr 06 min 16 sec)
Heartbeat CPU 0 instructions: 70000004 cycles: 21428245 heartbeat IPC: 2.338 cumulative IPC: 2.249 (Simulation time: 00 hr 07 min 42 sec)
Heartbeat CPU 0 instructions: 80000001 cycles: 26022824 heartbeat IPC: 2.176 cumulative IPC: 2.225 (Simulation time: 00 hr 09 min 06 sec)
Heartbeat CPU 0 instructions: 90000001 cycles: 30150777 heartbeat IPC: 2.423 cumulative IPC: 2.271 (Simulation time: 00 hr 10 min 19 sec)
Heartbeat CPU 0 instructions: 100000000 cycles: 34205417 heartbeat IPC: 2.466 cumulative IPC: 2.308 (Simulation time: 00 hr 11 min 27 sec)
Heartbeat CPU 0 instructions: 110000000 cycles: 38445817 heartbeat IPC: 2.358 cumulative IPC: 2.316 (Simulation time: 00 hr 12 min 41 sec)
Heartbeat CPU 0 instructions: 120000001 cycles: 42451750 heartbeat IPC: 2.496 cumulative IPC: 2.34 (Simulation time: 00 hr 13 min 55 sec)
Heartbeat CPU 0 instructions: 130000001 cycles: 46182659 heartbeat IPC: 2.68 cumulative IPC: 2.378 (Simulation time: 00 hr 15 min 19 sec)
Heartbeat CPU 0 instructions: 140000001 cycles: 50344248 heartbeat IPC: 2.403 cumulative IPC: 2.381 (Simulation time: 00 hr 16 min 42 sec)
Heartbeat CPU 0 instructions: 150000001 cycles: 54544106 heartbeat IPC: 2.381 cumulative IPC: 2.381 (Simulation time: 00 hr 18 min 03 sec)
Heartbeat CPU 0 instructions: 160000004 cycles: 58955086 heartbeat IPC: 2.267 cumulative IPC: 2.37 (Simulation time: 00 hr 19 min 19 sec)
Heartbeat CPU 0 instructions: 170000000 cycles: 69259929 heartbeat IPC: 0.9704 cumulative IPC: 2.116 (Simulation time: 00 hr 21 min 25 sec)
Heartbeat CPU 0 instructions: 180000004 cycles: 80132974 heartbeat IPC: 0.9197 cumulative IPC: 1.923 (Simulation time: 00 hr 23 min 27 sec)
Heartbeat CPU 0 instructions: 190000001 cycles: 90397813 heartbeat IPC: 0.9742 cumulative IPC: 1.798 (Simulation time: 00 hr 25 min 45 sec)
Heartbeat CPU 0 instructions: 200000004 cycles: 94177345 heartbeat IPC: 2.646 cumulative IPC: 1.837 (Simulation time: 00 hr 27 min 11 sec)
Heartbeat CPU 0 instructions: 210000001 cycles: 98100263 heartbeat IPC: 2.549 cumulative IPC: 1.87 (Simulation time: 00 hr 28 min 32 sec)
Heartbeat CPU 0 instructions: 220000000 cycles: 102063248 heartbeat IPC: 2.523 cumulative IPC: 1.899 (Simulation time: 00 hr 29 min 46 sec)
Heartbeat CPU 0 instructions: 230000002 cycles: 106749437 heartbeat IPC: 2.134 cumulative IPC: 1.911 (Simulation time: 00 hr 31 min 00 sec)
Heartbeat CPU 0 instructions: 240000000 cycles: 110946990 heartbeat IPC: 2.382 cumulative IPC: 1.931 (Simulation time: 00 hr 32 min 09 sec)
Heartbeat CPU 0 instructions: 250000000 cycles: 115270600 heartbeat IPC: 2.313 cumulative IPC: 1.947 (Simulation time: 00 hr 33 min 16 sec)
Heartbeat CPU 0 instructions: 260000000 cycles: 119461918 heartbeat IPC: 2.386 cumulative IPC: 1.964 (Simulation time: 00 hr 34 min 22 sec)
Heartbeat CPU 0 instructions: 270000002 cycles: 123319836 heartbeat IPC: 2.592 cumulative IPC: 1.986 (Simulation time: 00 hr 35 min 39 sec)
Heartbeat CPU 0 instructions: 280000002 cycles: 127499505 heartbeat IPC: 2.393 cumulative IPC: 2.001 (Simulation time: 00 hr 37 min 01 sec)
Heartbeat CPU 0 instructions: 290000001 cycles: 131397513 heartbeat IPC: 2.565 cumulative IPC: 2.019 (Simulation time: 00 hr 38 min 24 sec)
Heartbeat CPU 0 instructions: 300000003 cycles: 135233532 heartbeat IPC: 2.607 cumulative IPC: 2.038 (Simulation time: 00 hr 39 min 39 sec)
Heartbeat CPU 0 instructions: 310000001 cycles: 139368792 heartbeat IPC: 2.418 cumulative IPC: 2.05 (Simulation time: 00 hr 40 min 53 sec)
Heartbeat CPU 0 instructions: 320000003 cycles: 143455415 heartbeat IPC: 2.447 cumulative IPC: 2.062 (Simulation time: 00 hr 42 min 11 sec)
Heartbeat CPU 0 instructions: 330000003 cycles: 147867565 heartbeat IPC: 2.266 cumulative IPC: 2.069 (Simulation time: 00 hr 43 min 29 sec)
Heartbeat CPU 0 instructions: 340000000 cycles: 158526117 heartbeat IPC: 0.9382 cumulative IPC: 1.986 (Simulation time: 00 hr 45 min 38 sec)
Heartbeat CPU 0 instructions: 350000000 cycles: 169781415 heartbeat IPC: 0.8885 cumulative IPC: 1.908 (Simulation time: 00 hr 47 min 51 sec)
Heartbeat CPU 0 instructions: 360000004 cycles: 180041625 heartbeat IPC: 0.9746 cumulative IPC: 1.851 (Simulation time: 00 hr 50 min 26 sec)
Heartbeat CPU 0 instructions: 370000000 cycles: 183488144 heartbeat IPC: 2.901 cumulative IPC: 1.872 (Simulation time: 00 hr 51 min 41 sec)
Heartbeat CPU 0 instructions: 380000001 cycles: 186911758 heartbeat IPC: 2.921 cumulative IPC: 1.892 (Simulation time: 00 hr 52 min 51 sec)
Heartbeat CPU 0 instructions: 390000004 cycles: 190659646 heartbeat IPC: 2.668 cumulative IPC: 1.909 (Simulation time: 00 hr 54 min 01 sec)
Heartbeat CPU 0 instructions: 400000004 cycles: 194473145 heartbeat IPC: 2.622 cumulative IPC: 1.924 (Simulation time: 00 hr 55 min 11 sec)
Heartbeat CPU 0 instructions: 410000001 cycles: 198129871 heartbeat IPC: 2.735 cumulative IPC: 1.94 (Simulation time: 00 hr 56 min 20 sec)
Heartbeat CPU 0 instructions: 420000003 cycles: 202178048 heartbeat IPC: 2.47 cumulative IPC: 1.951 (Simulation time: 00 hr 57 min 29 sec)
Heartbeat CPU 0 instructions: 430000001 cycles: 205840285 heartbeat IPC: 2.731 cumulative IPC: 1.966 (Simulation time: 00 hr 58 min 35 sec)
Heartbeat CPU 0 instructions: 440000004 cycles: 209931416 heartbeat IPC: 2.444 cumulative IPC: 1.976 (Simulation time: 00 hr 59 min 41 sec)
Heartbeat CPU 0 instructions: 450000002 cycles: 213668541 heartbeat IPC: 2.676 cumulative IPC: 1.989 (Simulation time: 01 hr 00 min 46 sec)
Heartbeat CPU 0 instructions: 460000000 cycles: 217341630 heartbeat IPC: 2.723 cumulative IPC: 2.002 (Simulation time: 01 hr 02 min 05 sec)
Heartbeat CPU 0 instructions: 470000000 cycles: 220808725 heartbeat IPC: 2.884 cumulative IPC: 2.017 (Simulation time: 01 hr 03 min 29 sec)
Heartbeat CPU 0 instructions: 480000003 cycles: 224631762 heartbeat IPC: 2.616 cumulative IPC: 2.027 (Simulation time: 01 hr 04 min 51 sec)
Heartbeat CPU 0 instructions: 490000000 cycles: 228260965 heartbeat IPC: 2.755 cumulative IPC: 2.04 (Simulation time: 01 hr 05 min 59 sec)
Heartbeat CPU 0 instructions: 500000000 cycles: 231955727 heartbeat IPC: 2.707 cumulative IPC: 2.051 (Simulation time: 01 hr 07 min 07 sec)
Heartbeat CPU 0 instructions: 510000003 cycles: 235597745 heartbeat IPC: 2.746 cumulative IPC: 2.062 (Simulation time: 01 hr 08 min 20 sec)
Heartbeat CPU 0 instructions: 520000001 cycles: 239014783 heartbeat IPC: 2.927 cumulative IPC: 2.075 (Simulation time: 01 hr 09 min 32 sec)
Heartbeat CPU 0 instructions: 530000002 cycles: 242690965 heartbeat IPC: 2.72 cumulative IPC: 2.086 (Simulation time: 01 hr 10 min 41 sec)
Heartbeat CPU 0 instructions: 540000000 cycles: 246222304 heartbeat IPC: 2.832 cumulative IPC: 2.097 (Simulation time: 01 hr 11 min 45 sec)
Heartbeat CPU 0 instructions: 550000001 cycles: 249920217 heartbeat IPC: 2.704 cumulative IPC: 2.106 (Simulation time: 01 hr 12 min 46 sec)
Heartbeat CPU 0 instructions: 560000000 cycles: 253890508 heartbeat IPC: 2.519 cumulative IPC: 2.113 (Simulation time: 01 hr 13 min 49 sec)
Heartbeat CPU 0 instructions: 570000004 cycles: 260663165 heartbeat IPC: 1.477 cumulative IPC: 2.096 (Simulation time: 01 hr 15 min 29 sec)
Heartbeat CPU 0 instructions: 580000003 cycles: 272519416 heartbeat IPC: 0.8434 cumulative IPC: 2.039 (Simulation time: 01 hr 18 min 14 sec)
Heartbeat CPU 0 instructions: 590000002 cycles: 285783598 heartbeat IPC: 0.7539 cumulative IPC: 1.976 (Simulation time: 01 hr 21 min 02 sec)
Heartbeat CPU 0 instructions: 600000000 cycles: 289540571 heartbeat IPC: 2.662 cumulative IPC: 1.986 (Simulation time: 01 hr 22 min 16 sec)
Heartbeat CPU 0 instructions: 610000000 cycles: 293403917 heartbeat IPC: 2.588 cumulative IPC: 1.994 (Simulation time: 01 hr 23 min 25 sec)
Heartbeat CPU 0 instructions: 620000001 cycles: 296840211 heartbeat IPC: 2.91 cumulative IPC: 2.005 (Simulation time: 01 hr 24 min 28 sec)
Heartbeat CPU 0 instructions: 630000002 cycles: 301122642 heartbeat IPC: 2.335 cumulative IPC: 2.01 (Simulation time: 01 hr 25 min 35 sec)
Heartbeat CPU 0 instructions: 640000001 cycles: 305020451 heartbeat IPC: 2.566 cumulative IPC: 2.017 (Simulation time: 01 hr 26 min 39 sec)
Heartbeat CPU 0 instructions: 650000000 cycles: 308775057 heartbeat IPC: 2.663 cumulative IPC: 2.025 (Simulation time: 01 hr 27 min 48 sec)
Simulation finished CPU 0 instructions: 600000001 cycles: 296237923 cumulative IPC: 2.025 (Simulation time: 01 hr 27 min 48 sec)
Simulation complete CPU 0 instructions: 600000001 cycles: 296237923 cumulative IPC: 2.025 (Simulation time: 01 hr 27 min 48 sec)

ChampSim completed all CPUs

=== Simulation ===
CPU 0 runs traces/400.perlbench-41B.champsimtrace.xz
Region of Interest Statistics

CPU 0 cumulative IPC: 2.025 instructions: 600000001 cycles: 296237923
CPU 0 Branch Prediction Accuracy: 96.56% MPKI: 7.112 Average ROB Occupancy at Mispredict: 47.37
Branch type MPKI
BRANCH_DIRECT_JUMP: 0.0123
BRANCH_INDIRECT: 0.323
BRANCH_CONDITIONAL: 6.56
BRANCH_DIRECT_CALL: 0.0043
BRANCH_INDIRECT_CALL: 0.2
BRANCH_RETURN: 0.00828

LLC TOTAL        ACCESS:     592630 HIT:     305504 MISS:     287126
LLC LOAD         ACCESS:     401949 HIT:     170591 MISS:     231358
LLC RFO          ACCESS:      32408 HIT:      15775 MISS:      16633
LLC PREFETCH     ACCESS:      53571 HIT:      25056 MISS:      28515
LLC WRITE        ACCESS:      85753 HIT:      85363 MISS:        390
LLC TRANSLATION  ACCESS:      18949 HIT:       8719 MISS:      10230
LLC PREFETCH REQUESTED:      53571 ISSUED:      53571 USEFUL:      17830 USELESS:       6964
LLC AVERAGE MISS LATENCY: 583.3 cycles
cpu0_DTLB TOTAL        ACCESS:  141903742 HIT:  141217621 MISS:     686121
cpu0_DTLB LOAD         ACCESS:  141903742 HIT:  141217621 MISS:     686121
cpu0_DTLB RFO          ACCESS:          0 HIT:          0 MISS:          0
cpu0_DTLB PREFETCH     ACCESS:          0 HIT:          0 MISS:          0
cpu0_DTLB WRITE        ACCESS:          0 HIT:          0 MISS:          0
cpu0_DTLB TRANSLATION  ACCESS:          0 HIT:          0 MISS:          0
cpu0_DTLB PREFETCH REQUESTED:          0 ISSUED:          0 USEFUL:          0 USELESS:          0
cpu0_DTLB AVERAGE MISS LATENCY: 15.41 cycles
cpu0_ITLB TOTAL        ACCESS:    4860136 HIT:    4806999 MISS:      53137
cpu0_ITLB LOAD         ACCESS:    4860136 HIT:    4806999 MISS:      53137
cpu0_ITLB RFO          ACCESS:          0 HIT:          0 MISS:          0
cpu0_ITLB PREFETCH     ACCESS:          0 HIT:          0 MISS:          0
cpu0_ITLB WRITE        ACCESS:          0 HIT:          0 MISS:          0
cpu0_ITLB TRANSLATION  ACCESS:          0 HIT:          0 MISS:          0
cpu0_ITLB PREFETCH REQUESTED:          0 ISSUED:          0 USEFUL:          0 USELESS:          0
cpu0_ITLB AVERAGE MISS LATENCY: 8.313 cycles
cpu0_L1D TOTAL        ACCESS:  188567452 HIT:  187207700 MISS:    1359752
cpu0_L1D LOAD         ACCESS:  105199532 HIT:  104153660 MISS:    1045872
cpu0_L1D RFO          ACCESS:          0 HIT:          0 MISS:          0
cpu0_L1D PREFETCH     ACCESS:          0 HIT:          0 MISS:          0
cpu0_L1D WRITE        ACCESS:   83343460 HIT:   83052438 MISS:     291022
cpu0_L1D TRANSLATION  ACCESS:      24460 HIT:       1602 MISS:      22858
cpu0_L1D PREFETCH REQUESTED:          0 ISSUED:          0 USEFUL:          0 USELESS:          0
cpu0_L1D AVERAGE MISS LATENCY: 113.6 cycles
cpu0_L1I TOTAL        ACCESS:    5597533 HIT:    4853864 MISS:     743669
cpu0_L1I LOAD         ACCESS:    5597533 HIT:    4853864 MISS:     743669
cpu0_L1I RFO          ACCESS:          0 HIT:          0 MISS:          0
cpu0_L1I PREFETCH     ACCESS:          0 HIT:          0 MISS:          0
cpu0_L1I WRITE        ACCESS:          0 HIT:          0 MISS:          0
cpu0_L1I TRANSLATION  ACCESS:          0 HIT:          0 MISS:          0
cpu0_L1I PREFETCH REQUESTED:          0 ISSUED:          0 USEFUL:          0 USELESS:          0
cpu0_L1I AVERAGE MISS LATENCY: 14.71 cycles
cpu0_L2C TOTAL        ACCESS:    1380725 HIT:     923809 MISS:     456916
cpu0_L2C LOAD         ACCESS:    1124719 HIT:     722770 MISS:     401949
cpu0_L2C RFO          ACCESS:      63796 HIT:      31388 MISS:      32408
cpu0_L2C PREFETCH     ACCESS:          0 HIT:          0 MISS:          0
cpu0_L2C WRITE        ACCESS:     169419 HIT:     165809 MISS:       3610
cpu0_L2C TRANSLATION  ACCESS:      22791 HIT:       3842 MISS:      18949
cpu0_L2C PREFETCH REQUESTED:          0 ISSUED:          0 USEFUL:          0 USELESS:          0
cpu0_L2C AVERAGE MISS LATENCY: 347.6 cycles
cpu0_STLB TOTAL        ACCESS:     507397 HIT:     484603 MISS:      22794
cpu0_STLB LOAD         ACCESS:     507397 HIT:     484603 MISS:      22794
cpu0_STLB RFO          ACCESS:          0 HIT:          0 MISS:          0
cpu0_STLB PREFETCH     ACCESS:          0 HIT:          0 MISS:          0
cpu0_STLB WRITE        ACCESS:          0 HIT:          0 MISS:          0
cpu0_STLB TRANSLATION  ACCESS:          0 HIT:          0 MISS:          0
cpu0_STLB PREFETCH REQUESTED:          0 ISSUED:          0 USEFUL:          0 USELESS:          0
cpu0_STLB AVERAGE MISS LATENCY: 346.6 cycles

DRAM Statistics

Channel 0 RQ ROW_BUFFER_HIT:      48433
  ROW_BUFFER_MISS:     232947
 AVG DBUS CONGESTED CYCLE: 3.828
WQ ROW_BUFFER_HIT: Channel 0 
  ROW_BUFFER_MISS:       7146
  FULL:      37398
