WARNING: physical memory size is smaller than virtual memory size.

*** ChampSim Multicore Out-of-Order Simulator ***
Warmup Instructions: 50000000
Simulation Instructions: 600000000
Number of CPUs: 1
Page size: 4096

CPU 0 Tage branch predictor
Off-chip DRAM Size: 4 GiB Channels: 1 Width: 64-bit Data Race: 3200 MT/s
Heartbeat CPU 0 instructions: 10000001 cycles: 2500318 heartbeat IPC: 3.999 cumulative IPC: 3.999 (Simulation time: 00 hr 01 min 06 sec)
Heartbeat CPU 0 instructions: 20000002 cycles: 5037121 heartbeat IPC: 3.942 cumulative IPC: 3.971 (Simulation time: 00 hr 02 min 04 sec)
Heartbeat CPU 0 instructions: 30000002 cycles: 7537121 heartbeat IPC: 4 cumulative IPC: 3.98 (Simulation time: 00 hr 02 min 54 sec)
Heartbeat CPU 0 instructions: 40000002 cycles: 10037121 heartbeat IPC: 4 cumulative IPC: 3.985 (Simulation time: 00 hr 03 min 45 sec)
Heartbeat CPU 0 instructions: 50000002 cycles: 12537121 heartbeat IPC: 4 cumulative IPC: 3.988 (Simulation time: 00 hr 04 min 41 sec)
Warmup finished CPU 0 instructions: 50000002 cycles: 12537122 cumulative IPC: 3.988 (Simulation time: 00 hr 04 min 41 sec)
Warmup complete CPU 0 instructions: 50000002 cycles: 12537122 cumulative IPC: 3.988 (Simulation time: 00 hr 04 min 41 sec)
Heartbeat CPU 0 instructions: 60000001 cycles: 15548286 heartbeat IPC: 3.321 cumulative IPC: 3.321 (Simulation time: 00 hr 05 min 46 sec)
Heartbeat CPU 0 instructions: 70000004 cycles: 18636126 heartbeat IPC: 3.239 cumulative IPC: 3.279 (Simulation time: 00 hr 06 min 52 sec)
Heartbeat CPU 0 instructions: 80000001 cycles: 21703461 heartbeat IPC: 3.26 cumulative IPC: 3.273 (Simulation time: 00 hr 07 min 58 sec)
Heartbeat CPU 0 instructions: 90000001 cycles: 24660243 heartbeat IPC: 3.382 cumulative IPC: 3.299 (Simulation time: 00 hr 09 min 03 sec)
Heartbeat CPU 0 instructions: 100000000 cycles: 27588988 heartbeat IPC: 3.414 cumulative IPC: 3.322 (Simulation time: 00 hr 10 min 07 sec)
Heartbeat CPU 0 instructions: 110000000 cycles: 30541964 heartbeat IPC: 3.386 cumulative IPC: 3.332 (Simulation time: 00 hr 11 min 11 sec)
Heartbeat CPU 0 instructions: 120000001 cycles: 33526394 heartbeat IPC: 3.351 cumulative IPC: 3.335 (Simulation time: 00 hr 12 min 16 sec)
Heartbeat CPU 0 instructions: 130000001 cycles: 36396836 heartbeat IPC: 3.484 cumulative IPC: 3.353 (Simulation time: 00 hr 13 min 21 sec)
Heartbeat CPU 0 instructions: 140000001 cycles: 39475399 heartbeat IPC: 3.248 cumulative IPC: 3.341 (Simulation time: 00 hr 14 min 27 sec)
Heartbeat CPU 0 instructions: 150000001 cycles: 42508584 heartbeat IPC: 3.297 cumulative IPC: 3.337 (Simulation time: 00 hr 15 min 33 sec)
Heartbeat CPU 0 instructions: 160000004 cycles: 45548993 heartbeat IPC: 3.289 cumulative IPC: 3.332 (Simulation time: 00 hr 16 min 39 sec)
Heartbeat CPU 0 instructions: 170000000 cycles: 52464033 heartbeat IPC: 1.446 cumulative IPC: 3.005 (Simulation time: 00 hr 18 min 19 sec)
Heartbeat CPU 0 instructions: 180000004 cycles: 59710356 heartbeat IPC: 1.38 cumulative IPC: 2.756 (Simulation time: 00 hr 20 min 03 sec)
Heartbeat CPU 0 instructions: 190000001 cycles: 67313185 heartbeat IPC: 1.315 cumulative IPC: 2.556 (Simulation time: 00 hr 21 min 48 sec)
Heartbeat CPU 0 instructions: 200000004 cycles: 70274545 heartbeat IPC: 3.377 cumulative IPC: 2.598 (Simulation time: 00 hr 22 min 53 sec)
Heartbeat CPU 0 instructions: 210000001 cycles: 73235614 heartbeat IPC: 3.377 cumulative IPC: 2.636 (Simulation time: 00 hr 23 min 58 sec)
Heartbeat CPU 0 instructions: 220000000 cycles: 76133072 heartbeat IPC: 3.451 cumulative IPC: 2.673 (Simulation time: 00 hr 25 min 02 sec)
Heartbeat CPU 0 instructions: 230000002 cycles: 79173591 heartbeat IPC: 3.289 cumulative IPC: 2.701 (Simulation time: 00 hr 26 min 08 sec)
Heartbeat CPU 0 instructions: 240000003 cycles: 82207987 heartbeat IPC: 3.296 cumulative IPC: 2.727 (Simulation time: 00 hr 27 min 10 sec)
Heartbeat CPU 0 instructions: 250000000 cycles: 85239773 heartbeat IPC: 3.298 cumulative IPC: 2.751 (Simulation time: 00 hr 28 min 11 sec)
Heartbeat CPU 0 instructions: 260000002 cycles: 88206645 heartbeat IPC: 3.371 cumulative IPC: 2.775 (Simulation time: 00 hr 29 min 11 sec)
Heartbeat CPU 0 instructions: 270000002 cycles: 91113345 heartbeat IPC: 3.44 cumulative IPC: 2.8 (Simulation time: 00 hr 30 min 14 sec)
Heartbeat CPU 0 instructions: 280000002 cycles: 93996285 heartbeat IPC: 3.469 cumulative IPC: 2.824 (Simulation time: 00 hr 31 min 18 sec)
Heartbeat CPU 0 instructions: 290000002 cycles: 96954818 heartbeat IPC: 3.38 cumulative IPC: 2.843 (Simulation time: 00 hr 32 min 25 sec)
Heartbeat CPU 0 instructions: 300000003 cycles: 99853189 heartbeat IPC: 3.45 cumulative IPC: 2.863 (Simulation time: 00 hr 33 min 34 sec)
Heartbeat CPU 0 instructions: 310000001 cycles: 102905554 heartbeat IPC: 3.276 cumulative IPC: 2.877 (Simulation time: 00 hr 34 min 40 sec)
Heartbeat CPU 0 instructions: 320000003 cycles: 105915798 heartbeat IPC: 3.322 cumulative IPC: 2.891 (Simulation time: 00 hr 35 min 46 sec)
Heartbeat CPU 0 instructions: 330000003 cycles: 108913484 heartbeat IPC: 3.336 cumulative IPC: 2.905 (Simulation time: 00 hr 36 min 51 sec)
Heartbeat CPU 0 instructions: 340000000 cycles: 115609933 heartbeat IPC: 1.493 cumulative IPC: 2.814 (Simulation time: 00 hr 38 min 28 sec)
Heartbeat CPU 0 instructions: 350000000 cycles: 122933472 heartbeat IPC: 1.365 cumulative IPC: 2.717 (Simulation time: 00 hr 40 min 11 sec)
Heartbeat CPU 0 instructions: 360000004 cycles: 130438806 heartbeat IPC: 1.332 cumulative IPC: 2.629 (Simulation time: 00 hr 41 min 53 sec)
Heartbeat CPU 0 instructions: 370000000 cycles: 133397705 heartbeat IPC: 3.38 cumulative IPC: 2.648 (Simulation time: 00 hr 42 min 57 sec)
Heartbeat CPU 0 instructions: 380000003 cycles: 136319170 heartbeat IPC: 3.423 cumulative IPC: 2.666 (Simulation time: 00 hr 44 min 03 sec)
Heartbeat CPU 0 instructions: 390000002 cycles: 139292373 heartbeat IPC: 3.363 cumulative IPC: 2.682 (Simulation time: 00 hr 45 min 08 sec)
Heartbeat CPU 0 instructions: 400000004 cycles: 142193919 heartbeat IPC: 3.446 cumulative IPC: 2.699 (Simulation time: 00 hr 46 min 12 sec)
Heartbeat CPU 0 instructions: 410000002 cycles: 145143970 heartbeat IPC: 3.39 cumulative IPC: 2.715 (Simulation time: 00 hr 47 min 17 sec)
Heartbeat CPU 0 instructions: 420000003 cycles: 148221535 heartbeat IPC: 3.249 cumulative IPC: 2.727 (Simulation time: 00 hr 48 min 21 sec)
Heartbeat CPU 0 instructions: 430000001 cycles: 151230218 heartbeat IPC: 3.324 cumulative IPC: 2.74 (Simulation time: 00 hr 49 min 22 sec)
Heartbeat CPU 0 instructions: 440000004 cycles: 154369255 heartbeat IPC: 3.186 cumulative IPC: 2.75 (Simulation time: 00 hr 50 min 26 sec)
Heartbeat CPU 0 instructions: 450000002 cycles: 157291322 heartbeat IPC: 3.422 cumulative IPC: 2.763 (Simulation time: 00 hr 51 min 31 sec)
Heartbeat CPU 0 instructions: 460000000 cycles: 160215614 heartbeat IPC: 3.42 cumulative IPC: 2.776 (Simulation time: 00 hr 52 min 35 sec)
Heartbeat CPU 0 instructions: 470000001 cycles: 163073483 heartbeat IPC: 3.499 cumulative IPC: 2.79 (Simulation time: 00 hr 53 min 39 sec)
Heartbeat CPU 0 instructions: 480000003 cycles: 166110253 heartbeat IPC: 3.293 cumulative IPC: 2.8 (Simulation time: 00 hr 54 min 43 sec)
Heartbeat CPU 0 instructions: 490000004 cycles: 168934434 heartbeat IPC: 3.541 cumulative IPC: 2.813 (Simulation time: 00 hr 55 min 43 sec)
Heartbeat CPU 0 instructions: 500000004 cycles: 171918159 heartbeat IPC: 3.352 cumulative IPC: 2.823 (Simulation time: 00 hr 56 min 45 sec)
Heartbeat CPU 0 instructions: 510000003 cycles: 174922150 heartbeat IPC: 3.329 cumulative IPC: 2.833 (Simulation time: 00 hr 57 min 49 sec)
Heartbeat CPU 0 instructions: 520000001 cycles: 177812608 heartbeat IPC: 3.46 cumulative IPC: 2.844 (Simulation time: 00 hr 58 min 54 sec)
Heartbeat CPU 0 instructions: 530000001 cycles: 180811898 heartbeat IPC: 3.334 cumulative IPC: 2.852 (Simulation time: 00 hr 59 min 59 sec)
Heartbeat CPU 0 instructions: 540000000 cycles: 183772824 heartbeat IPC: 3.377 cumulative IPC: 2.862 (Simulation time: 01 hr 01 min 02 sec)
Heartbeat CPU 0 instructions: 550000001 cycles: 186755659 heartbeat IPC: 3.353 cumulative IPC: 2.87 (Simulation time: 01 hr 02 min 04 sec)
Heartbeat CPU 0 instructions: 560000000 cycles: 189832527 heartbeat IPC: 3.25 cumulative IPC: 2.877 (Simulation time: 01 hr 03 min 14 sec)
Heartbeat CPU 0 instructions: 570000004 cycles: 194497003 heartbeat IPC: 2.144 cumulative IPC: 2.858 (Simulation time: 01 hr 04 min 33 sec)
Heartbeat CPU 0 instructions: 580000003 cycles: 202233487 heartbeat IPC: 1.293 cumulative IPC: 2.794 (Simulation time: 01 hr 06 min 19 sec)
Heartbeat CPU 0 instructions: 590000002 cycles: 211515985 heartbeat IPC: 1.077 cumulative IPC: 2.714 (Simulation time: 01 hr 08 min 22 sec)
Heartbeat CPU 0 instructions: 600000004 cycles: 214550407 heartbeat IPC: 3.296 cumulative IPC: 2.723 (Simulation time: 01 hr 09 min 31 sec)
Heartbeat CPU 0 instructions: 610000002 cycles: 217513749 heartbeat IPC: 3.375 cumulative IPC: 2.732 (Simulation time: 01 hr 10 min 41 sec)
Heartbeat CPU 0 instructions: 620000001 cycles: 220290752 heartbeat IPC: 3.601 cumulative IPC: 2.744 (Simulation time: 01 hr 11 min 48 sec)
Heartbeat CPU 0 instructions: 630000002 cycles: 223266249 heartbeat IPC: 3.361 cumulative IPC: 2.752 (Simulation time: 01 hr 12 min 59 sec)
Heartbeat CPU 0 instructions: 640000004 cycles: 226212598 heartbeat IPC: 3.394 cumulative IPC: 2.761 (Simulation time: 01 hr 14 min 03 sec)
Heartbeat CPU 0 instructions: 650000000 cycles: 228960981 heartbeat IPC: 3.639 cumulative IPC: 2.772 (Simulation time: 01 hr 15 min 13 sec)
Simulation finished CPU 0 instructions: 600000001 cycles: 216423861 cumulative IPC: 2.772 (Simulation time: 01 hr 15 min 13 sec)
Simulation complete CPU 0 instructions: 600000001 cycles: 216423861 cumulative IPC: 2.772 (Simulation time: 01 hr 15 min 13 sec)

ChampSim completed all CPUs

=== Simulation ===
CPU 0 runs traces/400.perlbench-41B.champsimtrace.xz
Region of Interest Statistics

CPU 0 cumulative IPC: 2.772 instructions: 600000001 cycles: 216423861
CPU 0 Branch Prediction Accuracy: 99.19% MPKI: 1.684 Average ROB Occupancy at Mispredict: 101.6
Branch type MPKI
BRANCH_DIRECT_JUMP: 0.0123
BRANCH_INDIRECT: 0.323
BRANCH_CONDITIONAL: 1.14
BRANCH_DIRECT_CALL: 0.0043
BRANCH_INDIRECT_CALL: 0.2
BRANCH_RETURN: 0.00828

LLC TOTAL        ACCESS:     939110 HIT:     589049 MISS:     350061
LLC LOAD         ACCESS:     401498 HIT:     240438 MISS:     161060
LLC RFO          ACCESS:      32438 HIT:      19777 MISS:      12661
LLC PREFETCH     ACCESS:     401498 HIT:     234841 MISS:     166657
LLC WRITE        ACCESS:      84680 HIT:      84500 MISS:        180
LLC TRANSLATION  ACCESS:      18996 HIT:       9493 MISS:       9503
LLC PREFETCH REQUESTED:     401498 ISSUED:     401498 USEFUL:      55240 USELESS:      67186
LLC AVERAGE MISS LATENCY: 633.4 cycles
cpu0_DTLB TOTAL        ACCESS:  129773995 HIT:  129070597 MISS:     703398
cpu0_DTLB LOAD         ACCESS:  129773995 HIT:  129070597 MISS:     703398
cpu0_DTLB RFO          ACCESS:          0 HIT:          0 MISS:          0
cpu0_DTLB PREFETCH     ACCESS:          0 HIT:          0 MISS:          0
cpu0_DTLB WRITE        ACCESS:          0 HIT:          0 MISS:          0
cpu0_DTLB TRANSLATION  ACCESS:          0 HIT:          0 MISS:          0
cpu0_DTLB PREFETCH REQUESTED:          0 ISSUED:          0 USEFUL:          0 USELESS:          0
cpu0_DTLB AVERAGE MISS LATENCY: 15.01 cycles
cpu0_ITLB TOTAL        ACCESS:    4869047 HIT:    4806874 MISS:      62173
cpu0_ITLB LOAD         ACCESS:    4869047 HIT:    4806874 MISS:      62173
cpu0_ITLB RFO          ACCESS:          0 HIT:          0 MISS:          0
cpu0_ITLB PREFETCH     ACCESS:          0 HIT:          0 MISS:          0
cpu0_ITLB WRITE        ACCESS:          0 HIT:          0 MISS:          0
cpu0_ITLB TRANSLATION  ACCESS:          0 HIT:          0 MISS:          0
cpu0_ITLB PREFETCH REQUESTED:          0 ISSUED:          0 USEFUL:          0 USELESS:          0
cpu0_ITLB AVERAGE MISS LATENCY: 6.814 cycles
cpu0_L1D TOTAL        ACCESS:  174371379 HIT:  172581034 MISS:    1790345
cpu0_L1D LOAD         ACCESS:   91349425 HIT:   89956569 MISS:    1392856
cpu0_L1D RFO          ACCESS:          0 HIT:          0 MISS:          0
cpu0_L1D PREFETCH     ACCESS:          0 HIT:          0 MISS:          0
cpu0_L1D WRITE        ACCESS:   82997491 HIT:   82623394 MISS:     374097
cpu0_L1D TRANSLATION  ACCESS:      24463 HIT:       1071 MISS:      23392
cpu0_L1D PREFETCH REQUESTED:          0 ISSUED:          0 USEFUL:          0 USELESS:          0
cpu0_L1D AVERAGE MISS LATENCY: 76.14 cycles
cpu0_L1I TOTAL        ACCESS:    5648856 HIT:    4844474 MISS:     804382
cpu0_L1I LOAD         ACCESS:    5648856 HIT:    4844474 MISS:     804382
cpu0_L1I RFO          ACCESS:          0 HIT:          0 MISS:          0
cpu0_L1I PREFETCH     ACCESS:          0 HIT:          0 MISS:          0
cpu0_L1I WRITE        ACCESS:          0 HIT:          0 MISS:          0
cpu0_L1I TRANSLATION  ACCESS:          0 HIT:          0 MISS:          0
cpu0_L1I PREFETCH REQUESTED:          0 ISSUED:          0 USEFUL:          0 USELESS:          0
cpu0_L1I AVERAGE MISS LATENCY: 9.576 cycles
cpu0_L2C TOTAL        ACCESS:    1667907 HIT:    1213176 MISS:     454731
cpu0_L2C LOAD         ACCESS:    1315202 HIT:     913704 MISS:     401498
cpu0_L2C RFO          ACCESS:      89611 HIT:      57173 MISS:      32438
cpu0_L2C PREFETCH     ACCESS:          0 HIT:          0 MISS:          0
cpu0_L2C WRITE        ACCESS:     239777 HIT:     237978 MISS:       1799
cpu0_L2C TRANSLATION  ACCESS:      23317 HIT:       4321 MISS:      18996
cpu0_L2C PREFETCH REQUESTED:          0 ISSUED:          0 USEFUL:          0 USELESS:          0
cpu0_L2C AVERAGE MISS LATENCY: 308.3 cycles
cpu0_STLB TOTAL        ACCESS:     508808 HIT:     486023 MISS:      22785
cpu0_STLB LOAD         ACCESS:     508808 HIT:     486023 MISS:      22785
cpu0_STLB RFO          ACCESS:          0 HIT:          0 MISS:          0
cpu0_STLB PREFETCH     ACCESS:          0 HIT:          0 MISS:          0
cpu0_STLB WRITE        ACCESS:          0 HIT:          0 MISS:          0
cpu0_STLB TRANSLATION  ACCESS:          0 HIT:          0 MISS:          0
cpu0_STLB PREFETCH REQUESTED:          0 ISSUED:          0 USEFUL:          0 USELESS:          0
cpu0_STLB AVERAGE MISS LATENCY: 355.4 cycles

DRAM Statistics

Channel 0 RQ ROW_BUFFER_HIT:      59680
  ROW_BUFFER_MISS:     225755
 AVG DBUS CONGESTED CYCLE: 3.89
WQ ROW_BUFFER_HIT: Channel 0 
  ROW_BUFFER_MISS:       4045
  FULL:      27855
