WARNING: physical memory size is smaller than virtual memory size.

*** ChampSim Multicore Out-of-Order Simulator ***
Warmup Instructions: 50000000
Simulation Instructions: 600000000
Number of CPUs: 1
Page size: 4096

Off-chip DRAM Size: 4 GiB Channels: 1 Width: 64-bit Data Race: 3200 MT/s
Heartbeat CPU 0 instructions: 10000001 cycles: 2500318 heartbeat IPC: 3.999 cumulative IPC: 3.999 (Simulation time: 00 hr 01 min 04 sec)
Heartbeat CPU 0 instructions: 20000002 cycles: 5037128 heartbeat IPC: 3.942 cumulative IPC: 3.971 (Simulation time: 00 hr 01 min 54 sec)
Heartbeat CPU 0 instructions: 30000002 cycles: 7537128 heartbeat IPC: 4 cumulative IPC: 3.98 (Simulation time: 00 hr 02 min 39 sec)
Heartbeat CPU 0 instructions: 40000002 cycles: 10037128 heartbeat IPC: 4 cumulative IPC: 3.985 (Simulation time: 00 hr 03 min 24 sec)
Heartbeat CPU 0 instructions: 50000002 cycles: 12537128 heartbeat IPC: 4 cumulative IPC: 3.988 (Simulation time: 00 hr 04 min 08 sec)
Warmup finished CPU 0 instructions: 50000002 cycles: 12537129 cumulative IPC: 3.988 (Simulation time: 00 hr 04 min 08 sec)
Warmup complete CPU 0 instructions: 50000002 cycles: 12537129 cumulative IPC: 3.988 (Simulation time: 00 hr 04 min 08 sec)
Heartbeat CPU 0 instructions: 60000000 cycles: 17708742 heartbeat IPC: 1.934 cumulative IPC: 1.934 (Simulation time: 00 hr 05 min 18 sec)
Heartbeat CPU 0 instructions: 70000002 cycles: 22611275 heartbeat IPC: 2.04 cumulative IPC: 1.985 (Simulation time: 00 hr 06 min 26 sec)
Heartbeat CPU 0 instructions: 80000001 cycles: 27984717 heartbeat IPC: 1.861 cumulative IPC: 1.942 (Simulation time: 00 hr 07 min 38 sec)
Heartbeat CPU 0 instructions: 90000001 cycles: 32873118 heartbeat IPC: 2.046 cumulative IPC: 1.967 (Simulation time: 00 hr 08 min 46 sec)
Heartbeat CPU 0 instructions: 100000000 cycles: 37990463 heartbeat IPC: 1.954 cumulative IPC: 1.964 (Simulation time: 00 hr 09 min 55 sec)
Heartbeat CPU 0 instructions: 110000000 cycles: 42890807 heartbeat IPC: 2.041 cumulative IPC: 1.977 (Simulation time: 00 hr 11 min 02 sec)
Heartbeat CPU 0 instructions: 120000001 cycles: 48095348 heartbeat IPC: 1.921 cumulative IPC: 1.969 (Simulation time: 00 hr 12 min 12 sec)
Heartbeat CPU 0 instructions: 130000001 cycles: 53259056 heartbeat IPC: 1.937 cumulative IPC: 1.965 (Simulation time: 00 hr 13 min 22 sec)
Heartbeat CPU 0 instructions: 140000001 cycles: 58585786 heartbeat IPC: 1.877 cumulative IPC: 1.954 (Simulation time: 00 hr 14 min 32 sec)
Heartbeat CPU 0 instructions: 150000001 cycles: 63914570 heartbeat IPC: 1.877 cumulative IPC: 1.946 (Simulation time: 00 hr 15 min 44 sec)
Heartbeat CPU 0 instructions: 160000004 cycles: 69136266 heartbeat IPC: 1.915 cumulative IPC: 1.943 (Simulation time: 00 hr 16 min 54 sec)
Heartbeat CPU 0 instructions: 170000000 cycles: 78144546 heartbeat IPC: 1.11 cumulative IPC: 1.829 (Simulation time: 00 hr 18 min 38 sec)
Heartbeat CPU 0 instructions: 180000004 cycles: 87172240 heartbeat IPC: 1.108 cumulative IPC: 1.742 (Simulation time: 00 hr 20 min 25 sec)
Heartbeat CPU 0 instructions: 190000001 cycles: 96520636 heartbeat IPC: 1.07 cumulative IPC: 1.667 (Simulation time: 00 hr 22 min 15 sec)
Heartbeat CPU 0 instructions: 200000003 cycles: 101203358 heartbeat IPC: 2.136 cumulative IPC: 1.692 (Simulation time: 00 hr 23 min 22 sec)
Heartbeat CPU 0 instructions: 210000001 cycles: 106050674 heartbeat IPC: 2.063 cumulative IPC: 1.711 (Simulation time: 00 hr 24 min 30 sec)
Heartbeat CPU 0 instructions: 220000000 cycles: 110834656 heartbeat IPC: 2.09 cumulative IPC: 1.729 (Simulation time: 00 hr 25 min 38 sec)
Heartbeat CPU 0 instructions: 230000002 cycles: 116017337 heartbeat IPC: 1.93 cumulative IPC: 1.739 (Simulation time: 00 hr 26 min 48 sec)
Heartbeat CPU 0 instructions: 240000000 cycles: 120790126 heartbeat IPC: 2.095 cumulative IPC: 1.755 (Simulation time: 00 hr 27 min 57 sec)
Heartbeat CPU 0 instructions: 250000000 cycles: 125850323 heartbeat IPC: 1.976 cumulative IPC: 1.765 (Simulation time: 00 hr 29 min 06 sec)
Heartbeat CPU 0 instructions: 260000000 cycles: 130781493 heartbeat IPC: 2.028 cumulative IPC: 1.776 (Simulation time: 00 hr 30 min 14 sec)
Heartbeat CPU 0 instructions: 270000002 cycles: 135598018 heartbeat IPC: 2.076 cumulative IPC: 1.788 (Simulation time: 00 hr 31 min 21 sec)
Heartbeat CPU 0 instructions: 280000002 cycles: 140437376 heartbeat IPC: 2.066 cumulative IPC: 1.798 (Simulation time: 00 hr 32 min 28 sec)
Heartbeat CPU 0 instructions: 290000001 cycles: 145749789 heartbeat IPC: 1.882 cumulative IPC: 1.802 (Simulation time: 00 hr 33 min 38 sec)
Heartbeat CPU 0 instructions: 300000003 cycles: 150715185 heartbeat IPC: 2.014 cumulative IPC: 1.809 (Simulation time: 00 hr 34 min 47 sec)
Heartbeat CPU 0 instructions: 310000001 cycles: 155905997 heartbeat IPC: 1.926 cumulative IPC: 1.814 (Simulation time: 00 hr 35 min 57 sec)
Heartbeat CPU 0 instructions: 320000003 cycles: 161015809 heartbeat IPC: 1.957 cumulative IPC: 1.818 (Simulation time: 00 hr 37 min 05 sec)
Heartbeat CPU 0 instructions: 330000003 cycles: 166184296 heartbeat IPC: 1.935 cumulative IPC: 1.822 (Simulation time: 00 hr 38 min 15 sec)
Heartbeat CPU 0 instructions: 340000000 cycles: 174948864 heartbeat IPC: 1.141 cumulative IPC: 1.786 (Simulation time: 00 hr 39 min 57 sec)
Heartbeat CPU 0 instructions: 350000000 cycles: 185042194 heartbeat IPC: 0.9908 cumulative IPC: 1.739 (Simulation time: 00 hr 41 min 51 sec)
Heartbeat CPU 0 instructions: 360000004 cycles: 194724022 heartbeat IPC: 1.033 cumulative IPC: 1.702 (Simulation time: 00 hr 43 min 40 sec)
Heartbeat CPU 0 instructions: 370000000 cycles: 199076479 heartbeat IPC: 2.298 cumulative IPC: 1.715 (Simulation time: 00 hr 44 min 44 sec)
Heartbeat CPU 0 instructions: 380000001 cycles: 203936450 heartbeat IPC: 2.058 cumulative IPC: 1.724 (Simulation time: 00 hr 45 min 51 sec)
Heartbeat CPU 0 instructions: 390000002 cycles: 208714025 heartbeat IPC: 2.093 cumulative IPC: 1.733 (Simulation time: 00 hr 46 min 58 sec)
Heartbeat CPU 0 instructions: 400000004 cycles: 213616168 heartbeat IPC: 2.04 cumulative IPC: 1.741 (Simulation time: 00 hr 48 min 04 sec)
Heartbeat CPU 0 instructions: 410000000 cycles: 218272468 heartbeat IPC: 2.148 cumulative IPC: 1.75 (Simulation time: 00 hr 49 min 09 sec)
Heartbeat CPU 0 instructions: 420000000 cycles: 223323385 heartbeat IPC: 1.98 cumulative IPC: 1.755 (Simulation time: 00 hr 50 min 16 sec)
Heartbeat CPU 0 instructions: 430000001 cycles: 227743063 heartbeat IPC: 2.263 cumulative IPC: 1.766 (Simulation time: 00 hr 51 min 20 sec)
Heartbeat CPU 0 instructions: 440000000 cycles: 233024972 heartbeat IPC: 1.893 cumulative IPC: 1.769 (Simulation time: 00 hr 52 min 29 sec)
Heartbeat CPU 0 instructions: 450000002 cycles: 237618317 heartbeat IPC: 2.177 cumulative IPC: 1.777 (Simulation time: 00 hr 53 min 34 sec)
Heartbeat CPU 0 instructions: 460000000 cycles: 242362880 heartbeat IPC: 2.108 cumulative IPC: 1.784 (Simulation time: 00 hr 54 min 40 sec)
Heartbeat CPU 0 instructions: 470000000 cycles: 247289486 heartbeat IPC: 2.03 cumulative IPC: 1.789 (Simulation time: 00 hr 55 min 48 sec)
Heartbeat CPU 0 instructions: 480000003 cycles: 252024471 heartbeat IPC: 2.112 cumulative IPC: 1.796 (Simulation time: 00 hr 56 min 53 sec)
Heartbeat CPU 0 instructions: 490000000 cycles: 256596956 heartbeat IPC: 2.187 cumulative IPC: 1.803 (Simulation time: 00 hr 57 min 57 sec)
Heartbeat CPU 0 instructions: 500000000 cycles: 261581346 heartbeat IPC: 2.006 cumulative IPC: 1.807 (Simulation time: 00 hr 59 min 05 sec)
Heartbeat CPU 0 instructions: 510000003 cycles: 267171752 heartbeat IPC: 1.789 cumulative IPC: 1.807 (Simulation time: 01 hr 00 min 18 sec)
Heartbeat CPU 0 instructions: 520000001 cycles: 271801143 heartbeat IPC: 2.16 cumulative IPC: 1.813 (Simulation time: 01 hr 01 min 23 sec)
Heartbeat CPU 0 instructions: 530000002 cycles: 276887615 heartbeat IPC: 1.966 cumulative IPC: 1.816 (Simulation time: 01 hr 02 min 32 sec)
Heartbeat CPU 0 instructions: 540000000 cycles: 281947981 heartbeat IPC: 1.976 cumulative IPC: 1.819 (Simulation time: 01 hr 03 min 40 sec)
Heartbeat CPU 0 instructions: 550000001 cycles: 286710147 heartbeat IPC: 2.1 cumulative IPC: 1.824 (Simulation time: 01 hr 04 min 46 sec)
Heartbeat CPU 0 instructions: 560000000 cycles: 291861751 heartbeat IPC: 1.941 cumulative IPC: 1.826 (Simulation time: 01 hr 05 min 54 sec)
Heartbeat CPU 0 instructions: 570000004 cycles: 298467135 heartbeat IPC: 1.514 cumulative IPC: 1.819 (Simulation time: 01 hr 07 min 17 sec)
Heartbeat CPU 0 instructions: 580000003 cycles: 308705302 heartbeat IPC: 0.9767 cumulative IPC: 1.79 (Simulation time: 01 hr 09 min 11 sec)
Heartbeat CPU 0 instructions: 590000002 cycles: 320488702 heartbeat IPC: 0.8487 cumulative IPC: 1.754 (Simulation time: 01 hr 11 min 09 sec)
Heartbeat CPU 0 instructions: 600000000 cycles: 325016252 heartbeat IPC: 2.209 cumulative IPC: 1.76 (Simulation time: 01 hr 11 min 59 sec)
Heartbeat CPU 0 instructions: 610000002 cycles: 329455803 heartbeat IPC: 2.252 cumulative IPC: 1.767 (Simulation time: 01 hr 12 min 39 sec)
Heartbeat CPU 0 instructions: 620000000 cycles: 334230942 heartbeat IPC: 2.094 cumulative IPC: 1.772 (Simulation time: 01 hr 13 min 18 sec)
Heartbeat CPU 0 instructions: 630000002 cycles: 339265345 heartbeat IPC: 1.986 cumulative IPC: 1.775 (Simulation time: 01 hr 13 min 55 sec)
Heartbeat CPU 0 instructions: 640000001 cycles: 344100204 heartbeat IPC: 2.068 cumulative IPC: 1.779 (Simulation time: 01 hr 14 min 27 sec)
Heartbeat CPU 0 instructions: 650000000 cycles: 348635380 heartbeat IPC: 2.205 cumulative IPC: 1.785 (Simulation time: 01 hr 14 min 55 sec)
Simulation finished CPU 0 instructions: 600000001 cycles: 336098253 cumulative IPC: 1.785 (Simulation time: 01 hr 14 min 55 sec)
Simulation complete CPU 0 instructions: 600000001 cycles: 336098253 cumulative IPC: 1.785 (Simulation time: 01 hr 14 min 55 sec)

ChampSim completed all CPUs

=== Simulation ===
CPU 0 runs traces/400.perlbench-41B.champsimtrace.xz
Region of Interest Statistics

CPU 0 cumulative IPC: 1.785 instructions: 600000001 cycles: 336098253
CPU 0 Branch Prediction Accuracy: 93.95% MPKI: 12.5 Average ROB Occupancy at Mispredict: 29.6
Branch type MPKI
BRANCH_DIRECT_JUMP: 0.0123
BRANCH_INDIRECT: 0.323
BRANCH_CONDITIONAL: 12
BRANCH_DIRECT_CALL: 0.0043
BRANCH_INDIRECT_CALL: 0.2
BRANCH_RETURN: 0.00828

LLC TOTAL        ACCESS:     541137 HIT:     368336 MISS:     172801
LLC LOAD         ACCESS:     403675 HIT:     252858 MISS:     150817
LLC RFO          ACCESS:      32578 HIT:      21496 MISS:      11082
LLC PREFETCH     ACCESS:          0 HIT:          0 MISS:          0
LLC WRITE        ACCESS:      85798 HIT:      83973 MISS:       1825
LLC TRANSLATION  ACCESS:      19086 HIT:      10009 MISS:       9077
LLC PREFETCH REQUESTED:          0 ISSUED:          0 USEFUL:          0 USELESS:          0
LLC AVERAGE MISS LATENCY: 520.4 cycles
cpu0_DTLB TOTAL        ACCESS:  153675879 HIT:  152998311 MISS:     677568
cpu0_DTLB LOAD         ACCESS:  153675879 HIT:  152998311 MISS:     677568
cpu0_DTLB RFO          ACCESS:          0 HIT:          0 MISS:          0
cpu0_DTLB PREFETCH     ACCESS:          0 HIT:          0 MISS:          0
cpu0_DTLB WRITE        ACCESS:          0 HIT:          0 MISS:          0
cpu0_DTLB TRANSLATION  ACCESS:          0 HIT:          0 MISS:          0
cpu0_DTLB PREFETCH REQUESTED:          0 ISSUED:          0 USEFUL:          0 USELESS:          0
cpu0_DTLB AVERAGE MISS LATENCY: 13.8 cycles
cpu0_ITLB TOTAL        ACCESS:    4836460 HIT:    4778624 MISS:      57836
cpu0_ITLB LOAD         ACCESS:    4836460 HIT:    4778624 MISS:      57836
cpu0_ITLB RFO          ACCESS:          0 HIT:          0 MISS:          0
cpu0_ITLB PREFETCH     ACCESS:          0 HIT:          0 MISS:          0
cpu0_ITLB WRITE        ACCESS:          0 HIT:          0 MISS:          0
cpu0_ITLB TRANSLATION  ACCESS:          0 HIT:          0 MISS:          0
cpu0_ITLB PREFETCH REQUESTED:          0 ISSUED:          0 USEFUL:          0 USELESS:          0
cpu0_ITLB AVERAGE MISS LATENCY: 6.074 cycles
cpu0_L1D TOTAL        ACCESS:  200288530 HIT:  198571633 MISS:    1716897
cpu0_L1D LOAD         ACCESS:  117045916 HIT:  115705520 MISS:    1340396
cpu0_L1D RFO          ACCESS:          0 HIT:          0 MISS:          0
cpu0_L1D PREFETCH     ACCESS:          0 HIT:          0 MISS:          0
cpu0_L1D WRITE        ACCESS:   83218155 HIT:   82865071 MISS:     353084
cpu0_L1D TRANSLATION  ACCESS:      24459 HIT:       1042 MISS:      23417
cpu0_L1D PREFETCH REQUESTED:          0 ISSUED:          0 USEFUL:          0 USELESS:          0
cpu0_L1D AVERAGE MISS LATENCY: 58.63 cycles
cpu0_L1I TOTAL        ACCESS:    5578881 HIT:    4817523 MISS:     761358
cpu0_L1I LOAD         ACCESS:    5578881 HIT:    4817523 MISS:     761358
cpu0_L1I RFO          ACCESS:          0 HIT:          0 MISS:          0
cpu0_L1I PREFETCH     ACCESS:          0 HIT:          0 MISS:          0
cpu0_L1I WRITE        ACCESS:          0 HIT:          0 MISS:          0
cpu0_L1I TRANSLATION  ACCESS:          0 HIT:          0 MISS:          0
cpu0_L1I PREFETCH REQUESTED:          0 ISSUED:          0 USEFUL:          0 USELESS:          0
cpu0_L1I AVERAGE MISS LATENCY: 11.99 cycles
cpu0_L2C TOTAL        ACCESS:    1668080 HIT:    1210895 MISS:     457185
cpu0_L2C LOAD         ACCESS:    1317134 HIT:     913459 MISS:     403675
cpu0_L2C RFO          ACCESS:      88625 HIT:      56047 MISS:      32578
cpu0_L2C PREFETCH     ACCESS:          0 HIT:          0 MISS:          0
cpu0_L2C WRITE        ACCESS:     238984 HIT:     237138 MISS:       1846
cpu0_L2C TRANSLATION  ACCESS:      23337 HIT:       4251 MISS:      19086
cpu0_L2C PREFETCH REQUESTED:          0 ISSUED:          0 USEFUL:          0 USELESS:          0
cpu0_L2C AVERAGE MISS LATENCY: 217 cycles
cpu0_STLB TOTAL        ACCESS:     505276 HIT:     482487 MISS:      22789
cpu0_STLB LOAD         ACCESS:     505276 HIT:     482487 MISS:      22789
cpu0_STLB RFO          ACCESS:          0 HIT:          0 MISS:          0
cpu0_STLB PREFETCH     ACCESS:          0 HIT:          0 MISS:          0
cpu0_STLB WRITE        ACCESS:          0 HIT:          0 MISS:          0
cpu0_STLB TRANSLATION  ACCESS:          0 HIT:          0 MISS:          0
cpu0_STLB PREFETCH REQUESTED:          0 ISSUED:          0 USEFUL:          0 USELESS:          0
cpu0_STLB AVERAGE MISS LATENCY: 282.9 cycles

DRAM Statistics

Channel 0 RQ ROW_BUFFER_HIT:      25510
  ROW_BUFFER_MISS:     145435
 AVG DBUS CONGESTED CYCLE: 3.765
WQ ROW_BUFFER_HIT: Channel 0 
  ROW_BUFFER_MISS:       8709
  FULL:      18705
