WARNING: physical memory size is smaller than virtual memory size.

*** ChampSim Multicore Out-of-Order Simulator ***
Warmup Instructions: 50000000
Simulation Instructions: 600000000
Number of CPUs: 1
Page size: 4096

Off-chip DRAM Size: 4 GiB Channels: 1 Width: 64-bit Data Race: 3200 MT/s
Heartbeat CPU 0 instructions: 10000000 cycles: 2500061 heartbeat IPC: 4 cumulative IPC: 4 (Simulation time: 00 hr 01 min 01 sec)
Heartbeat CPU 0 instructions: 20000000 cycles: 5000061 heartbeat IPC: 4 cumulative IPC: 4 (Simulation time: 00 hr 02 min 00 sec)
Heartbeat CPU 0 instructions: 30000000 cycles: 7500061 heartbeat IPC: 4 cumulative IPC: 4 (Simulation time: 00 hr 02 min 52 sec)
Heartbeat CPU 0 instructions: 40000000 cycles: 10000061 heartbeat IPC: 4 cumulative IPC: 4 (Simulation time: 00 hr 03 min 43 sec)
Heartbeat CPU 0 instructions: 50000000 cycles: 12500061 heartbeat IPC: 4 cumulative IPC: 4 (Simulation time: 00 hr 04 min 34 sec)
Warmup finished CPU 0 instructions: 50000000 cycles: 12500062 cumulative IPC: 4 (Simulation time: 00 hr 04 min 34 sec)
Warmup complete CPU 0 instructions: 50000000 cycles: 12500062 cumulative IPC: 4 (Simulation time: 00 hr 04 min 34 sec)
Heartbeat CPU 0 instructions: 60000002 cycles: 16444320 heartbeat IPC: 2.535 cumulative IPC: 2.535 (Simulation time: 00 hr 05 min 42 sec)
Heartbeat CPU 0 instructions: 70000003 cycles: 20759823 heartbeat IPC: 2.317 cumulative IPC: 2.421 (Simulation time: 00 hr 06 min 46 sec)
Heartbeat CPU 0 instructions: 80000003 cycles: 25227591 heartbeat IPC: 2.238 cumulative IPC: 2.357 (Simulation time: 00 hr 07 min 55 sec)
Heartbeat CPU 0 instructions: 90000000 cycles: 28919011 heartbeat IPC: 2.709 cumulative IPC: 2.436 (Simulation time: 00 hr 09 min 03 sec)
Heartbeat CPU 0 instructions: 100000003 cycles: 32816151 heartbeat IPC: 2.566 cumulative IPC: 2.461 (Simulation time: 00 hr 10 min 24 sec)
Heartbeat CPU 0 instructions: 110000002 cycles: 36917375 heartbeat IPC: 2.438 cumulative IPC: 2.457 (Simulation time: 00 hr 11 min 50 sec)
Heartbeat CPU 0 instructions: 120000001 cycles: 40633193 heartbeat IPC: 2.691 cumulative IPC: 2.488 (Simulation time: 00 hr 13 min 02 sec)
Heartbeat CPU 0 instructions: 130000003 cycles: 44403228 heartbeat IPC: 2.652 cumulative IPC: 2.508 (Simulation time: 00 hr 14 min 12 sec)
Heartbeat CPU 0 instructions: 140000002 cycles: 48536109 heartbeat IPC: 2.42 cumulative IPC: 2.497 (Simulation time: 00 hr 15 min 24 sec)
Heartbeat CPU 0 instructions: 150000001 cycles: 52588514 heartbeat IPC: 2.468 cumulative IPC: 2.494 (Simulation time: 00 hr 16 min 27 sec)
Heartbeat CPU 0 instructions: 160000000 cycles: 56246657 heartbeat IPC: 2.734 cumulative IPC: 2.514 (Simulation time: 00 hr 17 min 29 sec)
Heartbeat CPU 0 instructions: 170000001 cycles: 60420087 heartbeat IPC: 2.396 cumulative IPC: 2.504 (Simulation time: 00 hr 18 min 34 sec)
Heartbeat CPU 0 instructions: 180000001 cycles: 63879893 heartbeat IPC: 2.89 cumulative IPC: 2.53 (Simulation time: 00 hr 19 min 50 sec)
Heartbeat CPU 0 instructions: 190000002 cycles: 67463337 heartbeat IPC: 2.791 cumulative IPC: 2.547 (Simulation time: 00 hr 21 min 12 sec)
Heartbeat CPU 0 instructions: 200000002 cycles: 71247240 heartbeat IPC: 2.643 cumulative IPC: 2.553 (Simulation time: 00 hr 22 min 33 sec)
Heartbeat CPU 0 instructions: 210000000 cycles: 74886058 heartbeat IPC: 2.748 cumulative IPC: 2.565 (Simulation time: 00 hr 23 min 46 sec)
Heartbeat CPU 0 instructions: 220000001 cycles: 78751209 heartbeat IPC: 2.587 cumulative IPC: 2.566 (Simulation time: 00 hr 24 min 52 sec)
Heartbeat CPU 0 instructions: 230000002 cycles: 82591187 heartbeat IPC: 2.604 cumulative IPC: 2.568 (Simulation time: 00 hr 26 min 01 sec)
Heartbeat CPU 0 instructions: 240000001 cycles: 86796749 heartbeat IPC: 2.378 cumulative IPC: 2.557 (Simulation time: 00 hr 27 min 17 sec)
Heartbeat CPU 0 instructions: 250000003 cycles: 91360680 heartbeat IPC: 2.191 cumulative IPC: 2.536 (Simulation time: 00 hr 28 min 29 sec)
Heartbeat CPU 0 instructions: 260000000 cycles: 95153472 heartbeat IPC: 2.637 cumulative IPC: 2.541 (Simulation time: 00 hr 29 min 31 sec)
Heartbeat CPU 0 instructions: 270000003 cycles: 102259531 heartbeat IPC: 1.407 cumulative IPC: 2.451 (Simulation time: 00 hr 30 min 55 sec)
Heartbeat CPU 0 instructions: 280000000 cycles: 113009398 heartbeat IPC: 0.9302 cumulative IPC: 2.288 (Simulation time: 00 hr 33 min 18 sec)
Heartbeat CPU 0 instructions: 290000000 cycles: 123003758 heartbeat IPC: 1.001 cumulative IPC: 2.172 (Simulation time: 00 hr 35 min 57 sec)
Heartbeat CPU 0 instructions: 300000003 cycles: 130383664 heartbeat IPC: 1.355 cumulative IPC: 2.121 (Simulation time: 00 hr 37 min 50 sec)
Heartbeat CPU 0 instructions: 310000004 cycles: 141135492 heartbeat IPC: 0.9301 cumulative IPC: 2.021 (Simulation time: 00 hr 40 min 09 sec)
Heartbeat CPU 0 instructions: 320000004 cycles: 146177434 heartbeat IPC: 1.983 cumulative IPC: 2.02 (Simulation time: 00 hr 41 min 30 sec)
Heartbeat CPU 0 instructions: 330000000 cycles: 150254507 heartbeat IPC: 2.453 cumulative IPC: 2.033 (Simulation time: 00 hr 42 min 40 sec)
Heartbeat CPU 0 instructions: 340000001 cycles: 154577777 heartbeat IPC: 2.313 cumulative IPC: 2.041 (Simulation time: 00 hr 43 min 47 sec)
Heartbeat CPU 0 instructions: 350000004 cycles: 159030710 heartbeat IPC: 2.246 cumulative IPC: 2.047 (Simulation time: 00 hr 44 min 57 sec)
Heartbeat CPU 0 instructions: 360000003 cycles: 163189549 heartbeat IPC: 2.405 cumulative IPC: 2.057 (Simulation time: 00 hr 46 min 17 sec)
Heartbeat CPU 0 instructions: 370000001 cycles: 167250861 heartbeat IPC: 2.462 cumulative IPC: 2.068 (Simulation time: 00 hr 47 min 39 sec)
Heartbeat CPU 0 instructions: 380000004 cycles: 171155216 heartbeat IPC: 2.561 cumulative IPC: 2.08 (Simulation time: 00 hr 48 min 58 sec)
Heartbeat CPU 0 instructions: 390000002 cycles: 175229461 heartbeat IPC: 2.454 cumulative IPC: 2.089 (Simulation time: 00 hr 50 min 10 sec)
Heartbeat CPU 0 instructions: 400000000 cycles: 179599691 heartbeat IPC: 2.288 cumulative IPC: 2.095 (Simulation time: 00 hr 51 min 21 sec)
Heartbeat CPU 0 instructions: 410000000 cycles: 187168417 heartbeat IPC: 1.321 cumulative IPC: 2.061 (Simulation time: 00 hr 53 min 06 sec)
Heartbeat CPU 0 instructions: 420000003 cycles: 198355158 heartbeat IPC: 0.8939 cumulative IPC: 1.991 (Simulation time: 00 hr 55 min 21 sec)
Heartbeat CPU 0 instructions: 430000000 cycles: 206074677 heartbeat IPC: 1.295 cumulative IPC: 1.963 (Simulation time: 00 hr 57 min 06 sec)
Heartbeat CPU 0 instructions: 440000004 cycles: 212750652 heartbeat IPC: 1.498 cumulative IPC: 1.948 (Simulation time: 00 hr 58 min 46 sec)
Heartbeat CPU 0 instructions: 450000000 cycles: 219552682 heartbeat IPC: 1.47 cumulative IPC: 1.932 (Simulation time: 01 hr 00 min 46 sec)
Heartbeat CPU 0 instructions: 460000002 cycles: 230317409 heartbeat IPC: 0.929 cumulative IPC: 1.882 (Simulation time: 01 hr 03 min 29 sec)
Heartbeat CPU 0 instructions: 470000003 cycles: 239463192 heartbeat IPC: 1.093 cumulative IPC: 1.851 (Simulation time: 01 hr 05 min 37 sec)
Heartbeat CPU 0 instructions: 480000003 cycles: 243756264 heartbeat IPC: 2.329 cumulative IPC: 1.859 (Simulation time: 01 hr 06 min 56 sec)
Heartbeat CPU 0 instructions: 490000001 cycles: 248503820 heartbeat IPC: 2.106 cumulative IPC: 1.864 (Simulation time: 01 hr 08 min 14 sec)
Heartbeat CPU 0 instructions: 500000002 cycles: 252968464 heartbeat IPC: 2.24 cumulative IPC: 1.871 (Simulation time: 01 hr 09 min 25 sec)
Heartbeat CPU 0 instructions: 510000000 cycles: 257249897 heartbeat IPC: 2.336 cumulative IPC: 1.879 (Simulation time: 01 hr 10 min 34 sec)
Heartbeat CPU 0 instructions: 520000000 cycles: 261711236 heartbeat IPC: 2.241 cumulative IPC: 1.886 (Simulation time: 01 hr 11 min 49 sec)
Heartbeat CPU 0 instructions: 530000001 cycles: 273153249 heartbeat IPC: 0.874 cumulative IPC: 1.842 (Simulation time: 01 hr 14 min 33 sec)
Heartbeat CPU 0 instructions: 540000000 cycles: 284233201 heartbeat IPC: 0.9025 cumulative IPC: 1.803 (Simulation time: 01 hr 17 min 06 sec)
Heartbeat CPU 0 instructions: 550000004 cycles: 296731083 heartbeat IPC: 0.8001 cumulative IPC: 1.759 (Simulation time: 01 hr 19 min 50 sec)
Heartbeat CPU 0 instructions: 560000004 cycles: 300922617 heartbeat IPC: 2.386 cumulative IPC: 1.768 (Simulation time: 01 hr 21 min 04 sec)
Heartbeat CPU 0 instructions: 570000001 cycles: 304051371 heartbeat IPC: 3.196 cumulative IPC: 1.784 (Simulation time: 01 hr 22 min 08 sec)
Heartbeat CPU 0 instructions: 580000003 cycles: 307597080 heartbeat IPC: 2.82 cumulative IPC: 1.796 (Simulation time: 01 hr 23 min 10 sec)
Heartbeat CPU 0 instructions: 590000002 cycles: 311223349 heartbeat IPC: 2.758 cumulative IPC: 1.808 (Simulation time: 01 hr 24 min 10 sec)
Heartbeat CPU 0 instructions: 600000003 cycles: 314289716 heartbeat IPC: 3.261 cumulative IPC: 1.822 (Simulation time: 01 hr 25 min 12 sec)
Heartbeat CPU 0 instructions: 610000001 cycles: 317801742 heartbeat IPC: 2.847 cumulative IPC: 1.834 (Simulation time: 01 hr 26 min 29 sec)
Heartbeat CPU 0 instructions: 620000000 cycles: 321820083 heartbeat IPC: 2.489 cumulative IPC: 1.843 (Simulation time: 01 hr 28 min 03 sec)
Heartbeat CPU 0 instructions: 630000002 cycles: 325188241 heartbeat IPC: 2.969 cumulative IPC: 1.855 (Simulation time: 01 hr 29 min 20 sec)
Heartbeat CPU 0 instructions: 640000004 cycles: 329199820 heartbeat IPC: 2.493 cumulative IPC: 1.863 (Simulation time: 01 hr 30 min 39 sec)
Heartbeat CPU 0 instructions: 650000001 cycles: 333024670 heartbeat IPC: 2.614 cumulative IPC: 1.872 (Simulation time: 01 hr 31 min 55 sec)
Simulation finished CPU 0 instructions: 600000001 cycles: 320524609 cumulative IPC: 1.872 (Simulation time: 01 hr 31 min 55 sec)
Simulation complete CPU 0 instructions: 600000001 cycles: 320524609 cumulative IPC: 1.872 (Simulation time: 01 hr 31 min 55 sec)

ChampSim completed all CPUs

=== Simulation ===
CPU 0 runs traces/400.perlbench-50B.champsimtrace.xz
Region of Interest Statistics

CPU 0 cumulative IPC: 1.872 instructions: 600000001 cycles: 320524609
CPU 0 Branch Prediction Accuracy: 96.2% MPKI: 7.839 Average ROB Occupancy at Mispredict: 43.55
Branch type MPKI
BRANCH_DIRECT_JUMP: 0.0176
BRANCH_INDIRECT: 0.38
BRANCH_CONDITIONAL: 6.99
BRANCH_DIRECT_CALL: 0.0067
BRANCH_INDIRECT_CALL: 0.431
BRANCH_RETURN: 0.0161

LLC TOTAL        ACCESS:     847882 HIT:     535587 MISS:     312295
LLC LOAD         ACCESS:     582784 HIT:     330381 MISS:     252403
LLC RFO          ACCESS:      47394 HIT:      28470 MISS:      18924
LLC PREFETCH     ACCESS:      65364 HIT:      36783 MISS:      28581
LLC WRITE        ACCESS:     130417 HIT:     130175 MISS:        242
LLC TRANSLATION  ACCESS:      21923 HIT:       9778 MISS:      12145
LLC PREFETCH REQUESTED:      65364 ISSUED:      65364 USEFUL:      17749 USELESS:       6847
LLC AVERAGE MISS LATENCY: 542.1 cycles
cpu0_DTLB TOTAL        ACCESS:  146492386 HIT:  145188761 MISS:    1303625
cpu0_DTLB LOAD         ACCESS:  146492386 HIT:  145188761 MISS:    1303625
cpu0_DTLB RFO          ACCESS:          0 HIT:          0 MISS:          0
cpu0_DTLB PREFETCH     ACCESS:          0 HIT:          0 MISS:          0
cpu0_DTLB WRITE        ACCESS:          0 HIT:          0 MISS:          0
cpu0_DTLB TRANSLATION  ACCESS:          0 HIT:          0 MISS:          0
cpu0_DTLB PREFETCH REQUESTED:          0 ISSUED:          0 USEFUL:          0 USELESS:          0
cpu0_DTLB AVERAGE MISS LATENCY: 11.88 cycles
cpu0_ITLB TOTAL        ACCESS:    8990898 HIT:    8806312 MISS:     184586
cpu0_ITLB LOAD         ACCESS:    8990898 HIT:    8806312 MISS:     184586
cpu0_ITLB RFO          ACCESS:          0 HIT:          0 MISS:          0
cpu0_ITLB PREFETCH     ACCESS:          0 HIT:          0 MISS:          0
cpu0_ITLB WRITE        ACCESS:          0 HIT:          0 MISS:          0
cpu0_ITLB TRANSLATION  ACCESS:          0 HIT:          0 MISS:          0
cpu0_ITLB PREFETCH REQUESTED:          0 ISSUED:          0 USEFUL:          0 USELESS:          0
cpu0_ITLB AVERAGE MISS LATENCY: 3.576 cycles
cpu0_L1D TOTAL        ACCESS:  193294714 HIT:  190415487 MISS:    2879227
cpu0_L1D LOAD         ACCESS:  107448285 HIT:  105078997 MISS:    2369288
cpu0_L1D RFO          ACCESS:          0 HIT:          0 MISS:          0
cpu0_L1D PREFETCH     ACCESS:          0 HIT:          0 MISS:          0
cpu0_L1D WRITE        ACCESS:   85817905 HIT:   85334472 MISS:     483433
cpu0_L1D TRANSLATION  ACCESS:      28524 HIT:       2018 MISS:      26506
cpu0_L1D PREFETCH REQUESTED:          0 ISSUED:          0 USEFUL:          0 USELESS:          0
cpu0_L1D AVERAGE MISS LATENCY: 58.32 cycles
cpu0_L1I TOTAL        ACCESS:   10424779 HIT:    8662291 MISS:    1762488
cpu0_L1I LOAD         ACCESS:   10424779 HIT:    8662291 MISS:    1762488
cpu0_L1I RFO          ACCESS:          0 HIT:          0 MISS:          0
cpu0_L1I PREFETCH     ACCESS:          0 HIT:          0 MISS:          0
cpu0_L1I WRITE        ACCESS:          0 HIT:          0 MISS:          0
cpu0_L1I TRANSLATION  ACCESS:          0 HIT:          0 MISS:          0
cpu0_L1I PREFETCH REQUESTED:          0 ISSUED:          0 USEFUL:          0 USELESS:          0
cpu0_L1I AVERAGE MISS LATENCY: 11.03 cycles
cpu0_L2C TOTAL        ACCESS:    3232240 HIT:    2573951 MISS:     658289
cpu0_L2C LOAD         ACCESS:    2710063 HIT:    2127278 MISS:     582785
cpu0_L2C RFO          ACCESS:     133263 HIT:      85869 MISS:      47394
cpu0_L2C PREFETCH     ACCESS:          0 HIT:          0 MISS:          0
cpu0_L2C WRITE        ACCESS:     362472 HIT:     356285 MISS:       6187
cpu0_L2C TRANSLATION  ACCESS:      26442 HIT:       4519 MISS:      21923
cpu0_L2C PREFETCH REQUESTED:          0 ISSUED:          0 USEFUL:          0 USELESS:          0
cpu0_L2C AVERAGE MISS LATENCY: 251.7 cycles
cpu0_STLB TOTAL        ACCESS:    1008662 HIT:     981968 MISS:      26694
cpu0_STLB LOAD         ACCESS:    1008662 HIT:     981968 MISS:      26694
cpu0_STLB RFO          ACCESS:          0 HIT:          0 MISS:          0
cpu0_STLB PREFETCH     ACCESS:          0 HIT:          0 MISS:          0
cpu0_STLB WRITE        ACCESS:          0 HIT:          0 MISS:          0
cpu0_STLB TRANSLATION  ACCESS:          0 HIT:          0 MISS:          0
cpu0_STLB PREFETCH REQUESTED:          0 ISSUED:          0 USEFUL:          0 USELESS:          0
cpu0_STLB AVERAGE MISS LATENCY: 361.5 cycles

DRAM Statistics

Channel 0 RQ ROW_BUFFER_HIT:      65285
  ROW_BUFFER_MISS:     241740
 AVG DBUS CONGESTED CYCLE: 3.805
WQ ROW_BUFFER_HIT: Channel 0 
  ROW_BUFFER_MISS:       7438
  FULL:      32015
