WARNING: physical memory size is smaller than virtual memory size.

*** ChampSim Multicore Out-of-Order Simulator ***
Warmup Instructions: 50000000
Simulation Instructions: 600000000
Number of CPUs: 1
Page size: 4096

Off-chip DRAM Size: 4 GiB Channels: 1 Width: 64-bit Data Race: 3200 MT/s
Heartbeat CPU 0 instructions: 10000001 cycles: 2500318 heartbeat IPC: 3.999 cumulative IPC: 3.999 (Simulation time: 00 hr 03 min 39 sec)
Heartbeat CPU 0 instructions: 20000002 cycles: 5037122 heartbeat IPC: 3.942 cumulative IPC: 3.971 (Simulation time: 00 hr 07 min 31 sec)
Heartbeat CPU 0 instructions: 30000002 cycles: 7537122 heartbeat IPC: 4 cumulative IPC: 3.98 (Simulation time: 00 hr 10 min 59 sec)
Heartbeat CPU 0 instructions: 40000002 cycles: 10037122 heartbeat IPC: 4 cumulative IPC: 3.985 (Simulation time: 00 hr 14 min 22 sec)
Heartbeat CPU 0 instructions: 50000002 cycles: 12537122 heartbeat IPC: 4 cumulative IPC: 3.988 (Simulation time: 00 hr 17 min 46 sec)
Warmup finished CPU 0 instructions: 50000002 cycles: 12537123 cumulative IPC: 3.988 (Simulation time: 00 hr 17 min 46 sec)
Warmup complete CPU 0 instructions: 50000002 cycles: 12537123 cumulative IPC: 3.988 (Simulation time: 00 hr 17 min 46 sec)
Heartbeat CPU 0 instructions: 60000000 cycles: 17134708 heartbeat IPC: 2.175 cumulative IPC: 2.175 (Simulation time: 00 hr 22 min 44 sec)
Heartbeat CPU 0 instructions: 70000004 cycles: 21399801 heartbeat IPC: 2.345 cumulative IPC: 2.257 (Simulation time: 00 hr 27 min 30 sec)
Heartbeat CPU 0 instructions: 80000001 cycles: 25983275 heartbeat IPC: 2.182 cumulative IPC: 2.231 (Simulation time: 00 hr 32 min 16 sec)
Heartbeat CPU 0 instructions: 90000001 cycles: 30104842 heartbeat IPC: 2.426 cumulative IPC: 2.277 (Simulation time: 00 hr 37 min 02 sec)
Heartbeat CPU 0 instructions: 100000000 cycles: 34149071 heartbeat IPC: 2.473 cumulative IPC: 2.314 (Simulation time: 00 hr 41 min 33 sec)
Heartbeat CPU 0 instructions: 110000000 cycles: 38384000 heartbeat IPC: 2.361 cumulative IPC: 2.321 (Simulation time: 00 hr 46 min 07 sec)
Heartbeat CPU 0 instructions: 120000001 cycles: 42389764 heartbeat IPC: 2.496 cumulative IPC: 2.345 (Simulation time: 00 hr 50 min 37 sec)
Heartbeat CPU 0 instructions: 130000001 cycles: 46115471 heartbeat IPC: 2.684 cumulative IPC: 2.382 (Simulation time: 00 hr 55 min 01 sec)
Heartbeat CPU 0 instructions: 140000001 cycles: 50268888 heartbeat IPC: 2.408 cumulative IPC: 2.385 (Simulation time: 00 hr 59 min 34 sec)
Heartbeat CPU 0 instructions: 150000001 cycles: 54459068 heartbeat IPC: 2.387 cumulative IPC: 2.385 (Simulation time: 01 hr 04 min 08 sec)
Heartbeat CPU 0 instructions: 160000004 cycles: 58868018 heartbeat IPC: 2.268 cumulative IPC: 2.374 (Simulation time: 01 hr 08 min 47 sec)
Heartbeat CPU 0 instructions: 170000000 cycles: 67080187 heartbeat IPC: 1.218 cumulative IPC: 2.2 (Simulation time: 01 hr 15 min 52 sec)
Heartbeat CPU 0 instructions: 180000004 cycles: 74087164 heartbeat IPC: 1.427 cumulative IPC: 2.112 (Simulation time: 01 hr 22 min 23 sec)
Heartbeat CPU 0 instructions: 190000001 cycles: 80823876 heartbeat IPC: 1.484 cumulative IPC: 2.05 (Simulation time: 01 hr 28 min 47 sec)
Heartbeat CPU 0 instructions: 200000004 cycles: 84468277 heartbeat IPC: 2.744 cumulative IPC: 2.085 (Simulation time: 01 hr 33 min 08 sec)
Heartbeat CPU 0 instructions: 210000001 cycles: 88275180 heartbeat IPC: 2.627 cumulative IPC: 2.113 (Simulation time: 01 hr 37 min 36 sec)
Heartbeat CPU 0 instructions: 220000000 cycles: 92179302 heartbeat IPC: 2.561 cumulative IPC: 2.135 (Simulation time: 01 hr 42 min 02 sec)
Heartbeat CPU 0 instructions: 230000002 cycles: 96691643 heartbeat IPC: 2.216 cumulative IPC: 2.139 (Simulation time: 01 hr 46 min 45 sec)
Heartbeat CPU 0 instructions: 240000000 cycles: 100796007 heartbeat IPC: 2.436 cumulative IPC: 2.153 (Simulation time: 01 hr 51 min 20 sec)
Heartbeat CPU 0 instructions: 250000000 cycles: 105018875 heartbeat IPC: 2.368 cumulative IPC: 2.163 (Simulation time: 01 hr 55 min 58 sec)
Heartbeat CPU 0 instructions: 260000000 cycles: 109127415 heartbeat IPC: 2.434 cumulative IPC: 2.174 (Simulation time: 02 hr 00 min 30 sec)
Heartbeat CPU 0 instructions: 270000002 cycles: 112923034 heartbeat IPC: 2.635 cumulative IPC: 2.192 (Simulation time: 02 hr 04 min 54 sec)
Heartbeat CPU 0 instructions: 280000002 cycles: 117049275 heartbeat IPC: 2.424 cumulative IPC: 2.201 (Simulation time: 02 hr 09 min 26 sec)
Heartbeat CPU 0 instructions: 290000001 cycles: 120912985 heartbeat IPC: 2.588 cumulative IPC: 2.215 (Simulation time: 02 hr 13 min 51 sec)
Heartbeat CPU 0 instructions: 300000003 cycles: 124688291 heartbeat IPC: 2.649 cumulative IPC: 2.229 (Simulation time: 02 hr 18 min 18 sec)
Heartbeat CPU 0 instructions: 310000001 cycles: 128747893 heartbeat IPC: 2.463 cumulative IPC: 2.237 (Simulation time: 02 hr 22 min 52 sec)
Heartbeat CPU 0 instructions: 320000003 cycles: 132788315 heartbeat IPC: 2.475 cumulative IPC: 2.245 (Simulation time: 02 hr 27 min 24 sec)
Heartbeat CPU 0 instructions: 330000003 cycles: 137139354 heartbeat IPC: 2.298 cumulative IPC: 2.247 (Simulation time: 02 hr 32 min 04 sec)
Heartbeat CPU 0 instructions: 340000000 cycles: 145416331 heartbeat IPC: 1.208 cumulative IPC: 2.182 (Simulation time: 02 hr 39 min 16 sec)
Heartbeat CPU 0 instructions: 350000000 cycles: 152691503 heartbeat IPC: 1.375 cumulative IPC: 2.14 (Simulation time: 02 hr 45 min 58 sec)
Heartbeat CPU 0 instructions: 360000004 cycles: 159651074 heartbeat IPC: 1.437 cumulative IPC: 2.107 (Simulation time: 02 hr 52 min 29 sec)
Heartbeat CPU 0 instructions: 370000000 cycles: 162988236 heartbeat IPC: 2.997 cumulative IPC: 2.127 (Simulation time: 02 hr 56 min 37 sec)
Heartbeat CPU 0 instructions: 380000001 cycles: 166306840 heartbeat IPC: 3.013 cumulative IPC: 2.146 (Simulation time: 03 hr 00 min 48 sec)
Heartbeat CPU 0 instructions: 390000004 cycles: 169983388 heartbeat IPC: 2.72 cumulative IPC: 2.159 (Simulation time: 03 hr 05 min 06 sec)
Heartbeat CPU 0 instructions: 400000004 cycles: 173758350 heartbeat IPC: 2.649 cumulative IPC: 2.171 (Simulation time: 03 hr 09 min 28 sec)
Heartbeat CPU 0 instructions: 410000001 cycles: 177322386 heartbeat IPC: 2.806 cumulative IPC: 2.185 (Simulation time: 03 hr 13 min 43 sec)
Heartbeat CPU 0 instructions: 420000003 cycles: 181236552 heartbeat IPC: 2.555 cumulative IPC: 2.193 (Simulation time: 03 hr 18 min 07 sec)
Heartbeat CPU 0 instructions: 430000001 cycles: 184839468 heartbeat IPC: 2.776 cumulative IPC: 2.205 (Simulation time: 03 hr 22 min 25 sec)
Heartbeat CPU 0 instructions: 440000004 cycles: 188853129 heartbeat IPC: 2.491 cumulative IPC: 2.212 (Simulation time: 03 hr 26 min 57 sec)
Heartbeat CPU 0 instructions: 450000002 cycles: 192518313 heartbeat IPC: 2.728 cumulative IPC: 2.222 (Simulation time: 03 hr 31 min 18 sec)
Heartbeat CPU 0 instructions: 460000000 cycles: 196148002 heartbeat IPC: 2.755 cumulative IPC: 2.233 (Simulation time: 03 hr 35 min 43 sec)
Heartbeat CPU 0 instructions: 470000000 cycles: 199568853 heartbeat IPC: 2.923 cumulative IPC: 2.246 (Simulation time: 03 hr 39 min 55 sec)
Heartbeat CPU 0 instructions: 480000003 cycles: 203347550 heartbeat IPC: 2.646 cumulative IPC: 2.254 (Simulation time: 03 hr 44 min 16 sec)
Heartbeat CPU 0 instructions: 490000000 cycles: 206959078 heartbeat IPC: 2.769 cumulative IPC: 2.263 (Simulation time: 03 hr 48 min 33 sec)
Heartbeat CPU 0 instructions: 500000000 cycles: 210640774 heartbeat IPC: 2.716 cumulative IPC: 2.272 (Simulation time: 03 hr 52 min 52 sec)
Heartbeat CPU 0 instructions: 510000003 cycles: 214264775 heartbeat IPC: 2.759 cumulative IPC: 2.28 (Simulation time: 03 hr 57 min 12 sec)
Heartbeat CPU 0 instructions: 520000001 cycles: 217643588 heartbeat IPC: 2.96 cumulative IPC: 2.291 (Simulation time: 04 hr 01 min 25 sec)
Heartbeat CPU 0 instructions: 530000002 cycles: 221281820 heartbeat IPC: 2.749 cumulative IPC: 2.299 (Simulation time: 04 hr 05 min 42 sec)
Heartbeat CPU 0 instructions: 540000000 cycles: 224779710 heartbeat IPC: 2.859 cumulative IPC: 2.309 (Simulation time: 04 hr 09 min 56 sec)
Heartbeat CPU 0 instructions: 550000001 cycles: 228456924 heartbeat IPC: 2.719 cumulative IPC: 2.316 (Simulation time: 04 hr 14 min 16 sec)
Heartbeat CPU 0 instructions: 560000000 cycles: 232398388 heartbeat IPC: 2.537 cumulative IPC: 2.32 (Simulation time: 04 hr 18 min 41 sec)
Heartbeat CPU 0 instructions: 570000004 cycles: 238355674 heartbeat IPC: 1.679 cumulative IPC: 2.303 (Simulation time: 04 hr 24 min 25 sec)
Heartbeat CPU 0 instructions: 580000003 cycles: 246424666 heartbeat IPC: 1.239 cumulative IPC: 2.266 (Simulation time: 04 hr 31 min 32 sec)
Heartbeat CPU 0 instructions: 590000002 cycles: 254692687 heartbeat IPC: 1.209 cumulative IPC: 2.23 (Simulation time: 04 hr 38 min 52 sec)
Heartbeat CPU 0 instructions: 600000000 cycles: 258282843 heartbeat IPC: 2.785 cumulative IPC: 2.238 (Simulation time: 04 hr 43 min 07 sec)
Heartbeat CPU 0 instructions: 610000000 cycles: 262061467 heartbeat IPC: 2.646 cumulative IPC: 2.244 (Simulation time: 04 hr 47 min 25 sec)
Heartbeat CPU 0 instructions: 620000001 cycles: 265437344 heartbeat IPC: 2.962 cumulative IPC: 2.254 (Simulation time: 04 hr 51 min 37 sec)
Heartbeat CPU 0 instructions: 630000002 cycles: 269631145 heartbeat IPC: 2.384 cumulative IPC: 2.256 (Simulation time: 04 hr 56 min 08 sec)
Heartbeat CPU 0 instructions: 640000001 cycles: 273498796 heartbeat IPC: 2.586 cumulative IPC: 2.261 (Simulation time: 05 hr 00 min 43 sec)
Heartbeat CPU 0 instructions: 650000000 cycles: 277225718 heartbeat IPC: 2.683 cumulative IPC: 2.267 (Simulation time: 05 hr 05 min 01 sec)
Simulation finished CPU 0 instructions: 600000001 cycles: 264688597 cumulative IPC: 2.267 (Simulation time: 05 hr 05 min 01 sec)
Simulation complete CPU 0 instructions: 600000001 cycles: 264688597 cumulative IPC: 2.267 (Simulation time: 05 hr 05 min 01 sec)

ChampSim completed all CPUs

=== Simulation ===
CPU 0 runs traces/400.perlbench-41B.champsimtrace.xz
Region of Interest Statistics

CPU 0 cumulative IPC: 2.267 instructions: 600000001 cycles: 264688597
CPU 0 Branch Prediction Accuracy: 96.56% MPKI: 7.112 Average ROB Occupancy at Mispredict: 47
Branch type MPKI
BRANCH_DIRECT_JUMP: 0.0123
BRANCH_INDIRECT: 0.323
BRANCH_CONDITIONAL: 6.56
BRANCH_DIRECT_CALL: 0.0043
BRANCH_INDIRECT_CALL: 0.2
BRANCH_RETURN: 0.00828

LLC TOTAL        ACCESS:     593447 HIT:     465272 MISS:     128175
LLC LOAD         ACCESS:     403241 HIT:     305900 MISS:      97341
LLC RFO          ACCESS:      32491 HIT:      23949 MISS:       8542
LLC PREFETCH     ACCESS:      53213 HIT:      46242 MISS:       6971
LLC WRITE        ACCESS:      85281 HIT:      79795 MISS:       5486
LLC TRANSLATION  ACCESS:      19221 HIT:       9386 MISS:       9835
LLC PREFETCH REQUESTED:      53213 ISSUED:      53213 USEFUL:       3004 USELESS:       3088
LLC AVERAGE MISS LATENCY: 507.5 cycles
cpu0_DTLB TOTAL        ACCESS:  141907620 HIT:  141220960 MISS:     686660
cpu0_DTLB LOAD         ACCESS:  141907620 HIT:  141220960 MISS:     686660
cpu0_DTLB RFO          ACCESS:          0 HIT:          0 MISS:          0
cpu0_DTLB PREFETCH     ACCESS:          0 HIT:          0 MISS:          0
cpu0_DTLB WRITE        ACCESS:          0 HIT:          0 MISS:          0
cpu0_DTLB TRANSLATION  ACCESS:          0 HIT:          0 MISS:          0
cpu0_DTLB PREFETCH REQUESTED:          0 ISSUED:          0 USEFUL:          0 USELESS:          0
cpu0_DTLB AVERAGE MISS LATENCY: 13.41 cycles
cpu0_ITLB TOTAL        ACCESS:    4861426 HIT:    4808319 MISS:      53107
cpu0_ITLB LOAD         ACCESS:    4861426 HIT:    4808319 MISS:      53107
cpu0_ITLB RFO          ACCESS:          0 HIT:          0 MISS:          0
cpu0_ITLB PREFETCH     ACCESS:          0 HIT:          0 MISS:          0
cpu0_ITLB WRITE        ACCESS:          0 HIT:          0 MISS:          0
cpu0_ITLB TRANSLATION  ACCESS:          0 HIT:          0 MISS:          0
cpu0_ITLB PREFETCH REQUESTED:          0 ISSUED:          0 USEFUL:          0 USELESS:          0
cpu0_ITLB AVERAGE MISS LATENCY: 6.27 cycles
cpu0_L1D TOTAL        ACCESS:  188576944 HIT:  186882348 MISS:    1694596
cpu0_L1D LOAD         ACCESS:  105209602 HIT:  103888216 MISS:    1321386
cpu0_L1D RFO          ACCESS:          0 HIT:          0 MISS:          0
cpu0_L1D PREFETCH     ACCESS:          0 HIT:          0 MISS:          0
cpu0_L1D WRITE        ACCESS:   83342877 HIT:   82993073 MISS:     349804
cpu0_L1D TRANSLATION  ACCESS:      24465 HIT:       1059 MISS:      23406
cpu0_L1D PREFETCH REQUESTED:          0 ISSUED:          0 USEFUL:          0 USELESS:          0
cpu0_L1D AVERAGE MISS LATENCY: 43.57 cycles
cpu0_L1I TOTAL        ACCESS:    5599135 HIT:    4855549 MISS:     743586
cpu0_L1I LOAD         ACCESS:    5599135 HIT:    4855549 MISS:     743586
cpu0_L1I RFO          ACCESS:          0 HIT:          0 MISS:          0
cpu0_L1I PREFETCH     ACCESS:          0 HIT:          0 MISS:          0
cpu0_L1I WRITE        ACCESS:          0 HIT:          0 MISS:          0
cpu0_L1I TRANSLATION  ACCESS:          0 HIT:          0 MISS:          0
cpu0_L1I PREFETCH REQUESTED:          0 ISSUED:          0 USEFUL:          0 USELESS:          0
cpu0_L1I AVERAGE MISS LATENCY: 9.305 cycles
cpu0_L2C TOTAL        ACCESS:    1665940 HIT:    1209175 MISS:     456765
cpu0_L2C LOAD         ACCESS:    1316011 HIT:     912770 MISS:     403241
cpu0_L2C RFO          ACCESS:      88325 HIT:      55834 MISS:      32491
cpu0_L2C PREFETCH     ACCESS:          0 HIT:          0 MISS:          0
cpu0_L2C WRITE        ACCESS:     238272 HIT:     236460 MISS:       1812
cpu0_L2C TRANSLATION  ACCESS:      23332 HIT:       4111 MISS:      19221
cpu0_L2C PREFETCH REQUESTED:          0 ISSUED:          0 USEFUL:          0 USELESS:          0
cpu0_L2C AVERAGE MISS LATENCY: 153.2 cycles
cpu0_STLB TOTAL        ACCESS:     507115 HIT:     484321 MISS:      22794
cpu0_STLB LOAD         ACCESS:     507115 HIT:     484321 MISS:      22794
cpu0_STLB RFO          ACCESS:          0 HIT:          0 MISS:          0
cpu0_STLB PREFETCH     ACCESS:          0 HIT:          0 MISS:          0
cpu0_STLB WRITE        ACCESS:          0 HIT:          0 MISS:          0
cpu0_STLB TRANSLATION  ACCESS:          0 HIT:          0 MISS:          0
cpu0_STLB PREFETCH REQUESTED:          0 ISSUED:          0 USEFUL:          0 USELESS:          0
cpu0_STLB AVERAGE MISS LATENCY: 278.8 cycles

DRAM Statistics

Channel 0 RQ ROW_BUFFER_HIT:      24964
  ROW_BUFFER_MISS:      96893
 AVG DBUS CONGESTED CYCLE: 3.767
WQ ROW_BUFFER_HIT: Channel 0 
  ROW_BUFFER_MISS:       5742
  FULL:      10036
