WARNING: physical memory size is smaller than virtual memory size.

*** ChampSim Multicore Out-of-Order Simulator ***
Warmup Instructions: 50000000
Simulation Instructions: 600000000
Number of CPUs: 1
Page size: 4096

Off-chip DRAM Size: 4 GiB Channels: 1 Width: 64-bit Data Race: 3200 MT/s
Heartbeat CPU 0 instructions: 10000000 cycles: 2500061 heartbeat IPC: 4 cumulative IPC: 4 (Simulation time: 00 hr 00 min 55 sec)
Heartbeat CPU 0 instructions: 20000000 cycles: 5000061 heartbeat IPC: 4 cumulative IPC: 4 (Simulation time: 00 hr 01 min 50 sec)
Heartbeat CPU 0 instructions: 30000000 cycles: 7500061 heartbeat IPC: 4 cumulative IPC: 4 (Simulation time: 00 hr 02 min 39 sec)
Heartbeat CPU 0 instructions: 40000000 cycles: 10000061 heartbeat IPC: 4 cumulative IPC: 4 (Simulation time: 00 hr 03 min 32 sec)
Heartbeat CPU 0 instructions: 50000000 cycles: 12500061 heartbeat IPC: 4 cumulative IPC: 4 (Simulation time: 00 hr 04 min 23 sec)
Warmup finished CPU 0 instructions: 50000000 cycles: 12500062 cumulative IPC: 4 (Simulation time: 00 hr 04 min 23 sec)
Warmup complete CPU 0 instructions: 50000000 cycles: 12500062 cumulative IPC: 4 (Simulation time: 00 hr 04 min 23 sec)
Heartbeat CPU 0 instructions: 60000002 cycles: 16444320 heartbeat IPC: 2.535 cumulative IPC: 2.535 (Simulation time: 00 hr 05 min 28 sec)
Heartbeat CPU 0 instructions: 70000003 cycles: 20759823 heartbeat IPC: 2.317 cumulative IPC: 2.421 (Simulation time: 00 hr 06 min 33 sec)
Heartbeat CPU 0 instructions: 80000003 cycles: 25227591 heartbeat IPC: 2.238 cumulative IPC: 2.357 (Simulation time: 00 hr 07 min 51 sec)
Heartbeat CPU 0 instructions: 90000000 cycles: 28919011 heartbeat IPC: 2.709 cumulative IPC: 2.436 (Simulation time: 00 hr 09 min 14 sec)
Heartbeat CPU 0 instructions: 100000003 cycles: 32816151 heartbeat IPC: 2.566 cumulative IPC: 2.461 (Simulation time: 00 hr 10 min 35 sec)
Heartbeat CPU 0 instructions: 110000002 cycles: 36917375 heartbeat IPC: 2.438 cumulative IPC: 2.457 (Simulation time: 00 hr 11 min 45 sec)
Heartbeat CPU 0 instructions: 120000001 cycles: 40633193 heartbeat IPC: 2.691 cumulative IPC: 2.488 (Simulation time: 00 hr 12 min 51 sec)
Heartbeat CPU 0 instructions: 130000003 cycles: 44403228 heartbeat IPC: 2.652 cumulative IPC: 2.508 (Simulation time: 00 hr 13 min 57 sec)
Heartbeat CPU 0 instructions: 140000002 cycles: 48536109 heartbeat IPC: 2.42 cumulative IPC: 2.497 (Simulation time: 00 hr 15 min 12 sec)
Heartbeat CPU 0 instructions: 150000001 cycles: 52588514 heartbeat IPC: 2.468 cumulative IPC: 2.494 (Simulation time: 00 hr 16 min 22 sec)
Heartbeat CPU 0 instructions: 160000000 cycles: 56246657 heartbeat IPC: 2.734 cumulative IPC: 2.514 (Simulation time: 00 hr 17 min 25 sec)
Heartbeat CPU 0 instructions: 170000001 cycles: 60420087 heartbeat IPC: 2.396 cumulative IPC: 2.504 (Simulation time: 00 hr 18 min 31 sec)
Heartbeat CPU 0 instructions: 180000001 cycles: 63879893 heartbeat IPC: 2.89 cumulative IPC: 2.53 (Simulation time: 00 hr 19 min 32 sec)
Heartbeat CPU 0 instructions: 190000002 cycles: 67463337 heartbeat IPC: 2.791 cumulative IPC: 2.547 (Simulation time: 00 hr 20 min 48 sec)
Heartbeat CPU 0 instructions: 200000002 cycles: 71247240 heartbeat IPC: 2.643 cumulative IPC: 2.553 (Simulation time: 00 hr 22 min 11 sec)
Heartbeat CPU 0 instructions: 210000000 cycles: 74886058 heartbeat IPC: 2.748 cumulative IPC: 2.565 (Simulation time: 00 hr 23 min 26 sec)
Heartbeat CPU 0 instructions: 220000001 cycles: 78751209 heartbeat IPC: 2.587 cumulative IPC: 2.566 (Simulation time: 00 hr 24 min 36 sec)
Heartbeat CPU 0 instructions: 230000002 cycles: 82591187 heartbeat IPC: 2.604 cumulative IPC: 2.568 (Simulation time: 00 hr 25 min 45 sec)
Heartbeat CPU 0 instructions: 240000001 cycles: 86796749 heartbeat IPC: 2.378 cumulative IPC: 2.557 (Simulation time: 00 hr 26 min 54 sec)
Heartbeat CPU 0 instructions: 250000003 cycles: 91360680 heartbeat IPC: 2.191 cumulative IPC: 2.536 (Simulation time: 00 hr 28 min 09 sec)
Heartbeat CPU 0 instructions: 260000000 cycles: 95153472 heartbeat IPC: 2.637 cumulative IPC: 2.541 (Simulation time: 00 hr 29 min 17 sec)
Heartbeat CPU 0 instructions: 270000003 cycles: 102259531 heartbeat IPC: 1.407 cumulative IPC: 2.451 (Simulation time: 00 hr 30 min 51 sec)
Heartbeat CPU 0 instructions: 280000000 cycles: 112835633 heartbeat IPC: 0.9455 cumulative IPC: 2.292 (Simulation time: 00 hr 32 min 56 sec)
Heartbeat CPU 0 instructions: 290000000 cycles: 123163423 heartbeat IPC: 0.9683 cumulative IPC: 2.169 (Simulation time: 00 hr 35 min 29 sec)
Heartbeat CPU 0 instructions: 300000003 cycles: 131664903 heartbeat IPC: 1.176 cumulative IPC: 2.098 (Simulation time: 00 hr 37 min 32 sec)
Heartbeat CPU 0 instructions: 310000004 cycles: 144151215 heartbeat IPC: 0.8009 cumulative IPC: 1.975 (Simulation time: 00 hr 40 min 01 sec)
Heartbeat CPU 0 instructions: 320000004 cycles: 149895187 heartbeat IPC: 1.741 cumulative IPC: 1.965 (Simulation time: 00 hr 41 min 29 sec)
Heartbeat CPU 0 instructions: 330000000 cycles: 153964949 heartbeat IPC: 2.457 cumulative IPC: 1.979 (Simulation time: 00 hr 42 min 39 sec)
Heartbeat CPU 0 instructions: 340000001 cycles: 158344330 heartbeat IPC: 2.283 cumulative IPC: 1.988 (Simulation time: 00 hr 43 min 50 sec)
Heartbeat CPU 0 instructions: 350000004 cycles: 162860030 heartbeat IPC: 2.214 cumulative IPC: 1.995 (Simulation time: 00 hr 45 min 00 sec)
Heartbeat CPU 0 instructions: 360000003 cycles: 167054106 heartbeat IPC: 2.384 cumulative IPC: 2.006 (Simulation time: 00 hr 46 min 19 sec)
Heartbeat CPU 0 instructions: 370000001 cycles: 171058420 heartbeat IPC: 2.497 cumulative IPC: 2.018 (Simulation time: 00 hr 47 min 47 sec)
Heartbeat CPU 0 instructions: 380000004 cycles: 174927825 heartbeat IPC: 2.584 cumulative IPC: 2.032 (Simulation time: 00 hr 49 min 08 sec)
Heartbeat CPU 0 instructions: 390000002 cycles: 179082050 heartbeat IPC: 2.407 cumulative IPC: 2.041 (Simulation time: 00 hr 50 min 20 sec)
Heartbeat CPU 0 instructions: 400000000 cycles: 183535094 heartbeat IPC: 2.246 cumulative IPC: 2.046 (Simulation time: 00 hr 51 min 34 sec)
Heartbeat CPU 0 instructions: 410000000 cycles: 191879512 heartbeat IPC: 1.198 cumulative IPC: 2.007 (Simulation time: 00 hr 53 min 24 sec)
Heartbeat CPU 0 instructions: 420000003 cycles: 203372389 heartbeat IPC: 0.8701 cumulative IPC: 1.938 (Simulation time: 00 hr 55 min 32 sec)
Heartbeat CPU 0 instructions: 430000000 cycles: 212112352 heartbeat IPC: 1.144 cumulative IPC: 1.904 (Simulation time: 00 hr 57 min 17 sec)
Heartbeat CPU 0 instructions: 440000004 cycles: 220581169 heartbeat IPC: 1.181 cumulative IPC: 1.874 (Simulation time: 00 hr 59 min 06 sec)
Heartbeat CPU 0 instructions: 450000000 cycles: 228585599 heartbeat IPC: 1.249 cumulative IPC: 1.851 (Simulation time: 01 hr 01 min 24 sec)
Heartbeat CPU 0 instructions: 460000002 cycles: 241710790 heartbeat IPC: 0.7619 cumulative IPC: 1.789 (Simulation time: 01 hr 03 min 59 sec)
Heartbeat CPU 0 instructions: 470000003 cycles: 252634013 heartbeat IPC: 0.9155 cumulative IPC: 1.749 (Simulation time: 01 hr 06 min 11 sec)
Heartbeat CPU 0 instructions: 480000003 cycles: 256983256 heartbeat IPC: 2.299 cumulative IPC: 1.759 (Simulation time: 01 hr 07 min 26 sec)
Heartbeat CPU 0 instructions: 490000001 cycles: 261588813 heartbeat IPC: 2.171 cumulative IPC: 1.766 (Simulation time: 01 hr 08 min 38 sec)
Heartbeat CPU 0 instructions: 500000002 cycles: 265994359 heartbeat IPC: 2.27 cumulative IPC: 1.775 (Simulation time: 01 hr 09 min 46 sec)
Heartbeat CPU 0 instructions: 510000000 cycles: 270162737 heartbeat IPC: 2.399 cumulative IPC: 1.785 (Simulation time: 01 hr 10 min 53 sec)
Heartbeat CPU 0 instructions: 520000000 cycles: 274512004 heartbeat IPC: 2.299 cumulative IPC: 1.794 (Simulation time: 01 hr 12 min 06 sec)
Heartbeat CPU 0 instructions: 530000001 cycles: 287277378 heartbeat IPC: 0.7834 cumulative IPC: 1.747 (Simulation time: 01 hr 14 min 58 sec)
Heartbeat CPU 0 instructions: 540000000 cycles: 299481009 heartbeat IPC: 0.8194 cumulative IPC: 1.707 (Simulation time: 01 hr 17 min 31 sec)
Heartbeat CPU 0 instructions: 550000004 cycles: 313985675 heartbeat IPC: 0.6894 cumulative IPC: 1.658 (Simulation time: 01 hr 20 min 18 sec)
Heartbeat CPU 0 instructions: 560000004 cycles: 318495227 heartbeat IPC: 2.218 cumulative IPC: 1.667 (Simulation time: 01 hr 21 min 35 sec)
Heartbeat CPU 0 instructions: 570000001 cycles: 321631396 heartbeat IPC: 3.189 cumulative IPC: 1.682 (Simulation time: 01 hr 22 min 39 sec)
Heartbeat CPU 0 instructions: 580000003 cycles: 325179948 heartbeat IPC: 2.818 cumulative IPC: 1.695 (Simulation time: 01 hr 23 min 42 sec)
Heartbeat CPU 0 instructions: 590000002 cycles: 328811311 heartbeat IPC: 2.754 cumulative IPC: 1.707 (Simulation time: 01 hr 24 min 45 sec)
Heartbeat CPU 0 instructions: 600000003 cycles: 331879391 heartbeat IPC: 3.259 cumulative IPC: 1.722 (Simulation time: 01 hr 26 min 03 sec)
Heartbeat CPU 0 instructions: 610000001 cycles: 335397306 heartbeat IPC: 2.843 cumulative IPC: 1.734 (Simulation time: 01 hr 27 min 32 sec)
Heartbeat CPU 0 instructions: 620000000 cycles: 339416578 heartbeat IPC: 2.488 cumulative IPC: 1.744 (Simulation time: 01 hr 28 min 56 sec)
Heartbeat CPU 0 instructions: 630000002 cycles: 342787428 heartbeat IPC: 2.967 cumulative IPC: 1.756 (Simulation time: 01 hr 30 min 05 sec)
Heartbeat CPU 0 instructions: 640000004 cycles: 346796982 heartbeat IPC: 2.494 cumulative IPC: 1.765 (Simulation time: 01 hr 31 min 18 sec)
Heartbeat CPU 0 instructions: 650000001 cycles: 350620524 heartbeat IPC: 2.615 cumulative IPC: 1.775 (Simulation time: 01 hr 32 min 34 sec)
Simulation finished CPU 0 instructions: 600000001 cycles: 338120463 cumulative IPC: 1.775 (Simulation time: 01 hr 32 min 34 sec)
Simulation complete CPU 0 instructions: 600000001 cycles: 338120463 cumulative IPC: 1.775 (Simulation time: 01 hr 32 min 34 sec)

ChampSim completed all CPUs

=== Simulation ===
CPU 0 runs traces/400.perlbench-50B.champsimtrace.xz
Region of Interest Statistics

CPU 0 cumulative IPC: 1.775 instructions: 600000001 cycles: 338120463
CPU 0 Branch Prediction Accuracy: 96.2% MPKI: 7.839 Average ROB Occupancy at Mispredict: 43.86
Branch type MPKI
BRANCH_DIRECT_JUMP: 0.0176
BRANCH_INDIRECT: 0.38
BRANCH_CONDITIONAL: 6.99
BRANCH_DIRECT_CALL: 0.0067
BRANCH_INDIRECT_CALL: 0.431
BRANCH_RETURN: 0.0161

LLC TOTAL        ACCESS:     851484 HIT:     481039 MISS:     370445
LLC LOAD         ACCESS:     585940 HIT:     294973 MISS:     290967
LLC RFO          ACCESS:      47409 HIT:      30881 MISS:      16528
LLC PREFETCH     ACCESS:      65718 HIT:      44804 MISS:      20914
LLC WRITE        ACCESS:     130521 HIT:     105715 MISS:      24806
LLC TRANSLATION  ACCESS:      21896 HIT:       4666 MISS:      17230
LLC PREFETCH REQUESTED:      65718 ISSUED:      65718 USEFUL:       9659 USELESS:       7432
LLC AVERAGE MISS LATENCY: 469.8 cycles
cpu0_DTLB TOTAL        ACCESS:  146477445 HIT:  145172575 MISS:    1304870
cpu0_DTLB LOAD         ACCESS:  146477445 HIT:  145172575 MISS:    1304870
cpu0_DTLB RFO          ACCESS:          0 HIT:          0 MISS:          0
cpu0_DTLB PREFETCH     ACCESS:          0 HIT:          0 MISS:          0
cpu0_DTLB WRITE        ACCESS:          0 HIT:          0 MISS:          0
cpu0_DTLB TRANSLATION  ACCESS:          0 HIT:          0 MISS:          0
cpu0_DTLB PREFETCH REQUESTED:          0 ISSUED:          0 USEFUL:          0 USELESS:          0
cpu0_DTLB AVERAGE MISS LATENCY: 13.95 cycles
cpu0_ITLB TOTAL        ACCESS:    8991677 HIT:    8807096 MISS:     184581
cpu0_ITLB LOAD         ACCESS:    8991677 HIT:    8807096 MISS:     184581
cpu0_ITLB RFO          ACCESS:          0 HIT:          0 MISS:          0
cpu0_ITLB PREFETCH     ACCESS:          0 HIT:          0 MISS:          0
cpu0_ITLB WRITE        ACCESS:          0 HIT:          0 MISS:          0
cpu0_ITLB TRANSLATION  ACCESS:          0 HIT:          0 MISS:          0
cpu0_ITLB PREFETCH REQUESTED:          0 ISSUED:          0 USEFUL:          0 USELESS:          0
cpu0_ITLB AVERAGE MISS LATENCY: 3.856 cycles
cpu0_L1D TOTAL        ACCESS:  193267415 HIT:  190396624 MISS:    2870791
cpu0_L1D LOAD         ACCESS:  107421093 HIT:  105049406 MISS:    2371687
cpu0_L1D RFO          ACCESS:          0 HIT:          0 MISS:          0
cpu0_L1D PREFETCH     ACCESS:          0 HIT:          0 MISS:          0
cpu0_L1D WRITE        ACCESS:   85817804 HIT:   85345207 MISS:     472597
cpu0_L1D TRANSLATION  ACCESS:      28518 HIT:       2011 MISS:      26507
cpu0_L1D PREFETCH REQUESTED:          0 ISSUED:          0 USEFUL:          0 USELESS:          0
cpu0_L1D AVERAGE MISS LATENCY: 58.91 cycles
cpu0_L1I TOTAL        ACCESS:   10425431 HIT:    8663434 MISS:    1761997
cpu0_L1I LOAD         ACCESS:   10425431 HIT:    8663434 MISS:    1761997
cpu0_L1I RFO          ACCESS:          0 HIT:          0 MISS:          0
cpu0_L1I PREFETCH     ACCESS:          0 HIT:          0 MISS:          0
cpu0_L1I WRITE        ACCESS:          0 HIT:          0 MISS:          0
cpu0_L1I TRANSLATION  ACCESS:          0 HIT:          0 MISS:          0
cpu0_L1I PREFETCH REQUESTED:          0 ISSUED:          0 USEFUL:          0 USELESS:          0
cpu0_L1I AVERAGE MISS LATENCY: 17.23 cycles
cpu0_L2C TOTAL        ACCESS:    3232070 HIT:    2570530 MISS:     661540
cpu0_L2C LOAD         ACCESS:    2710045 HIT:    2124104 MISS:     585941
cpu0_L2C RFO          ACCESS:     133263 HIT:      85854 MISS:      47409
cpu0_L2C PREFETCH     ACCESS:          0 HIT:          0 MISS:          0
cpu0_L2C WRITE        ACCESS:     362327 HIT:     356033 MISS:       6294
cpu0_L2C TRANSLATION  ACCESS:      26435 HIT:       4539 MISS:      21896
cpu0_L2C PREFETCH REQUESTED:          0 ISSUED:          0 USEFUL:          0 USELESS:          0
cpu0_L2C AVERAGE MISS LATENCY: 268.2 cycles
cpu0_STLB TOTAL        ACCESS:    1008696 HIT:     982003 MISS:      26693
cpu0_STLB LOAD         ACCESS:    1008696 HIT:     982003 MISS:      26693
cpu0_STLB RFO          ACCESS:          0 HIT:          0 MISS:          0
cpu0_STLB PREFETCH     ACCESS:          0 HIT:          0 MISS:          0
cpu0_STLB WRITE        ACCESS:          0 HIT:          0 MISS:          0
cpu0_STLB TRANSLATION  ACCESS:          0 HIT:          0 MISS:          0
cpu0_STLB PREFETCH REQUESTED:          0 ISSUED:          0 USEFUL:          0 USELESS:          0
cpu0_STLB AVERAGE MISS LATENCY: 468.6 cycles

DRAM Statistics

Channel 0 RQ ROW_BUFFER_HIT:      72071
  ROW_BUFFER_MISS:     268392
 AVG DBUS CONGESTED CYCLE: 3.767
WQ ROW_BUFFER_HIT: Channel 0 
  ROW_BUFFER_MISS:      10421
  FULL:      22338
