WARNING: physical memory size is smaller than virtual memory size.

*** ChampSim Multicore Out-of-Order Simulator ***
Warmup Instructions: 50000000
Simulation Instructions: 600000000
Number of CPUs: 1
Page size: 4096

Off-chip DRAM Size: 4 GiB Channels: 1 Width: 64-bit Data Race: 3200 MT/s
Heartbeat CPU 0 instructions: 10000001 cycles: 2500318 heartbeat IPC: 3.999 cumulative IPC: 3.999 (Simulation time: 00 hr 03 min 49 sec)
Heartbeat CPU 0 instructions: 20000002 cycles: 5037136 heartbeat IPC: 3.942 cumulative IPC: 3.971 (Simulation time: 00 hr 07 min 23 sec)
Heartbeat CPU 0 instructions: 30000002 cycles: 7537136 heartbeat IPC: 4 cumulative IPC: 3.98 (Simulation time: 00 hr 10 min 44 sec)
Heartbeat CPU 0 instructions: 40000002 cycles: 10037136 heartbeat IPC: 4 cumulative IPC: 3.985 (Simulation time: 00 hr 14 min 07 sec)
Heartbeat CPU 0 instructions: 50000002 cycles: 12537136 heartbeat IPC: 4 cumulative IPC: 3.988 (Simulation time: 00 hr 17 min 42 sec)
Warmup finished CPU 0 instructions: 50000002 cycles: 12537137 cumulative IPC: 3.988 (Simulation time: 00 hr 17 min 42 sec)
Warmup complete CPU 0 instructions: 50000002 cycles: 12537137 cumulative IPC: 3.988 (Simulation time: 00 hr 17 min 42 sec)
Heartbeat CPU 0 instructions: 60000000 cycles: 17147841 heartbeat IPC: 2.169 cumulative IPC: 2.169 (Simulation time: 00 hr 22 min 34 sec)
Heartbeat CPU 0 instructions: 70000004 cycles: 21428341 heartbeat IPC: 2.336 cumulative IPC: 2.249 (Simulation time: 00 hr 27 min 29 sec)
Heartbeat CPU 0 instructions: 80000001 cycles: 26026534 heartbeat IPC: 2.175 cumulative IPC: 2.224 (Simulation time: 00 hr 32 min 17 sec)
Heartbeat CPU 0 instructions: 90000001 cycles: 30158957 heartbeat IPC: 2.42 cumulative IPC: 2.27 (Simulation time: 00 hr 36 min 57 sec)
Heartbeat CPU 0 instructions: 100000000 cycles: 34213007 heartbeat IPC: 2.467 cumulative IPC: 2.307 (Simulation time: 00 hr 41 min 35 sec)
Heartbeat CPU 0 instructions: 110000000 cycles: 38450600 heartbeat IPC: 2.36 cumulative IPC: 2.315 (Simulation time: 00 hr 46 min 07 sec)
Heartbeat CPU 0 instructions: 120000001 cycles: 42463570 heartbeat IPC: 2.492 cumulative IPC: 2.339 (Simulation time: 00 hr 50 min 20 sec)
Heartbeat CPU 0 instructions: 130000001 cycles: 46207534 heartbeat IPC: 2.671 cumulative IPC: 2.376 (Simulation time: 00 hr 54 min 30 sec)
Heartbeat CPU 0 instructions: 140000001 cycles: 50384096 heartbeat IPC: 2.394 cumulative IPC: 2.378 (Simulation time: 00 hr 58 min 40 sec)
Heartbeat CPU 0 instructions: 150000001 cycles: 54591375 heartbeat IPC: 2.377 cumulative IPC: 2.378 (Simulation time: 01 hr 02 min 38 sec)
Heartbeat CPU 0 instructions: 160000004 cycles: 59021285 heartbeat IPC: 2.257 cumulative IPC: 2.366 (Simulation time: 01 hr 06 min 36 sec)
Heartbeat CPU 0 instructions: 170000000 cycles: 67420686 heartbeat IPC: 1.191 cumulative IPC: 2.186 (Simulation time: 01 hr 12 min 30 sec)
Heartbeat CPU 0 instructions: 180000004 cycles: 74315169 heartbeat IPC: 1.45 cumulative IPC: 2.104 (Simulation time: 01 hr 17 min 42 sec)
Heartbeat CPU 0 instructions: 190000001 cycles: 81298019 heartbeat IPC: 1.432 cumulative IPC: 2.036 (Simulation time: 01 hr 22 min 55 sec)
Heartbeat CPU 0 instructions: 200000004 cycles: 84948107 heartbeat IPC: 2.74 cumulative IPC: 2.072 (Simulation time: 01 hr 26 min 25 sec)
Heartbeat CPU 0 instructions: 210000001 cycles: 88756973 heartbeat IPC: 2.625 cumulative IPC: 2.099 (Simulation time: 01 hr 29 min 55 sec)
Heartbeat CPU 0 instructions: 220000000 cycles: 92659317 heartbeat IPC: 2.563 cumulative IPC: 2.122 (Simulation time: 01 hr 33 min 29 sec)
Heartbeat CPU 0 instructions: 230000002 cycles: 97194945 heartbeat IPC: 2.205 cumulative IPC: 2.126 (Simulation time: 01 hr 37 min 15 sec)
Heartbeat CPU 0 instructions: 240000000 cycles: 101314090 heartbeat IPC: 2.428 cumulative IPC: 2.14 (Simulation time: 01 hr 40 min 54 sec)
Heartbeat CPU 0 instructions: 250000000 cycles: 105551830 heartbeat IPC: 2.36 cumulative IPC: 2.15 (Simulation time: 01 hr 44 min 34 sec)
Heartbeat CPU 0 instructions: 260000000 cycles: 109674965 heartbeat IPC: 2.425 cumulative IPC: 2.162 (Simulation time: 01 hr 48 min 12 sec)
Heartbeat CPU 0 instructions: 270000002 cycles: 113478654 heartbeat IPC: 2.629 cumulative IPC: 2.179 (Simulation time: 01 hr 51 min 58 sec)
Heartbeat CPU 0 instructions: 280000002 cycles: 117620654 heartbeat IPC: 2.414 cumulative IPC: 2.189 (Simulation time: 01 hr 55 min 56 sec)
Heartbeat CPU 0 instructions: 290000001 cycles: 121499803 heartbeat IPC: 2.578 cumulative IPC: 2.203 (Simulation time: 01 hr 59 min 51 sec)
Heartbeat CPU 0 instructions: 300000003 cycles: 125305271 heartbeat IPC: 2.628 cumulative IPC: 2.217 (Simulation time: 02 hr 03 min 48 sec)
Heartbeat CPU 0 instructions: 310000001 cycles: 129392102 heartbeat IPC: 2.447 cumulative IPC: 2.225 (Simulation time: 02 hr 07 min 45 sec)
Heartbeat CPU 0 instructions: 320000003 cycles: 133461445 heartbeat IPC: 2.457 cumulative IPC: 2.233 (Simulation time: 02 hr 11 min 44 sec)
Heartbeat CPU 0 instructions: 330000003 cycles: 137855416 heartbeat IPC: 2.276 cumulative IPC: 2.234 (Simulation time: 02 hr 15 min 52 sec)
Heartbeat CPU 0 instructions: 340000000 cycles: 146480384 heartbeat IPC: 1.159 cumulative IPC: 2.165 (Simulation time: 02 hr 22 min 22 sec)
Heartbeat CPU 0 instructions: 350000000 cycles: 153850056 heartbeat IPC: 1.357 cumulative IPC: 2.123 (Simulation time: 02 hr 28 min 23 sec)
Heartbeat CPU 0 instructions: 360000004 cycles: 161375104 heartbeat IPC: 1.329 cumulative IPC: 2.083 (Simulation time: 02 hr 34 min 19 sec)
Heartbeat CPU 0 instructions: 370000000 cycles: 164713495 heartbeat IPC: 2.995 cumulative IPC: 2.103 (Simulation time: 02 hr 37 min 56 sec)
Heartbeat CPU 0 instructions: 380000001 cycles: 168038314 heartbeat IPC: 3.008 cumulative IPC: 2.122 (Simulation time: 02 hr 41 min 34 sec)
Heartbeat CPU 0 instructions: 390000004 cycles: 171716358 heartbeat IPC: 2.719 cumulative IPC: 2.136 (Simulation time: 02 hr 45 min 21 sec)
Heartbeat CPU 0 instructions: 400000004 cycles: 175490458 heartbeat IPC: 2.65 cumulative IPC: 2.148 (Simulation time: 02 hr 49 min 14 sec)
Heartbeat CPU 0 instructions: 410000001 cycles: 179071533 heartbeat IPC: 2.792 cumulative IPC: 2.162 (Simulation time: 02 hr 52 min 58 sec)
Heartbeat CPU 0 instructions: 420000003 cycles: 183038144 heartbeat IPC: 2.521 cumulative IPC: 2.17 (Simulation time: 02 hr 56 min 52 sec)
Heartbeat CPU 0 instructions: 430000001 cycles: 186662993 heartbeat IPC: 2.759 cumulative IPC: 2.182 (Simulation time: 03 hr 00 min 38 sec)
Heartbeat CPU 0 instructions: 440000004 cycles: 190686055 heartbeat IPC: 2.486 cumulative IPC: 2.189 (Simulation time: 03 hr 04 min 40 sec)
Heartbeat CPU 0 instructions: 450000002 cycles: 194366757 heartbeat IPC: 2.717 cumulative IPC: 2.2 (Simulation time: 03 hr 08 min 18 sec)
Heartbeat CPU 0 instructions: 460000000 cycles: 198016421 heartbeat IPC: 2.74 cumulative IPC: 2.21 (Simulation time: 03 hr 11 min 58 sec)
Heartbeat CPU 0 instructions: 470000000 cycles: 201448010 heartbeat IPC: 2.914 cumulative IPC: 2.223 (Simulation time: 03 hr 15 min 34 sec)
Heartbeat CPU 0 instructions: 480000003 cycles: 205266087 heartbeat IPC: 2.619 cumulative IPC: 2.231 (Simulation time: 03 hr 19 min 14 sec)
Heartbeat CPU 0 instructions: 490000000 cycles: 208890528 heartbeat IPC: 2.759 cumulative IPC: 2.241 (Simulation time: 03 hr 22 min 35 sec)
Heartbeat CPU 0 instructions: 500000000 cycles: 212583097 heartbeat IPC: 2.708 cumulative IPC: 2.249 (Simulation time: 03 hr 25 min 53 sec)
Heartbeat CPU 0 instructions: 510000003 cycles: 216276595 heartbeat IPC: 2.707 cumulative IPC: 2.258 (Simulation time: 03 hr 29 min 12 sec)
Heartbeat CPU 0 instructions: 520000001 cycles: 219671116 heartbeat IPC: 2.946 cumulative IPC: 2.269 (Simulation time: 03 hr 32 min 27 sec)
Heartbeat CPU 0 instructions: 530000002 cycles: 223357956 heartbeat IPC: 2.712 cumulative IPC: 2.277 (Simulation time: 03 hr 35 min 43 sec)
Heartbeat CPU 0 instructions: 540000000 cycles: 226878784 heartbeat IPC: 2.84 cumulative IPC: 2.286 (Simulation time: 03 hr 38 min 57 sec)
Heartbeat CPU 0 instructions: 550000001 cycles: 230576376 heartbeat IPC: 2.704 cumulative IPC: 2.293 (Simulation time: 03 hr 42 min 17 sec)
Heartbeat CPU 0 instructions: 560000000 cycles: 234599830 heartbeat IPC: 2.485 cumulative IPC: 2.297 (Simulation time: 03 hr 45 min 39 sec)
Heartbeat CPU 0 instructions: 570000004 cycles: 241131070 heartbeat IPC: 1.531 cumulative IPC: 2.275 (Simulation time: 03 hr 50 min 16 sec)
Heartbeat CPU 0 instructions: 580000003 cycles: 248847612 heartbeat IPC: 1.296 cumulative IPC: 2.243 (Simulation time: 03 hr 55 min 33 sec)
Heartbeat CPU 0 instructions: 590000002 cycles: 257681858 heartbeat IPC: 1.132 cumulative IPC: 2.203 (Simulation time: 04 hr 01 min 26 sec)
Heartbeat CPU 0 instructions: 600000000 cycles: 261322632 heartbeat IPC: 2.747 cumulative IPC: 2.211 (Simulation time: 04 hr 04 min 39 sec)
Heartbeat CPU 0 instructions: 610000000 cycles: 265103292 heartbeat IPC: 2.645 cumulative IPC: 2.217 (Simulation time: 04 hr 07 min 57 sec)
Heartbeat CPU 0 instructions: 620000001 cycles: 268482248 heartbeat IPC: 2.959 cumulative IPC: 2.227 (Simulation time: 04 hr 11 min 15 sec)
Heartbeat CPU 0 instructions: 630000002 cycles: 272675286 heartbeat IPC: 2.385 cumulative IPC: 2.23 (Simulation time: 04 hr 14 min 47 sec)
Heartbeat CPU 0 instructions: 640000001 cycles: 276541966 heartbeat IPC: 2.586 cumulative IPC: 2.235 (Simulation time: 04 hr 18 min 15 sec)
Heartbeat CPU 0 instructions: 650000000 cycles: 280268088 heartbeat IPC: 2.684 cumulative IPC: 2.241 (Simulation time: 04 hr 21 min 34 sec)
Simulation finished CPU 0 instructions: 600000001 cycles: 267730953 cumulative IPC: 2.241 (Simulation time: 04 hr 21 min 34 sec)
Simulation complete CPU 0 instructions: 600000001 cycles: 267730953 cumulative IPC: 2.241 (Simulation time: 04 hr 21 min 34 sec)

ChampSim completed all CPUs

=== Simulation ===
CPU 0 runs traces/400.perlbench-41B.champsimtrace.xz
Region of Interest Statistics

CPU 0 cumulative IPC: 2.241 instructions: 600000001 cycles: 267730953
CPU 0 Branch Prediction Accuracy: 96.56% MPKI: 7.112 Average ROB Occupancy at Mispredict: 47.04
Branch type MPKI
BRANCH_DIRECT_JUMP: 0.0123
BRANCH_INDIRECT: 0.323
BRANCH_CONDITIONAL: 6.56
BRANCH_DIRECT_CALL: 0.0043
BRANCH_INDIRECT_CALL: 0.2
BRANCH_RETURN: 0.00828

LLC TOTAL        ACCESS:     540280 HIT:     406504 MISS:     133776
LLC LOAD         ACCESS:     403232 HIT:     298015 MISS:     105217
LLC RFO          ACCESS:      32495 HIT:      23927 MISS:       8568
LLC PREFETCH     ACCESS:          0 HIT:          0 MISS:          0
LLC WRITE        ACCESS:      85329 HIT:      76614 MISS:       8715
LLC TRANSLATION  ACCESS:      19224 HIT:       7948 MISS:      11276
LLC PREFETCH REQUESTED:          0 ISSUED:          0 USEFUL:          0 USELESS:          0
LLC AVERAGE MISS LATENCY: 501.4 cycles
cpu0_DTLB TOTAL        ACCESS:  141901639 HIT:  141215071 MISS:     686568
cpu0_DTLB LOAD         ACCESS:  141901639 HIT:  141215071 MISS:     686568
cpu0_DTLB RFO          ACCESS:          0 HIT:          0 MISS:          0
cpu0_DTLB PREFETCH     ACCESS:          0 HIT:          0 MISS:          0
cpu0_DTLB WRITE        ACCESS:          0 HIT:          0 MISS:          0
cpu0_DTLB TRANSLATION  ACCESS:          0 HIT:          0 MISS:          0
cpu0_DTLB PREFETCH REQUESTED:          0 ISSUED:          0 USEFUL:          0 USELESS:          0
cpu0_DTLB AVERAGE MISS LATENCY: 14.7 cycles
cpu0_ITLB TOTAL        ACCESS:    4860742 HIT:    4807632 MISS:      53110
cpu0_ITLB LOAD         ACCESS:    4860742 HIT:    4807632 MISS:      53110
cpu0_ITLB RFO          ACCESS:          0 HIT:          0 MISS:          0
cpu0_ITLB PREFETCH     ACCESS:          0 HIT:          0 MISS:          0
cpu0_ITLB WRITE        ACCESS:          0 HIT:          0 MISS:          0
cpu0_ITLB TRANSLATION  ACCESS:          0 HIT:          0 MISS:          0
cpu0_ITLB PREFETCH REQUESTED:          0 ISSUED:          0 USEFUL:          0 USELESS:          0
cpu0_ITLB AVERAGE MISS LATENCY: 6.277 cycles
cpu0_L1D TOTAL        ACCESS:  188571171 HIT:  186881978 MISS:    1689193
cpu0_L1D LOAD         ACCESS:  105203680 HIT:  103882692 MISS:    1320988
cpu0_L1D RFO          ACCESS:          0 HIT:          0 MISS:          0
cpu0_L1D PREFETCH     ACCESS:          0 HIT:          0 MISS:          0
cpu0_L1D WRITE        ACCESS:   83343025 HIT:   82998227 MISS:     344798
cpu0_L1D TRANSLATION  ACCESS:      24466 HIT:       1059 MISS:      23407
cpu0_L1D PREFETCH REQUESTED:          0 ISSUED:          0 USEFUL:          0 USELESS:          0
cpu0_L1D AVERAGE MISS LATENCY: 45.24 cycles
cpu0_L1I TOTAL        ACCESS:    5598351 HIT:    4854921 MISS:     743430
cpu0_L1I LOAD         ACCESS:    5598351 HIT:    4854921 MISS:     743430
cpu0_L1I RFO          ACCESS:          0 HIT:          0 MISS:          0
cpu0_L1I PREFETCH     ACCESS:          0 HIT:          0 MISS:          0
cpu0_L1I WRITE        ACCESS:          0 HIT:          0 MISS:          0
cpu0_L1I TRANSLATION  ACCESS:          0 HIT:          0 MISS:          0
cpu0_L1I PREFETCH REQUESTED:          0 ISSUED:          0 USEFUL:          0 USELESS:          0
cpu0_L1I AVERAGE MISS LATENCY: 14.15 cycles
cpu0_L2C TOTAL        ACCESS:    1665969 HIT:    1209204 MISS:     456765
cpu0_L2C LOAD         ACCESS:    1316011 HIT:     912779 MISS:     403232
cpu0_L2C RFO          ACCESS:      88306 HIT:      55811 MISS:      32495
cpu0_L2C PREFETCH     ACCESS:          0 HIT:          0 MISS:          0
cpu0_L2C WRITE        ACCESS:     238319 HIT:     236505 MISS:       1814
cpu0_L2C TRANSLATION  ACCESS:      23333 HIT:       4109 MISS:      19224
cpu0_L2C PREFETCH REQUESTED:          0 ISSUED:          0 USEFUL:          0 USELESS:          0
cpu0_L2C AVERAGE MISS LATENCY: 167 cycles
cpu0_STLB TOTAL        ACCESS:     507071 HIT:     484276 MISS:      22795
cpu0_STLB LOAD         ACCESS:     507071 HIT:     484276 MISS:      22795
cpu0_STLB RFO          ACCESS:          0 HIT:          0 MISS:          0
cpu0_STLB PREFETCH     ACCESS:          0 HIT:          0 MISS:          0
cpu0_STLB WRITE        ACCESS:          0 HIT:          0 MISS:          0
cpu0_STLB TRANSLATION  ACCESS:          0 HIT:          0 MISS:          0
cpu0_STLB PREFETCH REQUESTED:          0 ISSUED:          0 USEFUL:          0 USELESS:          0
cpu0_STLB AVERAGE MISS LATENCY: 320.1 cycles

DRAM Statistics

Channel 0 RQ ROW_BUFFER_HIT:      19586
  ROW_BUFFER_MISS:     105462
 AVG DBUS CONGESTED CYCLE: 3.766
WQ ROW_BUFFER_HIT: Channel 0 
  ROW_BUFFER_MISS:       6099
  FULL:      12693
