WARNING: physical memory size is smaller than virtual memory size.

*** ChampSim Multicore Out-of-Order Simulator ***
Warmup Instructions: 50000000
Simulation Instructions: 600000000
Number of CPUs: 1
Page size: 4096

Off-chip DRAM Size: 4 GiB Channels: 1 Width: 64-bit Data Race: 3200 MT/s
Heartbeat CPU 0 instructions: 10000000 cycles: 2500061 heartbeat IPC: 4 cumulative IPC: 4 (Simulation time: 00 hr 00 min 25 sec)
Heartbeat CPU 0 instructions: 20000000 cycles: 5000061 heartbeat IPC: 4 cumulative IPC: 4 (Simulation time: 00 hr 00 min 54 sec)
Heartbeat CPU 0 instructions: 30000000 cycles: 7500061 heartbeat IPC: 4 cumulative IPC: 4 (Simulation time: 00 hr 01 min 26 sec)
Heartbeat CPU 0 instructions: 40000000 cycles: 10000061 heartbeat IPC: 4 cumulative IPC: 4 (Simulation time: 00 hr 02 min 02 sec)
Heartbeat CPU 0 instructions: 50000000 cycles: 12500061 heartbeat IPC: 4 cumulative IPC: 4 (Simulation time: 00 hr 02 min 43 sec)
Warmup finished CPU 0 instructions: 50000000 cycles: 12500062 cumulative IPC: 4 (Simulation time: 00 hr 02 min 43 sec)
Warmup complete CPU 0 instructions: 50000000 cycles: 12500062 cumulative IPC: 4 (Simulation time: 00 hr 02 min 43 sec)
Heartbeat CPU 0 instructions: 60000002 cycles: 16444688 heartbeat IPC: 2.535 cumulative IPC: 2.535 (Simulation time: 00 hr 03 min 43 sec)
Heartbeat CPU 0 instructions: 70000003 cycles: 20760893 heartbeat IPC: 2.317 cumulative IPC: 2.421 (Simulation time: 00 hr 04 min 49 sec)
Heartbeat CPU 0 instructions: 80000003 cycles: 25229157 heartbeat IPC: 2.238 cumulative IPC: 2.357 (Simulation time: 00 hr 05 min 53 sec)
Heartbeat CPU 0 instructions: 90000000 cycles: 28920814 heartbeat IPC: 2.709 cumulative IPC: 2.436 (Simulation time: 00 hr 06 min 53 sec)
Heartbeat CPU 0 instructions: 100000003 cycles: 32818788 heartbeat IPC: 2.565 cumulative IPC: 2.461 (Simulation time: 00 hr 07 min 53 sec)
Heartbeat CPU 0 instructions: 110000002 cycles: 36920325 heartbeat IPC: 2.438 cumulative IPC: 2.457 (Simulation time: 00 hr 08 min 55 sec)
Heartbeat CPU 0 instructions: 120000001 cycles: 40635683 heartbeat IPC: 2.692 cumulative IPC: 2.488 (Simulation time: 00 hr 09 min 55 sec)
Heartbeat CPU 0 instructions: 130000003 cycles: 44404658 heartbeat IPC: 2.653 cumulative IPC: 2.507 (Simulation time: 00 hr 10 min 55 sec)
Heartbeat CPU 0 instructions: 140000002 cycles: 48538024 heartbeat IPC: 2.419 cumulative IPC: 2.497 (Simulation time: 00 hr 11 min 57 sec)
Heartbeat CPU 0 instructions: 150000001 cycles: 52589949 heartbeat IPC: 2.468 cumulative IPC: 2.494 (Simulation time: 00 hr 12 min 59 sec)
Heartbeat CPU 0 instructions: 160000000 cycles: 56247531 heartbeat IPC: 2.734 cumulative IPC: 2.514 (Simulation time: 00 hr 14 min 00 sec)
Heartbeat CPU 0 instructions: 170000001 cycles: 60421737 heartbeat IPC: 2.396 cumulative IPC: 2.504 (Simulation time: 00 hr 15 min 06 sec)
Heartbeat CPU 0 instructions: 180000001 cycles: 63882371 heartbeat IPC: 2.89 cumulative IPC: 2.53 (Simulation time: 00 hr 16 min 03 sec)
Heartbeat CPU 0 instructions: 190000002 cycles: 67465761 heartbeat IPC: 2.791 cumulative IPC: 2.547 (Simulation time: 00 hr 16 min 59 sec)
Heartbeat CPU 0 instructions: 200000002 cycles: 71249161 heartbeat IPC: 2.643 cumulative IPC: 2.553 (Simulation time: 00 hr 17 min 59 sec)
Heartbeat CPU 0 instructions: 210000000 cycles: 74888079 heartbeat IPC: 2.748 cumulative IPC: 2.565 (Simulation time: 00 hr 18 min 59 sec)
Heartbeat CPU 0 instructions: 220000001 cycles: 78754029 heartbeat IPC: 2.587 cumulative IPC: 2.566 (Simulation time: 00 hr 19 min 57 sec)
Heartbeat CPU 0 instructions: 230000002 cycles: 82594747 heartbeat IPC: 2.604 cumulative IPC: 2.568 (Simulation time: 00 hr 20 min 55 sec)
Heartbeat CPU 0 instructions: 240000001 cycles: 86801493 heartbeat IPC: 2.377 cumulative IPC: 2.557 (Simulation time: 00 hr 21 min 59 sec)
Heartbeat CPU 0 instructions: 250000003 cycles: 91366485 heartbeat IPC: 2.191 cumulative IPC: 2.536 (Simulation time: 00 hr 22 min 59 sec)
Heartbeat CPU 0 instructions: 260000000 cycles: 95158973 heartbeat IPC: 2.637 cumulative IPC: 2.541 (Simulation time: 00 hr 24 min 02 sec)
Heartbeat CPU 0 instructions: 270000003 cycles: 102228918 heartbeat IPC: 1.414 cumulative IPC: 2.452 (Simulation time: 00 hr 25 min 29 sec)
Heartbeat CPU 0 instructions: 280000000 cycles: 112887169 heartbeat IPC: 0.9382 cumulative IPC: 2.291 (Simulation time: 00 hr 27 min 26 sec)
Heartbeat CPU 0 instructions: 290000000 cycles: 123282409 heartbeat IPC: 0.962 cumulative IPC: 2.166 (Simulation time: 00 hr 29 min 20 sec)
Heartbeat CPU 0 instructions: 300000003 cycles: 130833166 heartbeat IPC: 1.324 cumulative IPC: 2.113 (Simulation time: 00 hr 30 min 59 sec)
Heartbeat CPU 0 instructions: 310000004 cycles: 141986850 heartbeat IPC: 0.8966 cumulative IPC: 2.008 (Simulation time: 00 hr 32 min 58 sec)
Heartbeat CPU 0 instructions: 320000004 cycles: 147151950 heartbeat IPC: 1.936 cumulative IPC: 2.005 (Simulation time: 00 hr 34 min 12 sec)
Heartbeat CPU 0 instructions: 330000000 cycles: 151228084 heartbeat IPC: 2.453 cumulative IPC: 2.018 (Simulation time: 00 hr 35 min 15 sec)
Heartbeat CPU 0 instructions: 340000001 cycles: 155525606 heartbeat IPC: 2.327 cumulative IPC: 2.028 (Simulation time: 00 hr 36 min 21 sec)
Heartbeat CPU 0 instructions: 350000004 cycles: 159858574 heartbeat IPC: 2.308 cumulative IPC: 2.036 (Simulation time: 00 hr 37 min 30 sec)
Heartbeat CPU 0 instructions: 360000003 cycles: 163785605 heartbeat IPC: 2.546 cumulative IPC: 2.049 (Simulation time: 00 hr 38 min 31 sec)
Heartbeat CPU 0 instructions: 370000001 cycles: 167582350 heartbeat IPC: 2.634 cumulative IPC: 2.063 (Simulation time: 00 hr 39 min 29 sec)
Heartbeat CPU 0 instructions: 380000004 cycles: 171205819 heartbeat IPC: 2.76 cumulative IPC: 2.079 (Simulation time: 00 hr 40 min 29 sec)
Heartbeat CPU 0 instructions: 390000002 cycles: 174862058 heartbeat IPC: 2.735 cumulative IPC: 2.094 (Simulation time: 00 hr 41 min 30 sec)
Heartbeat CPU 0 instructions: 400000000 cycles: 178748096 heartbeat IPC: 2.573 cumulative IPC: 2.105 (Simulation time: 00 hr 42 min 32 sec)
Heartbeat CPU 0 instructions: 410000000 cycles: 184653674 heartbeat IPC: 1.693 cumulative IPC: 2.091 (Simulation time: 00 hr 43 min 50 sec)
Heartbeat CPU 0 instructions: 420000003 cycles: 192141694 heartbeat IPC: 1.335 cumulative IPC: 2.06 (Simulation time: 00 hr 45 min 20 sec)
Heartbeat CPU 0 instructions: 430000000 cycles: 199635909 heartbeat IPC: 1.334 cumulative IPC: 2.031 (Simulation time: 00 hr 46 min 59 sec)
Heartbeat CPU 0 instructions: 440000004 cycles: 206649085 heartbeat IPC: 1.426 cumulative IPC: 2.009 (Simulation time: 00 hr 48 min 28 sec)
Heartbeat CPU 0 instructions: 450000001 cycles: 213582122 heartbeat IPC: 1.442 cumulative IPC: 1.989 (Simulation time: 00 hr 49 min 57 sec)
Heartbeat CPU 0 instructions: 460000002 cycles: 224241003 heartbeat IPC: 0.9382 cumulative IPC: 1.936 (Simulation time: 00 hr 51 min 56 sec)
Heartbeat CPU 0 instructions: 470000003 cycles: 233658496 heartbeat IPC: 1.062 cumulative IPC: 1.899 (Simulation time: 00 hr 53 min 45 sec)
Heartbeat CPU 0 instructions: 480000003 cycles: 237928061 heartbeat IPC: 2.342 cumulative IPC: 1.907 (Simulation time: 00 hr 54 min 50 sec)
Heartbeat CPU 0 instructions: 490000001 cycles: 242494951 heartbeat IPC: 2.19 cumulative IPC: 1.913 (Simulation time: 00 hr 55 min 57 sec)
Heartbeat CPU 0 instructions: 500000002 cycles: 246572672 heartbeat IPC: 2.452 cumulative IPC: 1.922 (Simulation time: 00 hr 57 min 01 sec)
Heartbeat CPU 0 instructions: 510000000 cycles: 250306817 heartbeat IPC: 2.678 cumulative IPC: 1.934 (Simulation time: 00 hr 58 min 04 sec)
Heartbeat CPU 0 instructions: 520000000 cycles: 254076691 heartbeat IPC: 2.653 cumulative IPC: 1.946 (Simulation time: 00 hr 59 min 07 sec)
Heartbeat CPU 0 instructions: 530000001 cycles: 262109284 heartbeat IPC: 1.245 cumulative IPC: 1.923 (Simulation time: 01 hr 00 min 43 sec)
Heartbeat CPU 0 instructions: 540000000 cycles: 271008435 heartbeat IPC: 1.124 cumulative IPC: 1.895 (Simulation time: 01 hr 02 min 26 sec)
Heartbeat CPU 0 instructions: 550000004 cycles: 282533788 heartbeat IPC: 0.8677 cumulative IPC: 1.852 (Simulation time: 01 hr 04 min 31 sec)
Heartbeat CPU 0 instructions: 560000004 cycles: 286809506 heartbeat IPC: 2.339 cumulative IPC: 1.859 (Simulation time: 01 hr 05 min 36 sec)
Heartbeat CPU 0 instructions: 570000001 cycles: 289937814 heartbeat IPC: 3.197 cumulative IPC: 1.874 (Simulation time: 01 hr 06 min 33 sec)
Heartbeat CPU 0 instructions: 580000003 cycles: 293483361 heartbeat IPC: 2.82 cumulative IPC: 1.886 (Simulation time: 01 hr 07 min 32 sec)
Heartbeat CPU 0 instructions: 590000002 cycles: 297106155 heartbeat IPC: 2.76 cumulative IPC: 1.897 (Simulation time: 01 hr 08 min 32 sec)
Heartbeat CPU 0 instructions: 600000003 cycles: 300167307 heartbeat IPC: 3.267 cumulative IPC: 1.912 (Simulation time: 01 hr 09 min 29 sec)
Heartbeat CPU 0 instructions: 610000001 cycles: 303677415 heartbeat IPC: 2.849 cumulative IPC: 1.923 (Simulation time: 01 hr 10 min 31 sec)
Heartbeat CPU 0 instructions: 620000000 cycles: 307694629 heartbeat IPC: 2.489 cumulative IPC: 1.931 (Simulation time: 01 hr 11 min 33 sec)
Heartbeat CPU 0 instructions: 630000002 cycles: 311060854 heartbeat IPC: 2.971 cumulative IPC: 1.943 (Simulation time: 01 hr 12 min 34 sec)
Heartbeat CPU 0 instructions: 640000004 cycles: 315074565 heartbeat IPC: 2.491 cumulative IPC: 1.95 (Simulation time: 01 hr 13 min 38 sec)
Heartbeat CPU 0 instructions: 650000001 cycles: 318898324 heartbeat IPC: 2.615 cumulative IPC: 1.958 (Simulation time: 01 hr 14 min 41 sec)
Simulation finished CPU 0 instructions: 600000001 cycles: 306398263 cumulative IPC: 1.958 (Simulation time: 01 hr 14 min 41 sec)
Simulation complete CPU 0 instructions: 600000001 cycles: 306398263 cumulative IPC: 1.958 (Simulation time: 01 hr 14 min 41 sec)

ChampSim completed all CPUs

=== Simulation ===
CPU 0 runs traces/400.perlbench-50B.champsimtrace.xz
Region of Interest Statistics

CPU 0 cumulative IPC: 1.958 instructions: 600000001 cycles: 306398263
CPU 0 Branch Prediction Accuracy: 96.2% MPKI: 7.839 Average ROB Occupancy at Mispredict: 43.59
Branch type MPKI
BRANCH_DIRECT_JUMP: 0.0176
BRANCH_INDIRECT: 0.38
BRANCH_CONDITIONAL: 6.99
BRANCH_DIRECT_CALL: 0.0067
BRANCH_INDIRECT_CALL: 0.431
BRANCH_RETURN: 0.0161

LLC TOTAL        ACCESS:     837113 HIT:     601997 MISS:     235116
LLC LOAD         ACCESS:     576396 HIT:     400563 MISS:     175833
LLC RFO          ACCESS:      47524 HIT:      29960 MISS:      17564
LLC PREFETCH     ACCESS:      64136 HIT:      44540 MISS:      19596
LLC WRITE        ACCESS:     126984 HIT:     117785 MISS:       9199
LLC TRANSLATION  ACCESS:      22073 HIT:       9149 MISS:      12924
LLC PREFETCH REQUESTED:      64136 ISSUED:      64136 USEFUL:      11531 USELESS:       4295
LLC AVERAGE MISS LATENCY: 499.9 cycles
cpu0_DTLB TOTAL        ACCESS:  146500702 HIT:  145195119 MISS:    1305583
cpu0_DTLB LOAD         ACCESS:  146500702 HIT:  145195119 MISS:    1305583
cpu0_DTLB RFO          ACCESS:          0 HIT:          0 MISS:          0
cpu0_DTLB PREFETCH     ACCESS:          0 HIT:          0 MISS:          0
cpu0_DTLB WRITE        ACCESS:          0 HIT:          0 MISS:          0
cpu0_DTLB TRANSLATION  ACCESS:          0 HIT:          0 MISS:          0
cpu0_DTLB PREFETCH REQUESTED:          0 ISSUED:          0 USEFUL:          0 USELESS:          0
cpu0_DTLB AVERAGE MISS LATENCY: 11.82 cycles
cpu0_ITLB TOTAL        ACCESS:    8988173 HIT:    8803669 MISS:     184504
cpu0_ITLB LOAD         ACCESS:    8988173 HIT:    8803669 MISS:     184504
cpu0_ITLB RFO          ACCESS:          0 HIT:          0 MISS:          0
cpu0_ITLB PREFETCH     ACCESS:          0 HIT:          0 MISS:          0
cpu0_ITLB WRITE        ACCESS:          0 HIT:          0 MISS:          0
cpu0_ITLB TRANSLATION  ACCESS:          0 HIT:          0 MISS:          0
cpu0_ITLB PREFETCH REQUESTED:          0 ISSUED:          0 USEFUL:          0 USELESS:          0
cpu0_ITLB AVERAGE MISS LATENCY: 3.575 cycles
cpu0_L1D TOTAL        ACCESS:  193282721 HIT:  189633551 MISS:    3649170
cpu0_L1D LOAD         ACCESS:  107436699 HIT:  104431575 MISS:    3005124
cpu0_L1D RFO          ACCESS:          0 HIT:          0 MISS:          0
cpu0_L1D PREFETCH     ACCESS:          0 HIT:          0 MISS:          0
cpu0_L1D WRITE        ACCESS:   85817502 HIT:   85200548 MISS:     616954
cpu0_L1D TRANSLATION  ACCESS:      28520 HIT:       1428 MISS:      27092
cpu0_L1D PREFETCH REQUESTED:          0 ISSUED:          0 USEFUL:          0 USELESS:          0
cpu0_L1D AVERAGE MISS LATENCY: 34.93 cycles
cpu0_L1I TOTAL        ACCESS:   10422417 HIT:    8660381 MISS:    1762036
cpu0_L1I LOAD         ACCESS:   10422417 HIT:    8660381 MISS:    1762036
cpu0_L1I RFO          ACCESS:          0 HIT:          0 MISS:          0
cpu0_L1I PREFETCH     ACCESS:          0 HIT:          0 MISS:          0
cpu0_L1I WRITE        ACCESS:          0 HIT:          0 MISS:          0
cpu0_L1I TRANSLATION  ACCESS:          0 HIT:          0 MISS:          0
cpu0_L1I PREFETCH REQUESTED:          0 ISSUED:          0 USEFUL:          0 USELESS:          0
cpu0_L1I AVERAGE MISS LATENCY: 10.95 cycles
cpu0_L2C TOTAL        ACCESS:    3834568 HIT:    3185428 MISS:     649140
cpu0_L2C LOAD         ACCESS:    3105035 HIT:    2528639 MISS:     576396
cpu0_L2C RFO          ACCESS:     191533 HIT:     144008 MISS:      47525
cpu0_L2C PREFETCH     ACCESS:          0 HIT:          0 MISS:          0
cpu0_L2C WRITE        ACCESS:     510974 HIT:     507828 MISS:       3146
cpu0_L2C TRANSLATION  ACCESS:      27026 HIT:       4953 MISS:      22073
cpu0_L2C PREFETCH REQUESTED:          0 ISSUED:          0 USEFUL:          0 USELESS:          0
cpu0_L2C AVERAGE MISS LATENCY: 185.2 cycles
cpu0_STLB TOTAL        ACCESS:    1008373 HIT:     981680 MISS:      26693
cpu0_STLB LOAD         ACCESS:    1008373 HIT:     981680 MISS:      26693
cpu0_STLB RFO          ACCESS:          0 HIT:          0 MISS:          0
cpu0_STLB PREFETCH     ACCESS:          0 HIT:          0 MISS:          0
cpu0_STLB WRITE        ACCESS:          0 HIT:          0 MISS:          0
cpu0_STLB TRANSLATION  ACCESS:          0 HIT:          0 MISS:          0
cpu0_STLB PREFETCH REQUESTED:          0 ISSUED:          0 USEFUL:          0 USELESS:          0
cpu0_STLB AVERAGE MISS LATENCY: 359.4 cycles

DRAM Statistics

Channel 0 RQ ROW_BUFFER_HIT:      43428
  ROW_BUFFER_MISS:     178730
 AVG DBUS CONGESTED CYCLE: 3.795
WQ ROW_BUFFER_HIT: Channel 0 
  ROW_BUFFER_MISS:       8245
  FULL:      23653
