WARNING: physical memory size is smaller than virtual memory size.

*** ChampSim Multicore Out-of-Order Simulator ***
Warmup Instructions: 50000000
Simulation Instructions: 600000000
Number of CPUs: 1
Page size: 4096

Off-chip DRAM Size: 4 GiB Channels: 1 Width: 64-bit Data Race: 3200 MT/s
Heartbeat CPU 0 instructions: 10000000 cycles: 2500061 heartbeat IPC: 4 cumulative IPC: 4 (Simulation time: 00 hr 00 min 21 sec)
Heartbeat CPU 0 instructions: 20000000 cycles: 5000061 heartbeat IPC: 4 cumulative IPC: 4 (Simulation time: 00 hr 00 min 49 sec)
Heartbeat CPU 0 instructions: 30000000 cycles: 7500061 heartbeat IPC: 4 cumulative IPC: 4 (Simulation time: 00 hr 01 min 21 sec)
Heartbeat CPU 0 instructions: 40000000 cycles: 10000061 heartbeat IPC: 4 cumulative IPC: 4 (Simulation time: 00 hr 01 min 58 sec)
Heartbeat CPU 0 instructions: 50000000 cycles: 12500061 heartbeat IPC: 4 cumulative IPC: 4 (Simulation time: 00 hr 02 min 37 sec)
Warmup finished CPU 0 instructions: 50000000 cycles: 12500062 cumulative IPC: 4 (Simulation time: 00 hr 02 min 37 sec)
Warmup complete CPU 0 instructions: 50000000 cycles: 12500062 cumulative IPC: 4 (Simulation time: 00 hr 02 min 37 sec)
Heartbeat CPU 0 instructions: 60000002 cycles: 16906981 heartbeat IPC: 2.269 cumulative IPC: 2.269 (Simulation time: 00 hr 03 min 41 sec)
Heartbeat CPU 0 instructions: 70000003 cycles: 21887535 heartbeat IPC: 2.008 cumulative IPC: 2.13 (Simulation time: 00 hr 05 min 01 sec)
Heartbeat CPU 0 instructions: 80000001 cycles: 27229088 heartbeat IPC: 1.872 cumulative IPC: 2.037 (Simulation time: 00 hr 06 min 23 sec)
Heartbeat CPU 0 instructions: 90000000 cycles: 31525396 heartbeat IPC: 2.328 cumulative IPC: 2.102 (Simulation time: 00 hr 07 min 36 sec)
Heartbeat CPU 0 instructions: 100000003 cycles: 36377115 heartbeat IPC: 2.061 cumulative IPC: 2.094 (Simulation time: 00 hr 08 min 49 sec)
Heartbeat CPU 0 instructions: 110000002 cycles: 41244754 heartbeat IPC: 2.054 cumulative IPC: 2.087 (Simulation time: 00 hr 10 min 03 sec)
Heartbeat CPU 0 instructions: 120000001 cycles: 46238023 heartbeat IPC: 2.003 cumulative IPC: 2.075 (Simulation time: 00 hr 11 min 12 sec)
Heartbeat CPU 0 instructions: 130000003 cycles: 50804474 heartbeat IPC: 2.19 cumulative IPC: 2.089 (Simulation time: 00 hr 12 min 18 sec)
Heartbeat CPU 0 instructions: 140000002 cycles: 55692287 heartbeat IPC: 2.046 cumulative IPC: 2.084 (Simulation time: 00 hr 13 min 25 sec)
Heartbeat CPU 0 instructions: 150000001 cycles: 60357159 heartbeat IPC: 2.144 cumulative IPC: 2.09 (Simulation time: 00 hr 14 min 36 sec)
Heartbeat CPU 0 instructions: 160000000 cycles: 64993046 heartbeat IPC: 2.157 cumulative IPC: 2.096 (Simulation time: 00 hr 15 min 49 sec)
Heartbeat CPU 0 instructions: 170000000 cycles: 70321999 heartbeat IPC: 1.877 cumulative IPC: 2.075 (Simulation time: 00 hr 17 min 04 sec)
Heartbeat CPU 0 instructions: 180000001 cycles: 76039062 heartbeat IPC: 1.749 cumulative IPC: 2.046 (Simulation time: 00 hr 18 min 19 sec)
Heartbeat CPU 0 instructions: 190000002 cycles: 80507077 heartbeat IPC: 2.238 cumulative IPC: 2.059 (Simulation time: 00 hr 19 min 23 sec)
Heartbeat CPU 0 instructions: 200000002 cycles: 85405744 heartbeat IPC: 2.041 cumulative IPC: 2.057 (Simulation time: 00 hr 20 min 34 sec)
Heartbeat CPU 0 instructions: 210000000 cycles: 90406939 heartbeat IPC: 2 cumulative IPC: 2.054 (Simulation time: 00 hr 21 min 44 sec)
Heartbeat CPU 0 instructions: 220000001 cycles: 95328642 heartbeat IPC: 2.032 cumulative IPC: 2.052 (Simulation time: 00 hr 22 min 51 sec)
Heartbeat CPU 0 instructions: 230000002 cycles: 100573445 heartbeat IPC: 1.907 cumulative IPC: 2.044 (Simulation time: 00 hr 23 min 59 sec)
Heartbeat CPU 0 instructions: 240000001 cycles: 105535717 heartbeat IPC: 2.015 cumulative IPC: 2.042 (Simulation time: 00 hr 25 min 03 sec)
Heartbeat CPU 0 instructions: 250000003 cycles: 110711126 heartbeat IPC: 1.932 cumulative IPC: 2.036 (Simulation time: 00 hr 26 min 06 sec)
Heartbeat CPU 0 instructions: 260000001 cycles: 115569584 heartbeat IPC: 2.058 cumulative IPC: 2.037 (Simulation time: 00 hr 27 min 10 sec)
Heartbeat CPU 0 instructions: 270000000 cycles: 123330835 heartbeat IPC: 1.288 cumulative IPC: 1.985 (Simulation time: 00 hr 28 min 45 sec)
Heartbeat CPU 0 instructions: 280000000 cycles: 135091207 heartbeat IPC: 0.8503 cumulative IPC: 1.876 (Simulation time: 00 hr 30 min 50 sec)
Heartbeat CPU 0 instructions: 290000001 cycles: 145406480 heartbeat IPC: 0.9694 cumulative IPC: 1.806 (Simulation time: 00 hr 32 min 49 sec)
Heartbeat CPU 0 instructions: 300000003 cycles: 153018217 heartbeat IPC: 1.314 cumulative IPC: 1.779 (Simulation time: 00 hr 34 min 59 sec)
Heartbeat CPU 0 instructions: 310000004 cycles: 164257735 heartbeat IPC: 0.8897 cumulative IPC: 1.713 (Simulation time: 00 hr 37 min 25 sec)
Heartbeat CPU 0 instructions: 320000004 cycles: 169975482 heartbeat IPC: 1.749 cumulative IPC: 1.715 (Simulation time: 00 hr 38 min 51 sec)
Heartbeat CPU 0 instructions: 330000000 cycles: 175274690 heartbeat IPC: 1.887 cumulative IPC: 1.72 (Simulation time: 00 hr 40 min 09 sec)
Heartbeat CPU 0 instructions: 340000001 cycles: 180516549 heartbeat IPC: 1.908 cumulative IPC: 1.726 (Simulation time: 00 hr 41 min 23 sec)
Heartbeat CPU 0 instructions: 350000000 cycles: 185958050 heartbeat IPC: 1.838 cumulative IPC: 1.73 (Simulation time: 00 hr 42 min 36 sec)
Heartbeat CPU 0 instructions: 360000003 cycles: 191148109 heartbeat IPC: 1.927 cumulative IPC: 1.735 (Simulation time: 00 hr 43 min 50 sec)
Heartbeat CPU 0 instructions: 370000001 cycles: 196253953 heartbeat IPC: 1.959 cumulative IPC: 1.741 (Simulation time: 00 hr 45 min 00 sec)
Heartbeat CPU 0 instructions: 380000004 cycles: 201632533 heartbeat IPC: 1.859 cumulative IPC: 1.745 (Simulation time: 00 hr 46 min 22 sec)
Heartbeat CPU 0 instructions: 390000002 cycles: 207065156 heartbeat IPC: 1.841 cumulative IPC: 1.747 (Simulation time: 00 hr 48 min 05 sec)
Heartbeat CPU 0 instructions: 400000000 cycles: 212590229 heartbeat IPC: 1.81 cumulative IPC: 1.749 (Simulation time: 00 hr 49 min 37 sec)
Heartbeat CPU 0 instructions: 410000000 cycles: 221006558 heartbeat IPC: 1.188 cumulative IPC: 1.727 (Simulation time: 00 hr 51 min 29 sec)
Heartbeat CPU 0 instructions: 420000001 cycles: 232468509 heartbeat IPC: 0.8725 cumulative IPC: 1.682 (Simulation time: 00 hr 53 min 35 sec)
Heartbeat CPU 0 instructions: 430000000 cycles: 240411298 heartbeat IPC: 1.259 cumulative IPC: 1.667 (Simulation time: 00 hr 55 min 20 sec)
Heartbeat CPU 0 instructions: 440000002 cycles: 247622786 heartbeat IPC: 1.387 cumulative IPC: 1.659 (Simulation time: 00 hr 56 min 54 sec)
Heartbeat CPU 0 instructions: 450000000 cycles: 254489472 heartbeat IPC: 1.456 cumulative IPC: 1.653 (Simulation time: 00 hr 58 min 24 sec)
Heartbeat CPU 0 instructions: 460000002 cycles: 265508925 heartbeat IPC: 0.9075 cumulative IPC: 1.62 (Simulation time: 01 hr 00 min 57 sec)
Heartbeat CPU 0 instructions: 470000000 cycles: 275661054 heartbeat IPC: 0.985 cumulative IPC: 1.596 (Simulation time: 01 hr 03 min 16 sec)
Heartbeat CPU 0 instructions: 480000000 cycles: 281160497 heartbeat IPC: 1.818 cumulative IPC: 1.601 (Simulation time: 01 hr 04 min 38 sec)
Heartbeat CPU 0 instructions: 490000001 cycles: 286932780 heartbeat IPC: 1.732 cumulative IPC: 1.603 (Simulation time: 01 hr 05 min 59 sec)
Heartbeat CPU 0 instructions: 500000002 cycles: 292581110 heartbeat IPC: 1.77 cumulative IPC: 1.607 (Simulation time: 01 hr 07 min 20 sec)
Heartbeat CPU 0 instructions: 510000000 cycles: 298299951 heartbeat IPC: 1.749 cumulative IPC: 1.61 (Simulation time: 01 hr 08 min 45 sec)
Heartbeat CPU 0 instructions: 520000000 cycles: 304087901 heartbeat IPC: 1.728 cumulative IPC: 1.612 (Simulation time: 01 hr 10 min 08 sec)
Heartbeat CPU 0 instructions: 530000001 cycles: 315930367 heartbeat IPC: 0.8444 cumulative IPC: 1.582 (Simulation time: 01 hr 12 min 37 sec)
Heartbeat CPU 0 instructions: 540000000 cycles: 327145158 heartbeat IPC: 0.8917 cumulative IPC: 1.557 (Simulation time: 01 hr 15 min 23 sec)
Heartbeat CPU 0 instructions: 550000002 cycles: 340219095 heartbeat IPC: 0.7649 cumulative IPC: 1.526 (Simulation time: 01 hr 17 min 59 sec)
Heartbeat CPU 0 instructions: 560000004 cycles: 345130005 heartbeat IPC: 2.036 cumulative IPC: 1.533 (Simulation time: 01 hr 19 min 16 sec)
Heartbeat CPU 0 instructions: 570000001 cycles: 349540144 heartbeat IPC: 2.268 cumulative IPC: 1.543 (Simulation time: 01 hr 20 min 28 sec)
Heartbeat CPU 0 instructions: 580000003 cycles: 353782154 heartbeat IPC: 2.357 cumulative IPC: 1.553 (Simulation time: 01 hr 21 min 41 sec)
Heartbeat CPU 0 instructions: 590000001 cycles: 358684505 heartbeat IPC: 2.04 cumulative IPC: 1.56 (Simulation time: 01 hr 22 min 57 sec)
Heartbeat CPU 0 instructions: 600000003 cycles: 363325363 heartbeat IPC: 2.155 cumulative IPC: 1.568 (Simulation time: 01 hr 24 min 20 sec)
Heartbeat CPU 0 instructions: 610000001 cycles: 368187777 heartbeat IPC: 2.057 cumulative IPC: 1.574 (Simulation time: 01 hr 26 min 01 sec)
Heartbeat CPU 0 instructions: 620000000 cycles: 373256386 heartbeat IPC: 1.973 cumulative IPC: 1.58 (Simulation time: 01 hr 27 min 34 sec)
Heartbeat CPU 0 instructions: 630000002 cycles: 377503188 heartbeat IPC: 2.355 cumulative IPC: 1.589 (Simulation time: 01 hr 28 min 51 sec)
Heartbeat CPU 0 instructions: 640000004 cycles: 382824662 heartbeat IPC: 1.879 cumulative IPC: 1.593 (Simulation time: 01 hr 30 min 13 sec)
Heartbeat CPU 0 instructions: 650000001 cycles: 387589651 heartbeat IPC: 2.099 cumulative IPC: 1.6 (Simulation time: 01 hr 31 min 35 sec)
Simulation finished CPU 0 instructions: 600000001 cycles: 375089590 cumulative IPC: 1.6 (Simulation time: 01 hr 31 min 35 sec)
Simulation complete CPU 0 instructions: 600000001 cycles: 375089590 cumulative IPC: 1.6 (Simulation time: 01 hr 31 min 35 sec)

ChampSim completed all CPUs

=== Simulation ===
CPU 0 runs traces/400.perlbench-50B.champsimtrace.xz
Region of Interest Statistics

CPU 0 cumulative IPC: 1.6 instructions: 600000001 cycles: 375089590
CPU 0 Branch Prediction Accuracy: 93.83% MPKI: 12.71 Average ROB Occupancy at Mispredict: 29.44
Branch type MPKI
BRANCH_DIRECT_JUMP: 0.0176
BRANCH_INDIRECT: 0.38
BRANCH_CONDITIONAL: 11.9
BRANCH_DIRECT_CALL: 0.0067
BRANCH_INDIRECT_CALL: 0.431
BRANCH_RETURN: 0.0161

LLC TOTAL        ACCESS:     851584 HIT:     526883 MISS:     324701
LLC LOAD         ACCESS:     585812 HIT:     324203 MISS:     261609
LLC RFO          ACCESS:      47462 HIT:      26761 MISS:      20701
LLC PREFETCH     ACCESS:      66052 HIT:      36332 MISS:      29720
LLC WRITE        ACCESS:     130211 HIT:     129661 MISS:        550
LLC TRANSLATION  ACCESS:      22047 HIT:       9926 MISS:      12121
LLC PREFETCH REQUESTED:      66052 ISSUED:      66052 USEFUL:      18563 USELESS:       6772
LLC AVERAGE MISS LATENCY: 550.4 cycles
cpu0_DTLB TOTAL        ACCESS:  156764824 HIT:  155464065 MISS:    1300759
cpu0_DTLB LOAD         ACCESS:  156764824 HIT:  155464065 MISS:    1300759
cpu0_DTLB RFO          ACCESS:          0 HIT:          0 MISS:          0
cpu0_DTLB PREFETCH     ACCESS:          0 HIT:          0 MISS:          0
cpu0_DTLB WRITE        ACCESS:          0 HIT:          0 MISS:          0
cpu0_DTLB TRANSLATION  ACCESS:          0 HIT:          0 MISS:          0
cpu0_DTLB PREFETCH REQUESTED:          0 ISSUED:          0 USEFUL:          0 USELESS:          0
cpu0_DTLB AVERAGE MISS LATENCY: 12.22 cycles
cpu0_ITLB TOTAL        ACCESS:    8932930 HIT:    8734283 MISS:     198647
cpu0_ITLB LOAD         ACCESS:    8932930 HIT:    8734283 MISS:     198647
cpu0_ITLB RFO          ACCESS:          0 HIT:          0 MISS:          0
cpu0_ITLB PREFETCH     ACCESS:          0 HIT:          0 MISS:          0
cpu0_ITLB WRITE        ACCESS:          0 HIT:          0 MISS:          0
cpu0_ITLB TRANSLATION  ACCESS:          0 HIT:          0 MISS:          0
cpu0_ITLB PREFETCH REQUESTED:          0 ISSUED:          0 USEFUL:          0 USELESS:          0
cpu0_ITLB AVERAGE MISS LATENCY: 3.328 cycles
cpu0_L1D TOTAL        ACCESS:  203625079 HIT:  200741262 MISS:    2883817
cpu0_L1D LOAD         ACCESS:  117948370 HIT:  115580503 MISS:    2367867
cpu0_L1D RFO          ACCESS:          0 HIT:          0 MISS:          0
cpu0_L1D PREFETCH     ACCESS:          0 HIT:          0 MISS:          0
cpu0_L1D WRITE        ACCESS:   85648166 HIT:   85158768 MISS:     489398
cpu0_L1D TRANSLATION  ACCESS:      28543 HIT:       1991 MISS:      26552
cpu0_L1D PREFETCH REQUESTED:          0 ISSUED:          0 USEFUL:          0 USELESS:          0
cpu0_L1D AVERAGE MISS LATENCY: 60.68 cycles
cpu0_L1I TOTAL        ACCESS:   10371431 HIT:    8574160 MISS:    1797271
cpu0_L1I LOAD         ACCESS:   10371431 HIT:    8574160 MISS:    1797271
cpu0_L1I RFO          ACCESS:          0 HIT:          0 MISS:          0
cpu0_L1I PREFETCH     ACCESS:          0 HIT:          0 MISS:          0
cpu0_L1I WRITE        ACCESS:          0 HIT:          0 MISS:          0
cpu0_L1I TRANSLATION  ACCESS:          0 HIT:          0 MISS:          0
cpu0_L1I PREFETCH REQUESTED:          0 ISSUED:          0 USEFUL:          0 USELESS:          0
cpu0_L1I AVERAGE MISS LATENCY: 11.82 cycles
cpu0_L2C TOTAL        ACCESS:    3235223 HIT:    2573253 MISS:     661970
cpu0_L2C LOAD         ACCESS:    2711640 HIT:    2125827 MISS:     585813
cpu0_L2C RFO          ACCESS:     133697 HIT:      86235 MISS:      47462
cpu0_L2C PREFETCH     ACCESS:          0 HIT:          0 MISS:          0
cpu0_L2C WRITE        ACCESS:     363417 HIT:     356769 MISS:       6648
cpu0_L2C TRANSLATION  ACCESS:      26469 HIT:       4422 MISS:      22047
cpu0_L2C PREFETCH REQUESTED:          0 ISSUED:          0 USEFUL:          0 USELESS:          0
cpu0_L2C AVERAGE MISS LATENCY: 263.2 cycles
cpu0_STLB TOTAL        ACCESS:    1009249 HIT:     982557 MISS:      26692
cpu0_STLB LOAD         ACCESS:    1009249 HIT:     982557 MISS:      26692
cpu0_STLB RFO          ACCESS:          0 HIT:          0 MISS:          0
cpu0_STLB PREFETCH     ACCESS:          0 HIT:          0 MISS:          0
cpu0_STLB WRITE        ACCESS:          0 HIT:          0 MISS:          0
cpu0_STLB TRANSLATION  ACCESS:          0 HIT:          0 MISS:          0
cpu0_STLB PREFETCH REQUESTED:          0 ISSUED:          0 USEFUL:          0 USELESS:          0
cpu0_STLB AVERAGE MISS LATENCY: 377.7 cycles

DRAM Statistics

Channel 0 RQ ROW_BUFFER_HIT:      59957
  ROW_BUFFER_MISS:     258880
 AVG DBUS CONGESTED CYCLE: 3.818
WQ ROW_BUFFER_HIT: Channel 0 
  ROW_BUFFER_MISS:       8590
  FULL:      40652
