WARNING: physical memory size is smaller than virtual memory size.

*** ChampSim Multicore Out-of-Order Simulator ***
Warmup Instructions: 50000000
Simulation Instructions: 600000000
Number of CPUs: 1
Page size: 4096

CPU 0 Tage branch predictor
Off-chip DRAM Size: 4 GiB Channels: 1 Width: 64-bit Data Race: 3200 MT/s
Heartbeat CPU 0 instructions: 10000000 cycles: 2500061 heartbeat IPC: 4 cumulative IPC: 4 (Simulation time: 00 hr 01 min 09 sec)
Heartbeat CPU 0 instructions: 20000000 cycles: 5000061 heartbeat IPC: 4 cumulative IPC: 4 (Simulation time: 00 hr 02 min 13 sec)
Heartbeat CPU 0 instructions: 30000000 cycles: 7500061 heartbeat IPC: 4 cumulative IPC: 4 (Simulation time: 00 hr 03 min 17 sec)
Heartbeat CPU 0 instructions: 40000000 cycles: 10000061 heartbeat IPC: 4 cumulative IPC: 4 (Simulation time: 00 hr 04 min 18 sec)
Heartbeat CPU 0 instructions: 50000000 cycles: 12500061 heartbeat IPC: 4 cumulative IPC: 4 (Simulation time: 00 hr 05 min 16 sec)
Warmup finished CPU 0 instructions: 50000000 cycles: 12500062 cumulative IPC: 4 (Simulation time: 00 hr 05 min 16 sec)
Warmup complete CPU 0 instructions: 50000000 cycles: 12500062 cumulative IPC: 4 (Simulation time: 00 hr 05 min 16 sec)
Heartbeat CPU 0 instructions: 60000004 cycles: 15503575 heartbeat IPC: 3.329 cumulative IPC: 3.329 (Simulation time: 00 hr 06 min 25 sec)
Heartbeat CPU 0 instructions: 70000003 cycles: 18381992 heartbeat IPC: 3.474 cumulative IPC: 3.4 (Simulation time: 00 hr 07 min 34 sec)
Heartbeat CPU 0 instructions: 80000002 cycles: 21404034 heartbeat IPC: 3.309 cumulative IPC: 3.369 (Simulation time: 00 hr 08 min 58 sec)
Heartbeat CPU 0 instructions: 90000000 cycles: 24126115 heartbeat IPC: 3.674 cumulative IPC: 3.441 (Simulation time: 00 hr 10 min 33 sec)
Heartbeat CPU 0 instructions: 100000003 cycles: 26892056 heartbeat IPC: 3.615 cumulative IPC: 3.474 (Simulation time: 00 hr 11 min 58 sec)
Heartbeat CPU 0 instructions: 110000001 cycles: 29797837 heartbeat IPC: 3.441 cumulative IPC: 3.469 (Simulation time: 00 hr 13 min 15 sec)
Heartbeat CPU 0 instructions: 120000001 cycles: 32521809 heartbeat IPC: 3.671 cumulative IPC: 3.496 (Simulation time: 00 hr 14 min 30 sec)
Heartbeat CPU 0 instructions: 130000003 cycles: 35424102 heartbeat IPC: 3.446 cumulative IPC: 3.49 (Simulation time: 00 hr 15 min 51 sec)
Heartbeat CPU 0 instructions: 140000002 cycles: 38262157 heartbeat IPC: 3.524 cumulative IPC: 3.494 (Simulation time: 00 hr 17 min 04 sec)
Heartbeat CPU 0 instructions: 150000001 cycles: 41035888 heartbeat IPC: 3.605 cumulative IPC: 3.504 (Simulation time: 00 hr 18 min 14 sec)
Heartbeat CPU 0 instructions: 160000000 cycles: 43951491 heartbeat IPC: 3.43 cumulative IPC: 3.497 (Simulation time: 00 hr 19 min 19 sec)
Heartbeat CPU 0 instructions: 170000001 cycles: 46882495 heartbeat IPC: 3.412 cumulative IPC: 3.49 (Simulation time: 00 hr 20 min 27 sec)
Heartbeat CPU 0 instructions: 180000000 cycles: 49680461 heartbeat IPC: 3.574 cumulative IPC: 3.496 (Simulation time: 00 hr 21 min 39 sec)
Heartbeat CPU 0 instructions: 190000002 cycles: 52389723 heartbeat IPC: 3.691 cumulative IPC: 3.51 (Simulation time: 00 hr 23 min 10 sec)
Heartbeat CPU 0 instructions: 200000002 cycles: 55219292 heartbeat IPC: 3.534 cumulative IPC: 3.511 (Simulation time: 00 hr 24 min 37 sec)
Heartbeat CPU 0 instructions: 210000000 cycles: 58119385 heartbeat IPC: 3.448 cumulative IPC: 3.507 (Simulation time: 00 hr 25 min 58 sec)
Heartbeat CPU 0 instructions: 220000001 cycles: 60885142 heartbeat IPC: 3.616 cumulative IPC: 3.513 (Simulation time: 00 hr 27 min 16 sec)
Heartbeat CPU 0 instructions: 230000002 cycles: 63780025 heartbeat IPC: 3.454 cumulative IPC: 3.51 (Simulation time: 00 hr 28 min 31 sec)
Heartbeat CPU 0 instructions: 240000004 cycles: 66743023 heartbeat IPC: 3.375 cumulative IPC: 3.503 (Simulation time: 00 hr 29 min 46 sec)
Heartbeat CPU 0 instructions: 250000003 cycles: 69655898 heartbeat IPC: 3.433 cumulative IPC: 3.499 (Simulation time: 00 hr 30 min 58 sec)
Heartbeat CPU 0 instructions: 260000001 cycles: 72450129 heartbeat IPC: 3.579 cumulative IPC: 3.503 (Simulation time: 00 hr 32 min 07 sec)
Heartbeat CPU 0 instructions: 270000002 cycles: 78031767 heartbeat IPC: 1.792 cumulative IPC: 3.357 (Simulation time: 00 hr 33 min 39 sec)
Heartbeat CPU 0 instructions: 280000000 cycles: 86917573 heartbeat IPC: 1.125 cumulative IPC: 3.091 (Simulation time: 00 hr 35 min 52 sec)
Heartbeat CPU 0 instructions: 290000000 cycles: 94317192 heartbeat IPC: 1.351 cumulative IPC: 2.933 (Simulation time: 00 hr 38 min 16 sec)
Heartbeat CPU 0 instructions: 300000003 cycles: 99499613 heartbeat IPC: 1.93 cumulative IPC: 2.874 (Simulation time: 00 hr 40 min 05 sec)
Heartbeat CPU 0 instructions: 310000001 cycles: 107733641 heartbeat IPC: 1.214 cumulative IPC: 2.73 (Simulation time: 00 hr 42 min 15 sec)
Heartbeat CPU 0 instructions: 320000004 cycles: 111483389 heartbeat IPC: 2.667 cumulative IPC: 2.728 (Simulation time: 00 hr 43 min 41 sec)
Heartbeat CPU 0 instructions: 330000000 cycles: 114674125 heartbeat IPC: 3.134 cumulative IPC: 2.74 (Simulation time: 00 hr 44 min 56 sec)
Heartbeat CPU 0 instructions: 340000001 cycles: 117873076 heartbeat IPC: 3.126 cumulative IPC: 2.752 (Simulation time: 00 hr 46 min 08 sec)
Heartbeat CPU 0 instructions: 350000000 cycles: 121223450 heartbeat IPC: 2.985 cumulative IPC: 2.759 (Simulation time: 00 hr 47 min 20 sec)
Heartbeat CPU 0 instructions: 360000004 cycles: 124381314 heartbeat IPC: 3.167 cumulative IPC: 2.771 (Simulation time: 00 hr 48 min 28 sec)
Heartbeat CPU 0 instructions: 370000001 cycles: 127482752 heartbeat IPC: 3.224 cumulative IPC: 2.783 (Simulation time: 00 hr 49 min 33 sec)
Heartbeat CPU 0 instructions: 380000004 cycles: 130604370 heartbeat IPC: 3.203 cumulative IPC: 2.794 (Simulation time: 00 hr 50 min 37 sec)
Heartbeat CPU 0 instructions: 390000002 cycles: 133859188 heartbeat IPC: 3.072 cumulative IPC: 2.802 (Simulation time: 00 hr 51 min 46 sec)
Heartbeat CPU 0 instructions: 400000000 cycles: 137181118 heartbeat IPC: 3.01 cumulative IPC: 2.807 (Simulation time: 00 hr 52 min 54 sec)
Heartbeat CPU 0 instructions: 410000000 cycles: 143122824 heartbeat IPC: 1.683 cumulative IPC: 2.756 (Simulation time: 00 hr 54 min 20 sec)
Heartbeat CPU 0 instructions: 420000003 cycles: 151632438 heartbeat IPC: 1.175 cumulative IPC: 2.659 (Simulation time: 00 hr 56 min 06 sec)
Heartbeat CPU 0 instructions: 430000004 cycles: 156987697 heartbeat IPC: 1.867 cumulative IPC: 2.63 (Simulation time: 00 hr 57 min 30 sec)
Heartbeat CPU 0 instructions: 440000004 cycles: 161833454 heartbeat IPC: 2.064 cumulative IPC: 2.612 (Simulation time: 00 hr 58 min 49 sec)
Heartbeat CPU 0 instructions: 450000000 cycles: 166477363 heartbeat IPC: 2.153 cumulative IPC: 2.598 (Simulation time: 01 hr 00 min 06 sec)
Heartbeat CPU 0 instructions: 460000002 cycles: 174722054 heartbeat IPC: 1.213 cumulative IPC: 2.527 (Simulation time: 01 hr 01 min 50 sec)
Heartbeat CPU 0 instructions: 470000003 cycles: 182222693 heartbeat IPC: 1.333 cumulative IPC: 2.475 (Simulation time: 01 hr 03 min 36 sec)
Heartbeat CPU 0 instructions: 480000000 cycles: 185648181 heartbeat IPC: 2.919 cumulative IPC: 2.483 (Simulation time: 01 hr 04 min 45 sec)
Heartbeat CPU 0 instructions: 490000001 cycles: 189311114 heartbeat IPC: 2.73 cumulative IPC: 2.489 (Simulation time: 01 hr 05 min 51 sec)
Heartbeat CPU 0 instructions: 500000002 cycles: 192815140 heartbeat IPC: 2.854 cumulative IPC: 2.496 (Simulation time: 01 hr 06 min 42 sec)
Heartbeat CPU 0 instructions: 510000000 cycles: 196293951 heartbeat IPC: 2.875 cumulative IPC: 2.503 (Simulation time: 01 hr 07 min 32 sec)
Heartbeat CPU 0 instructions: 520000000 cycles: 199825650 heartbeat IPC: 2.831 cumulative IPC: 2.509 (Simulation time: 01 hr 08 min 22 sec)
Heartbeat CPU 0 instructions: 530000001 cycles: 208399457 heartbeat IPC: 1.166 cumulative IPC: 2.45 (Simulation time: 01 hr 09 min 41 sec)
Heartbeat CPU 0 instructions: 540000000 cycles: 216765012 heartbeat IPC: 1.195 cumulative IPC: 2.399 (Simulation time: 01 hr 11 min 01 sec)
Heartbeat CPU 0 instructions: 550000004 cycles: 226843727 heartbeat IPC: 0.9922 cumulative IPC: 2.333 (Simulation time: 01 hr 12 min 32 sec)
Heartbeat CPU 0 instructions: 560000004 cycles: 230415596 heartbeat IPC: 2.8 cumulative IPC: 2.34 (Simulation time: 01 hr 13 min 22 sec)
Heartbeat CPU 0 instructions: 570000002 cycles: 233240949 heartbeat IPC: 3.539 cumulative IPC: 2.356 (Simulation time: 01 hr 14 min 09 sec)
Heartbeat CPU 0 instructions: 580000000 cycles: 236175338 heartbeat IPC: 3.408 cumulative IPC: 2.37 (Simulation time: 01 hr 14 min 56 sec)
Heartbeat CPU 0 instructions: 590000001 cycles: 239112365 heartbeat IPC: 3.405 cumulative IPC: 2.383 (Simulation time: 01 hr 15 min 43 sec)
Heartbeat CPU 0 instructions: 600000003 cycles: 241812756 heartbeat IPC: 3.703 cumulative IPC: 2.398 (Simulation time: 01 hr 16 min 29 sec)
Heartbeat CPU 0 instructions: 610000001 cycles: 244685691 heartbeat IPC: 3.481 cumulative IPC: 2.412 (Simulation time: 01 hr 17 min 16 sec)
Heartbeat CPU 0 instructions: 620000004 cycles: 247644329 heartbeat IPC: 3.38 cumulative IPC: 2.424 (Simulation time: 01 hr 18 min 04 sec)
Heartbeat CPU 0 instructions: 630000002 cycles: 250457138 heartbeat IPC: 3.555 cumulative IPC: 2.437 (Simulation time: 01 hr 18 min 50 sec)
Heartbeat CPU 0 instructions: 640000004 cycles: 253506931 heartbeat IPC: 3.279 cumulative IPC: 2.448 (Simulation time: 01 hr 19 min 36 sec)
Heartbeat CPU 0 instructions: 650000001 cycles: 256215784 heartbeat IPC: 3.692 cumulative IPC: 2.462 (Simulation time: 01 hr 20 min 20 sec)
Simulation finished CPU 0 instructions: 600000001 cycles: 243715723 cumulative IPC: 2.462 (Simulation time: 01 hr 20 min 20 sec)
Simulation complete CPU 0 instructions: 600000001 cycles: 243715723 cumulative IPC: 2.462 (Simulation time: 01 hr 20 min 20 sec)

ChampSim completed all CPUs

=== Simulation ===
CPU 0 runs traces/400.perlbench-50B.champsimtrace.xz
Region of Interest Statistics

CPU 0 cumulative IPC: 2.462 instructions: 600000001 cycles: 243715723
CPU 0 Branch Prediction Accuracy: 99.01% MPKI: 2.04 Average ROB Occupancy at Mispredict: 94.07
Branch type MPKI
BRANCH_DIRECT_JUMP: 0.0176
BRANCH_INDIRECT: 0.38
BRANCH_CONDITIONAL: 1.19
BRANCH_DIRECT_CALL: 0.0067
BRANCH_INDIRECT_CALL: 0.431
BRANCH_RETURN: 0.0161

LLC TOTAL        ACCESS:    1350784 HIT:     865461 MISS:     485323
LLC LOAD         ACCESS:     577003 HIT:     357413 MISS:     219590
LLC RFO          ACCESS:      46647 HIT:      26359 MISS:      20288
LLC PREFETCH     ACCESS:     577003 HIT:     345240 MISS:     231763
LLC WRITE        ACCESS:     128126 HIT:     127363 MISS:        763
LLC TRANSLATION  ACCESS:      22005 HIT:       9086 MISS:      12919
LLC PREFETCH REQUESTED:     577003 ISSUED:     577003 USEFUL:      83896 USELESS:      84971
LLC AVERAGE MISS LATENCY: 632.1 cycles
cpu0_DTLB TOTAL        ACCESS:  133218837 HIT:  131865502 MISS:    1353335
cpu0_DTLB LOAD         ACCESS:  133218837 HIT:  131865502 MISS:    1353335
cpu0_DTLB RFO          ACCESS:          0 HIT:          0 MISS:          0
cpu0_DTLB PREFETCH     ACCESS:          0 HIT:          0 MISS:          0
cpu0_DTLB WRITE        ACCESS:          0 HIT:          0 MISS:          0
cpu0_DTLB TRANSLATION  ACCESS:          0 HIT:          0 MISS:          0
cpu0_DTLB PREFETCH REQUESTED:          0 ISSUED:          0 USEFUL:          0 USELESS:          0
cpu0_DTLB AVERAGE MISS LATENCY: 12.86 cycles
cpu0_ITLB TOTAL        ACCESS:    8990812 HIT:    8781298 MISS:     209514
cpu0_ITLB LOAD         ACCESS:    8990812 HIT:    8781298 MISS:     209514
cpu0_ITLB RFO          ACCESS:          0 HIT:          0 MISS:          0
cpu0_ITLB PREFETCH     ACCESS:          0 HIT:          0 MISS:          0
cpu0_ITLB WRITE        ACCESS:          0 HIT:          0 MISS:          0
cpu0_ITLB TRANSLATION  ACCESS:          0 HIT:          0 MISS:          0
cpu0_ITLB PREFETCH REQUESTED:          0 ISSUED:          0 USEFUL:          0 USELESS:          0
cpu0_ITLB AVERAGE MISS LATENCY: 3.255 cycles
cpu0_L1D TOTAL        ACCESS:  178283780 HIT:  175296663 MISS:    2987117
cpu0_L1D LOAD         ACCESS:   92765248 HIT:   90312632 MISS:    2452616
cpu0_L1D RFO          ACCESS:          0 HIT:          0 MISS:          0
cpu0_L1D PREFETCH     ACCESS:          0 HIT:          0 MISS:          0
cpu0_L1D WRITE        ACCESS:   85489999 HIT:   84982021 MISS:     507978
cpu0_L1D TRANSLATION  ACCESS:      28533 HIT:       2010 MISS:      26523
cpu0_L1D PREFETCH REQUESTED:          0 ISSUED:          0 USEFUL:          0 USELESS:          0
cpu0_L1D AVERAGE MISS LATENCY: 62.4 cycles
cpu0_L1I TOTAL        ACCESS:   10510620 HIT:    8613292 MISS:    1897328
cpu0_L1I LOAD         ACCESS:   10510620 HIT:    8613292 MISS:    1897328
cpu0_L1I RFO          ACCESS:          0 HIT:          0 MISS:          0
cpu0_L1I PREFETCH     ACCESS:          0 HIT:          0 MISS:          0
cpu0_L1I WRITE        ACCESS:          0 HIT:          0 MISS:          0
cpu0_L1I TRANSLATION  ACCESS:          0 HIT:          0 MISS:          0
cpu0_L1I PREFETCH REQUESTED:          0 ISSUED:          0 USEFUL:          0 USELESS:          0
cpu0_L1I AVERAGE MISS LATENCY: 9.808 cycles
cpu0_L2C TOTAL        ACCESS:    3235835 HIT:    2584129 MISS:     651706
cpu0_L2C LOAD         ACCESS:    2709037 HIT:    2132033 MISS:     577004
cpu0_L2C RFO          ACCESS:     135560 HIT:      88913 MISS:      46647
cpu0_L2C PREFETCH     ACCESS:          0 HIT:          0 MISS:          0
cpu0_L2C WRITE        ACCESS:     364795 HIT:     358745 MISS:       6050
cpu0_L2C TRANSLATION  ACCESS:      26443 HIT:       4438 MISS:      22005
cpu0_L2C PREFETCH REQUESTED:          0 ISSUED:          0 USEFUL:          0 USELESS:          0
cpu0_L2C AVERAGE MISS LATENCY: 291.9 cycles
cpu0_STLB TOTAL        ACCESS:    1009807 HIT:     983116 MISS:      26691
cpu0_STLB LOAD         ACCESS:    1009807 HIT:     983116 MISS:      26691
cpu0_STLB RFO          ACCESS:          0 HIT:          0 MISS:          0
cpu0_STLB PREFETCH     ACCESS:          0 HIT:          0 MISS:          0
cpu0_STLB WRITE        ACCESS:          0 HIT:          0 MISS:          0
cpu0_STLB TRANSLATION  ACCESS:          0 HIT:          0 MISS:          0
cpu0_STLB PREFETCH REQUESTED:          0 ISSUED:          0 USEFUL:          0 USELESS:          0
cpu0_STLB AVERAGE MISS LATENCY: 454.6 cycles

DRAM Statistics

Channel 0 RQ ROW_BUFFER_HIT:      87298
  ROW_BUFFER_MISS:     314460
 AVG DBUS CONGESTED CYCLE: 3.893
WQ ROW_BUFFER_HIT: Channel 0 
  ROW_BUFFER_MISS:       4886
  FULL:      44692
