WARNING: physical memory size is smaller than virtual memory size.

*** ChampSim Multicore Out-of-Order Simulator ***
Warmup Instructions: 50000000
Simulation Instructions: 600000000
Number of CPUs: 1
Page size: 4096

Off-chip DRAM Size: 4 GiB Channels: 1 Width: 64-bit Data Race: 3200 MT/s
Heartbeat CPU 0 instructions: 10000000 cycles: 2500061 heartbeat IPC: 4 cumulative IPC: 4 (Simulation time: 00 hr 00 min 32 sec)
Heartbeat CPU 0 instructions: 20000000 cycles: 5000061 heartbeat IPC: 4 cumulative IPC: 4 (Simulation time: 00 hr 01 min 18 sec)
Heartbeat CPU 0 instructions: 30000000 cycles: 7500061 heartbeat IPC: 4 cumulative IPC: 4 (Simulation time: 00 hr 02 min 14 sec)
Heartbeat CPU 0 instructions: 40000000 cycles: 10000061 heartbeat IPC: 4 cumulative IPC: 4 (Simulation time: 00 hr 03 min 17 sec)
Heartbeat CPU 0 instructions: 50000000 cycles: 12500061 heartbeat IPC: 4 cumulative IPC: 4 (Simulation time: 00 hr 04 min 10 sec)
Warmup finished CPU 0 instructions: 50000000 cycles: 12500062 cumulative IPC: 4 (Simulation time: 00 hr 04 min 10 sec)
Warmup complete CPU 0 instructions: 50000000 cycles: 12500062 cumulative IPC: 4 (Simulation time: 00 hr 04 min 10 sec)
Heartbeat CPU 0 instructions: 60000002 cycles: 16907366 heartbeat IPC: 2.269 cumulative IPC: 2.269 (Simulation time: 00 hr 05 min 21 sec)
Heartbeat CPU 0 instructions: 70000003 cycles: 21889050 heartbeat IPC: 2.007 cumulative IPC: 2.13 (Simulation time: 00 hr 06 min 36 sec)
Heartbeat CPU 0 instructions: 80000001 cycles: 27230745 heartbeat IPC: 1.872 cumulative IPC: 2.037 (Simulation time: 00 hr 07 min 54 sec)
Heartbeat CPU 0 instructions: 90000000 cycles: 31527294 heartbeat IPC: 2.327 cumulative IPC: 2.102 (Simulation time: 00 hr 09 min 04 sec)
Heartbeat CPU 0 instructions: 100000003 cycles: 36379334 heartbeat IPC: 2.061 cumulative IPC: 2.094 (Simulation time: 00 hr 10 min 18 sec)
Heartbeat CPU 0 instructions: 110000002 cycles: 41247374 heartbeat IPC: 2.054 cumulative IPC: 2.087 (Simulation time: 00 hr 11 min 32 sec)
Heartbeat CPU 0 instructions: 120000001 cycles: 46240828 heartbeat IPC: 2.003 cumulative IPC: 2.075 (Simulation time: 00 hr 12 min 48 sec)
Heartbeat CPU 0 instructions: 130000003 cycles: 50807189 heartbeat IPC: 2.19 cumulative IPC: 2.088 (Simulation time: 00 hr 14 min 01 sec)
Heartbeat CPU 0 instructions: 140000002 cycles: 55694832 heartbeat IPC: 2.046 cumulative IPC: 2.084 (Simulation time: 00 hr 15 min 16 sec)
Heartbeat CPU 0 instructions: 150000001 cycles: 60360024 heartbeat IPC: 2.144 cumulative IPC: 2.089 (Simulation time: 00 hr 16 min 29 sec)
Heartbeat CPU 0 instructions: 160000000 cycles: 64996045 heartbeat IPC: 2.157 cumulative IPC: 2.095 (Simulation time: 00 hr 17 min 45 sec)
Heartbeat CPU 0 instructions: 170000000 cycles: 70325364 heartbeat IPC: 1.876 cumulative IPC: 2.075 (Simulation time: 00 hr 19 min 04 sec)
Heartbeat CPU 0 instructions: 180000001 cycles: 76043102 heartbeat IPC: 1.749 cumulative IPC: 2.046 (Simulation time: 00 hr 20 min 26 sec)
Heartbeat CPU 0 instructions: 190000002 cycles: 80511237 heartbeat IPC: 2.238 cumulative IPC: 2.058 (Simulation time: 00 hr 21 min 39 sec)
Heartbeat CPU 0 instructions: 200000002 cycles: 85411245 heartbeat IPC: 2.041 cumulative IPC: 2.057 (Simulation time: 00 hr 22 min 54 sec)
Heartbeat CPU 0 instructions: 210000000 cycles: 90413026 heartbeat IPC: 1.999 cumulative IPC: 2.054 (Simulation time: 00 hr 24 min 10 sec)
Heartbeat CPU 0 instructions: 220000001 cycles: 95334767 heartbeat IPC: 2.032 cumulative IPC: 2.052 (Simulation time: 00 hr 25 min 25 sec)
Heartbeat CPU 0 instructions: 230000002 cycles: 100578650 heartbeat IPC: 1.907 cumulative IPC: 2.044 (Simulation time: 00 hr 26 min 43 sec)
Heartbeat CPU 0 instructions: 240000001 cycles: 105540806 heartbeat IPC: 2.015 cumulative IPC: 2.042 (Simulation time: 00 hr 27 min 58 sec)
Heartbeat CPU 0 instructions: 250000003 cycles: 110715200 heartbeat IPC: 1.933 cumulative IPC: 2.036 (Simulation time: 00 hr 29 min 15 sec)
Heartbeat CPU 0 instructions: 260000001 cycles: 115571230 heartbeat IPC: 2.059 cumulative IPC: 2.037 (Simulation time: 00 hr 30 min 30 sec)
Heartbeat CPU 0 instructions: 270000000 cycles: 123225925 heartbeat IPC: 1.306 cumulative IPC: 1.987 (Simulation time: 00 hr 32 min 13 sec)
Heartbeat CPU 0 instructions: 280000000 cycles: 134232618 heartbeat IPC: 0.9085 cumulative IPC: 1.889 (Simulation time: 00 hr 34 min 30 sec)
Heartbeat CPU 0 instructions: 290000001 cycles: 144349482 heartbeat IPC: 0.9884 cumulative IPC: 1.82 (Simulation time: 00 hr 36 min 39 sec)
Heartbeat CPU 0 instructions: 300000003 cycles: 151934377 heartbeat IPC: 1.318 cumulative IPC: 1.793 (Simulation time: 00 hr 38 min 26 sec)
Heartbeat CPU 0 instructions: 310000004 cycles: 163093604 heartbeat IPC: 0.8961 cumulative IPC: 1.727 (Simulation time: 00 hr 40 min 47 sec)
Heartbeat CPU 0 instructions: 320000004 cycles: 168804380 heartbeat IPC: 1.751 cumulative IPC: 1.727 (Simulation time: 00 hr 42 min 13 sec)
Heartbeat CPU 0 instructions: 330000000 cycles: 174036634 heartbeat IPC: 1.911 cumulative IPC: 1.733 (Simulation time: 00 hr 43 min 33 sec)
Heartbeat CPU 0 instructions: 340000001 cycles: 178924502 heartbeat IPC: 2.046 cumulative IPC: 1.743 (Simulation time: 00 hr 44 min 49 sec)
Heartbeat CPU 0 instructions: 350000000 cycles: 184091367 heartbeat IPC: 1.935 cumulative IPC: 1.748 (Simulation time: 00 hr 46 min 08 sec)
Heartbeat CPU 0 instructions: 360000003 cycles: 189078123 heartbeat IPC: 2.005 cumulative IPC: 1.756 (Simulation time: 00 hr 47 min 27 sec)
Heartbeat CPU 0 instructions: 370000001 cycles: 194009643 heartbeat IPC: 2.028 cumulative IPC: 1.763 (Simulation time: 00 hr 48 min 43 sec)
Heartbeat CPU 0 instructions: 380000004 cycles: 199228842 heartbeat IPC: 1.916 cumulative IPC: 1.767 (Simulation time: 00 hr 50 min 03 sec)
Heartbeat CPU 0 instructions: 390000002 cycles: 204476449 heartbeat IPC: 1.906 cumulative IPC: 1.771 (Simulation time: 00 hr 51 min 22 sec)
Heartbeat CPU 0 instructions: 400000000 cycles: 209806051 heartbeat IPC: 1.876 cumulative IPC: 1.774 (Simulation time: 00 hr 52 min 43 sec)
Heartbeat CPU 0 instructions: 410000000 cycles: 217408457 heartbeat IPC: 1.315 cumulative IPC: 1.757 (Simulation time: 00 hr 54 min 26 sec)
Heartbeat CPU 0 instructions: 420000001 cycles: 227860219 heartbeat IPC: 0.9568 cumulative IPC: 1.718 (Simulation time: 00 hr 56 min 37 sec)
Heartbeat CPU 0 instructions: 430000000 cycles: 235297302 heartbeat IPC: 1.345 cumulative IPC: 1.706 (Simulation time: 00 hr 58 min 24 sec)
Heartbeat CPU 0 instructions: 440000002 cycles: 242473421 heartbeat IPC: 1.394 cumulative IPC: 1.696 (Simulation time: 01 hr 00 min 06 sec)
Heartbeat CPU 0 instructions: 450000000 cycles: 249341356 heartbeat IPC: 1.456 cumulative IPC: 1.689 (Simulation time: 01 hr 01 min 45 sec)
Heartbeat CPU 0 instructions: 460000002 cycles: 259821146 heartbeat IPC: 0.9542 cumulative IPC: 1.658 (Simulation time: 01 hr 03 min 58 sec)
Heartbeat CPU 0 instructions: 470000000 cycles: 269234327 heartbeat IPC: 1.062 cumulative IPC: 1.636 (Simulation time: 01 hr 06 min 00 sec)
Heartbeat CPU 0 instructions: 480000000 cycles: 274473307 heartbeat IPC: 1.909 cumulative IPC: 1.641 (Simulation time: 01 hr 07 min 19 sec)
Heartbeat CPU 0 instructions: 490000001 cycles: 279855872 heartbeat IPC: 1.858 cumulative IPC: 1.646 (Simulation time: 01 hr 08 min 40 sec)
Heartbeat CPU 0 instructions: 500000002 cycles: 285306977 heartbeat IPC: 1.834 cumulative IPC: 1.65 (Simulation time: 01 hr 10 min 01 sec)
Heartbeat CPU 0 instructions: 510000000 cycles: 290844317 heartbeat IPC: 1.806 cumulative IPC: 1.653 (Simulation time: 01 hr 11 min 24 sec)
Heartbeat CPU 0 instructions: 520000000 cycles: 296453301 heartbeat IPC: 1.783 cumulative IPC: 1.655 (Simulation time: 01 hr 12 min 47 sec)
Heartbeat CPU 0 instructions: 530000001 cycles: 307219232 heartbeat IPC: 0.9289 cumulative IPC: 1.629 (Simulation time: 01 hr 15 min 01 sec)
Heartbeat CPU 0 instructions: 540000000 cycles: 317471405 heartbeat IPC: 0.9754 cumulative IPC: 1.607 (Simulation time: 01 hr 17 min 12 sec)
Heartbeat CPU 0 instructions: 550000002 cycles: 329406797 heartbeat IPC: 0.8378 cumulative IPC: 1.578 (Simulation time: 01 hr 19 min 39 sec)
Heartbeat CPU 0 instructions: 560000004 cycles: 334198469 heartbeat IPC: 2.087 cumulative IPC: 1.585 (Simulation time: 01 hr 20 min 54 sec)
Heartbeat CPU 0 instructions: 570000001 cycles: 338597643 heartbeat IPC: 2.273 cumulative IPC: 1.595 (Simulation time: 01 hr 22 min 07 sec)
Heartbeat CPU 0 instructions: 580000003 cycles: 342818155 heartbeat IPC: 2.369 cumulative IPC: 1.605 (Simulation time: 01 hr 23 min 17 sec)
Heartbeat CPU 0 instructions: 590000001 cycles: 347700104 heartbeat IPC: 2.048 cumulative IPC: 1.611 (Simulation time: 01 hr 24 min 33 sec)
Heartbeat CPU 0 instructions: 600000003 cycles: 352328961 heartbeat IPC: 2.16 cumulative IPC: 1.618 (Simulation time: 01 hr 25 min 48 sec)
Heartbeat CPU 0 instructions: 610000001 cycles: 357168885 heartbeat IPC: 2.066 cumulative IPC: 1.625 (Simulation time: 01 hr 27 min 02 sec)
Heartbeat CPU 0 instructions: 620000000 cycles: 362225353 heartbeat IPC: 1.978 cumulative IPC: 1.63 (Simulation time: 01 hr 28 min 04 sec)
Heartbeat CPU 0 instructions: 630000002 cycles: 366457999 heartbeat IPC: 2.363 cumulative IPC: 1.639 (Simulation time: 01 hr 28 min 52 sec)
Heartbeat CPU 0 instructions: 640000004 cycles: 371736325 heartbeat IPC: 1.895 cumulative IPC: 1.642 (Simulation time: 01 hr 29 min 38 sec)
Heartbeat CPU 0 instructions: 650000001 cycles: 376481371 heartbeat IPC: 2.107 cumulative IPC: 1.648 (Simulation time: 01 hr 30 min 23 sec)
Simulation finished CPU 0 instructions: 600000001 cycles: 363981310 cumulative IPC: 1.648 (Simulation time: 01 hr 30 min 23 sec)
Simulation complete CPU 0 instructions: 600000001 cycles: 363981310 cumulative IPC: 1.648 (Simulation time: 01 hr 30 min 23 sec)

ChampSim completed all CPUs

=== Simulation ===
CPU 0 runs traces/400.perlbench-50B.champsimtrace.xz
Region of Interest Statistics

CPU 0 cumulative IPC: 1.648 instructions: 600000001 cycles: 363981310
CPU 0 Branch Prediction Accuracy: 93.83% MPKI: 12.71 Average ROB Occupancy at Mispredict: 29.48
Branch type MPKI
BRANCH_DIRECT_JUMP: 0.0176
BRANCH_INDIRECT: 0.38
BRANCH_CONDITIONAL: 11.9
BRANCH_DIRECT_CALL: 0.0067
BRANCH_INDIRECT_CALL: 0.431
BRANCH_RETURN: 0.0161

LLC TOTAL        ACCESS:     851654 HIT:     595597 MISS:     256057
LLC LOAD         ACCESS:     587745 HIT:     384557 MISS:     203188
LLC RFO          ACCESS:      47677 HIT:      31102 MISS:      16575
LLC PREFETCH     ACCESS:      65856 HIT:      43131 MISS:      22725
LLC WRITE        ACCESS:     128398 HIT:     126087 MISS:       2311
LLC TRANSLATION  ACCESS:      21978 HIT:      10720 MISS:      11258
LLC PREFETCH REQUESTED:      65856 ISSUED:      65856 USEFUL:      14251 USELESS:       4230
LLC AVERAGE MISS LATENCY: 512.4 cycles
cpu0_DTLB TOTAL        ACCESS:  156771604 HIT:  155470731 MISS:    1300873
cpu0_DTLB LOAD         ACCESS:  156771604 HIT:  155470731 MISS:    1300873
cpu0_DTLB RFO          ACCESS:          0 HIT:          0 MISS:          0
cpu0_DTLB PREFETCH     ACCESS:          0 HIT:          0 MISS:          0
cpu0_DTLB WRITE        ACCESS:          0 HIT:          0 MISS:          0
cpu0_DTLB TRANSLATION  ACCESS:          0 HIT:          0 MISS:          0
cpu0_DTLB PREFETCH REQUESTED:          0 ISSUED:          0 USEFUL:          0 USELESS:          0
cpu0_DTLB AVERAGE MISS LATENCY: 11.43 cycles
cpu0_ITLB TOTAL        ACCESS:    8933095 HIT:    8734522 MISS:     198573
cpu0_ITLB LOAD         ACCESS:    8933095 HIT:    8734522 MISS:     198573
cpu0_ITLB RFO          ACCESS:          0 HIT:          0 MISS:          0
cpu0_ITLB PREFETCH     ACCESS:          0 HIT:          0 MISS:          0
cpu0_ITLB WRITE        ACCESS:          0 HIT:          0 MISS:          0
cpu0_ITLB TRANSLATION  ACCESS:          0 HIT:          0 MISS:          0
cpu0_ITLB PREFETCH REQUESTED:          0 ISSUED:          0 USEFUL:          0 USELESS:          0
cpu0_ITLB AVERAGE MISS LATENCY: 2.978 cycles
cpu0_L1D TOTAL        ACCESS:  203615534 HIT:  199954682 MISS:    3660852
cpu0_L1D LOAD         ACCESS:  117938394 HIT:  114929154 MISS:    3009240
cpu0_L1D RFO          ACCESS:          0 HIT:          0 MISS:          0
cpu0_L1D PREFETCH     ACCESS:          0 HIT:          0 MISS:          0
cpu0_L1D WRITE        ACCESS:   85648598 HIT:   85024118 MISS:     624480
cpu0_L1D TRANSLATION  ACCESS:      28542 HIT:       1410 MISS:      27132
cpu0_L1D PREFETCH REQUESTED:          0 ISSUED:          0 USEFUL:          0 USELESS:          0
cpu0_L1D AVERAGE MISS LATENCY: 37.94 cycles
cpu0_L1I TOTAL        ACCESS:   10371664 HIT:    8574415 MISS:    1797249
cpu0_L1I LOAD         ACCESS:   10371664 HIT:    8574415 MISS:    1797249
cpu0_L1I RFO          ACCESS:          0 HIT:          0 MISS:          0
cpu0_L1I PREFETCH     ACCESS:          0 HIT:          0 MISS:          0
cpu0_L1I WRITE        ACCESS:          0 HIT:          0 MISS:          0
cpu0_L1I TRANSLATION  ACCESS:          0 HIT:          0 MISS:          0
cpu0_L1I PREFETCH REQUESTED:          0 ISSUED:          0 USEFUL:          0 USELESS:          0
cpu0_L1I AVERAGE MISS LATENCY: 11.23 cycles
cpu0_L2C TOTAL        ACCESS:    3837208 HIT:    3176540 MISS:     660668
cpu0_L2C LOAD         ACCESS:    3106417 HIT:    2518672 MISS:     587745
cpu0_L2C RFO          ACCESS:     191827 HIT:     144150 MISS:      47677
cpu0_L2C PREFETCH     ACCESS:          0 HIT:          0 MISS:          0
cpu0_L2C WRITE        ACCESS:     511911 HIT:     508643 MISS:       3268
cpu0_L2C TRANSLATION  ACCESS:      27053 HIT:       5075 MISS:      21978
cpu0_L2C PREFETCH REQUESTED:          0 ISSUED:          0 USEFUL:          0 USELESS:          0
cpu0_L2C AVERAGE MISS LATENCY: 200.4 cycles
cpu0_STLB TOTAL        ACCESS:    1009329 HIT:     982637 MISS:      26692
cpu0_STLB LOAD         ACCESS:    1009329 HIT:     982637 MISS:      26692
cpu0_STLB RFO          ACCESS:          0 HIT:          0 MISS:          0
cpu0_STLB PREFETCH     ACCESS:          0 HIT:          0 MISS:          0
cpu0_STLB WRITE        ACCESS:          0 HIT:          0 MISS:          0
cpu0_STLB TRANSLATION  ACCESS:          0 HIT:          0 MISS:          0
cpu0_STLB PREFETCH REQUESTED:          0 ISSUED:          0 USEFUL:          0 USELESS:          0
cpu0_STLB AVERAGE MISS LATENCY: 334.3 cycles

DRAM Statistics

Channel 0 RQ ROW_BUFFER_HIT:      49674
  ROW_BUFFER_MISS:     199804
 AVG DBUS CONGESTED CYCLE: 3.788
WQ ROW_BUFFER_HIT: Channel 0 
  ROW_BUFFER_MISS:       8655
  FULL:      24742
