WARNING: physical memory size is smaller than virtual memory size.

*** ChampSim Multicore Out-of-Order Simulator ***
Warmup Instructions: 50000000
Simulation Instructions: 600000000
Number of CPUs: 1
Page size: 4096

Off-chip DRAM Size: 4 GiB Channels: 1 Width: 64-bit Data Race: 3200 MT/s
Heartbeat CPU 0 instructions: 10000001 cycles: 2500318 heartbeat IPC: 3.999 cumulative IPC: 3.999 (Simulation time: 00 hr 01 min 07 sec)
Heartbeat CPU 0 instructions: 20000002 cycles: 5037125 heartbeat IPC: 3.942 cumulative IPC: 3.971 (Simulation time: 00 hr 02 min 14 sec)
Heartbeat CPU 0 instructions: 30000002 cycles: 7537125 heartbeat IPC: 4 cumulative IPC: 3.98 (Simulation time: 00 hr 03 min 17 sec)
Heartbeat CPU 0 instructions: 40000002 cycles: 10037125 heartbeat IPC: 4 cumulative IPC: 3.985 (Simulation time: 00 hr 04 min 19 sec)
Heartbeat CPU 0 instructions: 50000002 cycles: 12537125 heartbeat IPC: 4 cumulative IPC: 3.988 (Simulation time: 00 hr 05 min 19 sec)
Warmup finished CPU 0 instructions: 50000002 cycles: 12537126 cumulative IPC: 3.988 (Simulation time: 00 hr 05 min 19 sec)
Warmup complete CPU 0 instructions: 50000002 cycles: 12537126 cumulative IPC: 3.988 (Simulation time: 00 hr 05 min 19 sec)
Heartbeat CPU 0 instructions: 60000000 cycles: 17159259 heartbeat IPC: 2.164 cumulative IPC: 2.164 (Simulation time: 00 hr 06 min 45 sec)
Heartbeat CPU 0 instructions: 70000004 cycles: 21442111 heartbeat IPC: 2.335 cumulative IPC: 2.246 (Simulation time: 00 hr 08 min 07 sec)
Heartbeat CPU 0 instructions: 80000001 cycles: 26051042 heartbeat IPC: 2.17 cumulative IPC: 2.22 (Simulation time: 00 hr 09 min 33 sec)
Heartbeat CPU 0 instructions: 90000001 cycles: 30188517 heartbeat IPC: 2.417 cumulative IPC: 2.266 (Simulation time: 00 hr 10 min 53 sec)
Heartbeat CPU 0 instructions: 100000000 cycles: 34248253 heartbeat IPC: 2.463 cumulative IPC: 2.303 (Simulation time: 00 hr 12 min 27 sec)
Heartbeat CPU 0 instructions: 110000000 cycles: 38484910 heartbeat IPC: 2.36 cumulative IPC: 2.312 (Simulation time: 00 hr 14 min 08 sec)
Heartbeat CPU 0 instructions: 120000001 cycles: 42496802 heartbeat IPC: 2.493 cumulative IPC: 2.336 (Simulation time: 00 hr 15 min 51 sec)
Heartbeat CPU 0 instructions: 130000001 cycles: 46236609 heartbeat IPC: 2.674 cumulative IPC: 2.374 (Simulation time: 00 hr 17 min 35 sec)
Heartbeat CPU 0 instructions: 140000001 cycles: 50412477 heartbeat IPC: 2.395 cumulative IPC: 2.376 (Simulation time: 00 hr 19 min 22 sec)
Heartbeat CPU 0 instructions: 150000001 cycles: 54622326 heartbeat IPC: 2.375 cumulative IPC: 2.376 (Simulation time: 00 hr 21 min 11 sec)
Heartbeat CPU 0 instructions: 160000004 cycles: 59049500 heartbeat IPC: 2.259 cumulative IPC: 2.365 (Simulation time: 00 hr 23 min 03 sec)
Heartbeat CPU 0 instructions: 170000000 cycles: 69748938 heartbeat IPC: 0.9346 cumulative IPC: 2.097 (Simulation time: 00 hr 24 min 32 sec)
Heartbeat CPU 0 instructions: 180000004 cycles: 81468354 heartbeat IPC: 0.8533 cumulative IPC: 1.886 (Simulation time: 00 hr 26 min 09 sec)
Heartbeat CPU 0 instructions: 190000001 cycles: 92258980 heartbeat IPC: 0.9267 cumulative IPC: 1.756 (Simulation time: 00 hr 27 min 43 sec)
Heartbeat CPU 0 instructions: 200000004 cycles: 96035490 heartbeat IPC: 2.648 cumulative IPC: 1.796 (Simulation time: 00 hr 28 min 32 sec)
Heartbeat CPU 0 instructions: 210000001 cycles: 99954668 heartbeat IPC: 2.552 cumulative IPC: 1.83 (Simulation time: 00 hr 29 min 24 sec)
Heartbeat CPU 0 instructions: 220000000 cycles: 103913028 heartbeat IPC: 2.526 cumulative IPC: 1.86 (Simulation time: 00 hr 30 min 15 sec)
Heartbeat CPU 0 instructions: 230000002 cycles: 108583676 heartbeat IPC: 2.141 cumulative IPC: 1.874 (Simulation time: 00 hr 31 min 13 sec)
Heartbeat CPU 0 instructions: 240000000 cycles: 112777176 heartbeat IPC: 2.385 cumulative IPC: 1.895 (Simulation time: 00 hr 32 min 09 sec)
Heartbeat CPU 0 instructions: 250000000 cycles: 117100700 heartbeat IPC: 2.313 cumulative IPC: 1.913 (Simulation time: 00 hr 33 min 05 sec)
Heartbeat CPU 0 instructions: 260000000 cycles: 121285261 heartbeat IPC: 2.39 cumulative IPC: 1.931 (Simulation time: 00 hr 33 min 58 sec)
Heartbeat CPU 0 instructions: 270000002 cycles: 125134035 heartbeat IPC: 2.598 cumulative IPC: 1.954 (Simulation time: 00 hr 34 min 47 sec)
Heartbeat CPU 0 instructions: 280000002 cycles: 129301214 heartbeat IPC: 2.4 cumulative IPC: 1.97 (Simulation time: 00 hr 35 min 38 sec)
Heartbeat CPU 0 instructions: 290000001 cycles: 133199551 heartbeat IPC: 2.565 cumulative IPC: 1.989 (Simulation time: 00 hr 36 min 30 sec)
Heartbeat CPU 0 instructions: 300000003 cycles: 137023709 heartbeat IPC: 2.615 cumulative IPC: 2.008 (Simulation time: 00 hr 37 min 21 sec)
Heartbeat CPU 0 instructions: 310000001 cycles: 141145292 heartbeat IPC: 2.426 cumulative IPC: 2.022 (Simulation time: 00 hr 38 min 11 sec)
Heartbeat CPU 0 instructions: 320000003 cycles: 145219545 heartbeat IPC: 2.454 cumulative IPC: 2.035 (Simulation time: 00 hr 39 min 01 sec)
Heartbeat CPU 0 instructions: 330000003 cycles: 149623118 heartbeat IPC: 2.271 cumulative IPC: 2.043 (Simulation time: 00 hr 39 min 54 sec)
Heartbeat CPU 0 instructions: 340000000 cycles: 159947424 heartbeat IPC: 0.9686 cumulative IPC: 1.967 (Simulation time: 00 hr 41 min 30 sec)
Heartbeat CPU 0 instructions: 350000000 cycles: 172102533 heartbeat IPC: 0.8227 cumulative IPC: 1.88 (Simulation time: 00 hr 43 min 11 sec)
Heartbeat CPU 0 instructions: 360000004 cycles: 182696609 heartbeat IPC: 0.9439 cumulative IPC: 1.822 (Simulation time: 00 hr 44 min 47 sec)
Heartbeat CPU 0 instructions: 370000000 cycles: 186139921 heartbeat IPC: 2.904 cumulative IPC: 1.843 (Simulation time: 00 hr 45 min 35 sec)
Heartbeat CPU 0 instructions: 380000001 cycles: 189556313 heartbeat IPC: 2.927 cumulative IPC: 1.864 (Simulation time: 00 hr 46 min 21 sec)
Heartbeat CPU 0 instructions: 390000004 cycles: 193299568 heartbeat IPC: 2.671 cumulative IPC: 1.881 (Simulation time: 00 hr 47 min 11 sec)
Heartbeat CPU 0 instructions: 400000004 cycles: 197107922 heartbeat IPC: 2.626 cumulative IPC: 1.896 (Simulation time: 00 hr 48 min 04 sec)
Heartbeat CPU 0 instructions: 410000001 cycles: 200759724 heartbeat IPC: 2.738 cumulative IPC: 1.913 (Simulation time: 00 hr 48 min 54 sec)
Heartbeat CPU 0 instructions: 420000003 cycles: 204840048 heartbeat IPC: 2.451 cumulative IPC: 1.924 (Simulation time: 00 hr 49 min 46 sec)
Heartbeat CPU 0 instructions: 430000001 cycles: 208504120 heartbeat IPC: 2.729 cumulative IPC: 1.939 (Simulation time: 00 hr 50 min 36 sec)
Heartbeat CPU 0 instructions: 440000004 cycles: 212589931 heartbeat IPC: 2.447 cumulative IPC: 1.949 (Simulation time: 00 hr 51 min 30 sec)
Heartbeat CPU 0 instructions: 450000002 cycles: 216316504 heartbeat IPC: 2.683 cumulative IPC: 1.963 (Simulation time: 00 hr 52 min 21 sec)
Heartbeat CPU 0 instructions: 460000000 cycles: 219983915 heartbeat IPC: 2.727 cumulative IPC: 1.976 (Simulation time: 00 hr 53 min 10 sec)
Heartbeat CPU 0 instructions: 470000000 cycles: 223447200 heartbeat IPC: 2.887 cumulative IPC: 1.991 (Simulation time: 00 hr 53 min 59 sec)
Heartbeat CPU 0 instructions: 480000003 cycles: 227297200 heartbeat IPC: 2.597 cumulative IPC: 2.002 (Simulation time: 00 hr 54 min 51 sec)
Heartbeat CPU 0 instructions: 490000000 cycles: 230928413 heartbeat IPC: 2.754 cumulative IPC: 2.015 (Simulation time: 00 hr 55 min 42 sec)
Heartbeat CPU 0 instructions: 500000000 cycles: 234624864 heartbeat IPC: 2.705 cumulative IPC: 2.026 (Simulation time: 00 hr 56 min 32 sec)
Heartbeat CPU 0 instructions: 510000003 cycles: 238335182 heartbeat IPC: 2.695 cumulative IPC: 2.037 (Simulation time: 00 hr 57 min 21 sec)
Heartbeat CPU 0 instructions: 520000001 cycles: 241748597 heartbeat IPC: 2.93 cumulative IPC: 2.051 (Simulation time: 00 hr 58 min 11 sec)
Heartbeat CPU 0 instructions: 530000002 cycles: 245443877 heartbeat IPC: 2.706 cumulative IPC: 2.061 (Simulation time: 00 hr 59 min 04 sec)
Heartbeat CPU 0 instructions: 540000000 cycles: 248968209 heartbeat IPC: 2.837 cumulative IPC: 2.072 (Simulation time: 00 hr 59 min 56 sec)
Heartbeat CPU 0 instructions: 550000001 cycles: 252655747 heartbeat IPC: 2.712 cumulative IPC: 2.082 (Simulation time: 01 hr 00 min 46 sec)
Heartbeat CPU 0 instructions: 560000000 cycles: 256684338 heartbeat IPC: 2.482 cumulative IPC: 2.089 (Simulation time: 01 hr 01 min 37 sec)
Heartbeat CPU 0 instructions: 570000004 cycles: 263053775 heartbeat IPC: 1.57 cumulative IPC: 2.076 (Simulation time: 01 hr 02 min 42 sec)
Heartbeat CPU 0 instructions: 580000003 cycles: 275315557 heartbeat IPC: 0.8155 cumulative IPC: 2.017 (Simulation time: 01 hr 04 min 25 sec)
Heartbeat CPU 0 instructions: 590000002 cycles: 289354349 heartbeat IPC: 0.7123 cumulative IPC: 1.951 (Simulation time: 01 hr 06 min 16 sec)
Heartbeat CPU 0 instructions: 600000000 cycles: 293112522 heartbeat IPC: 2.661 cumulative IPC: 1.96 (Simulation time: 01 hr 07 min 05 sec)
Heartbeat CPU 0 instructions: 610000000 cycles: 296973832 heartbeat IPC: 2.59 cumulative IPC: 1.969 (Simulation time: 01 hr 07 min 54 sec)
Heartbeat CPU 0 instructions: 620000001 cycles: 300403193 heartbeat IPC: 2.916 cumulative IPC: 1.98 (Simulation time: 01 hr 08 min 44 sec)
Heartbeat CPU 0 instructions: 630000002 cycles: 304676482 heartbeat IPC: 2.34 cumulative IPC: 1.985 (Simulation time: 01 hr 09 min 37 sec)
Heartbeat CPU 0 instructions: 640000001 cycles: 308572520 heartbeat IPC: 2.567 cumulative IPC: 1.993 (Simulation time: 01 hr 10 min 28 sec)
Heartbeat CPU 0 instructions: 650000000 cycles: 312328633 heartbeat IPC: 2.662 cumulative IPC: 2.001 (Simulation time: 01 hr 11 min 14 sec)
Simulation finished CPU 0 instructions: 600000001 cycles: 299791509 cumulative IPC: 2.001 (Simulation time: 01 hr 11 min 14 sec)
Simulation complete CPU 0 instructions: 600000001 cycles: 299791509 cumulative IPC: 2.001 (Simulation time: 01 hr 11 min 14 sec)

ChampSim completed all CPUs

=== Simulation ===
CPU 0 runs traces/400.perlbench-41B.champsimtrace.xz
Region of Interest Statistics

CPU 0 cumulative IPC: 2.001 instructions: 600000001 cycles: 299791509
CPU 0 Branch Prediction Accuracy: 96.56% MPKI: 7.112 Average ROB Occupancy at Mispredict: 47.36
Branch type MPKI
BRANCH_DIRECT_JUMP: 0.0123
BRANCH_INDIRECT: 0.323
BRANCH_CONDITIONAL: 6.56
BRANCH_DIRECT_CALL: 0.0043
BRANCH_INDIRECT_CALL: 0.2
BRANCH_RETURN: 0.00828

LLC TOTAL        ACCESS:     539081 HIT:     252850 MISS:     286231
LLC LOAD         ACCESS:     401985 HIT:     152821 MISS:     249164
LLC RFO          ACCESS:      32407 HIT:      16430 MISS:      15977
LLC PREFETCH     ACCESS:          0 HIT:          0 MISS:          0
LLC WRITE        ACCESS:      85736 HIT:      74811 MISS:      10925
LLC TRANSLATION  ACCESS:      18953 HIT:       8788 MISS:      10165
LLC PREFETCH REQUESTED:          0 ISSUED:          0 USEFUL:          0 USELESS:          0
LLC AVERAGE MISS LATENCY: 539.5 cycles
cpu0_DTLB TOTAL        ACCESS:  141898633 HIT:  141211867 MISS:     686766
cpu0_DTLB LOAD         ACCESS:  141898633 HIT:  141211867 MISS:     686766
cpu0_DTLB RFO          ACCESS:          0 HIT:          0 MISS:          0
cpu0_DTLB PREFETCH     ACCESS:          0 HIT:          0 MISS:          0
cpu0_DTLB WRITE        ACCESS:          0 HIT:          0 MISS:          0
cpu0_DTLB TRANSLATION  ACCESS:          0 HIT:          0 MISS:          0
cpu0_DTLB PREFETCH REQUESTED:          0 ISSUED:          0 USEFUL:          0 USELESS:          0
cpu0_DTLB AVERAGE MISS LATENCY: 15.18 cycles
cpu0_ITLB TOTAL        ACCESS:    4859542 HIT:    4806406 MISS:      53136
cpu0_ITLB LOAD         ACCESS:    4859542 HIT:    4806406 MISS:      53136
cpu0_ITLB RFO          ACCESS:          0 HIT:          0 MISS:          0
cpu0_ITLB PREFETCH     ACCESS:          0 HIT:          0 MISS:          0
cpu0_ITLB WRITE        ACCESS:          0 HIT:          0 MISS:          0
cpu0_ITLB TRANSLATION  ACCESS:          0 HIT:          0 MISS:          0
cpu0_ITLB PREFETCH REQUESTED:          0 ISSUED:          0 USEFUL:          0 USELESS:          0
cpu0_ITLB AVERAGE MISS LATENCY: 8.175 cycles
cpu0_L1D TOTAL        ACCESS:  188561688 HIT:  187191201 MISS:    1370487
cpu0_L1D LOAD         ACCESS:  105193783 HIT:  104136617 MISS:    1057166
cpu0_L1D RFO          ACCESS:          0 HIT:          0 MISS:          0
cpu0_L1D PREFETCH     ACCESS:          0 HIT:          0 MISS:          0
cpu0_L1D WRITE        ACCESS:   83343445 HIT:   83052980 MISS:     290465
cpu0_L1D TRANSLATION  ACCESS:      24460 HIT:       1604 MISS:      22856
cpu0_L1D PREFETCH REQUESTED:          0 ISSUED:          0 USEFUL:          0 USELESS:          0
cpu0_L1D AVERAGE MISS LATENCY: 116.2 cycles
cpu0_L1I TOTAL        ACCESS:    5597232 HIT:    4853649 MISS:     743583
cpu0_L1I LOAD         ACCESS:    5597232 HIT:    4853649 MISS:     743583
cpu0_L1I RFO          ACCESS:          0 HIT:          0 MISS:          0
cpu0_L1I PREFETCH     ACCESS:          0 HIT:          0 MISS:          0
cpu0_L1I WRITE        ACCESS:          0 HIT:          0 MISS:          0
cpu0_L1I TRANSLATION  ACCESS:          0 HIT:          0 MISS:          0
cpu0_L1I PREFETCH REQUESTED:          0 ISSUED:          0 USEFUL:          0 USELESS:          0
cpu0_L1I AVERAGE MISS LATENCY: 14.28 cycles
cpu0_L2C TOTAL        ACCESS:    1380679 HIT:     923723 MISS:     456956
cpu0_L2C LOAD         ACCESS:    1124720 HIT:     722735 MISS:     401985
cpu0_L2C RFO          ACCESS:      63788 HIT:      31381 MISS:      32407
cpu0_L2C PREFETCH     ACCESS:          0 HIT:          0 MISS:          0
cpu0_L2C WRITE        ACCESS:     169382 HIT:     165771 MISS:       3611
cpu0_L2C TRANSLATION  ACCESS:      22789 HIT:       3836 MISS:      18953
cpu0_L2C PREFETCH REQUESTED:          0 ISSUED:          0 USEFUL:          0 USELESS:          0
cpu0_L2C AVERAGE MISS LATENCY: 358.4 cycles
cpu0_STLB TOTAL        ACCESS:     507385 HIT:     484591 MISS:      22794
cpu0_STLB LOAD         ACCESS:     507385 HIT:     484591 MISS:      22794
cpu0_STLB RFO          ACCESS:          0 HIT:          0 MISS:          0
cpu0_STLB PREFETCH     ACCESS:          0 HIT:          0 MISS:          0
cpu0_STLB WRITE        ACCESS:          0 HIT:          0 MISS:          0
cpu0_STLB TRANSLATION  ACCESS:          0 HIT:          0 MISS:          0
cpu0_STLB PREFETCH REQUESTED:          0 ISSUED:          0 USEFUL:          0 USELESS:          0
cpu0_STLB AVERAGE MISS LATENCY: 340 cycles

DRAM Statistics

Channel 0 RQ ROW_BUFFER_HIT:      46668
  ROW_BUFFER_MISS:     228578
 AVG DBUS CONGESTED CYCLE: 3.796
WQ ROW_BUFFER_HIT: Channel 0 
  ROW_BUFFER_MISS:       8653
  FULL:      30420
