WARNING: physical memory size is smaller than virtual memory size.

*** ChampSim Multicore Out-of-Order Simulator ***
Warmup Instructions: 50000000
Simulation Instructions: 600000000
Number of CPUs: 1
Page size: 4096

Off-chip DRAM Size: 4 GiB Channels: 1 Width: 64-bit Data Race: 3200 MT/s
Heartbeat CPU 0 instructions: 10000001 cycles: 2500318 heartbeat IPC: 3.999 cumulative IPC: 3.999 (Simulation time: 00 hr 03 min 48 sec)
Heartbeat CPU 0 instructions: 20000002 cycles: 5037128 heartbeat IPC: 3.942 cumulative IPC: 3.971 (Simulation time: 00 hr 07 min 34 sec)
Heartbeat CPU 0 instructions: 30000002 cycles: 7537128 heartbeat IPC: 4 cumulative IPC: 3.98 (Simulation time: 00 hr 10 min 47 sec)
Heartbeat CPU 0 instructions: 40000002 cycles: 10037128 heartbeat IPC: 4 cumulative IPC: 3.985 (Simulation time: 00 hr 14 min 05 sec)
Heartbeat CPU 0 instructions: 50000002 cycles: 12537128 heartbeat IPC: 4 cumulative IPC: 3.988 (Simulation time: 00 hr 17 min 27 sec)
Warmup finished CPU 0 instructions: 50000002 cycles: 12537129 cumulative IPC: 3.988 (Simulation time: 00 hr 17 min 27 sec)
Warmup complete CPU 0 instructions: 50000002 cycles: 12537129 cumulative IPC: 3.988 (Simulation time: 00 hr 17 min 27 sec)
Heartbeat CPU 0 instructions: 60000000 cycles: 17715163 heartbeat IPC: 1.931 cumulative IPC: 1.931 (Simulation time: 00 hr 22 min 45 sec)
Heartbeat CPU 0 instructions: 70000002 cycles: 22627963 heartbeat IPC: 2.035 cumulative IPC: 1.982 (Simulation time: 00 hr 27 min 55 sec)
Heartbeat CPU 0 instructions: 80000001 cycles: 28005565 heartbeat IPC: 1.86 cumulative IPC: 1.939 (Simulation time: 00 hr 33 min 24 sec)
Heartbeat CPU 0 instructions: 90000001 cycles: 32898443 heartbeat IPC: 2.044 cumulative IPC: 1.965 (Simulation time: 00 hr 38 min 24 sec)
Heartbeat CPU 0 instructions: 100000000 cycles: 38021161 heartbeat IPC: 1.952 cumulative IPC: 1.962 (Simulation time: 00 hr 43 min 29 sec)
Heartbeat CPU 0 instructions: 110000000 cycles: 42925009 heartbeat IPC: 2.039 cumulative IPC: 1.974 (Simulation time: 00 hr 48 min 34 sec)
Heartbeat CPU 0 instructions: 120000001 cycles: 48133128 heartbeat IPC: 1.92 cumulative IPC: 1.967 (Simulation time: 00 hr 53 min 28 sec)
Heartbeat CPU 0 instructions: 130000001 cycles: 53309378 heartbeat IPC: 1.932 cumulative IPC: 1.962 (Simulation time: 00 hr 58 min 16 sec)
Heartbeat CPU 0 instructions: 140000001 cycles: 58641624 heartbeat IPC: 1.875 cumulative IPC: 1.952 (Simulation time: 01 hr 02 min 58 sec)
Heartbeat CPU 0 instructions: 150000001 cycles: 63975996 heartbeat IPC: 1.875 cumulative IPC: 1.944 (Simulation time: 01 hr 07 min 28 sec)
Heartbeat CPU 0 instructions: 160000004 cycles: 69205501 heartbeat IPC: 1.912 cumulative IPC: 1.941 (Simulation time: 01 hr 11 min 48 sec)
Heartbeat CPU 0 instructions: 170000000 cycles: 78027433 heartbeat IPC: 1.134 cumulative IPC: 1.832 (Simulation time: 01 hr 17 min 46 sec)
Heartbeat CPU 0 instructions: 180000004 cycles: 84862993 heartbeat IPC: 1.463 cumulative IPC: 1.797 (Simulation time: 01 hr 22 min 56 sec)
Heartbeat CPU 0 instructions: 190000001 cycles: 92262237 heartbeat IPC: 1.351 cumulative IPC: 1.756 (Simulation time: 01 hr 28 min 17 sec)
Heartbeat CPU 0 instructions: 200000003 cycles: 96899072 heartbeat IPC: 2.157 cumulative IPC: 1.778 (Simulation time: 01 hr 32 min 09 sec)
Heartbeat CPU 0 instructions: 210000001 cycles: 101707918 heartbeat IPC: 2.08 cumulative IPC: 1.794 (Simulation time: 01 hr 36 min 09 sec)
Heartbeat CPU 0 instructions: 220000000 cycles: 106480255 heartbeat IPC: 2.095 cumulative IPC: 1.81 (Simulation time: 01 hr 40 min 03 sec)
Heartbeat CPU 0 instructions: 230000002 cycles: 111650633 heartbeat IPC: 1.934 cumulative IPC: 1.816 (Simulation time: 01 hr 44 min 06 sec)
Heartbeat CPU 0 instructions: 240000000 cycles: 116422281 heartbeat IPC: 2.096 cumulative IPC: 1.829 (Simulation time: 01 hr 48 min 02 sec)
Heartbeat CPU 0 instructions: 250000000 cycles: 121494931 heartbeat IPC: 1.971 cumulative IPC: 1.836 (Simulation time: 01 hr 52 min 04 sec)
Heartbeat CPU 0 instructions: 260000000 cycles: 126461079 heartbeat IPC: 2.014 cumulative IPC: 1.843 (Simulation time: 01 hr 56 min 15 sec)
Heartbeat CPU 0 instructions: 270000002 cycles: 131300323 heartbeat IPC: 2.066 cumulative IPC: 1.852 (Simulation time: 02 hr 00 min 35 sec)
Heartbeat CPU 0 instructions: 280000002 cycles: 136190913 heartbeat IPC: 2.045 cumulative IPC: 1.86 (Simulation time: 02 hr 04 min 56 sec)
Heartbeat CPU 0 instructions: 290000001 cycles: 141543526 heartbeat IPC: 1.868 cumulative IPC: 1.86 (Simulation time: 02 hr 09 min 29 sec)
Heartbeat CPU 0 instructions: 300000003 cycles: 146581504 heartbeat IPC: 1.985 cumulative IPC: 1.865 (Simulation time: 02 hr 13 min 57 sec)
Heartbeat CPU 0 instructions: 310000001 cycles: 151838672 heartbeat IPC: 1.902 cumulative IPC: 1.866 (Simulation time: 02 hr 18 min 28 sec)
Heartbeat CPU 0 instructions: 320000003 cycles: 157040071 heartbeat IPC: 1.923 cumulative IPC: 1.868 (Simulation time: 02 hr 22 min 58 sec)
Heartbeat CPU 0 instructions: 330000003 cycles: 162324154 heartbeat IPC: 1.892 cumulative IPC: 1.869 (Simulation time: 02 hr 27 min 31 sec)
Heartbeat CPU 0 instructions: 340000000 cycles: 171281501 heartbeat IPC: 1.116 cumulative IPC: 1.827 (Simulation time: 02 hr 34 min 11 sec)
Heartbeat CPU 0 instructions: 350000000 cycles: 178800908 heartbeat IPC: 1.33 cumulative IPC: 1.804 (Simulation time: 02 hr 40 min 08 sec)
Heartbeat CPU 0 instructions: 360000004 cycles: 186830199 heartbeat IPC: 1.245 cumulative IPC: 1.779 (Simulation time: 02 hr 46 min 19 sec)
Heartbeat CPU 0 instructions: 370000000 cycles: 191132350 heartbeat IPC: 2.324 cumulative IPC: 1.792 (Simulation time: 02 hr 50 min 25 sec)
Heartbeat CPU 0 instructions: 380000001 cycles: 195951124 heartbeat IPC: 2.075 cumulative IPC: 1.799 (Simulation time: 02 hr 54 min 48 sec)
Heartbeat CPU 0 instructions: 390000002 cycles: 200708062 heartbeat IPC: 2.102 cumulative IPC: 1.807 (Simulation time: 02 hr 59 min 06 sec)
Heartbeat CPU 0 instructions: 400000004 cycles: 205604027 heartbeat IPC: 2.042 cumulative IPC: 1.813 (Simulation time: 03 hr 03 min 24 sec)
Heartbeat CPU 0 instructions: 410000000 cycles: 210244165 heartbeat IPC: 2.155 cumulative IPC: 1.821 (Simulation time: 03 hr 07 min 32 sec)
Heartbeat CPU 0 instructions: 420000000 cycles: 215290306 heartbeat IPC: 1.982 cumulative IPC: 1.825 (Simulation time: 03 hr 11 min 56 sec)
Heartbeat CPU 0 instructions: 430000001 cycles: 219720925 heartbeat IPC: 2.257 cumulative IPC: 1.834 (Simulation time: 03 hr 16 min 00 sec)
Heartbeat CPU 0 instructions: 440000000 cycles: 225014867 heartbeat IPC: 1.889 cumulative IPC: 1.835 (Simulation time: 03 hr 20 min 22 sec)
Heartbeat CPU 0 instructions: 450000002 cycles: 229629034 heartbeat IPC: 2.167 cumulative IPC: 1.843 (Simulation time: 03 hr 24 min 27 sec)
Heartbeat CPU 0 instructions: 460000000 cycles: 234393690 heartbeat IPC: 2.099 cumulative IPC: 1.848 (Simulation time: 03 hr 28 min 20 sec)
Heartbeat CPU 0 instructions: 470000000 cycles: 239338187 heartbeat IPC: 2.022 cumulative IPC: 1.852 (Simulation time: 03 hr 32 min 10 sec)
Heartbeat CPU 0 instructions: 480000003 cycles: 244119514 heartbeat IPC: 2.091 cumulative IPC: 1.857 (Simulation time: 03 hr 35 min 51 sec)
Heartbeat CPU 0 instructions: 490000000 cycles: 248724051 heartbeat IPC: 2.172 cumulative IPC: 1.863 (Simulation time: 03 hr 39 min 33 sec)
Heartbeat CPU 0 instructions: 500000000 cycles: 253738009 heartbeat IPC: 1.994 cumulative IPC: 1.866 (Simulation time: 03 hr 43 min 23 sec)
Heartbeat CPU 0 instructions: 510000003 cycles: 259398383 heartbeat IPC: 1.767 cumulative IPC: 1.863 (Simulation time: 03 hr 47 min 31 sec)
Heartbeat CPU 0 instructions: 520000001 cycles: 264072341 heartbeat IPC: 2.14 cumulative IPC: 1.869 (Simulation time: 03 hr 51 min 12 sec)
Heartbeat CPU 0 instructions: 530000002 cycles: 269228790 heartbeat IPC: 1.939 cumulative IPC: 1.87 (Simulation time: 03 hr 55 min 04 sec)
Heartbeat CPU 0 instructions: 540000000 cycles: 274331154 heartbeat IPC: 1.96 cumulative IPC: 1.872 (Simulation time: 03 hr 58 min 54 sec)
Heartbeat CPU 0 instructions: 550000001 cycles: 279142076 heartbeat IPC: 2.079 cumulative IPC: 1.875 (Simulation time: 04 hr 02 min 41 sec)
Heartbeat CPU 0 instructions: 560000000 cycles: 284401682 heartbeat IPC: 1.901 cumulative IPC: 1.876 (Simulation time: 04 hr 06 min 38 sec)
Heartbeat CPU 0 instructions: 570000004 cycles: 291649485 heartbeat IPC: 1.38 cumulative IPC: 1.863 (Simulation time: 04 hr 11 min 32 sec)
Heartbeat CPU 0 instructions: 580000003 cycles: 299736951 heartbeat IPC: 1.236 cumulative IPC: 1.845 (Simulation time: 04 hr 17 min 05 sec)
Heartbeat CPU 0 instructions: 590000002 cycles: 308637711 heartbeat IPC: 1.123 cumulative IPC: 1.824 (Simulation time: 04 hr 23 min 02 sec)
Heartbeat CPU 0 instructions: 600000000 cycles: 313102426 heartbeat IPC: 2.24 cumulative IPC: 1.83 (Simulation time: 04 hr 26 min 40 sec)
Heartbeat CPU 0 instructions: 610000002 cycles: 317511962 heartbeat IPC: 2.268 cumulative IPC: 1.836 (Simulation time: 04 hr 30 min 08 sec)
Heartbeat CPU 0 instructions: 620000000 cycles: 322257889 heartbeat IPC: 2.107 cumulative IPC: 1.84 (Simulation time: 04 hr 33 min 38 sec)
Heartbeat CPU 0 instructions: 630000002 cycles: 327256178 heartbeat IPC: 2.001 cumulative IPC: 1.843 (Simulation time: 04 hr 37 min 10 sec)
Heartbeat CPU 0 instructions: 640000001 cycles: 332077361 heartbeat IPC: 2.074 cumulative IPC: 1.846 (Simulation time: 04 hr 40 min 40 sec)
Heartbeat CPU 0 instructions: 650000000 cycles: 336602291 heartbeat IPC: 2.21 cumulative IPC: 1.851 (Simulation time: 04 hr 43 min 52 sec)
Simulation finished CPU 0 instructions: 600000001 cycles: 324065164 cumulative IPC: 1.851 (Simulation time: 04 hr 43 min 52 sec)
Simulation complete CPU 0 instructions: 600000001 cycles: 324065164 cumulative IPC: 1.851 (Simulation time: 04 hr 43 min 52 sec)

ChampSim completed all CPUs

=== Simulation ===
CPU 0 runs traces/400.perlbench-41B.champsimtrace.xz
Region of Interest Statistics

CPU 0 cumulative IPC: 1.851 instructions: 600000001 cycles: 324065164
CPU 0 Branch Prediction Accuracy: 93.95% MPKI: 12.5 Average ROB Occupancy at Mispredict: 29.48
Branch type MPKI
BRANCH_DIRECT_JUMP: 0.0123
BRANCH_INDIRECT: 0.323
BRANCH_CONDITIONAL: 12
BRANCH_DIRECT_CALL: 0.0043
BRANCH_INDIRECT_CALL: 0.2
BRANCH_RETURN: 0.00828

LLC TOTAL        ACCESS:     541166 HIT:     407331 MISS:     133835
LLC LOAD         ACCESS:     403761 HIT:     298526 MISS:     105235
LLC RFO          ACCESS:      32554 HIT:      23961 MISS:       8593
LLC PREFETCH     ACCESS:          0 HIT:          0 MISS:          0
LLC WRITE        ACCESS:      85627 HIT:      76844 MISS:       8783
LLC TRANSLATION  ACCESS:      19224 HIT:       8000 MISS:      11224
LLC PREFETCH REQUESTED:          0 ISSUED:          0 USEFUL:          0 USELESS:          0
LLC AVERAGE MISS LATENCY: 491.5 cycles
cpu0_DTLB TOTAL        ACCESS:  153678846 HIT:  153001372 MISS:     677474
cpu0_DTLB LOAD         ACCESS:  153678846 HIT:  153001372 MISS:     677474
cpu0_DTLB RFO          ACCESS:          0 HIT:          0 MISS:          0
cpu0_DTLB PREFETCH     ACCESS:          0 HIT:          0 MISS:          0
cpu0_DTLB WRITE        ACCESS:          0 HIT:          0 MISS:          0
cpu0_DTLB TRANSLATION  ACCESS:          0 HIT:          0 MISS:          0
cpu0_DTLB PREFETCH REQUESTED:          0 ISSUED:          0 USEFUL:          0 USELESS:          0
cpu0_DTLB AVERAGE MISS LATENCY: 15.1 cycles
cpu0_ITLB TOTAL        ACCESS:    4839192 HIT:    4781350 MISS:      57842
cpu0_ITLB LOAD         ACCESS:    4839192 HIT:    4781350 MISS:      57842
cpu0_ITLB RFO          ACCESS:          0 HIT:          0 MISS:          0
cpu0_ITLB PREFETCH     ACCESS:          0 HIT:          0 MISS:          0
cpu0_ITLB WRITE        ACCESS:          0 HIT:          0 MISS:          0
cpu0_ITLB TRANSLATION  ACCESS:          0 HIT:          0 MISS:          0
cpu0_ITLB PREFETCH REQUESTED:          0 ISSUED:          0 USEFUL:          0 USELESS:          0
cpu0_ITLB AVERAGE MISS LATENCY: 5.637 cycles
cpu0_L1D TOTAL        ACCESS:  200297853 HIT:  198608245 MISS:    1689608
cpu0_L1D LOAD         ACCESS:  117054896 HIT:  115736707 MISS:    1318189
cpu0_L1D RFO          ACCESS:          0 HIT:          0 MISS:          0
cpu0_L1D PREFETCH     ACCESS:          0 HIT:          0 MISS:          0
cpu0_L1D WRITE        ACCESS:   83218493 HIT:   82870501 MISS:     347992
cpu0_L1D TRANSLATION  ACCESS:      24464 HIT:       1037 MISS:      23427
cpu0_L1D PREFETCH REQUESTED:          0 ISSUED:          0 USEFUL:          0 USELESS:          0
cpu0_L1D AVERAGE MISS LATENCY: 44.68 cycles
cpu0_L1I TOTAL        ACCESS:    5581330 HIT:    4820017 MISS:     761313
cpu0_L1I LOAD         ACCESS:    5581330 HIT:    4820017 MISS:     761313
cpu0_L1I RFO          ACCESS:          0 HIT:          0 MISS:          0
cpu0_L1I PREFETCH     ACCESS:          0 HIT:          0 MISS:          0
cpu0_L1I WRITE        ACCESS:          0 HIT:          0 MISS:          0
cpu0_L1I TRANSLATION  ACCESS:          0 HIT:          0 MISS:          0
cpu0_L1I PREFETCH REQUESTED:          0 ISSUED:          0 USEFUL:          0 USELESS:          0
cpu0_L1I AVERAGE MISS LATENCY: 13.83 cycles
cpu0_L2C TOTAL        ACCESS:    1667948 HIT:    1210605 MISS:     457343
cpu0_L2C LOAD         ACCESS:    1317136 HIT:     913375 MISS:     403761
cpu0_L2C RFO          ACCESS:      88578 HIT:      56024 MISS:      32554
cpu0_L2C PREFETCH     ACCESS:          0 HIT:          0 MISS:          0
cpu0_L2C WRITE        ACCESS:     238887 HIT:     237083 MISS:       1804
cpu0_L2C TRANSLATION  ACCESS:      23347 HIT:       4123 MISS:      19224
cpu0_L2C PREFETCH REQUESTED:          0 ISSUED:          0 USEFUL:          0 USELESS:          0
cpu0_L2C AVERAGE MISS LATENCY: 164 cycles
cpu0_STLB TOTAL        ACCESS:     505147 HIT:     482357 MISS:      22790
cpu0_STLB LOAD         ACCESS:     505147 HIT:     482357 MISS:      22790
cpu0_STLB RFO          ACCESS:          0 HIT:          0 MISS:          0
cpu0_STLB PREFETCH     ACCESS:          0 HIT:          0 MISS:          0
cpu0_STLB WRITE        ACCESS:          0 HIT:          0 MISS:          0
cpu0_STLB TRANSLATION  ACCESS:          0 HIT:          0 MISS:          0
cpu0_STLB PREFETCH REQUESTED:          0 ISSUED:          0 USEFUL:          0 USELESS:          0
cpu0_STLB AVERAGE MISS LATENCY: 321.4 cycles

DRAM Statistics

Channel 0 RQ ROW_BUFFER_HIT:      19401
  ROW_BUFFER_MISS:     105636
 AVG DBUS CONGESTED CYCLE: 3.763
WQ ROW_BUFFER_HIT: Channel 0 
  ROW_BUFFER_MISS:       6469
  FULL:      12397
