WARNING: physical memory size is smaller than virtual memory size.

*** ChampSim Multicore Out-of-Order Simulator ***
Warmup Instructions: 50000000
Simulation Instructions: 600000000
Number of CPUs: 1
Page size: 4096

Off-chip DRAM Size: 4 GiB Channels: 1 Width: 64-bit Data Race: 3200 MT/s
Heartbeat CPU 0 instructions: 10000001 cycles: 2500318 heartbeat IPC: 3.999 cumulative IPC: 3.999 (Simulation time: 00 hr 00 min 29 sec)
Heartbeat CPU 0 instructions: 20000002 cycles: 5037135 heartbeat IPC: 3.942 cumulative IPC: 3.971 (Simulation time: 00 hr 01 min 06 sec)
Heartbeat CPU 0 instructions: 30000002 cycles: 7537135 heartbeat IPC: 4 cumulative IPC: 3.98 (Simulation time: 00 hr 01 min 42 sec)
Heartbeat CPU 0 instructions: 40000002 cycles: 10037135 heartbeat IPC: 4 cumulative IPC: 3.985 (Simulation time: 00 hr 02 min 22 sec)
Heartbeat CPU 0 instructions: 50000002 cycles: 12537135 heartbeat IPC: 4 cumulative IPC: 3.988 (Simulation time: 00 hr 03 min 06 sec)
Warmup finished CPU 0 instructions: 50000002 cycles: 12537136 cumulative IPC: 3.988 (Simulation time: 00 hr 03 min 06 sec)
Warmup complete CPU 0 instructions: 50000002 cycles: 12537136 cumulative IPC: 3.988 (Simulation time: 00 hr 03 min 06 sec)
Heartbeat CPU 0 instructions: 60000000 cycles: 17152499 heartbeat IPC: 2.167 cumulative IPC: 2.167 (Simulation time: 00 hr 04 min 20 sec)
Heartbeat CPU 0 instructions: 70000004 cycles: 21433161 heartbeat IPC: 2.336 cumulative IPC: 2.248 (Simulation time: 00 hr 05 min 39 sec)
Heartbeat CPU 0 instructions: 80000001 cycles: 26031688 heartbeat IPC: 2.175 cumulative IPC: 2.223 (Simulation time: 00 hr 06 min 58 sec)
Heartbeat CPU 0 instructions: 90000001 cycles: 30159905 heartbeat IPC: 2.422 cumulative IPC: 2.27 (Simulation time: 00 hr 08 min 06 sec)
Heartbeat CPU 0 instructions: 100000000 cycles: 34216001 heartbeat IPC: 2.465 cumulative IPC: 2.306 (Simulation time: 00 hr 09 min 11 sec)
Heartbeat CPU 0 instructions: 110000000 cycles: 38457705 heartbeat IPC: 2.358 cumulative IPC: 2.315 (Simulation time: 00 hr 10 min 14 sec)
Heartbeat CPU 0 instructions: 120000001 cycles: 42465652 heartbeat IPC: 2.495 cumulative IPC: 2.339 (Simulation time: 00 hr 11 min 15 sec)
Heartbeat CPU 0 instructions: 130000001 cycles: 46200069 heartbeat IPC: 2.678 cumulative IPC: 2.377 (Simulation time: 00 hr 12 min 21 sec)
Heartbeat CPU 0 instructions: 140000001 cycles: 50365162 heartbeat IPC: 2.401 cumulative IPC: 2.379 (Simulation time: 00 hr 13 min 28 sec)
Heartbeat CPU 0 instructions: 150000001 cycles: 54566715 heartbeat IPC: 2.38 cumulative IPC: 2.379 (Simulation time: 00 hr 14 min 38 sec)
Heartbeat CPU 0 instructions: 160000004 cycles: 58979585 heartbeat IPC: 2.266 cumulative IPC: 2.369 (Simulation time: 00 hr 15 min 47 sec)
Heartbeat CPU 0 instructions: 170000000 cycles: 69322469 heartbeat IPC: 0.9668 cumulative IPC: 2.113 (Simulation time: 00 hr 17 min 42 sec)
Heartbeat CPU 0 instructions: 180000004 cycles: 80293075 heartbeat IPC: 0.9115 cumulative IPC: 1.919 (Simulation time: 00 hr 19 min 41 sec)
Heartbeat CPU 0 instructions: 190000001 cycles: 90689753 heartbeat IPC: 0.9618 cumulative IPC: 1.791 (Simulation time: 00 hr 21 min 36 sec)
Heartbeat CPU 0 instructions: 200000004 cycles: 94468985 heartbeat IPC: 2.646 cumulative IPC: 1.831 (Simulation time: 00 hr 22 min 36 sec)
Heartbeat CPU 0 instructions: 210000001 cycles: 98393405 heartbeat IPC: 2.548 cumulative IPC: 1.864 (Simulation time: 00 hr 23 min 41 sec)
Heartbeat CPU 0 instructions: 220000000 cycles: 102355783 heartbeat IPC: 2.524 cumulative IPC: 1.893 (Simulation time: 00 hr 24 min 45 sec)
Heartbeat CPU 0 instructions: 230000002 cycles: 107041296 heartbeat IPC: 2.134 cumulative IPC: 1.905 (Simulation time: 00 hr 25 min 52 sec)
Heartbeat CPU 0 instructions: 240000000 cycles: 111240786 heartbeat IPC: 2.381 cumulative IPC: 1.925 (Simulation time: 00 hr 26 min 57 sec)
Heartbeat CPU 0 instructions: 250000000 cycles: 115562223 heartbeat IPC: 2.314 cumulative IPC: 1.941 (Simulation time: 00 hr 28 min 05 sec)
Heartbeat CPU 0 instructions: 260000000 cycles: 119751644 heartbeat IPC: 2.387 cumulative IPC: 1.959 (Simulation time: 00 hr 29 min 10 sec)
Heartbeat CPU 0 instructions: 270000002 cycles: 123607890 heartbeat IPC: 2.593 cumulative IPC: 1.981 (Simulation time: 00 hr 30 min 12 sec)
Heartbeat CPU 0 instructions: 280000002 cycles: 127786753 heartbeat IPC: 2.393 cumulative IPC: 1.996 (Simulation time: 00 hr 31 min 15 sec)
Heartbeat CPU 0 instructions: 290000001 cycles: 131687153 heartbeat IPC: 2.564 cumulative IPC: 2.014 (Simulation time: 00 hr 32 min 19 sec)
Heartbeat CPU 0 instructions: 300000003 cycles: 135526573 heartbeat IPC: 2.605 cumulative IPC: 2.033 (Simulation time: 00 hr 33 min 36 sec)
Heartbeat CPU 0 instructions: 310000001 cycles: 139663416 heartbeat IPC: 2.417 cumulative IPC: 2.045 (Simulation time: 00 hr 35 min 05 sec)
Heartbeat CPU 0 instructions: 320000003 cycles: 143748095 heartbeat IPC: 2.448 cumulative IPC: 2.058 (Simulation time: 00 hr 36 min 23 sec)
Heartbeat CPU 0 instructions: 330000003 cycles: 148161542 heartbeat IPC: 2.266 cumulative IPC: 2.065 (Simulation time: 00 hr 37 min 38 sec)
Heartbeat CPU 0 instructions: 340000000 cycles: 158715192 heartbeat IPC: 0.9475 cumulative IPC: 1.984 (Simulation time: 00 hr 39 min 44 sec)
Heartbeat CPU 0 instructions: 350000000 cycles: 170071840 heartbeat IPC: 0.8805 cumulative IPC: 1.904 (Simulation time: 00 hr 41 min 51 sec)
Heartbeat CPU 0 instructions: 360000004 cycles: 180488145 heartbeat IPC: 0.96 cumulative IPC: 1.846 (Simulation time: 00 hr 43 min 46 sec)
Heartbeat CPU 0 instructions: 370000000 cycles: 183933741 heartbeat IPC: 2.902 cumulative IPC: 1.867 (Simulation time: 00 hr 44 min 45 sec)
Heartbeat CPU 0 instructions: 380000001 cycles: 187357548 heartbeat IPC: 2.921 cumulative IPC: 1.888 (Simulation time: 00 hr 45 min 52 sec)
Heartbeat CPU 0 instructions: 390000004 cycles: 191105148 heartbeat IPC: 2.668 cumulative IPC: 1.904 (Simulation time: 00 hr 47 min 14 sec)
Heartbeat CPU 0 instructions: 400000004 cycles: 194917255 heartbeat IPC: 2.623 cumulative IPC: 1.919 (Simulation time: 00 hr 48 min 31 sec)
Heartbeat CPU 0 instructions: 410000001 cycles: 198574779 heartbeat IPC: 2.734 cumulative IPC: 1.935 (Simulation time: 00 hr 49 min 41 sec)
Heartbeat CPU 0 instructions: 420000003 cycles: 202635139 heartbeat IPC: 2.463 cumulative IPC: 1.946 (Simulation time: 00 hr 50 min 51 sec)
Heartbeat CPU 0 instructions: 430000001 cycles: 206296830 heartbeat IPC: 2.731 cumulative IPC: 1.961 (Simulation time: 00 hr 51 min 57 sec)
Heartbeat CPU 0 instructions: 440000004 cycles: 210386579 heartbeat IPC: 2.445 cumulative IPC: 1.971 (Simulation time: 00 hr 53 min 04 sec)
Heartbeat CPU 0 instructions: 450000002 cycles: 214122681 heartbeat IPC: 2.677 cumulative IPC: 1.984 (Simulation time: 00 hr 54 min 10 sec)
Heartbeat CPU 0 instructions: 460000000 cycles: 217794886 heartbeat IPC: 2.723 cumulative IPC: 1.997 (Simulation time: 00 hr 55 min 17 sec)
Heartbeat CPU 0 instructions: 470000000 cycles: 221263005 heartbeat IPC: 2.883 cumulative IPC: 2.012 (Simulation time: 00 hr 56 min 20 sec)
Heartbeat CPU 0 instructions: 480000003 cycles: 225093012 heartbeat IPC: 2.611 cumulative IPC: 2.023 (Simulation time: 00 hr 57 min 24 sec)
Heartbeat CPU 0 instructions: 490000000 cycles: 228725841 heartbeat IPC: 2.753 cumulative IPC: 2.035 (Simulation time: 00 hr 58 min 28 sec)
Heartbeat CPU 0 instructions: 500000000 cycles: 232422549 heartbeat IPC: 2.705 cumulative IPC: 2.047 (Simulation time: 00 hr 59 min 47 sec)
Heartbeat CPU 0 instructions: 510000003 cycles: 236078614 heartbeat IPC: 2.735 cumulative IPC: 2.058 (Simulation time: 01 hr 01 min 13 sec)
Heartbeat CPU 0 instructions: 520000001 cycles: 239496272 heartbeat IPC: 2.926 cumulative IPC: 2.071 (Simulation time: 01 hr 02 min 30 sec)
Heartbeat CPU 0 instructions: 530000002 cycles: 243173706 heartbeat IPC: 2.719 cumulative IPC: 2.081 (Simulation time: 01 hr 03 min 41 sec)
Heartbeat CPU 0 instructions: 540000000 cycles: 246705858 heartbeat IPC: 2.831 cumulative IPC: 2.093 (Simulation time: 01 hr 04 min 48 sec)
Heartbeat CPU 0 instructions: 550000001 cycles: 250404775 heartbeat IPC: 2.703 cumulative IPC: 2.102 (Simulation time: 01 hr 05 min 51 sec)
Heartbeat CPU 0 instructions: 560000000 cycles: 254379708 heartbeat IPC: 2.516 cumulative IPC: 2.109 (Simulation time: 01 hr 06 min 53 sec)
Heartbeat CPU 0 instructions: 570000004 cycles: 261063170 heartbeat IPC: 1.496 cumulative IPC: 2.092 (Simulation time: 01 hr 08 min 24 sec)
Heartbeat CPU 0 instructions: 580000003 cycles: 272967770 heartbeat IPC: 0.84 cumulative IPC: 2.035 (Simulation time: 01 hr 10 min 34 sec)
Heartbeat CPU 0 instructions: 590000002 cycles: 286404672 heartbeat IPC: 0.7442 cumulative IPC: 1.972 (Simulation time: 01 hr 13 min 31 sec)
Heartbeat CPU 0 instructions: 600000000 cycles: 290191971 heartbeat IPC: 2.64 cumulative IPC: 1.981 (Simulation time: 01 hr 14 min 50 sec)
Heartbeat CPU 0 instructions: 610000000 cycles: 294057777 heartbeat IPC: 2.587 cumulative IPC: 1.989 (Simulation time: 01 hr 16 min 03 sec)
Heartbeat CPU 0 instructions: 620000001 cycles: 297494766 heartbeat IPC: 2.91 cumulative IPC: 2 (Simulation time: 01 hr 17 min 11 sec)
Heartbeat CPU 0 instructions: 630000002 cycles: 301777254 heartbeat IPC: 2.335 cumulative IPC: 2.005 (Simulation time: 01 hr 18 min 22 sec)
Heartbeat CPU 0 instructions: 640000001 cycles: 305674300 heartbeat IPC: 2.566 cumulative IPC: 2.013 (Simulation time: 01 hr 19 min 28 sec)
Heartbeat CPU 0 instructions: 650000000 cycles: 309428338 heartbeat IPC: 2.664 cumulative IPC: 2.021 (Simulation time: 01 hr 20 min 31 sec)
Simulation finished CPU 0 instructions: 600000001 cycles: 296891204 cumulative IPC: 2.021 (Simulation time: 01 hr 20 min 31 sec)
Simulation complete CPU 0 instructions: 600000001 cycles: 296891204 cumulative IPC: 2.021 (Simulation time: 01 hr 20 min 31 sec)

ChampSim completed all CPUs

=== Simulation ===
CPU 0 runs traces/400.perlbench-41B.champsimtrace.xz
Region of Interest Statistics

CPU 0 cumulative IPC: 2.021 instructions: 600000001 cycles: 296891204
CPU 0 Branch Prediction Accuracy: 96.56% MPKI: 7.112 Average ROB Occupancy at Mispredict: 47.39
Branch type MPKI
BRANCH_DIRECT_JUMP: 0.0123
BRANCH_INDIRECT: 0.323
BRANCH_CONDITIONAL: 6.56
BRANCH_DIRECT_CALL: 0.0043
BRANCH_INDIRECT_CALL: 0.2
BRANCH_RETURN: 0.00828

LLC TOTAL        ACCESS:     592605 HIT:     303966 MISS:     288639
LLC LOAD         ACCESS:     401945 HIT:     169595 MISS:     232350
LLC RFO          ACCESS:      32407 HIT:      15540 MISS:      16867
LLC PREFETCH     ACCESS:      53546 HIT:      25070 MISS:      28476
LLC WRITE        ACCESS:      85755 HIT:      85210 MISS:        545
LLC TRANSLATION  ACCESS:      18952 HIT:       8551 MISS:      10401
LLC PREFETCH REQUESTED:      53546 ISSUED:      53546 USEFUL:      17809 USELESS:       6977
LLC AVERAGE MISS LATENCY: 582.8 cycles
cpu0_DTLB TOTAL        ACCESS:  141901595 HIT:  141215436 MISS:     686159
cpu0_DTLB LOAD         ACCESS:  141901595 HIT:  141215436 MISS:     686159
cpu0_DTLB RFO          ACCESS:          0 HIT:          0 MISS:          0
cpu0_DTLB PREFETCH     ACCESS:          0 HIT:          0 MISS:          0
cpu0_DTLB WRITE        ACCESS:          0 HIT:          0 MISS:          0
cpu0_DTLB TRANSLATION  ACCESS:          0 HIT:          0 MISS:          0
cpu0_DTLB PREFETCH REQUESTED:          0 ISSUED:          0 USEFUL:          0 USELESS:          0
cpu0_DTLB AVERAGE MISS LATENCY: 15.58 cycles
cpu0_ITLB TOTAL        ACCESS:    4860090 HIT:    4806954 MISS:      53136
cpu0_ITLB LOAD         ACCESS:    4860090 HIT:    4806954 MISS:      53136
cpu0_ITLB RFO          ACCESS:          0 HIT:          0 MISS:          0
cpu0_ITLB PREFETCH     ACCESS:          0 HIT:          0 MISS:          0
cpu0_ITLB WRITE        ACCESS:          0 HIT:          0 MISS:          0
cpu0_ITLB TRANSLATION  ACCESS:          0 HIT:          0 MISS:          0
cpu0_ITLB PREFETCH REQUESTED:          0 ISSUED:          0 USEFUL:          0 USELESS:          0
cpu0_ITLB AVERAGE MISS LATENCY: 8.386 cycles
cpu0_L1D TOTAL        ACCESS:  188565475 HIT:  187205774 MISS:    1359701
cpu0_L1D LOAD         ACCESS:  105197532 HIT:  104151905 MISS:    1045627
cpu0_L1D RFO          ACCESS:          0 HIT:          0 MISS:          0
cpu0_L1D PREFETCH     ACCESS:          0 HIT:          0 MISS:          0
cpu0_L1D WRITE        ACCESS:   83343481 HIT:   83052268 MISS:     291213
cpu0_L1D TRANSLATION  ACCESS:      24462 HIT:       1601 MISS:      22861
cpu0_L1D PREFETCH REQUESTED:          0 ISSUED:          0 USEFUL:          0 USELESS:          0
cpu0_L1D AVERAGE MISS LATENCY: 114 cycles
cpu0_L1I TOTAL        ACCESS:    5597579 HIT:    4853921 MISS:     743658
cpu0_L1I LOAD         ACCESS:    5597579 HIT:    4853921 MISS:     743658
cpu0_L1I RFO          ACCESS:          0 HIT:          0 MISS:          0
cpu0_L1I PREFETCH     ACCESS:          0 HIT:          0 MISS:          0
cpu0_L1I WRITE        ACCESS:          0 HIT:          0 MISS:          0
cpu0_L1I TRANSLATION  ACCESS:          0 HIT:          0 MISS:          0
cpu0_L1I PREFETCH REQUESTED:          0 ISSUED:          0 USEFUL:          0 USELESS:          0
cpu0_L1I AVERAGE MISS LATENCY: 15.1 cycles
cpu0_L2C TOTAL        ACCESS:    1380720 HIT:     923807 MISS:     456913
cpu0_L2C LOAD         ACCESS:    1124712 HIT:     722767 MISS:     401945
cpu0_L2C RFO          ACCESS:      63800 HIT:      31393 MISS:      32407
cpu0_L2C PREFETCH     ACCESS:          0 HIT:          0 MISS:          0
cpu0_L2C WRITE        ACCESS:     169415 HIT:     165806 MISS:       3609
cpu0_L2C TRANSLATION  ACCESS:      22793 HIT:       3841 MISS:      18952
cpu0_L2C PREFETCH REQUESTED:          0 ISSUED:          0 USEFUL:          0 USELESS:          0
cpu0_L2C AVERAGE MISS LATENCY: 349.4 cycles
cpu0_STLB TOTAL        ACCESS:     507378 HIT:     484584 MISS:      22794
cpu0_STLB LOAD         ACCESS:     507378 HIT:     484584 MISS:      22794
cpu0_STLB RFO          ACCESS:          0 HIT:          0 MISS:          0
cpu0_STLB PREFETCH     ACCESS:          0 HIT:          0 MISS:          0
cpu0_STLB WRITE        ACCESS:          0 HIT:          0 MISS:          0
cpu0_STLB TRANSLATION  ACCESS:          0 HIT:          0 MISS:          0
cpu0_STLB PREFETCH REQUESTED:          0 ISSUED:          0 USEFUL:          0 USELESS:          0
cpu0_STLB AVERAGE MISS LATENCY: 352.3 cycles

DRAM Statistics

Channel 0 RQ ROW_BUFFER_HIT:      48215
  ROW_BUFFER_MISS:     234538
 AVG DBUS CONGESTED CYCLE: 3.828
WQ ROW_BUFFER_HIT: Channel 0 
  ROW_BUFFER_MISS:       7334
  FULL:      37485
