WARNING: physical memory size is smaller than virtual memory size.

*** ChampSim Multicore Out-of-Order Simulator ***
Warmup Instructions: 50000000
Simulation Instructions: 600000000
Number of CPUs: 1
Page size: 4096

CPU 0 Tage branch predictor
Off-chip DRAM Size: 4 GiB Channels: 1 Width: 64-bit Data Race: 3200 MT/s
Heartbeat CPU 0 instructions: 10000001 cycles: 2500319 heartbeat IPC: 3.999 cumulative IPC: 3.999 (Simulation time: 00 hr 01 min 31 sec)
Heartbeat CPU 0 instructions: 20000002 cycles: 5037138 heartbeat IPC: 3.942 cumulative IPC: 3.971 (Simulation time: 00 hr 02 min 45 sec)
Heartbeat CPU 0 instructions: 30000002 cycles: 7537138 heartbeat IPC: 4 cumulative IPC: 3.98 (Simulation time: 00 hr 03 min 49 sec)
Heartbeat CPU 0 instructions: 40000002 cycles: 10037138 heartbeat IPC: 4 cumulative IPC: 3.985 (Simulation time: 00 hr 04 min 51 sec)
Heartbeat CPU 0 instructions: 50000002 cycles: 12537138 heartbeat IPC: 4 cumulative IPC: 3.988 (Simulation time: 00 hr 05 min 55 sec)
Warmup finished CPU 0 instructions: 50000002 cycles: 12537139 cumulative IPC: 3.988 (Simulation time: 00 hr 05 min 55 sec)
Warmup complete CPU 0 instructions: 50000002 cycles: 12537139 cumulative IPC: 3.988 (Simulation time: 00 hr 05 min 55 sec)
Heartbeat CPU 0 instructions: 60000001 cycles: 15566284 heartbeat IPC: 3.301 cumulative IPC: 3.301 (Simulation time: 00 hr 07 min 14 sec)
Heartbeat CPU 0 instructions: 70000004 cycles: 18670251 heartbeat IPC: 3.222 cumulative IPC: 3.261 (Simulation time: 00 hr 08 min 31 sec)
Heartbeat CPU 0 instructions: 80000001 cycles: 21758821 heartbeat IPC: 3.238 cumulative IPC: 3.253 (Simulation time: 00 hr 09 min 44 sec)
Heartbeat CPU 0 instructions: 90000001 cycles: 24733005 heartbeat IPC: 3.362 cumulative IPC: 3.28 (Simulation time: 00 hr 10 min 56 sec)
Heartbeat CPU 0 instructions: 100000000 cycles: 27683418 heartbeat IPC: 3.389 cumulative IPC: 3.301 (Simulation time: 00 hr 12 min 01 sec)
Heartbeat CPU 0 instructions: 110000000 cycles: 30651606 heartbeat IPC: 3.369 cumulative IPC: 3.312 (Simulation time: 00 hr 13 min 11 sec)
Heartbeat CPU 0 instructions: 120000001 cycles: 33653657 heartbeat IPC: 3.331 cumulative IPC: 3.315 (Simulation time: 00 hr 14 min 39 sec)
Heartbeat CPU 0 instructions: 130000001 cycles: 36540396 heartbeat IPC: 3.464 cumulative IPC: 3.333 (Simulation time: 00 hr 16 min 04 sec)
Heartbeat CPU 0 instructions: 140000001 cycles: 39634948 heartbeat IPC: 3.231 cumulative IPC: 3.321 (Simulation time: 00 hr 17 min 23 sec)
Heartbeat CPU 0 instructions: 150000001 cycles: 42694401 heartbeat IPC: 3.269 cumulative IPC: 3.316 (Simulation time: 00 hr 18 min 36 sec)
Heartbeat CPU 0 instructions: 160000004 cycles: 45767437 heartbeat IPC: 3.254 cumulative IPC: 3.31 (Simulation time: 00 hr 19 min 46 sec)
Heartbeat CPU 0 instructions: 170000000 cycles: 52549945 heartbeat IPC: 1.474 cumulative IPC: 2.999 (Simulation time: 00 hr 21 min 33 sec)
Heartbeat CPU 0 instructions: 180000004 cycles: 59988726 heartbeat IPC: 1.344 cumulative IPC: 2.74 (Simulation time: 00 hr 23 min 22 sec)
Heartbeat CPU 0 instructions: 190000001 cycles: 68706714 heartbeat IPC: 1.147 cumulative IPC: 2.492 (Simulation time: 00 hr 25 min 18 sec)
Heartbeat CPU 0 instructions: 200000004 cycles: 71711660 heartbeat IPC: 3.328 cumulative IPC: 2.535 (Simulation time: 00 hr 26 min 23 sec)
Heartbeat CPU 0 instructions: 210000001 cycles: 74700773 heartbeat IPC: 3.345 cumulative IPC: 2.574 (Simulation time: 00 hr 27 min 40 sec)
Heartbeat CPU 0 instructions: 220000000 cycles: 77610608 heartbeat IPC: 3.437 cumulative IPC: 2.612 (Simulation time: 00 hr 29 min 03 sec)
Heartbeat CPU 0 instructions: 230000002 cycles: 80690380 heartbeat IPC: 3.247 cumulative IPC: 2.641 (Simulation time: 00 hr 30 min 23 sec)
Heartbeat CPU 0 instructions: 240000003 cycles: 83757669 heartbeat IPC: 3.26 cumulative IPC: 2.668 (Simulation time: 00 hr 31 min 38 sec)
Heartbeat CPU 0 instructions: 250000000 cycles: 86822738 heartbeat IPC: 3.263 cumulative IPC: 2.692 (Simulation time: 00 hr 32 min 54 sec)
Heartbeat CPU 0 instructions: 260000002 cycles: 89820307 heartbeat IPC: 3.336 cumulative IPC: 2.717 (Simulation time: 00 hr 34 min 07 sec)
Heartbeat CPU 0 instructions: 270000002 cycles: 92761506 heartbeat IPC: 3.4 cumulative IPC: 2.742 (Simulation time: 00 hr 35 min 23 sec)
Heartbeat CPU 0 instructions: 280000002 cycles: 95673438 heartbeat IPC: 3.434 cumulative IPC: 2.767 (Simulation time: 00 hr 36 min 35 sec)
Heartbeat CPU 0 instructions: 290000002 cycles: 98662764 heartbeat IPC: 3.345 cumulative IPC: 2.787 (Simulation time: 00 hr 37 min 47 sec)
Heartbeat CPU 0 instructions: 300000003 cycles: 101597227 heartbeat IPC: 3.408 cumulative IPC: 2.807 (Simulation time: 00 hr 39 min 00 sec)
Heartbeat CPU 0 instructions: 310000001 cycles: 104690250 heartbeat IPC: 3.233 cumulative IPC: 2.821 (Simulation time: 00 hr 40 min 32 sec)
Heartbeat CPU 0 instructions: 320000003 cycles: 107739948 heartbeat IPC: 3.279 cumulative IPC: 2.836 (Simulation time: 00 hr 42 min 02 sec)
Heartbeat CPU 0 instructions: 330000003 cycles: 110792394 heartbeat IPC: 3.276 cumulative IPC: 2.85 (Simulation time: 00 hr 43 min 23 sec)
Heartbeat CPU 0 instructions: 340000000 cycles: 117780339 heartbeat IPC: 1.431 cumulative IPC: 2.756 (Simulation time: 00 hr 45 min 19 sec)
Heartbeat CPU 0 instructions: 350000000 cycles: 125458626 heartbeat IPC: 1.302 cumulative IPC: 2.657 (Simulation time: 00 hr 47 min 27 sec)
Heartbeat CPU 0 instructions: 360000004 cycles: 134025226 heartbeat IPC: 1.167 cumulative IPC: 2.552 (Simulation time: 00 hr 49 min 32 sec)
Heartbeat CPU 0 instructions: 370000000 cycles: 137006409 heartbeat IPC: 3.354 cumulative IPC: 2.571 (Simulation time: 00 hr 50 min 42 sec)
Heartbeat CPU 0 instructions: 380000003 cycles: 139956417 heartbeat IPC: 3.39 cumulative IPC: 2.59 (Simulation time: 00 hr 52 min 01 sec)
Heartbeat CPU 0 instructions: 390000002 cycles: 142951728 heartbeat IPC: 3.339 cumulative IPC: 2.607 (Simulation time: 00 hr 53 min 38 sec)
Heartbeat CPU 0 instructions: 400000004 cycles: 145861076 heartbeat IPC: 3.437 cumulative IPC: 2.625 (Simulation time: 00 hr 55 min 04 sec)
Heartbeat CPU 0 instructions: 410000002 cycles: 148839807 heartbeat IPC: 3.357 cumulative IPC: 2.641 (Simulation time: 00 hr 56 min 22 sec)
Heartbeat CPU 0 instructions: 420000003 cycles: 151991943 heartbeat IPC: 3.172 cumulative IPC: 2.653 (Simulation time: 00 hr 57 min 38 sec)
Heartbeat CPU 0 instructions: 430000001 cycles: 155031992 heartbeat IPC: 3.289 cumulative IPC: 2.667 (Simulation time: 00 hr 58 min 56 sec)
Heartbeat CPU 0 instructions: 440000004 cycles: 158201940 heartbeat IPC: 3.155 cumulative IPC: 2.677 (Simulation time: 01 hr 00 min 13 sec)
Heartbeat CPU 0 instructions: 450000002 cycles: 161155782 heartbeat IPC: 3.385 cumulative IPC: 2.691 (Simulation time: 01 hr 01 min 26 sec)
Heartbeat CPU 0 instructions: 460000000 cycles: 164111284 heartbeat IPC: 3.384 cumulative IPC: 2.705 (Simulation time: 01 hr 02 min 35 sec)
Heartbeat CPU 0 instructions: 470000001 cycles: 166990450 heartbeat IPC: 3.473 cumulative IPC: 2.719 (Simulation time: 01 hr 03 min 43 sec)
Heartbeat CPU 0 instructions: 480000003 cycles: 170091209 heartbeat IPC: 3.225 cumulative IPC: 2.729 (Simulation time: 01 hr 04 min 56 sec)
Heartbeat CPU 0 instructions: 490000004 cycles: 172932262 heartbeat IPC: 3.52 cumulative IPC: 2.743 (Simulation time: 01 hr 06 min 25 sec)
Heartbeat CPU 0 instructions: 500000004 cycles: 175936085 heartbeat IPC: 3.329 cumulative IPC: 2.754 (Simulation time: 01 hr 07 min 54 sec)
Heartbeat CPU 0 instructions: 510000003 cycles: 179020648 heartbeat IPC: 3.242 cumulative IPC: 2.763 (Simulation time: 01 hr 09 min 17 sec)
Heartbeat CPU 0 instructions: 520000001 cycles: 181935825 heartbeat IPC: 3.43 cumulative IPC: 2.775 (Simulation time: 01 hr 10 min 33 sec)
Heartbeat CPU 0 instructions: 530000001 cycles: 184999382 heartbeat IPC: 3.264 cumulative IPC: 2.783 (Simulation time: 01 hr 11 min 47 sec)
Heartbeat CPU 0 instructions: 540000000 cycles: 187987811 heartbeat IPC: 3.346 cumulative IPC: 2.793 (Simulation time: 01 hr 13 min 00 sec)
Heartbeat CPU 0 instructions: 550000001 cycles: 190996656 heartbeat IPC: 3.324 cumulative IPC: 2.802 (Simulation time: 01 hr 14 min 09 sec)
Heartbeat CPU 0 instructions: 560000000 cycles: 194177927 heartbeat IPC: 3.143 cumulative IPC: 2.808 (Simulation time: 01 hr 15 min 19 sec)
Heartbeat CPU 0 instructions: 570000004 cycles: 199405794 heartbeat IPC: 1.913 cumulative IPC: 2.783 (Simulation time: 01 hr 16 min 44 sec)
Heartbeat CPU 0 instructions: 580000003 cycles: 206703571 heartbeat IPC: 1.37 cumulative IPC: 2.73 (Simulation time: 01 hr 18 min 36 sec)
Heartbeat CPU 0 instructions: 590000002 cycles: 217515027 heartbeat IPC: 0.9249 cumulative IPC: 2.634 (Simulation time: 01 hr 21 min 39 sec)
Heartbeat CPU 0 instructions: 600000004 cycles: 220622658 heartbeat IPC: 3.218 cumulative IPC: 2.643 (Simulation time: 01 hr 22 min 58 sec)
Heartbeat CPU 0 instructions: 610000002 cycles: 223606294 heartbeat IPC: 3.352 cumulative IPC: 2.653 (Simulation time: 01 hr 24 min 11 sec)
Heartbeat CPU 0 instructions: 620000001 cycles: 226394126 heartbeat IPC: 3.587 cumulative IPC: 2.665 (Simulation time: 01 hr 25 min 27 sec)
Heartbeat CPU 0 instructions: 630000002 cycles: 229386483 heartbeat IPC: 3.342 cumulative IPC: 2.675 (Simulation time: 01 hr 26 min 45 sec)
Heartbeat CPU 0 instructions: 640000004 cycles: 232340098 heartbeat IPC: 3.386 cumulative IPC: 2.684 (Simulation time: 01 hr 27 min 57 sec)
Heartbeat CPU 0 instructions: 650000000 cycles: 235097755 heartbeat IPC: 3.626 cumulative IPC: 2.696 (Simulation time: 01 hr 29 min 06 sec)
Simulation finished CPU 0 instructions: 600000001 cycles: 222560618 cumulative IPC: 2.696 (Simulation time: 01 hr 29 min 06 sec)
Simulation complete CPU 0 instructions: 600000001 cycles: 222560618 cumulative IPC: 2.696 (Simulation time: 01 hr 29 min 06 sec)

ChampSim completed all CPUs

=== Simulation ===
CPU 0 runs traces/400.perlbench-41B.champsimtrace.xz
Region of Interest Statistics

CPU 0 cumulative IPC: 2.696 instructions: 600000001 cycles: 222560618
CPU 0 Branch Prediction Accuracy: 99.19% MPKI: 1.684 Average ROB Occupancy at Mispredict: 102.2
Branch type MPKI
BRANCH_DIRECT_JUMP: 0.0123
BRANCH_INDIRECT: 0.323
BRANCH_CONDITIONAL: 1.14
BRANCH_DIRECT_CALL: 0.0043
BRANCH_INDIRECT_CALL: 0.2
BRANCH_RETURN: 0.00828

LLC TOTAL        ACCESS:     937327 HIT:     544096 MISS:     393231
LLC LOAD         ACCESS:     400333 HIT:     238958 MISS:     161375
LLC RFO          ACCESS:      32385 HIT:      14924 MISS:      17461
LLC PREFETCH     ACCESS:     400333 HIT:     231793 MISS:     168540
LLC WRITE        ACCESS:      85369 HIT:      56110 MISS:      29259
LLC TRANSLATION  ACCESS:      18907 HIT:       2311 MISS:      16596
LLC PREFETCH REQUESTED:     400333 ISSUED:     400333 USEFUL:      43481 USELESS:      89435
LLC AVERAGE MISS LATENCY: 640.8 cycles
cpu0_DTLB TOTAL        ACCESS:  129729448 HIT:  129025616 MISS:     703832
cpu0_DTLB LOAD         ACCESS:  129729448 HIT:  129025616 MISS:     703832
cpu0_DTLB RFO          ACCESS:          0 HIT:          0 MISS:          0
cpu0_DTLB PREFETCH     ACCESS:          0 HIT:          0 MISS:          0
cpu0_DTLB WRITE        ACCESS:          0 HIT:          0 MISS:          0
cpu0_DTLB TRANSLATION  ACCESS:          0 HIT:          0 MISS:          0
cpu0_DTLB PREFETCH REQUESTED:          0 ISSUED:          0 USEFUL:          0 USELESS:          0
cpu0_DTLB AVERAGE MISS LATENCY: 22.59 cycles
cpu0_ITLB TOTAL        ACCESS:    4873256 HIT:    4810999 MISS:      62257
cpu0_ITLB LOAD         ACCESS:    4873256 HIT:    4810999 MISS:      62257
cpu0_ITLB RFO          ACCESS:          0 HIT:          0 MISS:          0
cpu0_ITLB PREFETCH     ACCESS:          0 HIT:          0 MISS:          0
cpu0_ITLB WRITE        ACCESS:          0 HIT:          0 MISS:          0
cpu0_ITLB TRANSLATION  ACCESS:          0 HIT:          0 MISS:          0
cpu0_ITLB PREFETCH REQUESTED:          0 ISSUED:          0 USEFUL:          0 USELESS:          0
cpu0_ITLB AVERAGE MISS LATENCY: 7.549 cycles
cpu0_L1D TOTAL        ACCESS:  174338448 HIT:  172942133 MISS:    1396315
cpu0_L1D LOAD         ACCESS:   91316600 HIT:   90247146 MISS:    1069454
cpu0_L1D RFO          ACCESS:          0 HIT:          0 MISS:          0
cpu0_L1D PREFETCH     ACCESS:          0 HIT:          0 MISS:          0
cpu0_L1D WRITE        ACCESS:   82997386 HIT:   82693393 MISS:     303993
cpu0_L1D TRANSLATION  ACCESS:      24462 HIT:       1594 MISS:      22868
cpu0_L1D PREFETCH REQUESTED:          0 ISSUED:          0 USEFUL:          0 USELESS:          0
cpu0_L1D AVERAGE MISS LATENCY: 106.5 cycles
cpu0_L1I TOTAL        ACCESS:    5652513 HIT:    4848562 MISS:     803951
cpu0_L1I LOAD         ACCESS:    5652513 HIT:    4848562 MISS:     803951
cpu0_L1I RFO          ACCESS:          0 HIT:          0 MISS:          0
cpu0_L1I PREFETCH     ACCESS:          0 HIT:          0 MISS:          0
cpu0_L1I WRITE        ACCESS:          0 HIT:          0 MISS:          0
cpu0_L1I TRANSLATION  ACCESS:          0 HIT:          0 MISS:          0
cpu0_L1I PREFETCH REQUESTED:          0 ISSUED:          0 USEFUL:          0 USELESS:          0
cpu0_L1I AVERAGE MISS LATENCY: 9.619 cycles
cpu0_L2C TOTAL        ACCESS:    1381413 HIT:     926255 MISS:     455158
cpu0_L2C LOAD         ACCESS:    1123957 HIT:     723623 MISS:     400334
cpu0_L2C RFO          ACCESS:      64509 HIT:      32124 MISS:      32385
cpu0_L2C PREFETCH     ACCESS:          0 HIT:          0 MISS:          0
cpu0_L2C WRITE        ACCESS:     170176 HIT:     166644 MISS:       3532
cpu0_L2C TRANSLATION  ACCESS:      22771 HIT:       3864 MISS:      18907
cpu0_L2C PREFETCH REQUESTED:          0 ISSUED:          0 USEFUL:          0 USELESS:          0
cpu0_L2C AVERAGE MISS LATENCY: 337.3 cycles
cpu0_STLB TOTAL        ACCESS:     508513 HIT:     485727 MISS:      22786
cpu0_STLB LOAD         ACCESS:     508513 HIT:     485727 MISS:      22786
cpu0_STLB RFO          ACCESS:          0 HIT:          0 MISS:          0
cpu0_STLB PREFETCH     ACCESS:          0 HIT:          0 MISS:          0
cpu0_STLB WRITE        ACCESS:          0 HIT:          0 MISS:          0
cpu0_STLB TRANSLATION  ACCESS:          0 HIT:          0 MISS:          0
cpu0_STLB PREFETCH REQUESTED:          0 ISSUED:          0 USEFUL:          0 USELESS:          0
cpu0_STLB AVERAGE MISS LATENCY: 611.9 cycles

DRAM Statistics

Channel 0 RQ ROW_BUFFER_HIT:      51169
  ROW_BUFFER_MISS:     261557
 AVG DBUS CONGESTED CYCLE: 3.899
WQ ROW_BUFFER_HIT: Channel 0 
  ROW_BUFFER_MISS:       6142
  FULL:      32028
