WARNING: physical memory size is smaller than virtual memory size.

*** ChampSim Multicore Out-of-Order Simulator ***
Warmup Instructions: 50000000
Simulation Instructions: 600000000
Number of CPUs: 1
Page size: 4096

Off-chip DRAM Size: 4 GiB Channels: 1 Width: 64-bit Data Race: 3200 MT/s
Heartbeat CPU 0 instructions: 10000001 cycles: 2500318 heartbeat IPC: 3.999 cumulative IPC: 3.999 (Simulation time: 00 hr 00 min 51 sec)
Heartbeat CPU 0 instructions: 20000002 cycles: 5037122 heartbeat IPC: 3.942 cumulative IPC: 3.971 (Simulation time: 00 hr 01 min 42 sec)
Heartbeat CPU 0 instructions: 30000002 cycles: 7537122 heartbeat IPC: 4 cumulative IPC: 3.98 (Simulation time: 00 hr 02 min 30 sec)
Heartbeat CPU 0 instructions: 40000002 cycles: 10037122 heartbeat IPC: 4 cumulative IPC: 3.985 (Simulation time: 00 hr 03 min 18 sec)
Heartbeat CPU 0 instructions: 50000002 cycles: 12537122 heartbeat IPC: 4 cumulative IPC: 3.988 (Simulation time: 00 hr 04 min 04 sec)
Warmup finished CPU 0 instructions: 50000002 cycles: 12537123 cumulative IPC: 3.988 (Simulation time: 00 hr 04 min 04 sec)
Warmup complete CPU 0 instructions: 50000002 cycles: 12537123 cumulative IPC: 3.988 (Simulation time: 00 hr 04 min 04 sec)
Heartbeat CPU 0 instructions: 60000000 cycles: 17139617 heartbeat IPC: 2.173 cumulative IPC: 2.173 (Simulation time: 00 hr 05 min 08 sec)
Heartbeat CPU 0 instructions: 70000004 cycles: 21404173 heartbeat IPC: 2.345 cumulative IPC: 2.256 (Simulation time: 00 hr 06 min 08 sec)
Heartbeat CPU 0 instructions: 80000001 cycles: 25993050 heartbeat IPC: 2.179 cumulative IPC: 2.23 (Simulation time: 00 hr 07 min 09 sec)
Heartbeat CPU 0 instructions: 90000001 cycles: 30113387 heartbeat IPC: 2.427 cumulative IPC: 2.276 (Simulation time: 00 hr 08 min 06 sec)
Heartbeat CPU 0 instructions: 100000000 cycles: 34159087 heartbeat IPC: 2.472 cumulative IPC: 2.312 (Simulation time: 00 hr 09 min 00 sec)
Heartbeat CPU 0 instructions: 110000000 cycles: 38392536 heartbeat IPC: 2.362 cumulative IPC: 2.321 (Simulation time: 00 hr 09 min 55 sec)
Heartbeat CPU 0 instructions: 120000001 cycles: 42396750 heartbeat IPC: 2.497 cumulative IPC: 2.344 (Simulation time: 00 hr 10 min 49 sec)
Heartbeat CPU 0 instructions: 130000001 cycles: 46121999 heartbeat IPC: 2.684 cumulative IPC: 2.382 (Simulation time: 00 hr 11 min 42 sec)
Heartbeat CPU 0 instructions: 140000001 cycles: 50276386 heartbeat IPC: 2.407 cumulative IPC: 2.385 (Simulation time: 00 hr 12 min 36 sec)
Heartbeat CPU 0 instructions: 150000001 cycles: 54467532 heartbeat IPC: 2.386 cumulative IPC: 2.385 (Simulation time: 00 hr 13 min 31 sec)
Heartbeat CPU 0 instructions: 160000004 cycles: 58874501 heartbeat IPC: 2.269 cumulative IPC: 2.374 (Simulation time: 00 hr 14 min 27 sec)
Heartbeat CPU 0 instructions: 170000000 cycles: 67993137 heartbeat IPC: 1.097 cumulative IPC: 2.164 (Simulation time: 00 hr 15 min 56 sec)
Heartbeat CPU 0 instructions: 180000004 cycles: 78034270 heartbeat IPC: 0.9959 cumulative IPC: 1.985 (Simulation time: 00 hr 17 min 33 sec)
Heartbeat CPU 0 instructions: 190000001 cycles: 87344829 heartbeat IPC: 1.074 cumulative IPC: 1.871 (Simulation time: 00 hr 19 min 04 sec)
Heartbeat CPU 0 instructions: 200000004 cycles: 91059318 heartbeat IPC: 2.692 cumulative IPC: 1.91 (Simulation time: 00 hr 19 min 57 sec)
Heartbeat CPU 0 instructions: 210000001 cycles: 94936426 heartbeat IPC: 2.579 cumulative IPC: 1.942 (Simulation time: 00 hr 20 min 50 sec)
Heartbeat CPU 0 instructions: 220000000 cycles: 98869741 heartbeat IPC: 2.542 cumulative IPC: 1.969 (Simulation time: 00 hr 21 min 43 sec)
Heartbeat CPU 0 instructions: 230000002 cycles: 103435805 heartbeat IPC: 2.19 cumulative IPC: 1.98 (Simulation time: 00 hr 22 min 39 sec)
Heartbeat CPU 0 instructions: 240000000 cycles: 107567302 heartbeat IPC: 2.42 cumulative IPC: 1.999 (Simulation time: 00 hr 23 min 35 sec)
Heartbeat CPU 0 instructions: 250000000 cycles: 111802995 heartbeat IPC: 2.361 cumulative IPC: 2.015 (Simulation time: 00 hr 24 min 31 sec)
Heartbeat CPU 0 instructions: 260000000 cycles: 115901771 heartbeat IPC: 2.44 cumulative IPC: 2.032 (Simulation time: 00 hr 25 min 24 sec)
Heartbeat CPU 0 instructions: 270000002 cycles: 119684420 heartbeat IPC: 2.644 cumulative IPC: 2.053 (Simulation time: 00 hr 26 min 17 sec)
Heartbeat CPU 0 instructions: 280000002 cycles: 123784773 heartbeat IPC: 2.439 cumulative IPC: 2.067 (Simulation time: 00 hr 27 min 12 sec)
Heartbeat CPU 0 instructions: 290000001 cycles: 127612338 heartbeat IPC: 2.613 cumulative IPC: 2.086 (Simulation time: 00 hr 28 min 05 sec)
Heartbeat CPU 0 instructions: 300000003 cycles: 131355676 heartbeat IPC: 2.671 cumulative IPC: 2.104 (Simulation time: 00 hr 28 min 57 sec)
Heartbeat CPU 0 instructions: 310000001 cycles: 135356484 heartbeat IPC: 2.499 cumulative IPC: 2.117 (Simulation time: 00 hr 29 min 51 sec)
Heartbeat CPU 0 instructions: 320000003 cycles: 139347465 heartbeat IPC: 2.506 cumulative IPC: 2.129 (Simulation time: 00 hr 30 min 45 sec)
Heartbeat CPU 0 instructions: 330000003 cycles: 143622201 heartbeat IPC: 2.339 cumulative IPC: 2.136 (Simulation time: 00 hr 31 min 39 sec)
Heartbeat CPU 0 instructions: 340000000 cycles: 151780672 heartbeat IPC: 1.226 cumulative IPC: 2.083 (Simulation time: 00 hr 33 min 03 sec)
Heartbeat CPU 0 instructions: 350000000 cycles: 161377278 heartbeat IPC: 1.042 cumulative IPC: 2.016 (Simulation time: 00 hr 34 min 37 sec)
Heartbeat CPU 0 instructions: 360000004 cycles: 169964772 heartbeat IPC: 1.164 cumulative IPC: 1.969 (Simulation time: 00 hr 36 min 04 sec)
Heartbeat CPU 0 instructions: 370000000 cycles: 173351575 heartbeat IPC: 2.953 cumulative IPC: 1.99 (Simulation time: 00 hr 36 min 55 sec)
Heartbeat CPU 0 instructions: 380000001 cycles: 176697331 heartbeat IPC: 2.989 cumulative IPC: 2.01 (Simulation time: 00 hr 37 min 46 sec)
Heartbeat CPU 0 instructions: 390000004 cycles: 180380452 heartbeat IPC: 2.715 cumulative IPC: 2.026 (Simulation time: 00 hr 38 min 39 sec)
Heartbeat CPU 0 instructions: 400000004 cycles: 184159565 heartbeat IPC: 2.646 cumulative IPC: 2.039 (Simulation time: 00 hr 39 min 31 sec)
Heartbeat CPU 0 instructions: 410000001 cycles: 187752049 heartbeat IPC: 2.784 cumulative IPC: 2.055 (Simulation time: 00 hr 40 min 22 sec)
Heartbeat CPU 0 instructions: 420000003 cycles: 191682597 heartbeat IPC: 2.544 cumulative IPC: 2.065 (Simulation time: 00 hr 41 min 15 sec)
Heartbeat CPU 0 instructions: 430000001 cycles: 195290942 heartbeat IPC: 2.771 cumulative IPC: 2.079 (Simulation time: 00 hr 42 min 08 sec)
Heartbeat CPU 0 instructions: 440000004 cycles: 199300692 heartbeat IPC: 2.494 cumulative IPC: 2.088 (Simulation time: 00 hr 43 min 01 sec)
Heartbeat CPU 0 instructions: 450000002 cycles: 202965684 heartbeat IPC: 2.729 cumulative IPC: 2.101 (Simulation time: 00 hr 43 min 54 sec)
Heartbeat CPU 0 instructions: 460000000 cycles: 206577665 heartbeat IPC: 2.769 cumulative IPC: 2.113 (Simulation time: 00 hr 44 min 45 sec)
Heartbeat CPU 0 instructions: 470000000 cycles: 209980221 heartbeat IPC: 2.939 cumulative IPC: 2.127 (Simulation time: 00 hr 45 min 37 sec)
Heartbeat CPU 0 instructions: 480000003 cycles: 213742352 heartbeat IPC: 2.658 cumulative IPC: 2.137 (Simulation time: 00 hr 46 min 29 sec)
Heartbeat CPU 0 instructions: 490000000 cycles: 217333629 heartbeat IPC: 2.785 cumulative IPC: 2.148 (Simulation time: 00 hr 47 min 21 sec)
Heartbeat CPU 0 instructions: 500000000 cycles: 220984734 heartbeat IPC: 2.739 cumulative IPC: 2.159 (Simulation time: 00 hr 48 min 13 sec)
Heartbeat CPU 0 instructions: 510000003 cycles: 224574421 heartbeat IPC: 2.786 cumulative IPC: 2.169 (Simulation time: 00 hr 49 min 05 sec)
Heartbeat CPU 0 instructions: 520000001 cycles: 227926895 heartbeat IPC: 2.983 cumulative IPC: 2.182 (Simulation time: 00 hr 49 min 57 sec)
Heartbeat CPU 0 instructions: 530000002 cycles: 231525751 heartbeat IPC: 2.779 cumulative IPC: 2.192 (Simulation time: 00 hr 50 min 49 sec)
Heartbeat CPU 0 instructions: 540000000 cycles: 234984798 heartbeat IPC: 2.891 cumulative IPC: 2.203 (Simulation time: 00 hr 51 min 41 sec)
Heartbeat CPU 0 instructions: 550000001 cycles: 238618059 heartbeat IPC: 2.752 cumulative IPC: 2.212 (Simulation time: 00 hr 52 min 33 sec)
Heartbeat CPU 0 instructions: 560000000 cycles: 242500002 heartbeat IPC: 2.576 cumulative IPC: 2.218 (Simulation time: 00 hr 53 min 26 sec)
Heartbeat CPU 0 instructions: 570000004 cycles: 248082038 heartbeat IPC: 1.791 cumulative IPC: 2.208 (Simulation time: 00 hr 54 min 32 sec)
Heartbeat CPU 0 instructions: 580000003 cycles: 258028937 heartbeat IPC: 1.005 cumulative IPC: 2.159 (Simulation time: 00 hr 56 min 09 sec)
Heartbeat CPU 0 instructions: 590000002 cycles: 269153588 heartbeat IPC: 0.8989 cumulative IPC: 2.104 (Simulation time: 00 hr 57 min 52 sec)
Heartbeat CPU 0 instructions: 600000000 cycles: 272812920 heartbeat IPC: 2.733 cumulative IPC: 2.113 (Simulation time: 00 hr 58 min 43 sec)
Heartbeat CPU 0 instructions: 610000000 cycles: 276616757 heartbeat IPC: 2.629 cumulative IPC: 2.121 (Simulation time: 00 hr 59 min 33 sec)
Heartbeat CPU 0 instructions: 620000001 cycles: 280004762 heartbeat IPC: 2.952 cumulative IPC: 2.131 (Simulation time: 01 hr 00 min 22 sec)
Heartbeat CPU 0 instructions: 630000002 cycles: 284220500 heartbeat IPC: 2.372 cumulative IPC: 2.135 (Simulation time: 01 hr 01 min 15 sec)
Heartbeat CPU 0 instructions: 640000001 cycles: 288090111 heartbeat IPC: 2.584 cumulative IPC: 2.141 (Simulation time: 01 hr 02 min 02 sec)
Heartbeat CPU 0 instructions: 650000000 cycles: 291822980 heartbeat IPC: 2.679 cumulative IPC: 2.148 (Simulation time: 01 hr 02 min 48 sec)
Simulation finished CPU 0 instructions: 600000001 cycles: 279285859 cumulative IPC: 2.148 (Simulation time: 01 hr 02 min 48 sec)
Simulation complete CPU 0 instructions: 600000001 cycles: 279285859 cumulative IPC: 2.148 (Simulation time: 01 hr 02 min 48 sec)

ChampSim completed all CPUs

=== Simulation ===
CPU 0 runs traces/400.perlbench-41B.champsimtrace.xz
Region of Interest Statistics

CPU 0 cumulative IPC: 2.148 instructions: 600000001 cycles: 279285859
CPU 0 Branch Prediction Accuracy: 96.56% MPKI: 7.112 Average ROB Occupancy at Mispredict: 47.24
Branch type MPKI
BRANCH_DIRECT_JUMP: 0.0123
BRANCH_INDIRECT: 0.323
BRANCH_CONDITIONAL: 6.56
BRANCH_DIRECT_CALL: 0.0043
BRANCH_INDIRECT_CALL: 0.2
BRANCH_RETURN: 0.00828

LLC TOTAL        ACCESS:     592354 HIT:     398042 MISS:     194312
LLC LOAD         ACCESS:     402684 HIT:     251260 MISS:     151424
LLC RFO          ACCESS:      32519 HIT:      21574 MISS:      10945
LLC PREFETCH     ACCESS:      53040 HIT:      33973 MISS:      19067
LLC WRITE        ACCESS:      85082 HIT:      80704 MISS:       4378
LLC TRANSLATION  ACCESS:      19029 HIT:      10531 MISS:       8498
LLC PREFETCH REQUESTED:      53040 ISSUED:      53040 USEFUL:      12407 USELESS:       3399
LLC AVERAGE MISS LATENCY: 530.6 cycles
cpu0_DTLB TOTAL        ACCESS:  141911633 HIT:  141224862 MISS:     686771
cpu0_DTLB LOAD         ACCESS:  141911633 HIT:  141224862 MISS:     686771
cpu0_DTLB RFO          ACCESS:          0 HIT:          0 MISS:          0
cpu0_DTLB PREFETCH     ACCESS:          0 HIT:          0 MISS:          0
cpu0_DTLB WRITE        ACCESS:          0 HIT:          0 MISS:          0
cpu0_DTLB TRANSLATION  ACCESS:          0 HIT:          0 MISS:          0
cpu0_DTLB PREFETCH REQUESTED:          0 ISSUED:          0 USEFUL:          0 USELESS:          0
cpu0_DTLB AVERAGE MISS LATENCY: 12.89 cycles
cpu0_ITLB TOTAL        ACCESS:    4859797 HIT:    4806686 MISS:      53111
cpu0_ITLB LOAD         ACCESS:    4859797 HIT:    4806686 MISS:      53111
cpu0_ITLB RFO          ACCESS:          0 HIT:          0 MISS:          0
cpu0_ITLB PREFETCH     ACCESS:          0 HIT:          0 MISS:          0
cpu0_ITLB WRITE        ACCESS:          0 HIT:          0 MISS:          0
cpu0_ITLB TRANSLATION  ACCESS:          0 HIT:          0 MISS:          0
cpu0_ITLB PREFETCH REQUESTED:          0 ISSUED:          0 USEFUL:          0 USELESS:          0
cpu0_ITLB AVERAGE MISS LATENCY: 7.202 cycles
cpu0_L1D TOTAL        ACCESS:  188573651 HIT:  186853668 MISS:    1719983
cpu0_L1D LOAD         ACCESS:  105206407 HIT:  103863500 MISS:    1342907
cpu0_L1D RFO          ACCESS:          0 HIT:          0 MISS:          0
cpu0_L1D PREFETCH     ACCESS:          0 HIT:          0 MISS:          0
cpu0_L1D WRITE        ACCESS:   83342781 HIT:   82989099 MISS:     353682
cpu0_L1D TRANSLATION  ACCESS:      24463 HIT:       1069 MISS:      23394
cpu0_L1D PREFETCH REQUESTED:          0 ISSUED:          0 USEFUL:          0 USELESS:          0
cpu0_L1D AVERAGE MISS LATENCY: 60.07 cycles
cpu0_L1I TOTAL        ACCESS:    5597708 HIT:    4854196 MISS:     743512
cpu0_L1I LOAD         ACCESS:    5597708 HIT:    4854196 MISS:     743512
cpu0_L1I RFO          ACCESS:          0 HIT:          0 MISS:          0
cpu0_L1I PREFETCH     ACCESS:          0 HIT:          0 MISS:          0
cpu0_L1I WRITE        ACCESS:          0 HIT:          0 MISS:          0
cpu0_L1I TRANSLATION  ACCESS:          0 HIT:          0 MISS:          0
cpu0_L1I PREFETCH REQUESTED:          0 ISSUED:          0 USEFUL:          0 USELESS:          0
cpu0_L1I AVERAGE MISS LATENCY: 11.13 cycles
cpu0_L2C TOTAL        ACCESS:    1665820 HIT:    1209807 MISS:     456013
cpu0_L2C LOAD         ACCESS:    1315979 HIT:     913295 MISS:     402684
cpu0_L2C RFO          ACCESS:      88347 HIT:      55828 MISS:      32519
cpu0_L2C PREFETCH     ACCESS:          0 HIT:          0 MISS:          0
cpu0_L2C WRITE        ACCESS:     238167 HIT:     236386 MISS:       1781
cpu0_L2C TRANSLATION  ACCESS:      23327 HIT:       4298 MISS:      19029
cpu0_L2C PREFETCH REQUESTED:          0 ISSUED:          0 USEFUL:          0 USELESS:          0
cpu0_L2C AVERAGE MISS LATENCY: 222.9 cycles
cpu0_STLB TOTAL        ACCESS:     507335 HIT:     484541 MISS:      22794
cpu0_STLB LOAD         ACCESS:     507335 HIT:     484541 MISS:      22794
cpu0_STLB RFO          ACCESS:          0 HIT:          0 MISS:          0
cpu0_STLB PREFETCH     ACCESS:          0 HIT:          0 MISS:          0
cpu0_STLB WRITE        ACCESS:          0 HIT:          0 MISS:          0
cpu0_STLB TRANSLATION  ACCESS:          0 HIT:          0 MISS:          0
cpu0_STLB PREFETCH REQUESTED:          0 ISSUED:          0 USEFUL:          0 USELESS:          0
cpu0_STLB AVERAGE MISS LATENCY: 263.9 cycles

DRAM Statistics

Channel 0 RQ ROW_BUFFER_HIT:      34433
  ROW_BUFFER_MISS:     151781
 AVG DBUS CONGESTED CYCLE: 3.794
WQ ROW_BUFFER_HIT: Channel 0 
  ROW_BUFFER_MISS:       7729
  FULL:      18804
