WARNING: physical memory size is smaller than virtual memory size.

*** ChampSim Multicore Out-of-Order Simulator ***
Warmup Instructions: 50000000
Simulation Instructions: 600000000
Number of CPUs: 1
Page size: 4096

Off-chip DRAM Size: 4 GiB Channels: 1 Width: 64-bit Data Race: 3200 MT/s
Heartbeat CPU 0 instructions: 10000000 cycles: 2500061 heartbeat IPC: 4 cumulative IPC: 4 (Simulation time: 00 hr 00 min 47 sec)
Heartbeat CPU 0 instructions: 20000000 cycles: 5000061 heartbeat IPC: 4 cumulative IPC: 4 (Simulation time: 00 hr 01 min 37 sec)
Heartbeat CPU 0 instructions: 30000000 cycles: 7500061 heartbeat IPC: 4 cumulative IPC: 4 (Simulation time: 00 hr 02 min 27 sec)
Heartbeat CPU 0 instructions: 40000000 cycles: 10000061 heartbeat IPC: 4 cumulative IPC: 4 (Simulation time: 00 hr 03 min 13 sec)
Heartbeat CPU 0 instructions: 50000000 cycles: 12500061 heartbeat IPC: 4 cumulative IPC: 4 (Simulation time: 00 hr 04 min 00 sec)
Warmup finished CPU 0 instructions: 50000000 cycles: 12500062 cumulative IPC: 4 (Simulation time: 00 hr 04 min 00 sec)
Warmup complete CPU 0 instructions: 50000000 cycles: 12500062 cumulative IPC: 4 (Simulation time: 00 hr 04 min 00 sec)
Heartbeat CPU 0 instructions: 60000002 cycles: 16435783 heartbeat IPC: 2.541 cumulative IPC: 2.541 (Simulation time: 00 hr 05 min 01 sec)
Heartbeat CPU 0 instructions: 70000003 cycles: 20749204 heartbeat IPC: 2.318 cumulative IPC: 2.424 (Simulation time: 00 hr 06 min 12 sec)
Heartbeat CPU 0 instructions: 80000003 cycles: 25212938 heartbeat IPC: 2.24 cumulative IPC: 2.36 (Simulation time: 00 hr 07 min 19 sec)
Heartbeat CPU 0 instructions: 90000000 cycles: 28902625 heartbeat IPC: 2.71 cumulative IPC: 2.439 (Simulation time: 00 hr 08 min 21 sec)
Heartbeat CPU 0 instructions: 100000003 cycles: 32797283 heartbeat IPC: 2.568 cumulative IPC: 2.463 (Simulation time: 00 hr 09 min 23 sec)
Heartbeat CPU 0 instructions: 110000002 cycles: 36888882 heartbeat IPC: 2.444 cumulative IPC: 2.46 (Simulation time: 00 hr 10 min 28 sec)
Heartbeat CPU 0 instructions: 120000001 cycles: 40602045 heartbeat IPC: 2.693 cumulative IPC: 2.491 (Simulation time: 00 hr 11 min 27 sec)
Heartbeat CPU 0 instructions: 130000003 cycles: 44366187 heartbeat IPC: 2.657 cumulative IPC: 2.511 (Simulation time: 00 hr 12 min 27 sec)
Heartbeat CPU 0 instructions: 140000002 cycles: 48491614 heartbeat IPC: 2.424 cumulative IPC: 2.501 (Simulation time: 00 hr 13 min 31 sec)
Heartbeat CPU 0 instructions: 150000001 cycles: 52535644 heartbeat IPC: 2.473 cumulative IPC: 2.498 (Simulation time: 00 hr 14 min 27 sec)
Heartbeat CPU 0 instructions: 160000000 cycles: 56184366 heartbeat IPC: 2.741 cumulative IPC: 2.518 (Simulation time: 00 hr 15 min 21 sec)
Heartbeat CPU 0 instructions: 170000001 cycles: 60350038 heartbeat IPC: 2.401 cumulative IPC: 2.508 (Simulation time: 00 hr 16 min 24 sec)
Heartbeat CPU 0 instructions: 180000001 cycles: 63805525 heartbeat IPC: 2.894 cumulative IPC: 2.534 (Simulation time: 00 hr 17 min 22 sec)
Heartbeat CPU 0 instructions: 190000002 cycles: 67382191 heartbeat IPC: 2.796 cumulative IPC: 2.551 (Simulation time: 00 hr 18 min 22 sec)
Heartbeat CPU 0 instructions: 200000002 cycles: 71153161 heartbeat IPC: 2.652 cumulative IPC: 2.557 (Simulation time: 00 hr 19 min 22 sec)
Heartbeat CPU 0 instructions: 210000000 cycles: 74788089 heartbeat IPC: 2.751 cumulative IPC: 2.569 (Simulation time: 00 hr 20 min 21 sec)
Heartbeat CPU 0 instructions: 220000001 cycles: 78655984 heartbeat IPC: 2.585 cumulative IPC: 2.57 (Simulation time: 00 hr 21 min 21 sec)
Heartbeat CPU 0 instructions: 230000002 cycles: 82491062 heartbeat IPC: 2.608 cumulative IPC: 2.572 (Simulation time: 00 hr 22 min 22 sec)
Heartbeat CPU 0 instructions: 240000001 cycles: 86693138 heartbeat IPC: 2.38 cumulative IPC: 2.561 (Simulation time: 00 hr 23 min 24 sec)
Heartbeat CPU 0 instructions: 250000003 cycles: 91251932 heartbeat IPC: 2.194 cumulative IPC: 2.54 (Simulation time: 00 hr 24 min 21 sec)
Heartbeat CPU 0 instructions: 260000000 cycles: 95043028 heartbeat IPC: 2.638 cumulative IPC: 2.544 (Simulation time: 00 hr 25 min 16 sec)
Heartbeat CPU 0 instructions: 270000003 cycles: 101667317 heartbeat IPC: 1.51 cumulative IPC: 2.467 (Simulation time: 00 hr 26 min 35 sec)
Heartbeat CPU 0 instructions: 280000000 cycles: 111353859 heartbeat IPC: 1.032 cumulative IPC: 2.327 (Simulation time: 00 hr 28 min 25 sec)
Heartbeat CPU 0 instructions: 290000000 cycles: 120185713 heartbeat IPC: 1.132 cumulative IPC: 2.229 (Simulation time: 00 hr 30 min 08 sec)
Heartbeat CPU 0 instructions: 300000003 cycles: 127341907 heartbeat IPC: 1.397 cumulative IPC: 2.177 (Simulation time: 00 hr 31 min 40 sec)
Heartbeat CPU 0 instructions: 310000004 cycles: 137480336 heartbeat IPC: 0.9863 cumulative IPC: 2.08 (Simulation time: 00 hr 33 min 36 sec)
Heartbeat CPU 0 instructions: 320000004 cycles: 142415139 heartbeat IPC: 2.026 cumulative IPC: 2.078 (Simulation time: 00 hr 34 min 49 sec)
Heartbeat CPU 0 instructions: 330000000 cycles: 146475488 heartbeat IPC: 2.463 cumulative IPC: 2.09 (Simulation time: 00 hr 35 min 53 sec)
Heartbeat CPU 0 instructions: 340000001 cycles: 150712517 heartbeat IPC: 2.36 cumulative IPC: 2.098 (Simulation time: 00 hr 36 min 57 sec)
Heartbeat CPU 0 instructions: 350000004 cycles: 155102457 heartbeat IPC: 2.278 cumulative IPC: 2.104 (Simulation time: 00 hr 38 min 02 sec)
Heartbeat CPU 0 instructions: 360000003 cycles: 159194494 heartbeat IPC: 2.444 cumulative IPC: 2.113 (Simulation time: 00 hr 39 min 06 sec)
Heartbeat CPU 0 instructions: 370000001 cycles: 163202261 heartbeat IPC: 2.495 cumulative IPC: 2.123 (Simulation time: 00 hr 40 min 09 sec)
Heartbeat CPU 0 instructions: 380000004 cycles: 167073895 heartbeat IPC: 2.583 cumulative IPC: 2.135 (Simulation time: 00 hr 41 min 09 sec)
Heartbeat CPU 0 instructions: 390000002 cycles: 171104344 heartbeat IPC: 2.481 cumulative IPC: 2.144 (Simulation time: 00 hr 42 min 11 sec)
Heartbeat CPU 0 instructions: 400000000 cycles: 175420675 heartbeat IPC: 2.317 cumulative IPC: 2.148 (Simulation time: 00 hr 43 min 13 sec)
Heartbeat CPU 0 instructions: 410000000 cycles: 182249819 heartbeat IPC: 1.464 cumulative IPC: 2.121 (Simulation time: 00 hr 44 min 32 sec)
Heartbeat CPU 0 instructions: 420000003 cycles: 192157319 heartbeat IPC: 1.009 cumulative IPC: 2.059 (Simulation time: 00 hr 46 min 14 sec)
Heartbeat CPU 0 instructions: 430000000 cycles: 199219415 heartbeat IPC: 1.416 cumulative IPC: 2.035 (Simulation time: 00 hr 47 min 38 sec)
Heartbeat CPU 0 instructions: 440000004 cycles: 205520113 heartbeat IPC: 1.587 cumulative IPC: 2.021 (Simulation time: 00 hr 48 min 57 sec)
Heartbeat CPU 0 instructions: 450000001 cycles: 212054400 heartbeat IPC: 1.53 cumulative IPC: 2.004 (Simulation time: 00 hr 50 min 16 sec)
Heartbeat CPU 0 instructions: 460000002 cycles: 221581297 heartbeat IPC: 1.05 cumulative IPC: 1.961 (Simulation time: 00 hr 51 min 56 sec)
Heartbeat CPU 0 instructions: 470000003 cycles: 230257229 heartbeat IPC: 1.153 cumulative IPC: 1.929 (Simulation time: 00 hr 53 min 30 sec)
Heartbeat CPU 0 instructions: 480000003 cycles: 234505081 heartbeat IPC: 2.354 cumulative IPC: 1.937 (Simulation time: 00 hr 54 min 30 sec)
Heartbeat CPU 0 instructions: 490000001 cycles: 239184444 heartbeat IPC: 2.137 cumulative IPC: 1.941 (Simulation time: 00 hr 55 min 32 sec)
Heartbeat CPU 0 instructions: 500000002 cycles: 243557889 heartbeat IPC: 2.287 cumulative IPC: 1.948 (Simulation time: 00 hr 56 min 33 sec)
Heartbeat CPU 0 instructions: 510000000 cycles: 247802160 heartbeat IPC: 2.356 cumulative IPC: 1.955 (Simulation time: 00 hr 57 min 33 sec)
Heartbeat CPU 0 instructions: 520000000 cycles: 252208365 heartbeat IPC: 2.27 cumulative IPC: 1.961 (Simulation time: 00 hr 58 min 34 sec)
Heartbeat CPU 0 instructions: 530000001 cycles: 262307755 heartbeat IPC: 0.9902 cumulative IPC: 1.921 (Simulation time: 01 hr 00 min 19 sec)
Heartbeat CPU 0 instructions: 540000000 cycles: 272147776 heartbeat IPC: 1.016 cumulative IPC: 1.887 (Simulation time: 01 hr 02 min 10 sec)
Heartbeat CPU 0 instructions: 550000004 cycles: 283610130 heartbeat IPC: 0.8724 cumulative IPC: 1.844 (Simulation time: 01 hr 04 min 08 sec)
Heartbeat CPU 0 instructions: 560000004 cycles: 287694203 heartbeat IPC: 2.449 cumulative IPC: 1.853 (Simulation time: 01 hr 05 min 09 sec)
Heartbeat CPU 0 instructions: 570000001 cycles: 290821041 heartbeat IPC: 3.198 cumulative IPC: 1.868 (Simulation time: 01 hr 06 min 06 sec)
Heartbeat CPU 0 instructions: 580000003 cycles: 294357880 heartbeat IPC: 2.827 cumulative IPC: 1.88 (Simulation time: 01 hr 07 min 04 sec)
Heartbeat CPU 0 instructions: 590000002 cycles: 297983465 heartbeat IPC: 2.758 cumulative IPC: 1.892 (Simulation time: 01 hr 08 min 03 sec)
Heartbeat CPU 0 instructions: 600000003 cycles: 301047325 heartbeat IPC: 3.264 cumulative IPC: 1.906 (Simulation time: 01 hr 09 min 00 sec)
Heartbeat CPU 0 instructions: 610000001 cycles: 304553848 heartbeat IPC: 2.852 cumulative IPC: 1.917 (Simulation time: 01 hr 09 min 55 sec)
Heartbeat CPU 0 instructions: 620000000 cycles: 308569539 heartbeat IPC: 2.49 cumulative IPC: 1.925 (Simulation time: 01 hr 10 min 53 sec)
Heartbeat CPU 0 instructions: 630000002 cycles: 311932917 heartbeat IPC: 2.973 cumulative IPC: 1.937 (Simulation time: 01 hr 11 min 55 sec)
Heartbeat CPU 0 instructions: 640000004 cycles: 315942052 heartbeat IPC: 2.494 cumulative IPC: 1.944 (Simulation time: 01 hr 13 min 00 sec)
Heartbeat CPU 0 instructions: 650000001 cycles: 319762274 heartbeat IPC: 2.618 cumulative IPC: 1.953 (Simulation time: 01 hr 14 min 01 sec)
Simulation finished CPU 0 instructions: 600000001 cycles: 307262213 cumulative IPC: 1.953 (Simulation time: 01 hr 14 min 01 sec)
Simulation complete CPU 0 instructions: 600000001 cycles: 307262213 cumulative IPC: 1.953 (Simulation time: 01 hr 14 min 01 sec)

ChampSim completed all CPUs

=== Simulation ===
CPU 0 runs traces/400.perlbench-50B.champsimtrace.xz
Region of Interest Statistics

CPU 0 cumulative IPC: 1.953 instructions: 600000001 cycles: 307262213
CPU 0 Branch Prediction Accuracy: 96.2% MPKI: 7.839 Average ROB Occupancy at Mispredict: 43.32
Branch type MPKI
BRANCH_DIRECT_JUMP: 0.0176
BRANCH_INDIRECT: 0.38
BRANCH_CONDITIONAL: 6.99
BRANCH_DIRECT_CALL: 0.0067
BRANCH_INDIRECT_CALL: 0.431
BRANCH_RETURN: 0.0161

LLC TOTAL        ACCESS:    1353521 HIT:     944846 MISS:     408675
LLC LOAD         ACCESS:     578421 HIT:     394332 MISS:     184089
LLC RFO          ACCESS:      47391 HIT:      31662 MISS:      15729
LLC PREFETCH     ACCESS:     578421 HIT:     380934 MISS:     197487
LLC WRITE        ACCESS:     127196 HIT:     127121 MISS:         75
LLC TRANSLATION  ACCESS:      22092 HIT:      10797 MISS:      11295
LLC PREFETCH REQUESTED:     578421 ISSUED:     578421 USEFUL:      75436 USELESS:      66438
LLC AVERAGE MISS LATENCY: 526.1 cycles
cpu0_DTLB TOTAL        ACCESS:  146523081 HIT:  145217472 MISS:    1305609
cpu0_DTLB LOAD         ACCESS:  146523081 HIT:  145217472 MISS:    1305609
cpu0_DTLB RFO          ACCESS:          0 HIT:          0 MISS:          0
cpu0_DTLB PREFETCH     ACCESS:          0 HIT:          0 MISS:          0
cpu0_DTLB WRITE        ACCESS:          0 HIT:          0 MISS:          0
cpu0_DTLB TRANSLATION  ACCESS:          0 HIT:          0 MISS:          0
cpu0_DTLB PREFETCH REQUESTED:          0 ISSUED:          0 USEFUL:          0 USELESS:          0
cpu0_DTLB AVERAGE MISS LATENCY: 11.64 cycles
cpu0_ITLB TOTAL        ACCESS:    8986440 HIT:    8801949 MISS:     184491
cpu0_ITLB LOAD         ACCESS:    8986440 HIT:    8801949 MISS:     184491
cpu0_ITLB RFO          ACCESS:          0 HIT:          0 MISS:          0
cpu0_ITLB PREFETCH     ACCESS:          0 HIT:          0 MISS:          0
cpu0_ITLB WRITE        ACCESS:          0 HIT:          0 MISS:          0
cpu0_ITLB TRANSLATION  ACCESS:          0 HIT:          0 MISS:          0
cpu0_ITLB PREFETCH REQUESTED:          0 ISSUED:          0 USEFUL:          0 USELESS:          0
cpu0_ITLB AVERAGE MISS LATENCY: 3.411 cycles
cpu0_L1D TOTAL        ACCESS:  193311449 HIT:  189655243 MISS:    3656206
cpu0_L1D LOAD         ACCESS:  107465393 HIT:  104457956 MISS:    3007437
cpu0_L1D RFO          ACCESS:          0 HIT:          0 MISS:          0
cpu0_L1D PREFETCH     ACCESS:          0 HIT:          0 MISS:          0
cpu0_L1D WRITE        ACCESS:   85817528 HIT:   85195855 MISS:     621673
cpu0_L1D TRANSLATION  ACCESS:      28528 HIT:       1432 MISS:      27096
cpu0_L1D PREFETCH REQUESTED:          0 ISSUED:          0 USEFUL:          0 USELESS:          0
cpu0_L1D AVERAGE MISS LATENCY: 39.32 cycles
cpu0_L1I TOTAL        ACCESS:   10421304 HIT:    8659497 MISS:    1761807
cpu0_L1I LOAD         ACCESS:   10421304 HIT:    8659497 MISS:    1761807
cpu0_L1I RFO          ACCESS:          0 HIT:          0 MISS:          0
cpu0_L1I PREFETCH     ACCESS:          0 HIT:          0 MISS:          0
cpu0_L1I WRITE        ACCESS:          0 HIT:          0 MISS:          0
cpu0_L1I TRANSLATION  ACCESS:          0 HIT:          0 MISS:          0
cpu0_L1I PREFETCH REQUESTED:          0 ISSUED:          0 USEFUL:          0 USELESS:          0
cpu0_L1I AVERAGE MISS LATENCY: 9.631 cycles
cpu0_L2C TOTAL        ACCESS:    3834654 HIT:    3183675 MISS:     650979
cpu0_L2C LOAD         ACCESS:    3104938 HIT:    2526517 MISS:     578421
cpu0_L2C RFO          ACCESS:     191552 HIT:     144160 MISS:      47392
cpu0_L2C PREFETCH     ACCESS:          0 HIT:          0 MISS:          0
cpu0_L2C WRITE        ACCESS:     511132 HIT:     508058 MISS:       3074
cpu0_L2C TRANSLATION  ACCESS:      27032 HIT:       4940 MISS:      22092
cpu0_L2C PREFETCH REQUESTED:          0 ISSUED:          0 USEFUL:          0 USELESS:          0
cpu0_L2C AVERAGE MISS LATENCY: 206.6 cycles
cpu0_STLB TOTAL        ACCESS:    1008436 HIT:     981741 MISS:      26695
cpu0_STLB LOAD         ACCESS:    1008436 HIT:     981741 MISS:      26695
cpu0_STLB RFO          ACCESS:          0 HIT:          0 MISS:          0
cpu0_STLB PREFETCH     ACCESS:          0 HIT:          0 MISS:          0
cpu0_STLB WRITE        ACCESS:          0 HIT:          0 MISS:          0
cpu0_STLB TRANSLATION  ACCESS:          0 HIT:          0 MISS:          0
cpu0_STLB PREFETCH REQUESTED:          0 ISSUED:          0 USEFUL:          0 USELESS:          0
cpu0_STLB AVERAGE MISS LATENCY: 348.3 cycles

DRAM Statistics

Channel 0 RQ ROW_BUFFER_HIT:      82613
  ROW_BUFFER_MISS:     264091
 AVG DBUS CONGESTED CYCLE: 3.851
WQ ROW_BUFFER_HIT: Channel 0 
  ROW_BUFFER_MISS:       5323
  FULL:      24949
