WARNING: physical memory size is smaller than virtual memory size.

*** ChampSim Multicore Out-of-Order Simulator ***
Warmup Instructions: 50000000
Simulation Instructions: 600000000
Number of CPUs: 1
Page size: 4096

CPU 0 Tage branch predictor
Off-chip DRAM Size: 4 GiB Channels: 1 Width: 64-bit Data Race: 3200 MT/s
Heartbeat CPU 0 instructions: 10000001 cycles: 2500318 heartbeat IPC: 3.999 cumulative IPC: 3.999 (Simulation time: 00 hr 03 min 10 sec)
Heartbeat CPU 0 instructions: 20000002 cycles: 5037133 heartbeat IPC: 3.942 cumulative IPC: 3.971 (Simulation time: 00 hr 07 min 08 sec)
Heartbeat CPU 0 instructions: 30000002 cycles: 7537133 heartbeat IPC: 4 cumulative IPC: 3.98 (Simulation time: 00 hr 11 min 20 sec)
Heartbeat CPU 0 instructions: 40000002 cycles: 10037133 heartbeat IPC: 4 cumulative IPC: 3.985 (Simulation time: 00 hr 15 min 19 sec)
Heartbeat CPU 0 instructions: 50000002 cycles: 12537133 heartbeat IPC: 4 cumulative IPC: 3.988 (Simulation time: 00 hr 19 min 14 sec)
Warmup finished CPU 0 instructions: 50000002 cycles: 12537134 cumulative IPC: 3.988 (Simulation time: 00 hr 19 min 14 sec)
Warmup complete CPU 0 instructions: 50000002 cycles: 12537134 cumulative IPC: 3.988 (Simulation time: 00 hr 19 min 14 sec)
Heartbeat CPU 0 instructions: 60000001 cycles: 15508270 heartbeat IPC: 3.366 cumulative IPC: 3.366 (Simulation time: 00 hr 23 min 55 sec)
Heartbeat CPU 0 instructions: 70000004 cycles: 18581821 heartbeat IPC: 3.254 cumulative IPC: 3.309 (Simulation time: 00 hr 28 min 40 sec)
Heartbeat CPU 0 instructions: 80000001 cycles: 21629804 heartbeat IPC: 3.281 cumulative IPC: 3.299 (Simulation time: 00 hr 33 min 28 sec)
Heartbeat CPU 0 instructions: 90000001 cycles: 24571489 heartbeat IPC: 3.399 cumulative IPC: 3.324 (Simulation time: 00 hr 38 min 07 sec)
Heartbeat CPU 0 instructions: 100000000 cycles: 27481853 heartbeat IPC: 3.436 cumulative IPC: 3.346 (Simulation time: 00 hr 42 min 45 sec)
Heartbeat CPU 0 instructions: 110000000 cycles: 30424324 heartbeat IPC: 3.399 cumulative IPC: 3.354 (Simulation time: 00 hr 47 min 23 sec)
Heartbeat CPU 0 instructions: 120000001 cycles: 33397256 heartbeat IPC: 3.364 cumulative IPC: 3.356 (Simulation time: 00 hr 52 min 01 sec)
Heartbeat CPU 0 instructions: 130000001 cycles: 36252805 heartbeat IPC: 3.502 cumulative IPC: 3.373 (Simulation time: 00 hr 56 min 40 sec)
Heartbeat CPU 0 instructions: 140000001 cycles: 39299354 heartbeat IPC: 3.282 cumulative IPC: 3.363 (Simulation time: 01 hr 01 min 23 sec)
Heartbeat CPU 0 instructions: 150000001 cycles: 42306537 heartbeat IPC: 3.325 cumulative IPC: 3.359 (Simulation time: 01 hr 06 min 05 sec)
Heartbeat CPU 0 instructions: 160000004 cycles: 45318263 heartbeat IPC: 3.32 cumulative IPC: 3.356 (Simulation time: 01 hr 10 min 49 sec)
Heartbeat CPU 0 instructions: 170000000 cycles: 53128743 heartbeat IPC: 1.28 cumulative IPC: 2.956 (Simulation time: 01 hr 18 min 36 sec)
Heartbeat CPU 0 instructions: 180000004 cycles: 61163524 heartbeat IPC: 1.245 cumulative IPC: 2.673 (Simulation time: 01 hr 26 min 46 sec)
Heartbeat CPU 0 instructions: 190000001 cycles: 68874744 heartbeat IPC: 1.297 cumulative IPC: 2.485 (Simulation time: 01 hr 34 min 39 sec)
Heartbeat CPU 0 instructions: 200000004 cycles: 71818991 heartbeat IPC: 3.396 cumulative IPC: 2.53 (Simulation time: 01 hr 39 min 18 sec)
Heartbeat CPU 0 instructions: 210000001 cycles: 74768809 heartbeat IPC: 3.39 cumulative IPC: 2.571 (Simulation time: 01 hr 44 min 02 sec)
Heartbeat CPU 0 instructions: 220000000 cycles: 77655530 heartbeat IPC: 3.464 cumulative IPC: 2.611 (Simulation time: 01 hr 48 min 39 sec)
Heartbeat CPU 0 instructions: 230000002 cycles: 80660818 heartbeat IPC: 3.327 cumulative IPC: 2.642 (Simulation time: 01 hr 53 min 22 sec)
Heartbeat CPU 0 instructions: 240000003 cycles: 83679575 heartbeat IPC: 3.313 cumulative IPC: 2.671 (Simulation time: 01 hr 58 min 09 sec)
Heartbeat CPU 0 instructions: 250000000 cycles: 86693570 heartbeat IPC: 3.318 cumulative IPC: 2.697 (Simulation time: 02 hr 02 min 51 sec)
Heartbeat CPU 0 instructions: 260000002 cycles: 89645735 heartbeat IPC: 3.387 cumulative IPC: 2.723 (Simulation time: 02 hr 07 min 34 sec)
Heartbeat CPU 0 instructions: 270000002 cycles: 92544588 heartbeat IPC: 3.45 cumulative IPC: 2.75 (Simulation time: 02 hr 12 min 10 sec)
Heartbeat CPU 0 instructions: 280000002 cycles: 95422195 heartbeat IPC: 3.475 cumulative IPC: 2.775 (Simulation time: 02 hr 16 min 45 sec)
Heartbeat CPU 0 instructions: 290000002 cycles: 98377461 heartbeat IPC: 3.384 cumulative IPC: 2.796 (Simulation time: 02 hr 21 min 26 sec)
Heartbeat CPU 0 instructions: 300000003 cycles: 101257253 heartbeat IPC: 3.472 cumulative IPC: 2.818 (Simulation time: 02 hr 26 min 08 sec)
Heartbeat CPU 0 instructions: 310000001 cycles: 104276029 heartbeat IPC: 3.313 cumulative IPC: 2.834 (Simulation time: 02 hr 30 min 54 sec)
Heartbeat CPU 0 instructions: 320000003 cycles: 107277259 heartbeat IPC: 3.332 cumulative IPC: 2.85 (Simulation time: 02 hr 35 min 38 sec)
Heartbeat CPU 0 instructions: 330000003 cycles: 110243620 heartbeat IPC: 3.371 cumulative IPC: 2.866 (Simulation time: 02 hr 40 min 19 sec)
Heartbeat CPU 0 instructions: 340000000 cycles: 117835777 heartbeat IPC: 1.317 cumulative IPC: 2.754 (Simulation time: 02 hr 48 min 01 sec)
Heartbeat CPU 0 instructions: 350000000 cycles: 125928405 heartbeat IPC: 1.236 cumulative IPC: 2.646 (Simulation time: 02 hr 56 min 14 sec)
Heartbeat CPU 0 instructions: 360000004 cycles: 133673660 heartbeat IPC: 1.291 cumulative IPC: 2.559 (Simulation time: 03 hr 04 min 05 sec)
Heartbeat CPU 0 instructions: 370000000 cycles: 136634647 heartbeat IPC: 3.377 cumulative IPC: 2.579 (Simulation time: 03 hr 08 min 45 sec)
Heartbeat CPU 0 instructions: 380000003 cycles: 139546791 heartbeat IPC: 3.434 cumulative IPC: 2.598 (Simulation time: 03 hr 13 min 27 sec)
Heartbeat CPU 0 instructions: 390000002 cycles: 142519128 heartbeat IPC: 3.364 cumulative IPC: 2.616 (Simulation time: 03 hr 18 min 07 sec)
Heartbeat CPU 0 instructions: 400000004 cycles: 145419162 heartbeat IPC: 3.448 cumulative IPC: 2.634 (Simulation time: 03 hr 22 min 45 sec)
Heartbeat CPU 0 instructions: 410000002 cycles: 148351974 heartbeat IPC: 3.41 cumulative IPC: 2.651 (Simulation time: 03 hr 27 min 24 sec)
Heartbeat CPU 0 instructions: 420000003 cycles: 151426356 heartbeat IPC: 3.253 cumulative IPC: 2.664 (Simulation time: 03 hr 32 min 11 sec)
Heartbeat CPU 0 instructions: 430000001 cycles: 154427809 heartbeat IPC: 3.332 cumulative IPC: 2.678 (Simulation time: 03 hr 36 min 54 sec)
Heartbeat CPU 0 instructions: 440000004 cycles: 157555421 heartbeat IPC: 3.197 cumulative IPC: 2.689 (Simulation time: 03 hr 41 min 43 sec)
Heartbeat CPU 0 instructions: 450000002 cycles: 160471867 heartbeat IPC: 3.429 cumulative IPC: 2.704 (Simulation time: 03 hr 46 min 21 sec)
Heartbeat CPU 0 instructions: 460000000 cycles: 163395421 heartbeat IPC: 3.42 cumulative IPC: 2.718 (Simulation time: 03 hr 51 min 02 sec)
Heartbeat CPU 0 instructions: 470000001 cycles: 166240692 heartbeat IPC: 3.515 cumulative IPC: 2.733 (Simulation time: 03 hr 55 min 41 sec)
Heartbeat CPU 0 instructions: 480000003 cycles: 169277106 heartbeat IPC: 3.293 cumulative IPC: 2.743 (Simulation time: 04 hr 00 min 24 sec)
Heartbeat CPU 0 instructions: 490000004 cycles: 172103954 heartbeat IPC: 3.538 cumulative IPC: 2.757 (Simulation time: 04 hr 04 min 58 sec)
Heartbeat CPU 0 instructions: 500000004 cycles: 175081655 heartbeat IPC: 3.358 cumulative IPC: 2.768 (Simulation time: 04 hr 09 min 41 sec)
Heartbeat CPU 0 instructions: 510000003 cycles: 178086825 heartbeat IPC: 3.328 cumulative IPC: 2.779 (Simulation time: 04 hr 14 min 31 sec)
Heartbeat CPU 0 instructions: 520000001 cycles: 180963890 heartbeat IPC: 3.476 cumulative IPC: 2.791 (Simulation time: 04 hr 19 min 21 sec)
Heartbeat CPU 0 instructions: 530000001 cycles: 183956114 heartbeat IPC: 3.342 cumulative IPC: 2.8 (Simulation time: 04 hr 24 min 06 sec)
Heartbeat CPU 0 instructions: 540000000 cycles: 186906041 heartbeat IPC: 3.39 cumulative IPC: 2.81 (Simulation time: 04 hr 28 min 48 sec)
Heartbeat CPU 0 instructions: 550000001 cycles: 189883703 heartbeat IPC: 3.358 cumulative IPC: 2.819 (Simulation time: 04 hr 33 min 33 sec)
Heartbeat CPU 0 instructions: 560000000 cycles: 192948722 heartbeat IPC: 3.263 cumulative IPC: 2.827 (Simulation time: 04 hr 38 min 21 sec)
Heartbeat CPU 0 instructions: 570000004 cycles: 197971893 heartbeat IPC: 1.991 cumulative IPC: 2.804 (Simulation time: 04 hr 44 min 29 sec)
Heartbeat CPU 0 instructions: 580000003 cycles: 206542594 heartbeat IPC: 1.167 cumulative IPC: 2.732 (Simulation time: 04 hr 53 min 03 sec)
Heartbeat CPU 0 instructions: 590000002 cycles: 216393932 heartbeat IPC: 1.015 cumulative IPC: 2.649 (Simulation time: 05 hr 02 min 18 sec)
Heartbeat CPU 0 instructions: 600000004 cycles: 219416390 heartbeat IPC: 3.309 cumulative IPC: 2.659 (Simulation time: 05 hr 07 min 00 sec)
Heartbeat CPU 0 instructions: 610000002 cycles: 222376873 heartbeat IPC: 3.378 cumulative IPC: 2.669 (Simulation time: 05 hr 11 min 50 sec)
Heartbeat CPU 0 instructions: 620000001 cycles: 225146292 heartbeat IPC: 3.611 cumulative IPC: 2.681 (Simulation time: 05 hr 16 min 27 sec)
Heartbeat CPU 0 instructions: 630000002 cycles: 228114664 heartbeat IPC: 3.369 cumulative IPC: 2.69 (Simulation time: 05 hr 21 min 25 sec)
Heartbeat CPU 0 instructions: 640000004 cycles: 231062915 heartbeat IPC: 3.392 cumulative IPC: 2.7 (Simulation time: 05 hr 26 min 15 sec)
Heartbeat CPU 0 instructions: 650000000 cycles: 233809876 heartbeat IPC: 3.64 cumulative IPC: 2.712 (Simulation time: 05 hr 30 min 59 sec)
Simulation finished CPU 0 instructions: 600000001 cycles: 221272744 cumulative IPC: 2.712 (Simulation time: 05 hr 30 min 59 sec)
Simulation complete CPU 0 instructions: 600000001 cycles: 221272744 cumulative IPC: 2.712 (Simulation time: 05 hr 30 min 59 sec)

ChampSim completed all CPUs

=== Simulation ===
CPU 0 runs traces/400.perlbench-41B.champsimtrace.xz
Region of Interest Statistics

CPU 0 cumulative IPC: 2.712 instructions: 600000001 cycles: 221272744
CPU 0 Branch Prediction Accuracy: 99.19% MPKI: 1.684 Average ROB Occupancy at Mispredict: 102.2
Branch type MPKI
BRANCH_DIRECT_JUMP: 0.0123
BRANCH_INDIRECT: 0.323
BRANCH_CONDITIONAL: 1.14
BRANCH_DIRECT_CALL: 0.0043
BRANCH_INDIRECT_CALL: 0.2
BRANCH_RETURN: 0.00828

LLC TOTAL        ACCESS:     540368 HIT:     299908 MISS:     240460
LLC LOAD         ACCESS:     403661 HIT:     186057 MISS:     217604
LLC RFO          ACCESS:      32514 HIT:      18940 MISS:      13574
LLC PREFETCH     ACCESS:          0 HIT:          0 MISS:          0
LLC WRITE        ACCESS:      85094 HIT:      84881 MISS:        213
LLC TRANSLATION  ACCESS:      19099 HIT:      10030 MISS:       9069
LLC PREFETCH REQUESTED:          0 ISSUED:          0 USEFUL:          0 USELESS:          0
LLC AVERAGE MISS LATENCY: 622.9 cycles
cpu0_DTLB TOTAL        ACCESS:  129774296 HIT:  129070004 MISS:     704292
cpu0_DTLB LOAD         ACCESS:  129774296 HIT:  129070004 MISS:     704292
cpu0_DTLB RFO          ACCESS:          0 HIT:          0 MISS:          0
cpu0_DTLB PREFETCH     ACCESS:          0 HIT:          0 MISS:          0
cpu0_DTLB WRITE        ACCESS:          0 HIT:          0 MISS:          0
cpu0_DTLB TRANSLATION  ACCESS:          0 HIT:          0 MISS:          0
cpu0_DTLB PREFETCH REQUESTED:          0 ISSUED:          0 USEFUL:          0 USELESS:          0
cpu0_DTLB AVERAGE MISS LATENCY: 14.36 cycles
cpu0_ITLB TOTAL        ACCESS:    4875031 HIT:    4812930 MISS:      62101
cpu0_ITLB LOAD         ACCESS:    4875031 HIT:    4812930 MISS:      62101
cpu0_ITLB RFO          ACCESS:          0 HIT:          0 MISS:          0
cpu0_ITLB PREFETCH     ACCESS:          0 HIT:          0 MISS:          0
cpu0_ITLB WRITE        ACCESS:          0 HIT:          0 MISS:          0
cpu0_ITLB TRANSLATION  ACCESS:          0 HIT:          0 MISS:          0
cpu0_ITLB PREFETCH REQUESTED:          0 ISSUED:          0 USEFUL:          0 USELESS:          0
cpu0_ITLB AVERAGE MISS LATENCY: 6.408 cycles
cpu0_L1D TOTAL        ACCESS:  174363105 HIT:  172553017 MISS:    1810088
cpu0_L1D LOAD         ACCESS:   91342095 HIT:   89929016 MISS:    1413079
cpu0_L1D RFO          ACCESS:          0 HIT:          0 MISS:          0
cpu0_L1D PREFETCH     ACCESS:          0 HIT:          0 MISS:          0
cpu0_L1D WRITE        ACCESS:   82996551 HIT:   82622943 MISS:     373608
cpu0_L1D TRANSLATION  ACCESS:      24459 HIT:       1058 MISS:      23401
cpu0_L1D PREFETCH REQUESTED:          0 ISSUED:          0 USEFUL:          0 USELESS:          0
cpu0_L1D AVERAGE MISS LATENCY: 83.22 cycles
cpu0_L1I TOTAL        ACCESS:    5654055 HIT:    4849019 MISS:     805036
cpu0_L1I LOAD         ACCESS:    5654055 HIT:    4849019 MISS:     805036
cpu0_L1I RFO          ACCESS:          0 HIT:          0 MISS:          0
cpu0_L1I PREFETCH     ACCESS:          0 HIT:          0 MISS:          0
cpu0_L1I WRITE        ACCESS:          0 HIT:          0 MISS:          0
cpu0_L1I TRANSLATION  ACCESS:          0 HIT:          0 MISS:          0
cpu0_L1I PREFETCH REQUESTED:          0 ISSUED:          0 USEFUL:          0 USELESS:          0
cpu0_L1I AVERAGE MISS LATENCY: 11.69 cycles
cpu0_L2C TOTAL        ACCESS:    1667940 HIT:    1210841 MISS:     457099
cpu0_L2C LOAD         ACCESS:    1315261 HIT:     911599 MISS:     403662
cpu0_L2C RFO          ACCESS:      89613 HIT:      57098 MISS:      32515
cpu0_L2C PREFETCH     ACCESS:          0 HIT:          0 MISS:          0
cpu0_L2C WRITE        ACCESS:     239744 HIT:     237921 MISS:       1823
cpu0_L2C TRANSLATION  ACCESS:      23322 HIT:       4223 MISS:      19099
cpu0_L2C PREFETCH REQUESTED:          0 ISSUED:          0 USEFUL:          0 USELESS:          0
cpu0_L2C AVERAGE MISS LATENCY: 348.2 cycles
cpu0_STLB TOTAL        ACCESS:     509023 HIT:     486236 MISS:      22787
cpu0_STLB LOAD         ACCESS:     509023 HIT:     486236 MISS:      22787
cpu0_STLB RFO          ACCESS:          0 HIT:          0 MISS:          0
cpu0_STLB PREFETCH     ACCESS:          0 HIT:          0 MISS:          0
cpu0_STLB WRITE        ACCESS:          0 HIT:          0 MISS:          0
cpu0_STLB TRANSLATION  ACCESS:          0 HIT:          0 MISS:          0
cpu0_STLB PREFETCH REQUESTED:          0 ISSUED:          0 USEFUL:          0 USELESS:          0
cpu0_STLB AVERAGE MISS LATENCY: 335 cycles

DRAM Statistics

Channel 0 RQ ROW_BUFFER_HIT:      45145
  ROW_BUFFER_MISS:     195066
 AVG DBUS CONGESTED CYCLE: 3.829
WQ ROW_BUFFER_HIT: Channel 0 
  ROW_BUFFER_MISS:       5487
  FULL:      29133
