WARNING: physical memory size is smaller than virtual memory size.

*** ChampSim Multicore Out-of-Order Simulator ***
Warmup Instructions: 50000000
Simulation Instructions: 600000000
Number of CPUs: 1
Page size: 4096

CPU 0 Tage branch predictor
Off-chip DRAM Size: 4 GiB Channels: 1 Width: 64-bit Data Race: 3200 MT/s
Heartbeat CPU 0 instructions: 10000000 cycles: 2500061 heartbeat IPC: 4 cumulative IPC: 4 (Simulation time: 00 hr 01 min 09 sec)
Heartbeat CPU 0 instructions: 20000000 cycles: 5000061 heartbeat IPC: 4 cumulative IPC: 4 (Simulation time: 00 hr 02 min 08 sec)
Heartbeat CPU 0 instructions: 30000000 cycles: 7500061 heartbeat IPC: 4 cumulative IPC: 4 (Simulation time: 00 hr 03 min 08 sec)
Heartbeat CPU 0 instructions: 40000000 cycles: 10000061 heartbeat IPC: 4 cumulative IPC: 4 (Simulation time: 00 hr 04 min 09 sec)
Heartbeat CPU 0 instructions: 50000000 cycles: 12500061 heartbeat IPC: 4 cumulative IPC: 4 (Simulation time: 00 hr 05 min 11 sec)
Warmup finished CPU 0 instructions: 50000000 cycles: 12500062 cumulative IPC: 4 (Simulation time: 00 hr 05 min 11 sec)
Warmup complete CPU 0 instructions: 50000000 cycles: 12500062 cumulative IPC: 4 (Simulation time: 00 hr 05 min 11 sec)
Heartbeat CPU 0 instructions: 60000004 cycles: 15504211 heartbeat IPC: 3.329 cumulative IPC: 3.329 (Simulation time: 00 hr 06 min 23 sec)
Heartbeat CPU 0 instructions: 70000003 cycles: 18370187 heartbeat IPC: 3.489 cumulative IPC: 3.407 (Simulation time: 00 hr 07 min 31 sec)
Heartbeat CPU 0 instructions: 80000002 cycles: 21381308 heartbeat IPC: 3.321 cumulative IPC: 3.378 (Simulation time: 00 hr 08 min 38 sec)
Heartbeat CPU 0 instructions: 90000000 cycles: 24099104 heartbeat IPC: 3.679 cumulative IPC: 3.449 (Simulation time: 00 hr 09 min 53 sec)
Heartbeat CPU 0 instructions: 100000003 cycles: 26855682 heartbeat IPC: 3.628 cumulative IPC: 3.483 (Simulation time: 00 hr 11 min 24 sec)
Heartbeat CPU 0 instructions: 110000001 cycles: 29753191 heartbeat IPC: 3.451 cumulative IPC: 3.478 (Simulation time: 00 hr 12 min 53 sec)
Heartbeat CPU 0 instructions: 120000001 cycles: 32469614 heartbeat IPC: 3.681 cumulative IPC: 3.505 (Simulation time: 00 hr 14 min 13 sec)
Heartbeat CPU 0 instructions: 130000003 cycles: 35368912 heartbeat IPC: 3.449 cumulative IPC: 3.498 (Simulation time: 00 hr 15 min 30 sec)
Heartbeat CPU 0 instructions: 140000002 cycles: 38202933 heartbeat IPC: 3.529 cumulative IPC: 3.502 (Simulation time: 00 hr 16 min 52 sec)
Heartbeat CPU 0 instructions: 150000001 cycles: 40973175 heartbeat IPC: 3.61 cumulative IPC: 3.512 (Simulation time: 00 hr 18 min 15 sec)
Heartbeat CPU 0 instructions: 160000000 cycles: 43890705 heartbeat IPC: 3.428 cumulative IPC: 3.504 (Simulation time: 00 hr 19 min 26 sec)
Heartbeat CPU 0 instructions: 170000001 cycles: 46818939 heartbeat IPC: 3.415 cumulative IPC: 3.497 (Simulation time: 00 hr 20 min 38 sec)
Heartbeat CPU 0 instructions: 180000000 cycles: 49609778 heartbeat IPC: 3.583 cumulative IPC: 3.503 (Simulation time: 00 hr 21 min 41 sec)
Heartbeat CPU 0 instructions: 190000002 cycles: 52317790 heartbeat IPC: 3.693 cumulative IPC: 3.516 (Simulation time: 00 hr 22 min 48 sec)
Heartbeat CPU 0 instructions: 200000002 cycles: 55138349 heartbeat IPC: 3.545 cumulative IPC: 3.518 (Simulation time: 00 hr 24 min 09 sec)
Heartbeat CPU 0 instructions: 210000000 cycles: 58030352 heartbeat IPC: 3.458 cumulative IPC: 3.514 (Simulation time: 00 hr 25 min 47 sec)
Heartbeat CPU 0 instructions: 220000001 cycles: 60782145 heartbeat IPC: 3.634 cumulative IPC: 3.521 (Simulation time: 00 hr 27 min 15 sec)
Heartbeat CPU 0 instructions: 230000002 cycles: 63671555 heartbeat IPC: 3.461 cumulative IPC: 3.518 (Simulation time: 00 hr 28 min 33 sec)
Heartbeat CPU 0 instructions: 240000004 cycles: 66622481 heartbeat IPC: 3.389 cumulative IPC: 3.511 (Simulation time: 00 hr 29 min 49 sec)
Heartbeat CPU 0 instructions: 250000003 cycles: 69512801 heartbeat IPC: 3.46 cumulative IPC: 3.508 (Simulation time: 00 hr 31 min 11 sec)
Heartbeat CPU 0 instructions: 260000001 cycles: 72297068 heartbeat IPC: 3.592 cumulative IPC: 3.512 (Simulation time: 00 hr 32 min 25 sec)
Heartbeat CPU 0 instructions: 270000002 cycles: 78100090 heartbeat IPC: 1.723 cumulative IPC: 3.354 (Simulation time: 00 hr 34 min 06 sec)
Heartbeat CPU 0 instructions: 280000000 cycles: 86726073 heartbeat IPC: 1.159 cumulative IPC: 3.099 (Simulation time: 00 hr 36 min 05 sec)
Heartbeat CPU 0 instructions: 290000000 cycles: 94220158 heartbeat IPC: 1.334 cumulative IPC: 2.937 (Simulation time: 00 hr 38 min 12 sec)
Heartbeat CPU 0 instructions: 300000003 cycles: 99393227 heartbeat IPC: 1.933 cumulative IPC: 2.877 (Simulation time: 00 hr 40 min 12 sec)
Heartbeat CPU 0 instructions: 310000001 cycles: 107420413 heartbeat IPC: 1.246 cumulative IPC: 2.739 (Simulation time: 00 hr 42 min 27 sec)
Heartbeat CPU 0 instructions: 320000004 cycles: 111185035 heartbeat IPC: 2.656 cumulative IPC: 2.736 (Simulation time: 00 hr 44 min 02 sec)
Heartbeat CPU 0 instructions: 330000000 cycles: 114342358 heartbeat IPC: 3.167 cumulative IPC: 2.749 (Simulation time: 00 hr 45 min 20 sec)
Heartbeat CPU 0 instructions: 340000001 cycles: 117510605 heartbeat IPC: 3.156 cumulative IPC: 2.762 (Simulation time: 00 hr 46 min 30 sec)
Heartbeat CPU 0 instructions: 350000000 cycles: 120849712 heartbeat IPC: 2.995 cumulative IPC: 2.769 (Simulation time: 00 hr 47 min 42 sec)
Heartbeat CPU 0 instructions: 360000004 cycles: 123988389 heartbeat IPC: 3.186 cumulative IPC: 2.781 (Simulation time: 00 hr 48 min 49 sec)
Heartbeat CPU 0 instructions: 370000001 cycles: 127079470 heartbeat IPC: 3.235 cumulative IPC: 2.793 (Simulation time: 00 hr 49 min 54 sec)
Heartbeat CPU 0 instructions: 380000004 cycles: 130183243 heartbeat IPC: 3.222 cumulative IPC: 2.804 (Simulation time: 00 hr 51 min 12 sec)
Heartbeat CPU 0 instructions: 390000002 cycles: 133403614 heartbeat IPC: 3.105 cumulative IPC: 2.812 (Simulation time: 00 hr 52 min 48 sec)
Heartbeat CPU 0 instructions: 400000000 cycles: 136694303 heartbeat IPC: 3.039 cumulative IPC: 2.818 (Simulation time: 00 hr 54 min 20 sec)
Heartbeat CPU 0 instructions: 410000000 cycles: 142623451 heartbeat IPC: 1.687 cumulative IPC: 2.767 (Simulation time: 00 hr 56 min 10 sec)
Heartbeat CPU 0 instructions: 420000003 cycles: 151292849 heartbeat IPC: 1.153 cumulative IPC: 2.666 (Simulation time: 00 hr 58 min 23 sec)
Heartbeat CPU 0 instructions: 430000004 cycles: 156810384 heartbeat IPC: 1.812 cumulative IPC: 2.633 (Simulation time: 01 hr 00 min 01 sec)
Heartbeat CPU 0 instructions: 440000004 cycles: 161620539 heartbeat IPC: 2.079 cumulative IPC: 2.615 (Simulation time: 01 hr 01 min 29 sec)
Heartbeat CPU 0 instructions: 450000000 cycles: 166381471 heartbeat IPC: 2.1 cumulative IPC: 2.599 (Simulation time: 01 hr 02 min 56 sec)
Heartbeat CPU 0 instructions: 460000002 cycles: 174375485 heartbeat IPC: 1.251 cumulative IPC: 2.533 (Simulation time: 01 hr 04 min 48 sec)
Heartbeat CPU 0 instructions: 470000003 cycles: 181433919 heartbeat IPC: 1.417 cumulative IPC: 2.486 (Simulation time: 01 hr 06 min 31 sec)
Heartbeat CPU 0 instructions: 480000000 cycles: 184819121 heartbeat IPC: 2.954 cumulative IPC: 2.495 (Simulation time: 01 hr 07 min 39 sec)
Heartbeat CPU 0 instructions: 490000001 cycles: 188439925 heartbeat IPC: 2.762 cumulative IPC: 2.501 (Simulation time: 01 hr 08 min 49 sec)
Heartbeat CPU 0 instructions: 500000002 cycles: 191902270 heartbeat IPC: 2.888 cumulative IPC: 2.508 (Simulation time: 01 hr 09 min 56 sec)
Heartbeat CPU 0 instructions: 510000000 cycles: 195344415 heartbeat IPC: 2.905 cumulative IPC: 2.516 (Simulation time: 01 hr 11 min 05 sec)
Heartbeat CPU 0 instructions: 520000000 cycles: 198827699 heartbeat IPC: 2.871 cumulative IPC: 2.522 (Simulation time: 01 hr 12 min 16 sec)
Heartbeat CPU 0 instructions: 530000001 cycles: 207562042 heartbeat IPC: 1.145 cumulative IPC: 2.461 (Simulation time: 01 hr 14 min 10 sec)
Heartbeat CPU 0 instructions: 540000000 cycles: 215971558 heartbeat IPC: 1.189 cumulative IPC: 2.408 (Simulation time: 01 hr 16 min 04 sec)
Heartbeat CPU 0 instructions: 550000004 cycles: 225784369 heartbeat IPC: 1.019 cumulative IPC: 2.344 (Simulation time: 01 hr 17 min 59 sec)
Heartbeat CPU 0 instructions: 560000004 cycles: 229265717 heartbeat IPC: 2.872 cumulative IPC: 2.353 (Simulation time: 01 hr 19 min 02 sec)
Heartbeat CPU 0 instructions: 570000002 cycles: 232087407 heartbeat IPC: 3.544 cumulative IPC: 2.368 (Simulation time: 01 hr 20 min 06 sec)
Heartbeat CPU 0 instructions: 580000000 cycles: 235012011 heartbeat IPC: 3.419 cumulative IPC: 2.382 (Simulation time: 01 hr 21 min 09 sec)
Heartbeat CPU 0 instructions: 590000001 cycles: 237937988 heartbeat IPC: 3.418 cumulative IPC: 2.395 (Simulation time: 01 hr 21 min 56 sec)
Heartbeat CPU 0 instructions: 600000003 cycles: 240631607 heartbeat IPC: 3.712 cumulative IPC: 2.411 (Simulation time: 01 hr 22 min 44 sec)
Heartbeat CPU 0 instructions: 610000001 cycles: 243496674 heartbeat IPC: 3.49 cumulative IPC: 2.424 (Simulation time: 01 hr 23 min 29 sec)
Heartbeat CPU 0 instructions: 620000004 cycles: 246448455 heartbeat IPC: 3.388 cumulative IPC: 2.436 (Simulation time: 01 hr 24 min 15 sec)
Heartbeat CPU 0 instructions: 630000002 cycles: 249258823 heartbeat IPC: 3.558 cumulative IPC: 2.45 (Simulation time: 01 hr 25 min 01 sec)
Heartbeat CPU 0 instructions: 640000004 cycles: 252307701 heartbeat IPC: 3.28 cumulative IPC: 2.46 (Simulation time: 01 hr 25 min 48 sec)
Heartbeat CPU 0 instructions: 650000001 cycles: 255017605 heartbeat IPC: 3.69 cumulative IPC: 2.474 (Simulation time: 01 hr 26 min 34 sec)
Simulation finished CPU 0 instructions: 600000001 cycles: 242517544 cumulative IPC: 2.474 (Simulation time: 01 hr 26 min 34 sec)
Simulation complete CPU 0 instructions: 600000001 cycles: 242517544 cumulative IPC: 2.474 (Simulation time: 01 hr 26 min 34 sec)

ChampSim completed all CPUs

=== Simulation ===
CPU 0 runs traces/400.perlbench-50B.champsimtrace.xz
Region of Interest Statistics

CPU 0 cumulative IPC: 2.474 instructions: 600000001 cycles: 242517544
CPU 0 Branch Prediction Accuracy: 99.01% MPKI: 2.04 Average ROB Occupancy at Mispredict: 94.45
Branch type MPKI
BRANCH_DIRECT_JUMP: 0.0176
BRANCH_INDIRECT: 0.38
BRANCH_CONDITIONAL: 1.19
BRANCH_DIRECT_CALL: 0.0067
BRANCH_INDIRECT_CALL: 0.431
BRANCH_RETURN: 0.0161

LLC TOTAL        ACCESS:     769441 HIT:     472335 MISS:     297106
LLC LOAD         ACCESS:     572460 HIT:     306101 MISS:     266359
LLC RFO          ACCESS:      46692 HIT:      28037 MISS:      18655
LLC PREFETCH     ACCESS:          0 HIT:          0 MISS:          0
LLC WRITE        ACCESS:     128282 HIT:     128089 MISS:        193
LLC TRANSLATION  ACCESS:      22007 HIT:      10108 MISS:      11899
LLC PREFETCH REQUESTED:          0 ISSUED:          0 USEFUL:          0 USELESS:          0
LLC AVERAGE MISS LATENCY: 593.3 cycles
cpu0_DTLB TOTAL        ACCESS:  133215841 HIT:  131863282 MISS:    1352559
cpu0_DTLB LOAD         ACCESS:  133215841 HIT:  131863282 MISS:    1352559
cpu0_DTLB RFO          ACCESS:          0 HIT:          0 MISS:          0
cpu0_DTLB PREFETCH     ACCESS:          0 HIT:          0 MISS:          0
cpu0_DTLB WRITE        ACCESS:          0 HIT:          0 MISS:          0
cpu0_DTLB TRANSLATION  ACCESS:          0 HIT:          0 MISS:          0
cpu0_DTLB PREFETCH REQUESTED:          0 ISSUED:          0 USEFUL:          0 USELESS:          0
cpu0_DTLB AVERAGE MISS LATENCY: 11.66 cycles
cpu0_ITLB TOTAL        ACCESS:    8998987 HIT:    8789482 MISS:     209505
cpu0_ITLB LOAD         ACCESS:    8998987 HIT:    8789482 MISS:     209505
cpu0_ITLB RFO          ACCESS:          0 HIT:          0 MISS:          0
cpu0_ITLB PREFETCH     ACCESS:          0 HIT:          0 MISS:          0
cpu0_ITLB WRITE        ACCESS:          0 HIT:          0 MISS:          0
cpu0_ITLB TRANSLATION  ACCESS:          0 HIT:          0 MISS:          0
cpu0_ITLB PREFETCH REQUESTED:          0 ISSUED:          0 USEFUL:          0 USELESS:          0
cpu0_ITLB AVERAGE MISS LATENCY: 2.909 cycles
cpu0_L1D TOTAL        ACCESS:  178267926 HIT:  175271731 MISS:    2996195
cpu0_L1D LOAD         ACCESS:   92750659 HIT:   90286487 MISS:    2464172
cpu0_L1D RFO          ACCESS:          0 HIT:          0 MISS:          0
cpu0_L1D PREFETCH     ACCESS:          0 HIT:          0 MISS:          0
cpu0_L1D WRITE        ACCESS:   85488736 HIT:   84983240 MISS:     505496
cpu0_L1D TRANSLATION  ACCESS:      28531 HIT:       2004 MISS:      26527
cpu0_L1D PREFETCH REQUESTED:          0 ISSUED:          0 USEFUL:          0 USELESS:          0
cpu0_L1D AVERAGE MISS LATENCY: 61.27 cycles
cpu0_L1I TOTAL        ACCESS:   10518032 HIT:    8619593 MISS:    1898439
cpu0_L1I LOAD         ACCESS:   10518032 HIT:    8619593 MISS:    1898439
cpu0_L1I RFO          ACCESS:          0 HIT:          0 MISS:          0
cpu0_L1I PREFETCH     ACCESS:          0 HIT:          0 MISS:          0
cpu0_L1I WRITE        ACCESS:          0 HIT:          0 MISS:          0
cpu0_L1I TRANSLATION  ACCESS:          0 HIT:          0 MISS:          0
cpu0_L1I PREFETCH REQUESTED:          0 ISSUED:          0 USEFUL:          0 USELESS:          0
cpu0_L1I AVERAGE MISS LATENCY: 9.913 cycles
cpu0_L2C TOTAL        ACCESS:    3236026 HIT:    2588893 MISS:     647133
cpu0_L2C LOAD         ACCESS:    2709089 HIT:    2136628 MISS:     572461
cpu0_L2C RFO          ACCESS:     135534 HIT:      88841 MISS:      46693
cpu0_L2C PREFETCH     ACCESS:          0 HIT:          0 MISS:          0
cpu0_L2C WRITE        ACCESS:     364956 HIT:     358984 MISS:       5972
cpu0_L2C TRANSLATION  ACCESS:      26447 HIT:       4440 MISS:      22007
cpu0_L2C PREFETCH REQUESTED:          0 ISSUED:          0 USEFUL:          0 USELESS:          0
cpu0_L2C AVERAGE MISS LATENCY: 292.7 cycles
cpu0_STLB TOTAL        ACCESS:    1009666 HIT:     982975 MISS:      26691
cpu0_STLB LOAD         ACCESS:    1009666 HIT:     982975 MISS:      26691
cpu0_STLB RFO          ACCESS:          0 HIT:          0 MISS:          0
cpu0_STLB PREFETCH     ACCESS:          0 HIT:          0 MISS:          0
cpu0_STLB WRITE        ACCESS:          0 HIT:          0 MISS:          0
cpu0_STLB TRANSLATION  ACCESS:          0 HIT:          0 MISS:          0
cpu0_STLB PREFETCH REQUESTED:          0 ISSUED:          0 USEFUL:          0 USELESS:          0
cpu0_STLB AVERAGE MISS LATENCY: 388.4 cycles

DRAM Statistics

Channel 0 RQ ROW_BUFFER_HIT:      65925
  ROW_BUFFER_MISS:     230964
 AVG DBUS CONGESTED CYCLE: 3.819
WQ ROW_BUFFER_HIT: Channel 0 
  ROW_BUFFER_MISS:       5121
  FULL:      32757
