WARNING: physical memory size is smaller than virtual memory size.

*** ChampSim Multicore Out-of-Order Simulator ***
Warmup Instructions: 50000000
Simulation Instructions: 600000000
Number of CPUs: 1
Page size: 4096

Off-chip DRAM Size: 4 GiB Channels: 1 Width: 64-bit Data Race: 3200 MT/s
Heartbeat CPU 0 instructions: 10000000 cycles: 2500061 heartbeat IPC: 4 cumulative IPC: 4 (Simulation time: 00 hr 00 min 57 sec)
Heartbeat CPU 0 instructions: 20000000 cycles: 5000061 heartbeat IPC: 4 cumulative IPC: 4 (Simulation time: 00 hr 02 min 04 sec)
Heartbeat CPU 0 instructions: 30000000 cycles: 7500061 heartbeat IPC: 4 cumulative IPC: 4 (Simulation time: 00 hr 03 min 05 sec)
Heartbeat CPU 0 instructions: 40000000 cycles: 10000061 heartbeat IPC: 4 cumulative IPC: 4 (Simulation time: 00 hr 04 min 02 sec)
Heartbeat CPU 0 instructions: 50000000 cycles: 12500061 heartbeat IPC: 4 cumulative IPC: 4 (Simulation time: 00 hr 04 min 54 sec)
Warmup finished CPU 0 instructions: 50000000 cycles: 12500062 cumulative IPC: 4 (Simulation time: 00 hr 04 min 54 sec)
Warmup complete CPU 0 instructions: 50000000 cycles: 12500062 cumulative IPC: 4 (Simulation time: 00 hr 04 min 54 sec)
Heartbeat CPU 0 instructions: 60000002 cycles: 16435451 heartbeat IPC: 2.541 cumulative IPC: 2.541 (Simulation time: 00 hr 06 min 05 sec)
Heartbeat CPU 0 instructions: 70000003 cycles: 20748814 heartbeat IPC: 2.318 cumulative IPC: 2.425 (Simulation time: 00 hr 07 min 24 sec)
Heartbeat CPU 0 instructions: 80000003 cycles: 25212047 heartbeat IPC: 2.241 cumulative IPC: 2.36 (Simulation time: 00 hr 08 min 42 sec)
Heartbeat CPU 0 instructions: 90000000 cycles: 28901952 heartbeat IPC: 2.71 cumulative IPC: 2.439 (Simulation time: 00 hr 09 min 51 sec)
Heartbeat CPU 0 instructions: 100000003 cycles: 32796051 heartbeat IPC: 2.568 cumulative IPC: 2.464 (Simulation time: 00 hr 10 min 57 sec)
Heartbeat CPU 0 instructions: 110000002 cycles: 36887380 heartbeat IPC: 2.444 cumulative IPC: 2.46 (Simulation time: 00 hr 12 min 00 sec)
Heartbeat CPU 0 instructions: 120000001 cycles: 40600339 heartbeat IPC: 2.693 cumulative IPC: 2.491 (Simulation time: 00 hr 13 min 01 sec)
Heartbeat CPU 0 instructions: 130000003 cycles: 44364917 heartbeat IPC: 2.656 cumulative IPC: 2.511 (Simulation time: 00 hr 14 min 11 sec)
Heartbeat CPU 0 instructions: 140000002 cycles: 48489994 heartbeat IPC: 2.424 cumulative IPC: 2.501 (Simulation time: 00 hr 15 min 41 sec)
Heartbeat CPU 0 instructions: 150000001 cycles: 52534004 heartbeat IPC: 2.473 cumulative IPC: 2.498 (Simulation time: 00 hr 17 min 03 sec)
Heartbeat CPU 0 instructions: 160000000 cycles: 56183103 heartbeat IPC: 2.74 cumulative IPC: 2.518 (Simulation time: 00 hr 18 min 18 sec)
Heartbeat CPU 0 instructions: 170000001 cycles: 60348403 heartbeat IPC: 2.401 cumulative IPC: 2.508 (Simulation time: 00 hr 19 min 31 sec)
Heartbeat CPU 0 instructions: 180000001 cycles: 63804167 heartbeat IPC: 2.894 cumulative IPC: 2.534 (Simulation time: 00 hr 20 min 36 sec)
Heartbeat CPU 0 instructions: 190000002 cycles: 67381127 heartbeat IPC: 2.796 cumulative IPC: 2.551 (Simulation time: 00 hr 21 min 48 sec)
Heartbeat CPU 0 instructions: 200000002 cycles: 71152355 heartbeat IPC: 2.652 cumulative IPC: 2.557 (Simulation time: 00 hr 22 min 57 sec)
Heartbeat CPU 0 instructions: 210000000 cycles: 74788813 heartbeat IPC: 2.75 cumulative IPC: 2.569 (Simulation time: 00 hr 24 min 03 sec)
Heartbeat CPU 0 instructions: 220000001 cycles: 78656849 heartbeat IPC: 2.585 cumulative IPC: 2.57 (Simulation time: 00 hr 25 min 08 sec)
Heartbeat CPU 0 instructions: 230000002 cycles: 82494000 heartbeat IPC: 2.606 cumulative IPC: 2.572 (Simulation time: 00 hr 26 min 07 sec)
Heartbeat CPU 0 instructions: 240000001 cycles: 86697834 heartbeat IPC: 2.379 cumulative IPC: 2.561 (Simulation time: 00 hr 27 min 10 sec)
Heartbeat CPU 0 instructions: 250000003 cycles: 91263269 heartbeat IPC: 2.19 cumulative IPC: 2.539 (Simulation time: 00 hr 28 min 29 sec)
Heartbeat CPU 0 instructions: 260000000 cycles: 95058807 heartbeat IPC: 2.635 cumulative IPC: 2.544 (Simulation time: 00 hr 29 min 47 sec)
Heartbeat CPU 0 instructions: 270000003 cycles: 102136002 heartbeat IPC: 1.413 cumulative IPC: 2.454 (Simulation time: 00 hr 31 min 26 sec)
Heartbeat CPU 0 instructions: 280000000 cycles: 114755065 heartbeat IPC: 0.7925 cumulative IPC: 2.249 (Simulation time: 00 hr 33 min 44 sec)
Heartbeat CPU 0 instructions: 290000000 cycles: 127693948 heartbeat IPC: 0.7729 cumulative IPC: 2.083 (Simulation time: 00 hr 36 min 02 sec)
Heartbeat CPU 0 instructions: 300000003 cycles: 136439386 heartbeat IPC: 1.143 cumulative IPC: 2.017 (Simulation time: 00 hr 37 min 50 sec)
Heartbeat CPU 0 instructions: 310000004 cycles: 148765111 heartbeat IPC: 0.8113 cumulative IPC: 1.908 (Simulation time: 00 hr 40 min 20 sec)
Heartbeat CPU 0 instructions: 320000004 cycles: 154375943 heartbeat IPC: 1.782 cumulative IPC: 1.903 (Simulation time: 00 hr 42 min 07 sec)
Heartbeat CPU 0 instructions: 330000000 cycles: 158456289 heartbeat IPC: 2.451 cumulative IPC: 1.918 (Simulation time: 00 hr 43 min 29 sec)
Heartbeat CPU 0 instructions: 340000001 cycles: 162809625 heartbeat IPC: 2.297 cumulative IPC: 1.929 (Simulation time: 00 hr 44 min 40 sec)
Heartbeat CPU 0 instructions: 350000004 cycles: 167252383 heartbeat IPC: 2.251 cumulative IPC: 1.939 (Simulation time: 00 hr 45 min 49 sec)
Heartbeat CPU 0 instructions: 360000003 cycles: 171379251 heartbeat IPC: 2.423 cumulative IPC: 1.951 (Simulation time: 00 hr 47 min 00 sec)
Heartbeat CPU 0 instructions: 370000001 cycles: 175327773 heartbeat IPC: 2.533 cumulative IPC: 1.965 (Simulation time: 00 hr 48 min 07 sec)
Heartbeat CPU 0 instructions: 380000004 cycles: 179123530 heartbeat IPC: 2.635 cumulative IPC: 1.981 (Simulation time: 00 hr 49 min 11 sec)
Heartbeat CPU 0 instructions: 390000002 cycles: 183227307 heartbeat IPC: 2.437 cumulative IPC: 1.991 (Simulation time: 00 hr 50 min 16 sec)
Heartbeat CPU 0 instructions: 400000000 cycles: 187602923 heartbeat IPC: 2.285 cumulative IPC: 1.999 (Simulation time: 00 hr 51 min 21 sec)
Heartbeat CPU 0 instructions: 410000000 cycles: 195813152 heartbeat IPC: 1.218 cumulative IPC: 1.964 (Simulation time: 00 hr 53 min 10 sec)
Heartbeat CPU 0 instructions: 420000003 cycles: 207249575 heartbeat IPC: 0.8744 cumulative IPC: 1.9 (Simulation time: 00 hr 55 min 49 sec)
Heartbeat CPU 0 instructions: 430000000 cycles: 215276432 heartbeat IPC: 1.246 cumulative IPC: 1.874 (Simulation time: 00 hr 57 min 46 sec)
Heartbeat CPU 0 instructions: 440000004 cycles: 223297029 heartbeat IPC: 1.247 cumulative IPC: 1.85 (Simulation time: 00 hr 59 min 39 sec)
Heartbeat CPU 0 instructions: 450000000 cycles: 231281541 heartbeat IPC: 1.252 cumulative IPC: 1.828 (Simulation time: 01 hr 01 min 30 sec)
Heartbeat CPU 0 instructions: 460000002 cycles: 244229579 heartbeat IPC: 0.7723 cumulative IPC: 1.769 (Simulation time: 01 hr 03 min 54 sec)
Heartbeat CPU 0 instructions: 470000003 cycles: 254517349 heartbeat IPC: 0.972 cumulative IPC: 1.735 (Simulation time: 01 hr 06 min 05 sec)
Heartbeat CPU 0 instructions: 480000003 cycles: 258840931 heartbeat IPC: 2.313 cumulative IPC: 1.746 (Simulation time: 01 hr 07 min 37 sec)
Heartbeat CPU 0 instructions: 490000001 cycles: 263383413 heartbeat IPC: 2.201 cumulative IPC: 1.754 (Simulation time: 01 hr 08 min 58 sec)
Heartbeat CPU 0 instructions: 500000002 cycles: 267673419 heartbeat IPC: 2.331 cumulative IPC: 1.764 (Simulation time: 01 hr 10 min 12 sec)
Heartbeat CPU 0 instructions: 510000000 cycles: 271748595 heartbeat IPC: 2.454 cumulative IPC: 1.774 (Simulation time: 01 hr 11 min 23 sec)
Heartbeat CPU 0 instructions: 520000000 cycles: 276015891 heartbeat IPC: 2.343 cumulative IPC: 1.784 (Simulation time: 01 hr 12 min 35 sec)
Heartbeat CPU 0 instructions: 530000001 cycles: 287713031 heartbeat IPC: 0.8549 cumulative IPC: 1.744 (Simulation time: 01 hr 14 min 46 sec)
Heartbeat CPU 0 instructions: 540000000 cycles: 299361611 heartbeat IPC: 0.8585 cumulative IPC: 1.708 (Simulation time: 01 hr 16 min 51 sec)
Heartbeat CPU 0 instructions: 550000004 cycles: 313438131 heartbeat IPC: 0.7104 cumulative IPC: 1.661 (Simulation time: 01 hr 19 min 15 sec)
Heartbeat CPU 0 instructions: 560000004 cycles: 317839416 heartbeat IPC: 2.272 cumulative IPC: 1.67 (Simulation time: 01 hr 20 min 42 sec)
Heartbeat CPU 0 instructions: 570000001 cycles: 320972841 heartbeat IPC: 3.191 cumulative IPC: 1.686 (Simulation time: 01 hr 21 min 56 sec)
Heartbeat CPU 0 instructions: 580000003 cycles: 324515388 heartbeat IPC: 2.823 cumulative IPC: 1.699 (Simulation time: 01 hr 23 min 08 sec)
Heartbeat CPU 0 instructions: 590000002 cycles: 328144863 heartbeat IPC: 2.755 cumulative IPC: 1.711 (Simulation time: 01 hr 24 min 16 sec)
Heartbeat CPU 0 instructions: 600000003 cycles: 331213581 heartbeat IPC: 3.259 cumulative IPC: 1.726 (Simulation time: 01 hr 25 min 20 sec)
Heartbeat CPU 0 instructions: 610000001 cycles: 334725662 heartbeat IPC: 2.847 cumulative IPC: 1.738 (Simulation time: 01 hr 26 min 30 sec)
Heartbeat CPU 0 instructions: 620000000 cycles: 338743065 heartbeat IPC: 2.489 cumulative IPC: 1.747 (Simulation time: 01 hr 27 min 43 sec)
Heartbeat CPU 0 instructions: 630000002 cycles: 342111419 heartbeat IPC: 2.969 cumulative IPC: 1.76 (Simulation time: 01 hr 28 min 43 sec)
Heartbeat CPU 0 instructions: 640000004 cycles: 346120052 heartbeat IPC: 2.495 cumulative IPC: 1.768 (Simulation time: 01 hr 29 min 46 sec)
Heartbeat CPU 0 instructions: 650000001 cycles: 349939976 heartbeat IPC: 2.618 cumulative IPC: 1.778 (Simulation time: 01 hr 30 min 55 sec)
Simulation finished CPU 0 instructions: 600000001 cycles: 337439915 cumulative IPC: 1.778 (Simulation time: 01 hr 30 min 55 sec)
Simulation complete CPU 0 instructions: 600000001 cycles: 337439915 cumulative IPC: 1.778 (Simulation time: 01 hr 30 min 55 sec)

ChampSim completed all CPUs

=== Simulation ===
CPU 0 runs traces/400.perlbench-50B.champsimtrace.xz
Region of Interest Statistics

CPU 0 cumulative IPC: 1.778 instructions: 600000001 cycles: 337439915
CPU 0 Branch Prediction Accuracy: 96.2% MPKI: 7.839 Average ROB Occupancy at Mispredict: 43.84
Branch type MPKI
BRANCH_DIRECT_JUMP: 0.0176
BRANCH_INDIRECT: 0.38
BRANCH_CONDITIONAL: 6.99
BRANCH_DIRECT_CALL: 0.0067
BRANCH_INDIRECT_CALL: 0.431
BRANCH_RETURN: 0.0161

LLC TOTAL        ACCESS:    1351386 HIT:     743385 MISS:     608001
LLC LOAD         ACCESS:     576404 HIT:     324860 MISS:     251544
LLC RFO          ACCESS:      47417 HIT:      23485 MISS:      23932
LLC PREFETCH     ACCESS:     576404 HIT:     309300 MISS:     267104
LLC WRITE        ACCESS:     129191 HIT:      84013 MISS:      45178
LLC TRANSLATION  ACCESS:      21970 HIT:       1727 MISS:      20243
LLC PREFETCH REQUESTED:     576404 ISSUED:     576404 USEFUL:      66916 USELESS:     142031
LLC AVERAGE MISS LATENCY: 507 cycles
cpu0_DTLB TOTAL        ACCESS:  146457421 HIT:  145152635 MISS:    1304786
cpu0_DTLB LOAD         ACCESS:  146457421 HIT:  145152635 MISS:    1304786
cpu0_DTLB RFO          ACCESS:          0 HIT:          0 MISS:          0
cpu0_DTLB PREFETCH     ACCESS:          0 HIT:          0 MISS:          0
cpu0_DTLB WRITE        ACCESS:          0 HIT:          0 MISS:          0
cpu0_DTLB TRANSLATION  ACCESS:          0 HIT:          0 MISS:          0
cpu0_DTLB PREFETCH REQUESTED:          0 ISSUED:          0 USEFUL:          0 USELESS:          0
cpu0_DTLB AVERAGE MISS LATENCY: 16.67 cycles
cpu0_ITLB TOTAL        ACCESS:    8985774 HIT:    8801295 MISS:     184479
cpu0_ITLB LOAD         ACCESS:    8985774 HIT:    8801295 MISS:     184479
cpu0_ITLB RFO          ACCESS:          0 HIT:          0 MISS:          0
cpu0_ITLB PREFETCH     ACCESS:          0 HIT:          0 MISS:          0
cpu0_ITLB WRITE        ACCESS:          0 HIT:          0 MISS:          0
cpu0_ITLB TRANSLATION  ACCESS:          0 HIT:          0 MISS:          0
cpu0_ITLB PREFETCH REQUESTED:          0 ISSUED:          0 USEFUL:          0 USELESS:          0
cpu0_ITLB AVERAGE MISS LATENCY: 4.475 cycles
cpu0_L1D TOTAL        ACCESS:  193260403 HIT:  190366091 MISS:    2894312
cpu0_L1D LOAD         ACCESS:  107412840 HIT:  105034292 MISS:    2378548
cpu0_L1D RFO          ACCESS:          0 HIT:          0 MISS:          0
cpu0_L1D PREFETCH     ACCESS:          0 HIT:          0 MISS:          0
cpu0_L1D WRITE        ACCESS:   85819044 HIT:   85329790 MISS:     489254
cpu0_L1D TRANSLATION  ACCESS:      28519 HIT:       2009 MISS:      26510
cpu0_L1D PREFETCH REQUESTED:          0 ISSUED:          0 USEFUL:          0 USELESS:          0
cpu0_L1D AVERAGE MISS LATENCY: 64.28 cycles
cpu0_L1I TOTAL        ACCESS:   10420263 HIT:    8658700 MISS:    1761563
cpu0_L1I LOAD         ACCESS:   10420263 HIT:    8658700 MISS:    1761563
cpu0_L1I RFO          ACCESS:          0 HIT:          0 MISS:          0
cpu0_L1I PREFETCH     ACCESS:          0 HIT:          0 MISS:          0
cpu0_L1I WRITE        ACCESS:          0 HIT:          0 MISS:          0
cpu0_L1I TRANSLATION  ACCESS:          0 HIT:          0 MISS:          0
cpu0_L1I PREFETCH REQUESTED:          0 ISSUED:          0 USEFUL:          0 USELESS:          0
cpu0_L1I AVERAGE MISS LATENCY: 13.84 cycles
cpu0_L2C TOTAL        ACCESS:    3232181 HIT:    2580338 MISS:     651843
cpu0_L2C LOAD         ACCESS:    2710090 HIT:    2133686 MISS:     576404
cpu0_L2C RFO          ACCESS:     133264 HIT:      85847 MISS:      47417
cpu0_L2C PREFETCH     ACCESS:          0 HIT:          0 MISS:          0
cpu0_L2C WRITE        ACCESS:     362391 HIT:     356339 MISS:       6052
cpu0_L2C TRANSLATION  ACCESS:      26436 HIT:       4466 MISS:      21970
cpu0_L2C PREFETCH REQUESTED:          0 ISSUED:          0 USEFUL:          0 USELESS:          0
cpu0_L2C AVERAGE MISS LATENCY: 289.7 cycles
cpu0_STLB TOTAL        ACCESS:    1008548 HIT:     981856 MISS:      26692
cpu0_STLB LOAD         ACCESS:    1008548 HIT:     981856 MISS:      26692
cpu0_STLB RFO          ACCESS:          0 HIT:          0 MISS:          0
cpu0_STLB PREFETCH     ACCESS:          0 HIT:          0 MISS:          0
cpu0_STLB WRITE        ACCESS:          0 HIT:          0 MISS:          0
cpu0_STLB TRANSLATION  ACCESS:          0 HIT:          0 MISS:          0
cpu0_STLB PREFETCH REQUESTED:          0 ISSUED:          0 USEFUL:          0 USELESS:          0
cpu0_STLB AVERAGE MISS LATENCY: 609.4 cycles

DRAM Statistics

Channel 0 RQ ROW_BUFFER_HIT:      81882
  ROW_BUFFER_MISS:     403892
 AVG DBUS CONGESTED CYCLE: 3.873
WQ ROW_BUFFER_HIT: Channel 0 
  ROW_BUFFER_MISS:      11377
  FULL:      45666
