WARNING: physical memory size is smaller than virtual memory size.

*** ChampSim Multicore Out-of-Order Simulator ***
Warmup Instructions: 50000000
Simulation Instructions: 600000000
Number of CPUs: 1
Page size: 4096

Off-chip DRAM Size: 4 GiB Channels: 1 Width: 64-bit Data Race: 3200 MT/s
Heartbeat CPU 0 instructions: 10000001 cycles: 2500318 heartbeat IPC: 3.999 cumulative IPC: 3.999 (Simulation time: 00 hr 03 min 50 sec)
Heartbeat CPU 0 instructions: 20000002 cycles: 5037121 heartbeat IPC: 3.942 cumulative IPC: 3.971 (Simulation time: 00 hr 07 min 25 sec)
Heartbeat CPU 0 instructions: 30000002 cycles: 7537121 heartbeat IPC: 4 cumulative IPC: 3.98 (Simulation time: 00 hr 10 min 49 sec)
Heartbeat CPU 0 instructions: 40000002 cycles: 10037121 heartbeat IPC: 4 cumulative IPC: 3.985 (Simulation time: 00 hr 14 min 03 sec)
Heartbeat CPU 0 instructions: 50000002 cycles: 12537121 heartbeat IPC: 4 cumulative IPC: 3.988 (Simulation time: 00 hr 17 min 18 sec)
Warmup finished CPU 0 instructions: 50000002 cycles: 12537122 cumulative IPC: 3.988 (Simulation time: 00 hr 17 min 18 sec)
Warmup complete CPU 0 instructions: 50000002 cycles: 12537122 cumulative IPC: 3.988 (Simulation time: 00 hr 17 min 18 sec)
Heartbeat CPU 0 instructions: 60000000 cycles: 17145526 heartbeat IPC: 2.17 cumulative IPC: 2.17 (Simulation time: 00 hr 22 min 16 sec)
Heartbeat CPU 0 instructions: 70000004 cycles: 21427531 heartbeat IPC: 2.335 cumulative IPC: 2.25 (Simulation time: 00 hr 26 min 56 sec)
Heartbeat CPU 0 instructions: 80000001 cycles: 26019239 heartbeat IPC: 2.178 cumulative IPC: 2.225 (Simulation time: 00 hr 31 min 40 sec)
Heartbeat CPU 0 instructions: 90000001 cycles: 30142113 heartbeat IPC: 2.425 cumulative IPC: 2.272 (Simulation time: 00 hr 36 min 12 sec)
Heartbeat CPU 0 instructions: 100000000 cycles: 34185621 heartbeat IPC: 2.473 cumulative IPC: 2.31 (Simulation time: 00 hr 40 min 43 sec)
Heartbeat CPU 0 instructions: 110000000 cycles: 38414358 heartbeat IPC: 2.365 cumulative IPC: 2.319 (Simulation time: 00 hr 45 min 17 sec)
Heartbeat CPU 0 instructions: 120000001 cycles: 42424895 heartbeat IPC: 2.493 cumulative IPC: 2.342 (Simulation time: 00 hr 49 min 47 sec)
Heartbeat CPU 0 instructions: 130000001 cycles: 46159291 heartbeat IPC: 2.678 cumulative IPC: 2.379 (Simulation time: 00 hr 54 min 11 sec)
Heartbeat CPU 0 instructions: 140000001 cycles: 50334697 heartbeat IPC: 2.395 cumulative IPC: 2.381 (Simulation time: 00 hr 58 min 44 sec)
Heartbeat CPU 0 instructions: 150000001 cycles: 54536413 heartbeat IPC: 2.38 cumulative IPC: 2.381 (Simulation time: 01 hr 03 min 19 sec)
Heartbeat CPU 0 instructions: 160000004 cycles: 58966535 heartbeat IPC: 2.257 cumulative IPC: 2.369 (Simulation time: 01 hr 08 min 00 sec)
Heartbeat CPU 0 instructions: 170000000 cycles: 66914662 heartbeat IPC: 1.258 cumulative IPC: 2.207 (Simulation time: 01 hr 14 min 58 sec)
Heartbeat CPU 0 instructions: 180000004 cycles: 73868429 heartbeat IPC: 1.438 cumulative IPC: 2.12 (Simulation time: 01 hr 21 min 30 sec)
Heartbeat CPU 0 instructions: 190000001 cycles: 82114316 heartbeat IPC: 1.213 cumulative IPC: 2.012 (Simulation time: 01 hr 28 min 45 sec)
Heartbeat CPU 0 instructions: 200000004 cycles: 85856154 heartbeat IPC: 2.672 cumulative IPC: 2.046 (Simulation time: 01 hr 33 min 07 sec)
Heartbeat CPU 0 instructions: 210000001 cycles: 89741508 heartbeat IPC: 2.574 cumulative IPC: 2.072 (Simulation time: 01 hr 37 min 34 sec)
Heartbeat CPU 0 instructions: 220000000 cycles: 93685328 heartbeat IPC: 2.536 cumulative IPC: 2.095 (Simulation time: 01 hr 42 min 03 sec)
Heartbeat CPU 0 instructions: 230000002 cycles: 98332698 heartbeat IPC: 2.152 cumulative IPC: 2.098 (Simulation time: 01 hr 46 min 55 sec)
Heartbeat CPU 0 instructions: 240000000 cycles: 102525669 heartbeat IPC: 2.385 cumulative IPC: 2.111 (Simulation time: 01 hr 51 min 32 sec)
Heartbeat CPU 0 instructions: 250000000 cycles: 106841653 heartbeat IPC: 2.317 cumulative IPC: 2.121 (Simulation time: 01 hr 56 min 12 sec)
Heartbeat CPU 0 instructions: 260000000 cycles: 111012616 heartbeat IPC: 2.398 cumulative IPC: 2.133 (Simulation time: 02 hr 00 min 45 sec)
Heartbeat CPU 0 instructions: 270000002 cycles: 114859005 heartbeat IPC: 2.6 cumulative IPC: 2.15 (Simulation time: 02 hr 05 min 09 sec)
Heartbeat CPU 0 instructions: 280000002 cycles: 119025133 heartbeat IPC: 2.4 cumulative IPC: 2.16 (Simulation time: 02 hr 09 min 42 sec)
Heartbeat CPU 0 instructions: 290000001 cycles: 122933761 heartbeat IPC: 2.558 cumulative IPC: 2.174 (Simulation time: 02 hr 14 min 09 sec)
Heartbeat CPU 0 instructions: 300000003 cycles: 126768401 heartbeat IPC: 2.608 cumulative IPC: 2.189 (Simulation time: 02 hr 18 min 37 sec)
Heartbeat CPU 0 instructions: 310000001 cycles: 130912552 heartbeat IPC: 2.413 cumulative IPC: 2.196 (Simulation time: 02 hr 23 min 11 sec)
Heartbeat CPU 0 instructions: 320000003 cycles: 135008281 heartbeat IPC: 2.442 cumulative IPC: 2.205 (Simulation time: 02 hr 27 min 43 sec)
Heartbeat CPU 0 instructions: 330000003 cycles: 139433648 heartbeat IPC: 2.26 cumulative IPC: 2.207 (Simulation time: 02 hr 32 min 27 sec)
Heartbeat CPU 0 instructions: 340000000 cycles: 147673027 heartbeat IPC: 1.214 cumulative IPC: 2.146 (Simulation time: 02 hr 39 min 35 sec)
Heartbeat CPU 0 instructions: 350000000 cycles: 154936267 heartbeat IPC: 1.377 cumulative IPC: 2.107 (Simulation time: 02 hr 46 min 14 sec)
Heartbeat CPU 0 instructions: 360000004 cycles: 163424134 heartbeat IPC: 1.178 cumulative IPC: 2.055 (Simulation time: 02 hr 53 min 34 sec)
Heartbeat CPU 0 instructions: 370000000 cycles: 166834768 heartbeat IPC: 2.932 cumulative IPC: 2.074 (Simulation time: 02 hr 57 min 42 sec)
Heartbeat CPU 0 instructions: 380000001 cycles: 170227881 heartbeat IPC: 2.947 cumulative IPC: 2.093 (Simulation time: 03 hr 01 min 53 sec)
Heartbeat CPU 0 instructions: 390000004 cycles: 173955815 heartbeat IPC: 2.682 cumulative IPC: 2.106 (Simulation time: 03 hr 06 min 12 sec)
Heartbeat CPU 0 instructions: 400000004 cycles: 177755547 heartbeat IPC: 2.632 cumulative IPC: 2.118 (Simulation time: 03 hr 10 min 33 sec)
Heartbeat CPU 0 instructions: 410000001 cycles: 181398066 heartbeat IPC: 2.745 cumulative IPC: 2.132 (Simulation time: 03 hr 14 min 53 sec)
Heartbeat CPU 0 instructions: 420000003 cycles: 185427597 heartbeat IPC: 2.482 cumulative IPC: 2.14 (Simulation time: 03 hr 19 min 29 sec)
Heartbeat CPU 0 instructions: 430000001 cycles: 189093869 heartbeat IPC: 2.728 cumulative IPC: 2.152 (Simulation time: 03 hr 23 min 51 sec)
Heartbeat CPU 0 instructions: 440000004 cycles: 193178318 heartbeat IPC: 2.448 cumulative IPC: 2.159 (Simulation time: 03 hr 28 min 25 sec)
Heartbeat CPU 0 instructions: 450000002 cycles: 196906657 heartbeat IPC: 2.682 cumulative IPC: 2.17 (Simulation time: 03 hr 32 min 46 sec)
Heartbeat CPU 0 instructions: 460000000 cycles: 200577066 heartbeat IPC: 2.724 cumulative IPC: 2.18 (Simulation time: 03 hr 37 min 05 sec)
Heartbeat CPU 0 instructions: 470000000 cycles: 204045872 heartbeat IPC: 2.883 cumulative IPC: 2.193 (Simulation time: 03 hr 41 min 19 sec)
Heartbeat CPU 0 instructions: 480000003 cycles: 207885659 heartbeat IPC: 2.604 cumulative IPC: 2.201 (Simulation time: 03 hr 45 min 41 sec)
Heartbeat CPU 0 instructions: 490000000 cycles: 211517379 heartbeat IPC: 2.754 cumulative IPC: 2.211 (Simulation time: 03 hr 49 min 56 sec)
Heartbeat CPU 0 instructions: 500000000 cycles: 215224588 heartbeat IPC: 2.697 cumulative IPC: 2.22 (Simulation time: 03 hr 54 min 15 sec)
Heartbeat CPU 0 instructions: 510000003 cycles: 218927654 heartbeat IPC: 2.7 cumulative IPC: 2.229 (Simulation time: 03 hr 58 min 34 sec)
Heartbeat CPU 0 instructions: 520000001 cycles: 222344195 heartbeat IPC: 2.927 cumulative IPC: 2.24 (Simulation time: 04 hr 02 min 48 sec)
Heartbeat CPU 0 instructions: 530000002 cycles: 226057983 heartbeat IPC: 2.693 cumulative IPC: 2.248 (Simulation time: 04 hr 07 min 07 sec)
Heartbeat CPU 0 instructions: 540000000 cycles: 229598117 heartbeat IPC: 2.825 cumulative IPC: 2.257 (Simulation time: 04 hr 11 min 24 sec)
Heartbeat CPU 0 instructions: 550000001 cycles: 233301807 heartbeat IPC: 2.7 cumulative IPC: 2.265 (Simulation time: 04 hr 15 min 43 sec)
Heartbeat CPU 0 instructions: 560000000 cycles: 237340578 heartbeat IPC: 2.476 cumulative IPC: 2.269 (Simulation time: 04 hr 20 min 12 sec)
Heartbeat CPU 0 instructions: 570000004 cycles: 243567570 heartbeat IPC: 1.606 cumulative IPC: 2.251 (Simulation time: 04 hr 26 min 05 sec)
Heartbeat CPU 0 instructions: 580000003 cycles: 250968804 heartbeat IPC: 1.351 cumulative IPC: 2.223 (Simulation time: 04 hr 32 min 48 sec)
Heartbeat CPU 0 instructions: 590000002 cycles: 260866417 heartbeat IPC: 1.01 cumulative IPC: 2.175 (Simulation time: 04 hr 41 min 03 sec)
Heartbeat CPU 0 instructions: 600000000 cycles: 264597876 heartbeat IPC: 2.68 cumulative IPC: 2.182 (Simulation time: 04 hr 45 min 34 sec)
Heartbeat CPU 0 instructions: 610000000 cycles: 268429640 heartbeat IPC: 2.61 cumulative IPC: 2.188 (Simulation time: 04 hr 49 min 57 sec)
Heartbeat CPU 0 instructions: 620000001 cycles: 271850585 heartbeat IPC: 2.923 cumulative IPC: 2.198 (Simulation time: 04 hr 54 min 28 sec)
Heartbeat CPU 0 instructions: 630000002 cycles: 276105715 heartbeat IPC: 2.35 cumulative IPC: 2.201 (Simulation time: 04 hr 59 min 21 sec)
Heartbeat CPU 0 instructions: 640000001 cycles: 279995272 heartbeat IPC: 2.571 cumulative IPC: 2.206 (Simulation time: 05 hr 03 min 44 sec)
Heartbeat CPU 0 instructions: 650000000 cycles: 283739777 heartbeat IPC: 2.671 cumulative IPC: 2.212 (Simulation time: 05 hr 08 min 10 sec)
Simulation finished CPU 0 instructions: 600000001 cycles: 271202657 cumulative IPC: 2.212 (Simulation time: 05 hr 08 min 10 sec)
Simulation complete CPU 0 instructions: 600000001 cycles: 271202657 cumulative IPC: 2.212 (Simulation time: 05 hr 08 min 10 sec)

ChampSim completed all CPUs

=== Simulation ===
CPU 0 runs traces/400.perlbench-41B.champsimtrace.xz
Region of Interest Statistics

CPU 0 cumulative IPC: 2.212 instructions: 600000001 cycles: 271202657
CPU 0 Branch Prediction Accuracy: 96.56% MPKI: 7.112 Average ROB Occupancy at Mispredict: 46.96
Branch type MPKI
BRANCH_DIRECT_JUMP: 0.0123
BRANCH_INDIRECT: 0.323
BRANCH_CONDITIONAL: 6.56
BRANCH_DIRECT_CALL: 0.0043
BRANCH_INDIRECT_CALL: 0.2
BRANCH_RETURN: 0.00828

LLC TOTAL        ACCESS:     937441 HIT:     680133 MISS:     257308
LLC LOAD         ACCESS:     400548 HIT:     293095 MISS:     107453
LLC RFO          ACCESS:      32468 HIT:      22540 MISS:       9928
LLC PREFETCH     ACCESS:     400548 HIT:     286343 MISS:     114205
LLC WRITE        ACCESS:      84796 HIT:      71524 MISS:      13272
LLC TRANSLATION  ACCESS:      19081 HIT:       6631 MISS:      12450
LLC PREFETCH REQUESTED:     400548 ISSUED:     400548 USEFUL:      40475 USELESS:      48479
LLC AVERAGE MISS LATENCY: 538 cycles
cpu0_DTLB TOTAL        ACCESS:  141906452 HIT:  141219735 MISS:     686717
cpu0_DTLB LOAD         ACCESS:  141906452 HIT:  141219735 MISS:     686717
cpu0_DTLB RFO          ACCESS:          0 HIT:          0 MISS:          0
cpu0_DTLB PREFETCH     ACCESS:          0 HIT:          0 MISS:          0
cpu0_DTLB WRITE        ACCESS:          0 HIT:          0 MISS:          0
cpu0_DTLB TRANSLATION  ACCESS:          0 HIT:          0 MISS:          0
cpu0_DTLB PREFETCH REQUESTED:          0 ISSUED:          0 USEFUL:          0 USELESS:          0
cpu0_DTLB AVERAGE MISS LATENCY: 16.43 cycles
cpu0_ITLB TOTAL        ACCESS:    4859142 HIT:    4805992 MISS:      53150
cpu0_ITLB LOAD         ACCESS:    4859142 HIT:    4805992 MISS:      53150
cpu0_ITLB RFO          ACCESS:          0 HIT:          0 MISS:          0
cpu0_ITLB PREFETCH     ACCESS:          0 HIT:          0 MISS:          0
cpu0_ITLB WRITE        ACCESS:          0 HIT:          0 MISS:          0
cpu0_ITLB TRANSLATION  ACCESS:          0 HIT:          0 MISS:          0
cpu0_ITLB PREFETCH REQUESTED:          0 ISSUED:          0 USEFUL:          0 USELESS:          0
cpu0_ITLB AVERAGE MISS LATENCY: 6.551 cycles
cpu0_L1D TOTAL        ACCESS:  188581856 HIT:  186884130 MISS:    1697726
cpu0_L1D LOAD         ACCESS:  105214588 HIT:  103886481 MISS:    1328107
cpu0_L1D RFO          ACCESS:          0 HIT:          0 MISS:          0
cpu0_L1D PREFETCH     ACCESS:          0 HIT:          0 MISS:          0
cpu0_L1D WRITE        ACCESS:   83342809 HIT:   82996597 MISS:     346212
cpu0_L1D TRANSLATION  ACCESS:      24459 HIT:       1052 MISS:      23407
cpu0_L1D PREFETCH REQUESTED:          0 ISSUED:          0 USEFUL:          0 USELESS:          0
cpu0_L1D AVERAGE MISS LATENCY: 52.7 cycles
cpu0_L1I TOTAL        ACCESS:    5596878 HIT:    4853493 MISS:     743385
cpu0_L1I LOAD         ACCESS:    5596878 HIT:    4853493 MISS:     743385
cpu0_L1I RFO          ACCESS:          0 HIT:          0 MISS:          0
cpu0_L1I PREFETCH     ACCESS:          0 HIT:          0 MISS:          0
cpu0_L1I WRITE        ACCESS:          0 HIT:          0 MISS:          0
cpu0_L1I TRANSLATION  ACCESS:          0 HIT:          0 MISS:          0
cpu0_L1I PREFETCH REQUESTED:          0 ISSUED:          0 USEFUL:          0 USELESS:          0
cpu0_L1I AVERAGE MISS LATENCY: 13.76 cycles
cpu0_L2C TOTAL        ACCESS:    1665807 HIT:    1211951 MISS:     453856
cpu0_L2C LOAD         ACCESS:    1316023 HIT:     915475 MISS:     400548
cpu0_L2C RFO          ACCESS:      88295 HIT:      55827 MISS:      32468
cpu0_L2C PREFETCH     ACCESS:          0 HIT:          0 MISS:          0
cpu0_L2C WRITE        ACCESS:     238154 HIT:     236395 MISS:       1759
cpu0_L2C TRANSLATION  ACCESS:      23335 HIT:       4254 MISS:      19081
cpu0_L2C PREFETCH REQUESTED:          0 ISSUED:          0 USEFUL:          0 USELESS:          0
cpu0_L2C AVERAGE MISS LATENCY: 196.8 cycles
cpu0_STLB TOTAL        ACCESS:     507170 HIT:     484376 MISS:      22794
cpu0_STLB LOAD         ACCESS:     507170 HIT:     484376 MISS:      22794
cpu0_STLB RFO          ACCESS:          0 HIT:          0 MISS:          0
cpu0_STLB PREFETCH     ACCESS:          0 HIT:          0 MISS:          0
cpu0_STLB WRITE        ACCESS:          0 HIT:          0 MISS:          0
cpu0_STLB TRANSLATION  ACCESS:          0 HIT:          0 MISS:          0
cpu0_STLB PREFETCH REQUESTED:          0 ISSUED:          0 USEFUL:          0 USELESS:          0
cpu0_STLB AVERAGE MISS LATENCY: 375.2 cycles

DRAM Statistics

Channel 0 RQ ROW_BUFFER_HIT:      32657
  ROW_BUFFER_MISS:     176528
 AVG DBUS CONGESTED CYCLE: 3.857
WQ ROW_BUFFER_HIT: Channel 0 
  ROW_BUFFER_MISS:       6206
  FULL:      17882
