WARNING: physical memory size is smaller than virtual memory size.

*** ChampSim Multicore Out-of-Order Simulator ***
Warmup Instructions: 50000000
Simulation Instructions: 600000000
Number of CPUs: 1
Page size: 4096

Off-chip DRAM Size: 4 GiB Channels: 1 Width: 64-bit Data Race: 3200 MT/s
Heartbeat CPU 0 instructions: 10000000 cycles: 2500061 heartbeat IPC: 4 cumulative IPC: 4 (Simulation time: 00 hr 00 min 51 sec)
Heartbeat CPU 0 instructions: 20000000 cycles: 5000061 heartbeat IPC: 4 cumulative IPC: 4 (Simulation time: 00 hr 01 min 50 sec)
Heartbeat CPU 0 instructions: 30000000 cycles: 7500061 heartbeat IPC: 4 cumulative IPC: 4 (Simulation time: 00 hr 02 min 37 sec)
Heartbeat CPU 0 instructions: 40000000 cycles: 10000061 heartbeat IPC: 4 cumulative IPC: 4 (Simulation time: 00 hr 03 min 24 sec)
Heartbeat CPU 0 instructions: 50000000 cycles: 12500061 heartbeat IPC: 4 cumulative IPC: 4 (Simulation time: 00 hr 04 min 11 sec)
Warmup finished CPU 0 instructions: 50000000 cycles: 12500062 cumulative IPC: 4 (Simulation time: 00 hr 04 min 11 sec)
Warmup complete CPU 0 instructions: 50000000 cycles: 12500062 cumulative IPC: 4 (Simulation time: 00 hr 04 min 11 sec)
Heartbeat CPU 0 instructions: 60000002 cycles: 16896901 heartbeat IPC: 2.274 cumulative IPC: 2.274 (Simulation time: 00 hr 05 min 20 sec)
Heartbeat CPU 0 instructions: 70000003 cycles: 21873886 heartbeat IPC: 2.009 cumulative IPC: 2.134 (Simulation time: 00 hr 06 min 33 sec)
Heartbeat CPU 0 instructions: 80000001 cycles: 27216612 heartbeat IPC: 1.872 cumulative IPC: 2.039 (Simulation time: 00 hr 07 min 48 sec)
Heartbeat CPU 0 instructions: 90000000 cycles: 31511289 heartbeat IPC: 2.328 cumulative IPC: 2.104 (Simulation time: 00 hr 08 min 56 sec)
Heartbeat CPU 0 instructions: 100000003 cycles: 36359280 heartbeat IPC: 2.063 cumulative IPC: 2.096 (Simulation time: 00 hr 10 min 08 sec)
Heartbeat CPU 0 instructions: 110000002 cycles: 41221329 heartbeat IPC: 2.057 cumulative IPC: 2.089 (Simulation time: 00 hr 11 min 20 sec)
Heartbeat CPU 0 instructions: 120000001 cycles: 46213575 heartbeat IPC: 2.003 cumulative IPC: 2.076 (Simulation time: 00 hr 12 min 34 sec)
Heartbeat CPU 0 instructions: 130000003 cycles: 50771870 heartbeat IPC: 2.194 cumulative IPC: 2.09 (Simulation time: 00 hr 13 min 43 sec)
Heartbeat CPU 0 instructions: 140000002 cycles: 55654358 heartbeat IPC: 2.048 cumulative IPC: 2.086 (Simulation time: 00 hr 14 min 55 sec)
Heartbeat CPU 0 instructions: 150000001 cycles: 60312932 heartbeat IPC: 2.147 cumulative IPC: 2.091 (Simulation time: 00 hr 16 min 06 sec)
Heartbeat CPU 0 instructions: 160000000 cycles: 64941563 heartbeat IPC: 2.16 cumulative IPC: 2.098 (Simulation time: 00 hr 17 min 16 sec)
Heartbeat CPU 0 instructions: 170000000 cycles: 70266229 heartbeat IPC: 1.878 cumulative IPC: 2.077 (Simulation time: 00 hr 18 min 32 sec)
Heartbeat CPU 0 instructions: 180000001 cycles: 75980484 heartbeat IPC: 1.75 cumulative IPC: 2.048 (Simulation time: 00 hr 19 min 51 sec)
Heartbeat CPU 0 instructions: 190000002 cycles: 80441974 heartbeat IPC: 2.241 cumulative IPC: 2.061 (Simulation time: 00 hr 21 min 01 sec)
Heartbeat CPU 0 instructions: 200000002 cycles: 85331820 heartbeat IPC: 2.045 cumulative IPC: 2.06 (Simulation time: 00 hr 22 min 13 sec)
Heartbeat CPU 0 instructions: 210000000 cycles: 90331024 heartbeat IPC: 2 cumulative IPC: 2.056 (Simulation time: 00 hr 23 min 26 sec)
Heartbeat CPU 0 instructions: 220000001 cycles: 95252546 heartbeat IPC: 2.032 cumulative IPC: 2.054 (Simulation time: 00 hr 24 min 38 sec)
Heartbeat CPU 0 instructions: 230000002 cycles: 100491909 heartbeat IPC: 1.909 cumulative IPC: 2.046 (Simulation time: 00 hr 25 min 53 sec)
Heartbeat CPU 0 instructions: 240000001 cycles: 105448576 heartbeat IPC: 2.017 cumulative IPC: 2.044 (Simulation time: 00 hr 27 min 06 sec)
Heartbeat CPU 0 instructions: 250000003 cycles: 110620996 heartbeat IPC: 1.933 cumulative IPC: 2.038 (Simulation time: 00 hr 28 min 19 sec)
Heartbeat CPU 0 instructions: 260000001 cycles: 115486763 heartbeat IPC: 2.055 cumulative IPC: 2.039 (Simulation time: 00 hr 29 min 32 sec)
Heartbeat CPU 0 instructions: 270000000 cycles: 122946087 heartbeat IPC: 1.341 cumulative IPC: 1.992 (Simulation time: 00 hr 31 min 09 sec)
Heartbeat CPU 0 instructions: 280000000 cycles: 134464856 heartbeat IPC: 0.8681 cumulative IPC: 1.886 (Simulation time: 00 hr 33 min 25 sec)
Heartbeat CPU 0 instructions: 290000001 cycles: 144638670 heartbeat IPC: 0.9829 cumulative IPC: 1.816 (Simulation time: 00 hr 35 min 29 sec)
Heartbeat CPU 0 instructions: 300000003 cycles: 152286024 heartbeat IPC: 1.308 cumulative IPC: 1.788 (Simulation time: 00 hr 37 min 13 sec)
Heartbeat CPU 0 instructions: 310000004 cycles: 163797673 heartbeat IPC: 0.8687 cumulative IPC: 1.718 (Simulation time: 00 hr 39 min 32 sec)
Heartbeat CPU 0 instructions: 320000004 cycles: 169549389 heartbeat IPC: 1.739 cumulative IPC: 1.719 (Simulation time: 00 hr 40 min 56 sec)
Heartbeat CPU 0 instructions: 330000000 cycles: 174850973 heartbeat IPC: 1.886 cumulative IPC: 1.725 (Simulation time: 00 hr 42 min 13 sec)
Heartbeat CPU 0 instructions: 340000001 cycles: 180096776 heartbeat IPC: 1.906 cumulative IPC: 1.73 (Simulation time: 00 hr 43 min 30 sec)
Heartbeat CPU 0 instructions: 350000000 cycles: 185554890 heartbeat IPC: 1.832 cumulative IPC: 1.734 (Simulation time: 00 hr 44 min 48 sec)
Heartbeat CPU 0 instructions: 360000003 cycles: 190784222 heartbeat IPC: 1.912 cumulative IPC: 1.739 (Simulation time: 00 hr 46 min 06 sec)
Heartbeat CPU 0 instructions: 370000001 cycles: 195876192 heartbeat IPC: 1.964 cumulative IPC: 1.745 (Simulation time: 00 hr 47 min 32 sec)
Heartbeat CPU 0 instructions: 380000004 cycles: 201254753 heartbeat IPC: 1.859 cumulative IPC: 1.748 (Simulation time: 00 hr 48 min 49 sec)
Heartbeat CPU 0 instructions: 390000002 cycles: 206751997 heartbeat IPC: 1.819 cumulative IPC: 1.75 (Simulation time: 00 hr 50 min 07 sec)
Heartbeat CPU 0 instructions: 400000000 cycles: 212330138 heartbeat IPC: 1.793 cumulative IPC: 1.751 (Simulation time: 00 hr 51 min 26 sec)
Heartbeat CPU 0 instructions: 410000000 cycles: 220816114 heartbeat IPC: 1.178 cumulative IPC: 1.728 (Simulation time: 00 hr 53 min 14 sec)
Heartbeat CPU 0 instructions: 420000001 cycles: 232546537 heartbeat IPC: 0.8525 cumulative IPC: 1.681 (Simulation time: 00 hr 55 min 33 sec)
Heartbeat CPU 0 instructions: 430000000 cycles: 240457391 heartbeat IPC: 1.264 cumulative IPC: 1.667 (Simulation time: 00 hr 57 min 20 sec)
Heartbeat CPU 0 instructions: 440000002 cycles: 247960708 heartbeat IPC: 1.333 cumulative IPC: 1.656 (Simulation time: 00 hr 59 min 02 sec)
Heartbeat CPU 0 instructions: 450000000 cycles: 254901769 heartbeat IPC: 1.441 cumulative IPC: 1.65 (Simulation time: 01 hr 00 min 38 sec)
Heartbeat CPU 0 instructions: 460000002 cycles: 266401881 heartbeat IPC: 0.8696 cumulative IPC: 1.615 (Simulation time: 01 hr 02 min 56 sec)
Heartbeat CPU 0 instructions: 470000000 cycles: 276769292 heartbeat IPC: 0.9646 cumulative IPC: 1.589 (Simulation time: 01 hr 05 min 02 sec)
Heartbeat CPU 0 instructions: 480000000 cycles: 282288765 heartbeat IPC: 1.812 cumulative IPC: 1.594 (Simulation time: 01 hr 06 min 21 sec)
Heartbeat CPU 0 instructions: 490000001 cycles: 288038759 heartbeat IPC: 1.739 cumulative IPC: 1.597 (Simulation time: 01 hr 07 min 43 sec)
Heartbeat CPU 0 instructions: 500000002 cycles: 293679093 heartbeat IPC: 1.773 cumulative IPC: 1.6 (Simulation time: 01 hr 09 min 03 sec)
Heartbeat CPU 0 instructions: 510000000 cycles: 299398187 heartbeat IPC: 1.749 cumulative IPC: 1.603 (Simulation time: 01 hr 10 min 25 sec)
Heartbeat CPU 0 instructions: 520000000 cycles: 305196261 heartbeat IPC: 1.725 cumulative IPC: 1.606 (Simulation time: 01 hr 11 min 46 sec)
Heartbeat CPU 0 instructions: 530000001 cycles: 317161882 heartbeat IPC: 0.8357 cumulative IPC: 1.576 (Simulation time: 01 hr 14 min 07 sec)
Heartbeat CPU 0 instructions: 540000000 cycles: 328616693 heartbeat IPC: 0.873 cumulative IPC: 1.55 (Simulation time: 01 hr 16 min 26 sec)
Heartbeat CPU 0 instructions: 550000002 cycles: 342359437 heartbeat IPC: 0.7277 cumulative IPC: 1.516 (Simulation time: 01 hr 19 min 03 sec)
Heartbeat CPU 0 instructions: 560000004 cycles: 347246937 heartbeat IPC: 2.046 cumulative IPC: 1.524 (Simulation time: 01 hr 20 min 17 sec)
Heartbeat CPU 0 instructions: 570000001 cycles: 351662185 heartbeat IPC: 2.265 cumulative IPC: 1.533 (Simulation time: 01 hr 21 min 27 sec)
Heartbeat CPU 0 instructions: 580000003 cycles: 355901384 heartbeat IPC: 2.359 cumulative IPC: 1.543 (Simulation time: 01 hr 22 min 34 sec)
Heartbeat CPU 0 instructions: 590000001 cycles: 360811002 heartbeat IPC: 2.037 cumulative IPC: 1.55 (Simulation time: 01 hr 23 min 48 sec)
Heartbeat CPU 0 instructions: 600000003 cycles: 365454099 heartbeat IPC: 2.154 cumulative IPC: 1.558 (Simulation time: 01 hr 25 min 12 sec)
Heartbeat CPU 0 instructions: 610000001 cycles: 370320000 heartbeat IPC: 2.055 cumulative IPC: 1.565 (Simulation time: 01 hr 26 min 26 sec)
Heartbeat CPU 0 instructions: 620000000 cycles: 375389808 heartbeat IPC: 1.972 cumulative IPC: 1.571 (Simulation time: 01 hr 27 min 40 sec)
Heartbeat CPU 0 instructions: 630000002 cycles: 379633856 heartbeat IPC: 2.356 cumulative IPC: 1.58 (Simulation time: 01 hr 28 min 59 sec)
Heartbeat CPU 0 instructions: 640000004 cycles: 384957179 heartbeat IPC: 1.879 cumulative IPC: 1.584 (Simulation time: 01 hr 30 min 16 sec)
Heartbeat CPU 0 instructions: 650000001 cycles: 389717976 heartbeat IPC: 2.1 cumulative IPC: 1.591 (Simulation time: 01 hr 31 min 29 sec)
Simulation finished CPU 0 instructions: 600000001 cycles: 377217915 cumulative IPC: 1.591 (Simulation time: 01 hr 31 min 29 sec)
Simulation complete CPU 0 instructions: 600000001 cycles: 377217915 cumulative IPC: 1.591 (Simulation time: 01 hr 31 min 29 sec)

ChampSim completed all CPUs

=== Simulation ===
CPU 0 runs traces/400.perlbench-50B.champsimtrace.xz
Region of Interest Statistics

CPU 0 cumulative IPC: 1.591 instructions: 600000001 cycles: 377217915
CPU 0 Branch Prediction Accuracy: 93.83% MPKI: 12.71 Average ROB Occupancy at Mispredict: 29.32
Branch type MPKI
BRANCH_DIRECT_JUMP: 0.0176
BRANCH_INDIRECT: 0.38
BRANCH_CONDITIONAL: 11.9
BRANCH_DIRECT_CALL: 0.0067
BRANCH_INDIRECT_CALL: 0.431
BRANCH_RETURN: 0.0161

LLC TOTAL        ACCESS:    1379429 HIT:     857359 MISS:     522070
LLC LOAD         ACCESS:     589979 HIT:     361554 MISS:     228425
LLC RFO          ACCESS:      47286 HIT:      26256 MISS:      21030
LLC PREFETCH     ACCESS:     589979 HIT:     353252 MISS:     236727
LLC WRITE        ACCESS:     130242 HIT:     114860 MISS:      15382
LLC TRANSLATION  ACCESS:      21943 HIT:       1437 MISS:      20506
LLC PREFETCH REQUESTED:     589979 ISSUED:     589979 USEFUL:      95006 USELESS:      75435
LLC AVERAGE MISS LATENCY: 527.5 cycles
cpu0_DTLB TOTAL        ACCESS:  156767724 HIT:  155466551 MISS:    1301173
cpu0_DTLB LOAD         ACCESS:  156767724 HIT:  155466551 MISS:    1301173
cpu0_DTLB RFO          ACCESS:          0 HIT:          0 MISS:          0
cpu0_DTLB PREFETCH     ACCESS:          0 HIT:          0 MISS:          0
cpu0_DTLB WRITE        ACCESS:          0 HIT:          0 MISS:          0
cpu0_DTLB TRANSLATION  ACCESS:          0 HIT:          0 MISS:          0
cpu0_DTLB PREFETCH REQUESTED:          0 ISSUED:          0 USEFUL:          0 USELESS:          0
cpu0_DTLB AVERAGE MISS LATENCY: 16.9 cycles
cpu0_ITLB TOTAL        ACCESS:    8931239 HIT:    8732590 MISS:     198649
cpu0_ITLB LOAD         ACCESS:    8931239 HIT:    8732590 MISS:     198649
cpu0_ITLB RFO          ACCESS:          0 HIT:          0 MISS:          0
cpu0_ITLB PREFETCH     ACCESS:          0 HIT:          0 MISS:          0
cpu0_ITLB WRITE        ACCESS:          0 HIT:          0 MISS:          0
cpu0_ITLB TRANSLATION  ACCESS:          0 HIT:          0 MISS:          0
cpu0_ITLB PREFETCH REQUESTED:          0 ISSUED:          0 USEFUL:          0 USELESS:          0
cpu0_ITLB AVERAGE MISS LATENCY: 3.955 cycles
cpu0_L1D TOTAL        ACCESS:  203636869 HIT:  200747813 MISS:    2889056
cpu0_L1D LOAD         ACCESS:  117959638 HIT:  115588590 MISS:    2371048
cpu0_L1D RFO          ACCESS:          0 HIT:          0 MISS:          0
cpu0_L1D PREFETCH     ACCESS:          0 HIT:          0 MISS:          0
cpu0_L1D WRITE        ACCESS:   85648695 HIT:   85157237 MISS:     491458
cpu0_L1D TRANSLATION  ACCESS:      28536 HIT:       1986 MISS:      26550
cpu0_L1D PREFETCH REQUESTED:          0 ISSUED:          0 USEFUL:          0 USELESS:          0
cpu0_L1D AVERAGE MISS LATENCY: 60.41 cycles
cpu0_L1I TOTAL        ACCESS:   10370118 HIT:    8573010 MISS:    1797108
cpu0_L1I LOAD         ACCESS:   10370118 HIT:    8573010 MISS:    1797108
cpu0_L1I RFO          ACCESS:          0 HIT:          0 MISS:          0
cpu0_L1I PREFETCH     ACCESS:          0 HIT:          0 MISS:          0
cpu0_L1I WRITE        ACCESS:          0 HIT:          0 MISS:          0
cpu0_L1I TRANSLATION  ACCESS:          0 HIT:          0 MISS:          0
cpu0_L1I PREFETCH REQUESTED:          0 ISSUED:          0 USEFUL:          0 USELESS:          0
cpu0_L1I AVERAGE MISS LATENCY: 11.24 cycles
cpu0_L2C TOTAL        ACCESS:    3234994 HIT:    2569192 MISS:     665802
cpu0_L2C LOAD         ACCESS:    2711600 HIT:    2121619 MISS:     589981
cpu0_L2C RFO          ACCESS:     133692 HIT:      86406 MISS:      47286
cpu0_L2C PREFETCH     ACCESS:          0 HIT:          0 MISS:          0
cpu0_L2C WRITE        ACCESS:     363242 HIT:     356650 MISS:       6592
cpu0_L2C TRANSLATION  ACCESS:      26460 HIT:       4517 MISS:      21943
cpu0_L2C PREFETCH REQUESTED:          0 ISSUED:          0 USEFUL:          0 USELESS:          0
cpu0_L2C AVERAGE MISS LATENCY: 259.1 cycles
cpu0_STLB TOTAL        ACCESS:    1009118 HIT:     982431 MISS:      26687
cpu0_STLB LOAD         ACCESS:    1009118 HIT:     982431 MISS:      26687
cpu0_STLB RFO          ACCESS:          0 HIT:          0 MISS:          0
cpu0_STLB PREFETCH     ACCESS:          0 HIT:          0 MISS:          0
cpu0_STLB WRITE        ACCESS:          0 HIT:          0 MISS:          0
cpu0_STLB TRANSLATION  ACCESS:          0 HIT:          0 MISS:          0
cpu0_STLB PREFETCH REQUESTED:          0 ISSUED:          0 USEFUL:          0 USELESS:          0
cpu0_STLB AVERAGE MISS LATENCY: 617.2 cycles

DRAM Statistics

Channel 0 RQ ROW_BUFFER_HIT:      81100
  ROW_BUFFER_MISS:     351390
 AVG DBUS CONGESTED CYCLE: 3.865
WQ ROW_BUFFER_HIT: Channel 0 
  ROW_BUFFER_MISS:       8420
  FULL:      47022
Final OPTGen Hits: 12387
Final OPTGen Access: 11062
Final OPTGEN Hit Rate: 111.978
