WARNING: physical memory size is smaller than virtual memory size.

*** ChampSim Multicore Out-of-Order Simulator ***
Warmup Instructions: 50000000
Simulation Instructions: 600000000
Number of CPUs: 1
Page size: 4096

CPU 0 Tage branch predictor
Off-chip DRAM Size: 4 GiB Channels: 1 Width: 64-bit Data Race: 3200 MT/s
Heartbeat CPU 0 instructions: 10000000 cycles: 2500061 heartbeat IPC: 4 cumulative IPC: 4 (Simulation time: 00 hr 00 min 56 sec)
Heartbeat CPU 0 instructions: 20000000 cycles: 5000061 heartbeat IPC: 4 cumulative IPC: 4 (Simulation time: 00 hr 01 min 44 sec)
Heartbeat CPU 0 instructions: 30000000 cycles: 7500061 heartbeat IPC: 4 cumulative IPC: 4 (Simulation time: 00 hr 02 min 25 sec)
Heartbeat CPU 0 instructions: 40000000 cycles: 10000061 heartbeat IPC: 4 cumulative IPC: 4 (Simulation time: 00 hr 03 min 00 sec)
Heartbeat CPU 0 instructions: 50000000 cycles: 12500061 heartbeat IPC: 4 cumulative IPC: 4 (Simulation time: 00 hr 03 min 36 sec)
Warmup finished CPU 0 instructions: 50000000 cycles: 12500062 cumulative IPC: 4 (Simulation time: 00 hr 03 min 36 sec)
Warmup complete CPU 0 instructions: 50000000 cycles: 12500062 cumulative IPC: 4 (Simulation time: 00 hr 03 min 36 sec)
Heartbeat CPU 0 instructions: 60000004 cycles: 15503677 heartbeat IPC: 3.329 cumulative IPC: 3.329 (Simulation time: 00 hr 04 min 17 sec)
Heartbeat CPU 0 instructions: 70000003 cycles: 18382317 heartbeat IPC: 3.474 cumulative IPC: 3.4 (Simulation time: 00 hr 04 min 53 sec)
Heartbeat CPU 0 instructions: 80000002 cycles: 21404747 heartbeat IPC: 3.309 cumulative IPC: 3.369 (Simulation time: 00 hr 05 min 24 sec)
Heartbeat CPU 0 instructions: 90000000 cycles: 24127135 heartbeat IPC: 3.673 cumulative IPC: 3.44 (Simulation time: 00 hr 05 min 47 sec)
Heartbeat CPU 0 instructions: 100000003 cycles: 26893697 heartbeat IPC: 3.615 cumulative IPC: 3.474 (Simulation time: 00 hr 06 min 11 sec)
Heartbeat CPU 0 instructions: 110000001 cycles: 29799971 heartbeat IPC: 3.441 cumulative IPC: 3.468 (Simulation time: 00 hr 06 min 34 sec)
Heartbeat CPU 0 instructions: 120000001 cycles: 32524189 heartbeat IPC: 3.671 cumulative IPC: 3.496 (Simulation time: 00 hr 06 min 57 sec)
Heartbeat CPU 0 instructions: 130000003 cycles: 35426960 heartbeat IPC: 3.445 cumulative IPC: 3.489 (Simulation time: 00 hr 07 min 21 sec)
Heartbeat CPU 0 instructions: 140000002 cycles: 38265022 heartbeat IPC: 3.524 cumulative IPC: 3.493 (Simulation time: 00 hr 07 min 44 sec)
Heartbeat CPU 0 instructions: 150000001 cycles: 41038933 heartbeat IPC: 3.605 cumulative IPC: 3.504 (Simulation time: 00 hr 08 min 07 sec)
Heartbeat CPU 0 instructions: 160000000 cycles: 43953820 heartbeat IPC: 3.431 cumulative IPC: 3.497 (Simulation time: 00 hr 08 min 30 sec)
Heartbeat CPU 0 instructions: 170000001 cycles: 46884845 heartbeat IPC: 3.412 cumulative IPC: 3.49 (Simulation time: 00 hr 08 min 54 sec)
Heartbeat CPU 0 instructions: 180000000 cycles: 49682531 heartbeat IPC: 3.574 cumulative IPC: 3.496 (Simulation time: 00 hr 09 min 17 sec)
Heartbeat CPU 0 instructions: 190000002 cycles: 52390539 heartbeat IPC: 3.693 cumulative IPC: 3.51 (Simulation time: 00 hr 09 min 41 sec)
Heartbeat CPU 0 instructions: 200000002 cycles: 55219937 heartbeat IPC: 3.534 cumulative IPC: 3.511 (Simulation time: 00 hr 10 min 04 sec)
Heartbeat CPU 0 instructions: 210000000 cycles: 58119126 heartbeat IPC: 3.449 cumulative IPC: 3.507 (Simulation time: 00 hr 10 min 28 sec)
Heartbeat CPU 0 instructions: 220000001 cycles: 60883566 heartbeat IPC: 3.617 cumulative IPC: 3.514 (Simulation time: 00 hr 10 min 51 sec)
Heartbeat CPU 0 instructions: 230000002 cycles: 63776820 heartbeat IPC: 3.456 cumulative IPC: 3.51 (Simulation time: 00 hr 11 min 14 sec)
Heartbeat CPU 0 instructions: 240000004 cycles: 66737011 heartbeat IPC: 3.378 cumulative IPC: 3.503 (Simulation time: 00 hr 11 min 38 sec)
Heartbeat CPU 0 instructions: 250000003 cycles: 69643379 heartbeat IPC: 3.441 cumulative IPC: 3.5 (Simulation time: 00 hr 12 min 01 sec)
Heartbeat CPU 0 instructions: 260000001 cycles: 72434967 heartbeat IPC: 3.582 cumulative IPC: 3.504 (Simulation time: 00 hr 12 min 24 sec)
Heartbeat CPU 0 instructions: 270000002 cycles: 77842694 heartbeat IPC: 1.849 cumulative IPC: 3.367 (Simulation time: 00 hr 12 min 55 sec)
Heartbeat CPU 0 instructions: 280000000 cycles: 86230017 heartbeat IPC: 1.192 cumulative IPC: 3.119 (Simulation time: 00 hr 13 min 36 sec)
Heartbeat CPU 0 instructions: 290000000 cycles: 93625597 heartbeat IPC: 1.352 cumulative IPC: 2.958 (Simulation time: 00 hr 14 min 14 sec)
Heartbeat CPU 0 instructions: 300000003 cycles: 98849103 heartbeat IPC: 1.914 cumulative IPC: 2.895 (Simulation time: 00 hr 14 min 47 sec)
Heartbeat CPU 0 instructions: 310000001 cycles: 107148791 heartbeat IPC: 1.205 cumulative IPC: 2.747 (Simulation time: 00 hr 15 min 29 sec)
Heartbeat CPU 0 instructions: 320000004 cycles: 110919188 heartbeat IPC: 2.652 cumulative IPC: 2.743 (Simulation time: 00 hr 15 min 56 sec)
Heartbeat CPU 0 instructions: 330000000 cycles: 114057073 heartbeat IPC: 3.187 cumulative IPC: 2.757 (Simulation time: 00 hr 16 min 21 sec)
Heartbeat CPU 0 instructions: 340000001 cycles: 117056675 heartbeat IPC: 3.334 cumulative IPC: 2.774 (Simulation time: 00 hr 16 min 45 sec)
Heartbeat CPU 0 instructions: 350000000 cycles: 120270056 heartbeat IPC: 3.112 cumulative IPC: 2.784 (Simulation time: 00 hr 17 min 10 sec)
Heartbeat CPU 0 instructions: 360000004 cycles: 123318372 heartbeat IPC: 3.281 cumulative IPC: 2.797 (Simulation time: 00 hr 17 min 34 sec)
Heartbeat CPU 0 instructions: 370000001 cycles: 126336312 heartbeat IPC: 3.314 cumulative IPC: 2.811 (Simulation time: 00 hr 17 min 58 sec)
Heartbeat CPU 0 instructions: 380000004 cycles: 129387578 heartbeat IPC: 3.277 cumulative IPC: 2.823 (Simulation time: 00 hr 18 min 23 sec)
Heartbeat CPU 0 instructions: 390000002 cycles: 132571802 heartbeat IPC: 3.14 cumulative IPC: 2.832 (Simulation time: 00 hr 18 min 47 sec)
Heartbeat CPU 0 instructions: 400000000 cycles: 135818743 heartbeat IPC: 3.08 cumulative IPC: 2.838 (Simulation time: 00 hr 19 min 12 sec)
Heartbeat CPU 0 instructions: 410000000 cycles: 141481420 heartbeat IPC: 1.766 cumulative IPC: 2.791 (Simulation time: 00 hr 19 min 45 sec)
Heartbeat CPU 0 instructions: 420000003 cycles: 149763918 heartbeat IPC: 1.207 cumulative IPC: 2.696 (Simulation time: 00 hr 20 min 26 sec)
Heartbeat CPU 0 instructions: 430000000 cycles: 155005413 heartbeat IPC: 1.908 cumulative IPC: 2.667 (Simulation time: 00 hr 20 min 59 sec)
Heartbeat CPU 0 instructions: 440000004 cycles: 159957666 heartbeat IPC: 2.019 cumulative IPC: 2.645 (Simulation time: 00 hr 21 min 30 sec)
Heartbeat CPU 0 instructions: 450000001 cycles: 164665221 heartbeat IPC: 2.124 cumulative IPC: 2.629 (Simulation time: 00 hr 22 min 01 sec)
Heartbeat CPU 0 instructions: 460000002 cycles: 172531297 heartbeat IPC: 1.271 cumulative IPC: 2.562 (Simulation time: 00 hr 22 min 42 sec)
Heartbeat CPU 0 instructions: 470000003 cycles: 179727196 heartbeat IPC: 1.39 cumulative IPC: 2.512 (Simulation time: 00 hr 23 min 19 sec)
Heartbeat CPU 0 instructions: 480000000 cycles: 182999571 heartbeat IPC: 3.056 cumulative IPC: 2.522 (Simulation time: 00 hr 23 min 44 sec)
Heartbeat CPU 0 instructions: 490000001 cycles: 186456473 heartbeat IPC: 2.893 cumulative IPC: 2.529 (Simulation time: 00 hr 24 min 10 sec)
Heartbeat CPU 0 instructions: 500000002 cycles: 189865013 heartbeat IPC: 2.934 cumulative IPC: 2.537 (Simulation time: 00 hr 24 min 35 sec)
Heartbeat CPU 0 instructions: 510000000 cycles: 193275366 heartbeat IPC: 2.932 cumulative IPC: 2.545 (Simulation time: 00 hr 25 min 01 sec)
Heartbeat CPU 0 instructions: 520000000 cycles: 196718759 heartbeat IPC: 2.904 cumulative IPC: 2.551 (Simulation time: 00 hr 25 min 26 sec)
Heartbeat CPU 0 instructions: 530000001 cycles: 205119019 heartbeat IPC: 1.19 cumulative IPC: 2.492 (Simulation time: 00 hr 26 min 07 sec)
Heartbeat CPU 0 instructions: 540000000 cycles: 213261525 heartbeat IPC: 1.228 cumulative IPC: 2.441 (Simulation time: 00 hr 26 min 48 sec)
Heartbeat CPU 0 instructions: 550000004 cycles: 222798784 heartbeat IPC: 1.049 cumulative IPC: 2.378 (Simulation time: 00 hr 27 min 33 sec)
Heartbeat CPU 0 instructions: 560000004 cycles: 226377790 heartbeat IPC: 2.794 cumulative IPC: 2.385 (Simulation time: 00 hr 27 min 58 sec)
Heartbeat CPU 0 instructions: 570000002 cycles: 229196292 heartbeat IPC: 3.548 cumulative IPC: 2.4 (Simulation time: 00 hr 28 min 21 sec)
Heartbeat CPU 0 instructions: 580000000 cycles: 232117370 heartbeat IPC: 3.423 cumulative IPC: 2.413 (Simulation time: 00 hr 28 min 45 sec)
Heartbeat CPU 0 instructions: 590000001 cycles: 235042111 heartbeat IPC: 3.419 cumulative IPC: 2.427 (Simulation time: 00 hr 29 min 08 sec)
Heartbeat CPU 0 instructions: 600000003 cycles: 237731349 heartbeat IPC: 3.719 cumulative IPC: 2.442 (Simulation time: 00 hr 29 min 31 sec)
Heartbeat CPU 0 instructions: 610000001 cycles: 240593265 heartbeat IPC: 3.494 cumulative IPC: 2.455 (Simulation time: 00 hr 29 min 55 sec)
Heartbeat CPU 0 instructions: 620000004 cycles: 243541924 heartbeat IPC: 3.391 cumulative IPC: 2.467 (Simulation time: 00 hr 30 min 19 sec)
Heartbeat CPU 0 instructions: 630000002 cycles: 246345464 heartbeat IPC: 3.567 cumulative IPC: 2.48 (Simulation time: 00 hr 30 min 42 sec)
Heartbeat CPU 0 instructions: 640000004 cycles: 249359763 heartbeat IPC: 3.318 cumulative IPC: 2.491 (Simulation time: 00 hr 31 min 06 sec)
Heartbeat CPU 0 instructions: 650000001 cycles: 252058251 heartbeat IPC: 3.706 cumulative IPC: 2.505 (Simulation time: 00 hr 31 min 29 sec)
Simulation finished CPU 0 instructions: 600000001 cycles: 239558190 cumulative IPC: 2.505 (Simulation time: 00 hr 31 min 29 sec)
Simulation complete CPU 0 instructions: 600000001 cycles: 239558190 cumulative IPC: 2.505 (Simulation time: 00 hr 31 min 29 sec)

ChampSim completed all CPUs

=== Simulation ===
CPU 0 runs traces/400.perlbench-50B.champsimtrace.xz
Region of Interest Statistics

CPU 0 cumulative IPC: 2.505 instructions: 600000001 cycles: 239558190
CPU 0 Branch Prediction Accuracy: 99.01% MPKI: 2.04 Average ROB Occupancy at Mispredict: 94.5
Branch type MPKI
BRANCH_DIRECT_JUMP: 0.0176
BRANCH_INDIRECT: 0.38
BRANCH_CONDITIONAL: 1.19
BRANCH_DIRECT_CALL: 0.0067
BRANCH_INDIRECT_CALL: 0.431
BRANCH_RETURN: 0.0161

LLC TOTAL        ACCESS:    1363795 HIT:     932067 MISS:     431728
LLC LOAD         ACCESS:     583221 HIT:     388882 MISS:     194339
LLC RFO          ACCESS:      47336 HIT:      30176 MISS:      17160
LLC PREFETCH     ACCESS:     583221 HIT:     378051 MISS:     205170
LLC WRITE        ACCESS:     127958 HIT:     124699 MISS:       3259
LLC TRANSLATION  ACCESS:      22059 HIT:      10259 MISS:      11800
LLC PREFETCH REQUESTED:     583221 ISSUED:     583221 USEFUL:      77642 USELESS:      62714
LLC AVERAGE MISS LATENCY: 580.8 cycles
cpu0_DTLB TOTAL        ACCESS:  133230730 HIT:  131875716 MISS:    1355014
cpu0_DTLB LOAD         ACCESS:  133230730 HIT:  131875716 MISS:    1355014
cpu0_DTLB RFO          ACCESS:          0 HIT:          0 MISS:          0
cpu0_DTLB PREFETCH     ACCESS:          0 HIT:          0 MISS:          0
cpu0_DTLB WRITE        ACCESS:          0 HIT:          0 MISS:          0
cpu0_DTLB TRANSLATION  ACCESS:          0 HIT:          0 MISS:          0
cpu0_DTLB PREFETCH REQUESTED:          0 ISSUED:          0 USEFUL:          0 USELESS:          0
cpu0_DTLB AVERAGE MISS LATENCY: 11.99 cycles
cpu0_ITLB TOTAL        ACCESS:    8989925 HIT:    8780500 MISS:     209425
cpu0_ITLB LOAD         ACCESS:    8989925 HIT:    8780500 MISS:     209425
cpu0_ITLB RFO          ACCESS:          0 HIT:          0 MISS:          0
cpu0_ITLB PREFETCH     ACCESS:          0 HIT:          0 MISS:          0
cpu0_ITLB WRITE        ACCESS:          0 HIT:          0 MISS:          0
cpu0_ITLB TRANSLATION  ACCESS:          0 HIT:          0 MISS:          0
cpu0_ITLB PREFETCH REQUESTED:          0 ISSUED:          0 USEFUL:          0 USELESS:          0
cpu0_ITLB AVERAGE MISS LATENCY: 2.857 cycles
cpu0_L1D TOTAL        ACCESS:  178271942 HIT:  174493750 MISS:    3778192
cpu0_L1D LOAD         ACCESS:   92752289 HIT:   89654293 MISS:    3097996
cpu0_L1D RFO          ACCESS:          0 HIT:          0 MISS:          0
cpu0_L1D PREFETCH     ACCESS:          0 HIT:          0 MISS:          0
cpu0_L1D WRITE        ACCESS:   85491122 HIT:   84838039 MISS:     653083
cpu0_L1D TRANSLATION  ACCESS:      28531 HIT:       1418 MISS:      27113
cpu0_L1D PREFETCH REQUESTED:          0 ISSUED:          0 USEFUL:          0 USELESS:          0
cpu0_L1D AVERAGE MISS LATENCY: 42.55 cycles
cpu0_L1I TOTAL        ACCESS:   10510047 HIT:    8612578 MISS:    1897469
cpu0_L1I LOAD         ACCESS:   10510047 HIT:    8612578 MISS:    1897469
cpu0_L1I RFO          ACCESS:          0 HIT:          0 MISS:          0
cpu0_L1I PREFETCH     ACCESS:          0 HIT:          0 MISS:          0
cpu0_L1I WRITE        ACCESS:          0 HIT:          0 MISS:          0
cpu0_L1I TRANSLATION  ACCESS:          0 HIT:          0 MISS:          0
cpu0_L1I PREFETCH REQUESTED:          0 ISSUED:          0 USEFUL:          0 USELESS:          0
cpu0_L1I AVERAGE MISS LATENCY: 10.42 cycles
cpu0_L2C TOTAL        ACCESS:    3840151 HIT:    3184615 MISS:     655536
cpu0_L2C LOAD         ACCESS:    3103733 HIT:    2520510 MISS:     583223
cpu0_L2C RFO          ACCESS:     194880 HIT:     147543 MISS:      47337
cpu0_L2C PREFETCH     ACCESS:          0 HIT:          0 MISS:          0
cpu0_L2C WRITE        ACCESS:     514503 HIT:     511586 MISS:       2917
cpu0_L2C TRANSLATION  ACCESS:      27035 HIT:       4976 MISS:      22059
cpu0_L2C PREFETCH REQUESTED:          0 ISSUED:          0 USEFUL:          0 USELESS:          0
cpu0_L2C AVERAGE MISS LATENCY: 244 cycles
cpu0_STLB TOTAL        ACCESS:    1010156 HIT:     983465 MISS:      26691
cpu0_STLB LOAD         ACCESS:    1010156 HIT:     983465 MISS:      26691
cpu0_STLB RFO          ACCESS:          0 HIT:          0 MISS:          0
cpu0_STLB PREFETCH     ACCESS:          0 HIT:          0 MISS:          0
cpu0_STLB WRITE        ACCESS:          0 HIT:          0 MISS:          0
cpu0_STLB TRANSLATION  ACCESS:          0 HIT:          0 MISS:          0
cpu0_STLB PREFETCH REQUESTED:          0 ISSUED:          0 USEFUL:          0 USELESS:          0
cpu0_STLB AVERAGE MISS LATENCY: 404.9 cycles

DRAM Statistics

Channel 0 RQ ROW_BUFFER_HIT:      74163
  ROW_BUFFER_MISS:     279886
 AVG DBUS CONGESTED CYCLE: 3.884
WQ ROW_BUFFER_HIT: Channel 0 
  ROW_BUFFER_MISS:       4782
  FULL:      37058
