WARNING: physical memory size is smaller than virtual memory size.

*** ChampSim Multicore Out-of-Order Simulator ***
Warmup Instructions: 50000000
Simulation Instructions: 600000000
Number of CPUs: 1
Page size: 4096

Off-chip DRAM Size: 4 GiB Channels: 1 Width: 64-bit Data Race: 3200 MT/s
Heartbeat CPU 0 instructions: 10000000 cycles: 2500061 heartbeat IPC: 4 cumulative IPC: 4 (Simulation time: 00 hr 00 min 55 sec)
Heartbeat CPU 0 instructions: 20000000 cycles: 5000061 heartbeat IPC: 4 cumulative IPC: 4 (Simulation time: 00 hr 01 min 57 sec)
Heartbeat CPU 0 instructions: 30000000 cycles: 7500061 heartbeat IPC: 4 cumulative IPC: 4 (Simulation time: 00 hr 03 min 01 sec)
Heartbeat CPU 0 instructions: 40000000 cycles: 10000061 heartbeat IPC: 4 cumulative IPC: 4 (Simulation time: 00 hr 03 min 59 sec)
Heartbeat CPU 0 instructions: 50000000 cycles: 12500061 heartbeat IPC: 4 cumulative IPC: 4 (Simulation time: 00 hr 04 min 52 sec)
Warmup finished CPU 0 instructions: 50000000 cycles: 12500062 cumulative IPC: 4 (Simulation time: 00 hr 04 min 52 sec)
Warmup complete CPU 0 instructions: 50000000 cycles: 12500062 cumulative IPC: 4 (Simulation time: 00 hr 04 min 52 sec)
Heartbeat CPU 0 instructions: 60000002 cycles: 16896901 heartbeat IPC: 2.274 cumulative IPC: 2.274 (Simulation time: 00 hr 06 min 04 sec)
Heartbeat CPU 0 instructions: 70000003 cycles: 21873886 heartbeat IPC: 2.009 cumulative IPC: 2.134 (Simulation time: 00 hr 07 min 18 sec)
Heartbeat CPU 0 instructions: 80000001 cycles: 27216612 heartbeat IPC: 1.872 cumulative IPC: 2.039 (Simulation time: 00 hr 08 min 37 sec)
Heartbeat CPU 0 instructions: 90000000 cycles: 31511289 heartbeat IPC: 2.328 cumulative IPC: 2.104 (Simulation time: 00 hr 09 min 49 sec)
Heartbeat CPU 0 instructions: 100000003 cycles: 36359280 heartbeat IPC: 2.063 cumulative IPC: 2.096 (Simulation time: 00 hr 11 min 01 sec)
Heartbeat CPU 0 instructions: 110000002 cycles: 41221329 heartbeat IPC: 2.057 cumulative IPC: 2.089 (Simulation time: 00 hr 12 min 09 sec)
Heartbeat CPU 0 instructions: 120000001 cycles: 46213575 heartbeat IPC: 2.003 cumulative IPC: 2.076 (Simulation time: 00 hr 13 min 15 sec)
Heartbeat CPU 0 instructions: 130000003 cycles: 50771870 heartbeat IPC: 2.194 cumulative IPC: 2.09 (Simulation time: 00 hr 14 min 29 sec)
Heartbeat CPU 0 instructions: 140000002 cycles: 55654358 heartbeat IPC: 2.048 cumulative IPC: 2.086 (Simulation time: 00 hr 16 min 04 sec)
Heartbeat CPU 0 instructions: 150000001 cycles: 60312932 heartbeat IPC: 2.147 cumulative IPC: 2.091 (Simulation time: 00 hr 17 min 29 sec)
Heartbeat CPU 0 instructions: 160000000 cycles: 64941563 heartbeat IPC: 2.16 cumulative IPC: 2.098 (Simulation time: 00 hr 18 min 45 sec)
Heartbeat CPU 0 instructions: 170000000 cycles: 70266229 heartbeat IPC: 1.878 cumulative IPC: 2.077 (Simulation time: 00 hr 20 min 08 sec)
Heartbeat CPU 0 instructions: 180000001 cycles: 75980484 heartbeat IPC: 1.75 cumulative IPC: 2.048 (Simulation time: 00 hr 21 min 35 sec)
Heartbeat CPU 0 instructions: 190000002 cycles: 80441974 heartbeat IPC: 2.241 cumulative IPC: 2.061 (Simulation time: 00 hr 22 min 47 sec)
Heartbeat CPU 0 instructions: 200000002 cycles: 85331820 heartbeat IPC: 2.045 cumulative IPC: 2.06 (Simulation time: 00 hr 23 min 58 sec)
Heartbeat CPU 0 instructions: 210000000 cycles: 90331024 heartbeat IPC: 2 cumulative IPC: 2.056 (Simulation time: 00 hr 25 min 07 sec)
Heartbeat CPU 0 instructions: 220000001 cycles: 95252546 heartbeat IPC: 2.032 cumulative IPC: 2.054 (Simulation time: 00 hr 26 min 27 sec)
Heartbeat CPU 0 instructions: 230000002 cycles: 100491909 heartbeat IPC: 1.909 cumulative IPC: 2.046 (Simulation time: 00 hr 28 min 09 sec)
Heartbeat CPU 0 instructions: 240000001 cycles: 105448576 heartbeat IPC: 2.017 cumulative IPC: 2.044 (Simulation time: 00 hr 29 min 34 sec)
Heartbeat CPU 0 instructions: 250000003 cycles: 110622572 heartbeat IPC: 1.933 cumulative IPC: 2.038 (Simulation time: 00 hr 30 min 53 sec)
Heartbeat CPU 0 instructions: 260000001 cycles: 115489204 heartbeat IPC: 2.055 cumulative IPC: 2.039 (Simulation time: 00 hr 32 min 04 sec)
Heartbeat CPU 0 instructions: 270000000 cycles: 122906684 heartbeat IPC: 1.348 cumulative IPC: 1.993 (Simulation time: 00 hr 33 min 41 sec)
Heartbeat CPU 0 instructions: 280000000 cycles: 133959937 heartbeat IPC: 0.9047 cumulative IPC: 1.894 (Simulation time: 00 hr 35 min 45 sec)
Heartbeat CPU 0 instructions: 290000001 cycles: 143569692 heartbeat IPC: 1.041 cumulative IPC: 1.831 (Simulation time: 00 hr 37 min 33 sec)
Heartbeat CPU 0 instructions: 300000003 cycles: 151055429 heartbeat IPC: 1.336 cumulative IPC: 1.804 (Simulation time: 00 hr 39 min 31 sec)
Heartbeat CPU 0 instructions: 310000004 cycles: 162284885 heartbeat IPC: 0.8905 cumulative IPC: 1.736 (Simulation time: 00 hr 42 min 09 sec)
Heartbeat CPU 0 instructions: 320000004 cycles: 168000104 heartbeat IPC: 1.75 cumulative IPC: 1.736 (Simulation time: 00 hr 43 min 40 sec)
Heartbeat CPU 0 instructions: 330000000 cycles: 173286859 heartbeat IPC: 1.892 cumulative IPC: 1.741 (Simulation time: 00 hr 45 min 09 sec)
Heartbeat CPU 0 instructions: 340000001 cycles: 178478658 heartbeat IPC: 1.926 cumulative IPC: 1.747 (Simulation time: 00 hr 46 min 32 sec)
Heartbeat CPU 0 instructions: 350000000 cycles: 183862572 heartbeat IPC: 1.857 cumulative IPC: 1.751 (Simulation time: 00 hr 47 min 52 sec)
Heartbeat CPU 0 instructions: 360000003 cycles: 189027605 heartbeat IPC: 1.936 cumulative IPC: 1.756 (Simulation time: 00 hr 49 min 07 sec)
Heartbeat CPU 0 instructions: 370000001 cycles: 194107113 heartbeat IPC: 1.969 cumulative IPC: 1.762 (Simulation time: 00 hr 50 min 21 sec)
Heartbeat CPU 0 instructions: 380000004 cycles: 199463306 heartbeat IPC: 1.867 cumulative IPC: 1.765 (Simulation time: 00 hr 51 min 48 sec)
Heartbeat CPU 0 instructions: 390000002 cycles: 204863402 heartbeat IPC: 1.852 cumulative IPC: 1.767 (Simulation time: 00 hr 53 min 35 sec)
Heartbeat CPU 0 instructions: 400000000 cycles: 210352408 heartbeat IPC: 1.822 cumulative IPC: 1.769 (Simulation time: 00 hr 55 min 12 sec)
Heartbeat CPU 0 instructions: 410000000 cycles: 218412135 heartbeat IPC: 1.241 cumulative IPC: 1.748 (Simulation time: 00 hr 57 min 10 sec)
Heartbeat CPU 0 instructions: 420000001 cycles: 229347262 heartbeat IPC: 0.9145 cumulative IPC: 1.706 (Simulation time: 00 hr 59 min 30 sec)
Heartbeat CPU 0 instructions: 430000000 cycles: 237016518 heartbeat IPC: 1.304 cumulative IPC: 1.693 (Simulation time: 01 hr 01 min 15 sec)
Heartbeat CPU 0 instructions: 440000002 cycles: 244097196 heartbeat IPC: 1.412 cumulative IPC: 1.684 (Simulation time: 01 hr 02 min 48 sec)
Heartbeat CPU 0 instructions: 450000000 cycles: 250829654 heartbeat IPC: 1.485 cumulative IPC: 1.678 (Simulation time: 01 hr 04 min 25 sec)
Heartbeat CPU 0 instructions: 460000002 cycles: 261808140 heartbeat IPC: 0.9109 cumulative IPC: 1.645 (Simulation time: 01 hr 07 min 15 sec)
Heartbeat CPU 0 instructions: 470000000 cycles: 271978922 heartbeat IPC: 0.9832 cumulative IPC: 1.619 (Simulation time: 01 hr 09 min 22 sec)
Heartbeat CPU 0 instructions: 480000000 cycles: 277433452 heartbeat IPC: 1.833 cumulative IPC: 1.623 (Simulation time: 01 hr 10 min 45 sec)
Heartbeat CPU 0 instructions: 490000001 cycles: 283146189 heartbeat IPC: 1.75 cumulative IPC: 1.626 (Simulation time: 01 hr 12 min 11 sec)
Heartbeat CPU 0 instructions: 500000002 cycles: 288732058 heartbeat IPC: 1.79 cumulative IPC: 1.629 (Simulation time: 01 hr 13 min 31 sec)
Heartbeat CPU 0 instructions: 510000000 cycles: 294406746 heartbeat IPC: 1.762 cumulative IPC: 1.632 (Simulation time: 01 hr 14 min 58 sec)
Heartbeat CPU 0 instructions: 520000000 cycles: 300153119 heartbeat IPC: 1.74 cumulative IPC: 1.634 (Simulation time: 01 hr 16 min 39 sec)
Heartbeat CPU 0 instructions: 530000001 cycles: 311292187 heartbeat IPC: 0.8977 cumulative IPC: 1.606 (Simulation time: 01 hr 19 min 13 sec)
Heartbeat CPU 0 instructions: 540000000 cycles: 322040326 heartbeat IPC: 0.9304 cumulative IPC: 1.583 (Simulation time: 01 hr 21 min 26 sec)
Heartbeat CPU 0 instructions: 550000002 cycles: 334570402 heartbeat IPC: 0.7981 cumulative IPC: 1.552 (Simulation time: 01 hr 23 min 52 sec)
Heartbeat CPU 0 instructions: 560000004 cycles: 339540965 heartbeat IPC: 2.012 cumulative IPC: 1.559 (Simulation time: 01 hr 25 min 25 sec)
Heartbeat CPU 0 instructions: 570000001 cycles: 343951578 heartbeat IPC: 2.267 cumulative IPC: 1.569 (Simulation time: 01 hr 26 min 49 sec)
Heartbeat CPU 0 instructions: 580000003 cycles: 348190605 heartbeat IPC: 2.359 cumulative IPC: 1.579 (Simulation time: 01 hr 28 min 06 sec)
Heartbeat CPU 0 instructions: 590000001 cycles: 353096336 heartbeat IPC: 2.038 cumulative IPC: 1.585 (Simulation time: 01 hr 29 min 29 sec)
Heartbeat CPU 0 instructions: 600000003 cycles: 357739179 heartbeat IPC: 2.154 cumulative IPC: 1.593 (Simulation time: 01 hr 30 min 46 sec)
Heartbeat CPU 0 instructions: 610000001 cycles: 362604423 heartbeat IPC: 2.055 cumulative IPC: 1.6 (Simulation time: 01 hr 32 min 03 sec)
Heartbeat CPU 0 instructions: 620000000 cycles: 367671598 heartbeat IPC: 1.973 cumulative IPC: 1.605 (Simulation time: 01 hr 33 min 19 sec)
Heartbeat CPU 0 instructions: 630000002 cycles: 371914064 heartbeat IPC: 2.357 cumulative IPC: 1.614 (Simulation time: 01 hr 34 min 37 sec)
Heartbeat CPU 0 instructions: 640000004 cycles: 377234230 heartbeat IPC: 1.88 cumulative IPC: 1.618 (Simulation time: 01 hr 36 min 13 sec)
Heartbeat CPU 0 instructions: 650000001 cycles: 381992990 heartbeat IPC: 2.101 cumulative IPC: 1.624 (Simulation time: 01 hr 37 min 44 sec)
Simulation finished CPU 0 instructions: 600000001 cycles: 369492929 cumulative IPC: 1.624 (Simulation time: 01 hr 37 min 44 sec)
Simulation complete CPU 0 instructions: 600000001 cycles: 369492929 cumulative IPC: 1.624 (Simulation time: 01 hr 37 min 44 sec)

ChampSim completed all CPUs

=== Simulation ===
CPU 0 runs traces/400.perlbench-50B.champsimtrace.xz
Region of Interest Statistics

CPU 0 cumulative IPC: 1.624 instructions: 600000001 cycles: 369492929
CPU 0 Branch Prediction Accuracy: 93.83% MPKI: 12.71 Average ROB Occupancy at Mispredict: 29.28
Branch type MPKI
BRANCH_DIRECT_JUMP: 0.0176
BRANCH_INDIRECT: 0.38
BRANCH_CONDITIONAL: 11.9
BRANCH_DIRECT_CALL: 0.0067
BRANCH_INDIRECT_CALL: 0.431
BRANCH_RETURN: 0.0161

LLC TOTAL        ACCESS:    1385090 HIT:     901975 MISS:     483115
LLC LOAD         ACCESS:     592619 HIT:     375131 MISS:     217488
LLC RFO          ACCESS:      47392 HIT:      27122 MISS:      20270
LLC PREFETCH     ACCESS:     592619 HIT:     360203 MISS:     232416
LLC WRITE        ACCESS:     130598 HIT:     130130 MISS:        468
LLC TRANSLATION  ACCESS:      21862 HIT:       9389 MISS:      12473
LLC PREFETCH REQUESTED:     592619 ISSUED:     592619 USEFUL:      88423 USELESS:      82939
LLC AVERAGE MISS LATENCY: 555.3 cycles
cpu0_DTLB TOTAL        ACCESS:  156773818 HIT:  155474021 MISS:    1299797
cpu0_DTLB LOAD         ACCESS:  156773818 HIT:  155474021 MISS:    1299797
cpu0_DTLB RFO          ACCESS:          0 HIT:          0 MISS:          0
cpu0_DTLB PREFETCH     ACCESS:          0 HIT:          0 MISS:          0
cpu0_DTLB WRITE        ACCESS:          0 HIT:          0 MISS:          0
cpu0_DTLB TRANSLATION  ACCESS:          0 HIT:          0 MISS:          0
cpu0_DTLB PREFETCH REQUESTED:          0 ISSUED:          0 USEFUL:          0 USELESS:          0
cpu0_DTLB AVERAGE MISS LATENCY: 12.98 cycles
cpu0_ITLB TOTAL        ACCESS:    8931977 HIT:    8733319 MISS:     198658
cpu0_ITLB LOAD         ACCESS:    8931977 HIT:    8733319 MISS:     198658
cpu0_ITLB RFO          ACCESS:          0 HIT:          0 MISS:          0
cpu0_ITLB PREFETCH     ACCESS:          0 HIT:          0 MISS:          0
cpu0_ITLB WRITE        ACCESS:          0 HIT:          0 MISS:          0
cpu0_ITLB TRANSLATION  ACCESS:          0 HIT:          0 MISS:          0
cpu0_ITLB PREFETCH REQUESTED:          0 ISSUED:          0 USEFUL:          0 USELESS:          0
cpu0_ITLB AVERAGE MISS LATENCY: 3.551 cycles
cpu0_L1D TOTAL        ACCESS:  203644045 HIT:  200760262 MISS:    2883783
cpu0_L1D LOAD         ACCESS:  117967031 HIT:  115600600 MISS:    2366431
cpu0_L1D RFO          ACCESS:          0 HIT:          0 MISS:          0
cpu0_L1D PREFETCH     ACCESS:          0 HIT:          0 MISS:          0
cpu0_L1D WRITE        ACCESS:   85648480 HIT:   85157670 MISS:     490810
cpu0_L1D TRANSLATION  ACCESS:      28534 HIT:       1992 MISS:      26542
cpu0_L1D PREFETCH REQUESTED:          0 ISSUED:          0 USEFUL:          0 USELESS:          0
cpu0_L1D AVERAGE MISS LATENCY: 57.38 cycles
cpu0_L1I TOTAL        ACCESS:   10370684 HIT:    8573474 MISS:    1797210
cpu0_L1I LOAD         ACCESS:   10370684 HIT:    8573474 MISS:    1797210
cpu0_L1I RFO          ACCESS:          0 HIT:          0 MISS:          0
cpu0_L1I PREFETCH     ACCESS:          0 HIT:          0 MISS:          0
cpu0_L1I WRITE        ACCESS:          0 HIT:          0 MISS:          0
cpu0_L1I TRANSLATION  ACCESS:          0 HIT:          0 MISS:          0
cpu0_L1I PREFETCH REQUESTED:          0 ISSUED:          0 USEFUL:          0 USELESS:          0
cpu0_L1I AVERAGE MISS LATENCY: 11.11 cycles
cpu0_L2C TOTAL        ACCESS:    3235152 HIT:    2566626 MISS:     668526
cpu0_L2C LOAD         ACCESS:    2711631 HIT:    2119010 MISS:     592621
cpu0_L2C RFO          ACCESS:     133692 HIT:      86300 MISS:      47392
cpu0_L2C PREFETCH     ACCESS:          0 HIT:          0 MISS:          0
cpu0_L2C WRITE        ACCESS:     363372 HIT:     356721 MISS:       6651
cpu0_L2C TRANSLATION  ACCESS:      26457 HIT:       4595 MISS:      21862
cpu0_L2C PREFETCH REQUESTED:          0 ISSUED:          0 USEFUL:          0 USELESS:          0
cpu0_L2C AVERAGE MISS LATENCY: 244.2 cycles
cpu0_STLB TOTAL        ACCESS:    1009132 HIT:     982445 MISS:      26687
cpu0_STLB LOAD         ACCESS:    1009132 HIT:     982445 MISS:      26687
cpu0_STLB RFO          ACCESS:          0 HIT:          0 MISS:          0
cpu0_STLB PREFETCH     ACCESS:          0 HIT:          0 MISS:          0
cpu0_STLB WRITE        ACCESS:          0 HIT:          0 MISS:          0
cpu0_STLB TRANSLATION  ACCESS:          0 HIT:          0 MISS:          0
cpu0_STLB PREFETCH REQUESTED:          0 ISSUED:          0 USEFUL:          0 USELESS:          0
cpu0_STLB AVERAGE MISS LATENCY: 416.9 cycles

DRAM Statistics

Channel 0 RQ ROW_BUFFER_HIT:      81088
  ROW_BUFFER_MISS:     331118
 AVG DBUS CONGESTED CYCLE: 3.868
WQ ROW_BUFFER_HIT: Channel 0 
  ROW_BUFFER_MISS:       6531
  FULL:      47245
