WARNING: physical memory size is smaller than virtual memory size.

*** ChampSim Multicore Out-of-Order Simulator ***
Warmup Instructions: 50000000
Simulation Instructions: 600000000
Number of CPUs: 1
Page size: 4096

CPU 0 Tage branch predictor
Off-chip DRAM Size: 4 GiB Channels: 1 Width: 64-bit Data Race: 3200 MT/s
Heartbeat CPU 0 instructions: 10000000 cycles: 2500061 heartbeat IPC: 4 cumulative IPC: 4 (Simulation time: 00 hr 01 min 00 sec)
Heartbeat CPU 0 instructions: 20000000 cycles: 5000061 heartbeat IPC: 4 cumulative IPC: 4 (Simulation time: 00 hr 01 min 54 sec)
Heartbeat CPU 0 instructions: 30000000 cycles: 7500061 heartbeat IPC: 4 cumulative IPC: 4 (Simulation time: 00 hr 02 min 47 sec)
Heartbeat CPU 0 instructions: 40000000 cycles: 10000061 heartbeat IPC: 4 cumulative IPC: 4 (Simulation time: 00 hr 03 min 49 sec)
Heartbeat CPU 0 instructions: 50000000 cycles: 12500061 heartbeat IPC: 4 cumulative IPC: 4 (Simulation time: 00 hr 04 min 59 sec)
Warmup finished CPU 0 instructions: 50000000 cycles: 12500062 cumulative IPC: 4 (Simulation time: 00 hr 04 min 59 sec)
Warmup complete CPU 0 instructions: 50000000 cycles: 12500062 cumulative IPC: 4 (Simulation time: 00 hr 04 min 59 sec)
Heartbeat CPU 0 instructions: 60000004 cycles: 15504211 heartbeat IPC: 3.329 cumulative IPC: 3.329 (Simulation time: 00 hr 06 min 23 sec)
Heartbeat CPU 0 instructions: 70000003 cycles: 18370187 heartbeat IPC: 3.489 cumulative IPC: 3.407 (Simulation time: 00 hr 07 min 38 sec)
Heartbeat CPU 0 instructions: 80000002 cycles: 21381308 heartbeat IPC: 3.321 cumulative IPC: 3.378 (Simulation time: 00 hr 08 min 50 sec)
Heartbeat CPU 0 instructions: 90000000 cycles: 24099104 heartbeat IPC: 3.679 cumulative IPC: 3.449 (Simulation time: 00 hr 10 min 00 sec)
Heartbeat CPU 0 instructions: 100000003 cycles: 26855682 heartbeat IPC: 3.628 cumulative IPC: 3.483 (Simulation time: 00 hr 11 min 14 sec)
Heartbeat CPU 0 instructions: 110000001 cycles: 29753191 heartbeat IPC: 3.451 cumulative IPC: 3.478 (Simulation time: 00 hr 12 min 26 sec)
Heartbeat CPU 0 instructions: 120000001 cycles: 32469614 heartbeat IPC: 3.681 cumulative IPC: 3.505 (Simulation time: 00 hr 13 min 35 sec)
Heartbeat CPU 0 instructions: 130000003 cycles: 35368912 heartbeat IPC: 3.449 cumulative IPC: 3.498 (Simulation time: 00 hr 14 min 43 sec)
Heartbeat CPU 0 instructions: 140000002 cycles: 38202933 heartbeat IPC: 3.529 cumulative IPC: 3.502 (Simulation time: 00 hr 15 min 51 sec)
Heartbeat CPU 0 instructions: 150000001 cycles: 40973175 heartbeat IPC: 3.61 cumulative IPC: 3.512 (Simulation time: 00 hr 17 min 15 sec)
Heartbeat CPU 0 instructions: 160000000 cycles: 43890705 heartbeat IPC: 3.428 cumulative IPC: 3.504 (Simulation time: 00 hr 18 min 43 sec)
Heartbeat CPU 0 instructions: 170000001 cycles: 46818939 heartbeat IPC: 3.415 cumulative IPC: 3.497 (Simulation time: 00 hr 20 min 02 sec)
Heartbeat CPU 0 instructions: 180000000 cycles: 49609778 heartbeat IPC: 3.583 cumulative IPC: 3.503 (Simulation time: 00 hr 21 min 13 sec)
Heartbeat CPU 0 instructions: 190000002 cycles: 52317790 heartbeat IPC: 3.693 cumulative IPC: 3.516 (Simulation time: 00 hr 22 min 21 sec)
Heartbeat CPU 0 instructions: 200000002 cycles: 55138349 heartbeat IPC: 3.545 cumulative IPC: 3.518 (Simulation time: 00 hr 23 min 29 sec)
Heartbeat CPU 0 instructions: 210000000 cycles: 58030352 heartbeat IPC: 3.458 cumulative IPC: 3.514 (Simulation time: 00 hr 24 min 38 sec)
Heartbeat CPU 0 instructions: 220000001 cycles: 60782145 heartbeat IPC: 3.634 cumulative IPC: 3.521 (Simulation time: 00 hr 25 min 48 sec)
Heartbeat CPU 0 instructions: 230000002 cycles: 63671555 heartbeat IPC: 3.461 cumulative IPC: 3.518 (Simulation time: 00 hr 26 min 57 sec)
Heartbeat CPU 0 instructions: 240000004 cycles: 66622481 heartbeat IPC: 3.389 cumulative IPC: 3.511 (Simulation time: 00 hr 28 min 05 sec)
Heartbeat CPU 0 instructions: 250000003 cycles: 69512801 heartbeat IPC: 3.46 cumulative IPC: 3.508 (Simulation time: 00 hr 29 min 19 sec)
Heartbeat CPU 0 instructions: 260000001 cycles: 72297068 heartbeat IPC: 3.592 cumulative IPC: 3.512 (Simulation time: 00 hr 30 min 49 sec)
Heartbeat CPU 0 instructions: 270000002 cycles: 78100090 heartbeat IPC: 1.723 cumulative IPC: 3.354 (Simulation time: 00 hr 32 min 42 sec)
Heartbeat CPU 0 instructions: 280000000 cycles: 86639623 heartbeat IPC: 1.171 cumulative IPC: 3.102 (Simulation time: 00 hr 34 min 49 sec)
Heartbeat CPU 0 instructions: 290000000 cycles: 94027768 heartbeat IPC: 1.354 cumulative IPC: 2.944 (Simulation time: 00 hr 36 min 48 sec)
Heartbeat CPU 0 instructions: 300000003 cycles: 99849349 heartbeat IPC: 1.718 cumulative IPC: 2.862 (Simulation time: 00 hr 38 min 31 sec)
Heartbeat CPU 0 instructions: 310000001 cycles: 108698842 heartbeat IPC: 1.13 cumulative IPC: 2.703 (Simulation time: 00 hr 40 min 39 sec)
Heartbeat CPU 0 instructions: 320000004 cycles: 112829105 heartbeat IPC: 2.421 cumulative IPC: 2.691 (Simulation time: 00 hr 42 min 07 sec)
Heartbeat CPU 0 instructions: 330000000 cycles: 115977750 heartbeat IPC: 3.176 cumulative IPC: 2.706 (Simulation time: 00 hr 43 min 44 sec)
Heartbeat CPU 0 instructions: 340000001 cycles: 119160610 heartbeat IPC: 3.142 cumulative IPC: 2.719 (Simulation time: 00 hr 45 min 11 sec)
Heartbeat CPU 0 instructions: 350000000 cycles: 122513239 heartbeat IPC: 2.983 cumulative IPC: 2.727 (Simulation time: 00 hr 46 min 34 sec)
Heartbeat CPU 0 instructions: 360000004 cycles: 125666418 heartbeat IPC: 3.171 cumulative IPC: 2.739 (Simulation time: 00 hr 47 min 49 sec)
Heartbeat CPU 0 instructions: 370000001 cycles: 128732394 heartbeat IPC: 3.262 cumulative IPC: 2.753 (Simulation time: 00 hr 49 min 02 sec)
Heartbeat CPU 0 instructions: 380000004 cycles: 131807161 heartbeat IPC: 3.252 cumulative IPC: 2.766 (Simulation time: 00 hr 50 min 16 sec)
Heartbeat CPU 0 instructions: 390000002 cycles: 135064019 heartbeat IPC: 3.07 cumulative IPC: 2.774 (Simulation time: 00 hr 51 min 27 sec)
Heartbeat CPU 0 instructions: 400000000 cycles: 138388084 heartbeat IPC: 3.008 cumulative IPC: 2.78 (Simulation time: 00 hr 52 min 40 sec)
Heartbeat CPU 0 instructions: 410000000 cycles: 144508912 heartbeat IPC: 1.634 cumulative IPC: 2.727 (Simulation time: 00 hr 54 min 19 sec)
Heartbeat CPU 0 instructions: 420000003 cycles: 152704347 heartbeat IPC: 1.22 cumulative IPC: 2.639 (Simulation time: 00 hr 56 min 37 sec)
Heartbeat CPU 0 instructions: 430000004 cycles: 158643876 heartbeat IPC: 1.684 cumulative IPC: 2.6 (Simulation time: 00 hr 58 min 39 sec)
Heartbeat CPU 0 instructions: 440000004 cycles: 164344231 heartbeat IPC: 1.754 cumulative IPC: 2.568 (Simulation time: 01 hr 00 min 26 sec)
Heartbeat CPU 0 instructions: 450000000 cycles: 169661222 heartbeat IPC: 1.881 cumulative IPC: 2.545 (Simulation time: 01 hr 02 min 03 sec)
Heartbeat CPU 0 instructions: 460000002 cycles: 178547713 heartbeat IPC: 1.125 cumulative IPC: 2.469 (Simulation time: 01 hr 04 min 16 sec)
Heartbeat CPU 0 instructions: 470000003 cycles: 186452567 heartbeat IPC: 1.265 cumulative IPC: 2.414 (Simulation time: 01 hr 06 min 18 sec)
Heartbeat CPU 0 instructions: 480000000 cycles: 189848476 heartbeat IPC: 2.945 cumulative IPC: 2.425 (Simulation time: 01 hr 07 min 31 sec)
Heartbeat CPU 0 instructions: 490000001 cycles: 193384410 heartbeat IPC: 2.828 cumulative IPC: 2.432 (Simulation time: 01 hr 09 min 03 sec)
Heartbeat CPU 0 instructions: 500000002 cycles: 196810727 heartbeat IPC: 2.919 cumulative IPC: 2.442 (Simulation time: 01 hr 10 min 43 sec)
Heartbeat CPU 0 instructions: 510000000 cycles: 200190719 heartbeat IPC: 2.959 cumulative IPC: 2.451 (Simulation time: 01 hr 12 min 16 sec)
Heartbeat CPU 0 instructions: 520000000 cycles: 203603183 heartbeat IPC: 2.93 cumulative IPC: 2.459 (Simulation time: 01 hr 13 min 38 sec)
Heartbeat CPU 0 instructions: 530000001 cycles: 212523502 heartbeat IPC: 1.121 cumulative IPC: 2.4 (Simulation time: 01 hr 15 min 48 sec)
Heartbeat CPU 0 instructions: 540000000 cycles: 220947719 heartbeat IPC: 1.187 cumulative IPC: 2.351 (Simulation time: 01 hr 17 min 50 sec)
Heartbeat CPU 0 instructions: 550000004 cycles: 231403382 heartbeat IPC: 0.9564 cumulative IPC: 2.284 (Simulation time: 01 hr 20 min 11 sec)
Heartbeat CPU 0 instructions: 560000004 cycles: 235073844 heartbeat IPC: 2.724 cumulative IPC: 2.291 (Simulation time: 01 hr 21 min 29 sec)
Heartbeat CPU 0 instructions: 570000002 cycles: 237898068 heartbeat IPC: 3.541 cumulative IPC: 2.307 (Simulation time: 01 hr 22 min 52 sec)
Heartbeat CPU 0 instructions: 580000000 cycles: 240822917 heartbeat IPC: 3.419 cumulative IPC: 2.321 (Simulation time: 01 hr 24 min 20 sec)
Heartbeat CPU 0 instructions: 590000001 cycles: 243752173 heartbeat IPC: 3.414 cumulative IPC: 2.335 (Simulation time: 01 hr 25 min 44 sec)
Heartbeat CPU 0 instructions: 600000003 cycles: 246447145 heartbeat IPC: 3.711 cumulative IPC: 2.351 (Simulation time: 01 hr 27 min 03 sec)
Heartbeat CPU 0 instructions: 610000001 cycles: 249312461 heartbeat IPC: 3.49 cumulative IPC: 2.365 (Simulation time: 01 hr 28 min 17 sec)
Heartbeat CPU 0 instructions: 620000004 cycles: 252263449 heartbeat IPC: 3.389 cumulative IPC: 2.377 (Simulation time: 01 hr 29 min 35 sec)
Heartbeat CPU 0 instructions: 630000002 cycles: 255074875 heartbeat IPC: 3.557 cumulative IPC: 2.391 (Simulation time: 01 hr 30 min 53 sec)
Heartbeat CPU 0 instructions: 640000004 cycles: 258119645 heartbeat IPC: 3.284 cumulative IPC: 2.402 (Simulation time: 01 hr 32 min 05 sec)
Heartbeat CPU 0 instructions: 650000001 cycles: 260829000 heartbeat IPC: 3.691 cumulative IPC: 2.416 (Simulation time: 01 hr 33 min 15 sec)
Simulation finished CPU 0 instructions: 600000001 cycles: 248328939 cumulative IPC: 2.416 (Simulation time: 01 hr 33 min 15 sec)
Simulation complete CPU 0 instructions: 600000001 cycles: 248328939 cumulative IPC: 2.416 (Simulation time: 01 hr 33 min 15 sec)

ChampSim completed all CPUs

=== Simulation ===
CPU 0 runs traces/400.perlbench-50B.champsimtrace.xz
Region of Interest Statistics

CPU 0 cumulative IPC: 2.416 instructions: 600000001 cycles: 248328939
CPU 0 Branch Prediction Accuracy: 99.01% MPKI: 2.04 Average ROB Occupancy at Mispredict: 94.94
Branch type MPKI
BRANCH_DIRECT_JUMP: 0.0176
BRANCH_INDIRECT: 0.38
BRANCH_CONDITIONAL: 1.19
BRANCH_DIRECT_CALL: 0.0067
BRANCH_INDIRECT_CALL: 0.431
BRANCH_RETURN: 0.0161

LLC TOTAL        ACCESS:     781366 HIT:     464789 MISS:     316577
LLC LOAD         ACCESS:     582666 HIT:     309592 MISS:     273074
LLC RFO          ACCESS:      47048 HIT:      33288 MISS:      13760
LLC PREFETCH     ACCESS:          0 HIT:          0 MISS:          0
LLC WRITE        ACCESS:     129717 HIT:     115804 MISS:      13913
LLC TRANSLATION  ACCESS:      21935 HIT:       6105 MISS:      15830
LLC PREFETCH REQUESTED:          0 ISSUED:          0 USEFUL:          0 USELESS:          0
LLC AVERAGE MISS LATENCY: 524.4 cycles
cpu0_DTLB TOTAL        ACCESS:  133215075 HIT:  131861168 MISS:    1353907
cpu0_DTLB LOAD         ACCESS:  133215075 HIT:  131861168 MISS:    1353907
cpu0_DTLB RFO          ACCESS:          0 HIT:          0 MISS:          0
cpu0_DTLB PREFETCH     ACCESS:          0 HIT:          0 MISS:          0
cpu0_DTLB WRITE        ACCESS:          0 HIT:          0 MISS:          0
cpu0_DTLB TRANSLATION  ACCESS:          0 HIT:          0 MISS:          0
cpu0_DTLB PREFETCH REQUESTED:          0 ISSUED:          0 USEFUL:          0 USELESS:          0
cpu0_DTLB AVERAGE MISS LATENCY: 13.02 cycles
cpu0_ITLB TOTAL        ACCESS:    9001304 HIT:    8791669 MISS:     209635
cpu0_ITLB LOAD         ACCESS:    9001304 HIT:    8791669 MISS:     209635
cpu0_ITLB RFO          ACCESS:          0 HIT:          0 MISS:          0
cpu0_ITLB PREFETCH     ACCESS:          0 HIT:          0 MISS:          0
cpu0_ITLB WRITE        ACCESS:          0 HIT:          0 MISS:          0
cpu0_ITLB TRANSLATION  ACCESS:          0 HIT:          0 MISS:          0
cpu0_ITLB PREFETCH REQUESTED:          0 ISSUED:          0 USEFUL:          0 USELESS:          0
cpu0_ITLB AVERAGE MISS LATENCY: 3.048 cycles
cpu0_L1D TOTAL        ACCESS:  178256421 HIT:  175276248 MISS:    2980173
cpu0_L1D LOAD         ACCESS:   92738336 HIT:   90276503 MISS:    2461833
cpu0_L1D RFO          ACCESS:          0 HIT:          0 MISS:          0
cpu0_L1D PREFETCH     ACCESS:          0 HIT:          0 MISS:          0
cpu0_L1D WRITE        ACCESS:   85489547 HIT:   84997744 MISS:     491803
cpu0_L1D TRANSLATION  ACCESS:      28538 HIT:       2001 MISS:      26537
cpu0_L1D PREFETCH REQUESTED:          0 ISSUED:          0 USEFUL:          0 USELESS:          0
cpu0_L1D AVERAGE MISS LATENCY: 57.24 cycles
cpu0_L1I TOTAL        ACCESS:   10520010 HIT:    8622816 MISS:    1897194
cpu0_L1I LOAD         ACCESS:   10520010 HIT:    8622816 MISS:    1897194
cpu0_L1I RFO          ACCESS:          0 HIT:          0 MISS:          0
cpu0_L1I PREFETCH     ACCESS:          0 HIT:          0 MISS:          0
cpu0_L1I WRITE        ACCESS:          0 HIT:          0 MISS:          0
cpu0_L1I TRANSLATION  ACCESS:          0 HIT:          0 MISS:          0
cpu0_L1I PREFETCH REQUESTED:          0 ISSUED:          0 USEFUL:          0 USELESS:          0
cpu0_L1I AVERAGE MISS LATENCY: 12.52 cycles
cpu0_L2C TOTAL        ACCESS:    3235964 HIT:    2577974 MISS:     657990
cpu0_L2C LOAD         ACCESS:    2708936 HIT:    2126270 MISS:     582666
cpu0_L2C RFO          ACCESS:     135614 HIT:      88565 MISS:      47049
cpu0_L2C PREFETCH     ACCESS:          0 HIT:          0 MISS:          0
cpu0_L2C WRITE        ACCESS:     364960 HIT:     358620 MISS:       6340
cpu0_L2C TRANSLATION  ACCESS:      26454 HIT:       4519 MISS:      21935
cpu0_L2C PREFETCH REQUESTED:          0 ISSUED:          0 USEFUL:          0 USELESS:          0
cpu0_L2C AVERAGE MISS LATENCY: 272.6 cycles
cpu0_STLB TOTAL        ACCESS:    1009776 HIT:     983083 MISS:      26693
cpu0_STLB LOAD         ACCESS:    1009776 HIT:     983083 MISS:      26693
cpu0_STLB RFO          ACCESS:          0 HIT:          0 MISS:          0
cpu0_STLB PREFETCH     ACCESS:          0 HIT:          0 MISS:          0
cpu0_STLB WRITE        ACCESS:          0 HIT:          0 MISS:          0
cpu0_STLB TRANSLATION  ACCESS:          0 HIT:          0 MISS:          0
cpu0_STLB PREFETCH REQUESTED:          0 ISSUED:          0 USEFUL:          0 USELESS:          0
cpu0_STLB AVERAGE MISS LATENCY: 463 cycles

DRAM Statistics

Channel 0 RQ ROW_BUFFER_HIT:      71441
  ROW_BUFFER_MISS:     231105
 AVG DBUS CONGESTED CYCLE: 3.766
WQ ROW_BUFFER_HIT: Channel 0 
  ROW_BUFFER_MISS:       5868
  FULL:      12756
