WARNING: physical memory size is smaller than virtual memory size.

*** ChampSim Multicore Out-of-Order Simulator ***
Warmup Instructions: 50000000
Simulation Instructions: 600000000
Number of CPUs: 1
Page size: 4096

Off-chip DRAM Size: 4 GiB Channels: 1 Width: 64-bit Data Race: 3200 MT/s
Heartbeat CPU 0 instructions: 10000000 cycles: 2500061 heartbeat IPC: 4 cumulative IPC: 4 (Simulation time: 00 hr 01 min 09 sec)
Heartbeat CPU 0 instructions: 20000000 cycles: 5000061 heartbeat IPC: 4 cumulative IPC: 4 (Simulation time: 00 hr 01 min 59 sec)
Heartbeat CPU 0 instructions: 30000000 cycles: 7500061 heartbeat IPC: 4 cumulative IPC: 4 (Simulation time: 00 hr 02 min 48 sec)
Heartbeat CPU 0 instructions: 40000000 cycles: 10000061 heartbeat IPC: 4 cumulative IPC: 4 (Simulation time: 00 hr 03 min 37 sec)
Heartbeat CPU 0 instructions: 50000000 cycles: 12500061 heartbeat IPC: 4 cumulative IPC: 4 (Simulation time: 00 hr 04 min 26 sec)
Warmup finished CPU 0 instructions: 50000000 cycles: 12500062 cumulative IPC: 4 (Simulation time: 00 hr 04 min 26 sec)
Warmup complete CPU 0 instructions: 50000000 cycles: 12500062 cumulative IPC: 4 (Simulation time: 00 hr 04 min 26 sec)
Heartbeat CPU 0 instructions: 60000002 cycles: 16897168 heartbeat IPC: 2.274 cumulative IPC: 2.274 (Simulation time: 00 hr 05 min 38 sec)
Heartbeat CPU 0 instructions: 70000003 cycles: 21874323 heartbeat IPC: 2.009 cumulative IPC: 2.134 (Simulation time: 00 hr 06 min 53 sec)
Heartbeat CPU 0 instructions: 80000001 cycles: 27217652 heartbeat IPC: 1.871 cumulative IPC: 2.038 (Simulation time: 00 hr 08 min 11 sec)
Heartbeat CPU 0 instructions: 90000000 cycles: 31512174 heartbeat IPC: 2.329 cumulative IPC: 2.104 (Simulation time: 00 hr 09 min 21 sec)
Heartbeat CPU 0 instructions: 100000003 cycles: 36360283 heartbeat IPC: 2.063 cumulative IPC: 2.096 (Simulation time: 00 hr 10 min 36 sec)
Heartbeat CPU 0 instructions: 110000002 cycles: 41223823 heartbeat IPC: 2.056 cumulative IPC: 2.089 (Simulation time: 00 hr 11 min 51 sec)
Heartbeat CPU 0 instructions: 120000001 cycles: 46216185 heartbeat IPC: 2.003 cumulative IPC: 2.076 (Simulation time: 00 hr 13 min 06 sec)
Heartbeat CPU 0 instructions: 130000003 cycles: 50774631 heartbeat IPC: 2.194 cumulative IPC: 2.09 (Simulation time: 00 hr 14 min 18 sec)
Heartbeat CPU 0 instructions: 140000002 cycles: 55657500 heartbeat IPC: 2.048 cumulative IPC: 2.085 (Simulation time: 00 hr 15 min 36 sec)
Heartbeat CPU 0 instructions: 150000001 cycles: 60315882 heartbeat IPC: 2.147 cumulative IPC: 2.091 (Simulation time: 00 hr 16 min 49 sec)
Heartbeat CPU 0 instructions: 160000000 cycles: 64944965 heartbeat IPC: 2.16 cumulative IPC: 2.097 (Simulation time: 00 hr 18 min 01 sec)
Heartbeat CPU 0 instructions: 170000000 cycles: 70269944 heartbeat IPC: 1.878 cumulative IPC: 2.077 (Simulation time: 00 hr 19 min 19 sec)
Heartbeat CPU 0 instructions: 180000001 cycles: 75985244 heartbeat IPC: 1.75 cumulative IPC: 2.048 (Simulation time: 00 hr 20 min 41 sec)
Heartbeat CPU 0 instructions: 190000002 cycles: 80446549 heartbeat IPC: 2.241 cumulative IPC: 2.06 (Simulation time: 00 hr 21 min 53 sec)
Heartbeat CPU 0 instructions: 200000002 cycles: 85337187 heartbeat IPC: 2.045 cumulative IPC: 2.059 (Simulation time: 00 hr 23 min 08 sec)
Heartbeat CPU 0 instructions: 210000000 cycles: 90334775 heartbeat IPC: 2.001 cumulative IPC: 2.056 (Simulation time: 00 hr 24 min 23 sec)
Heartbeat CPU 0 instructions: 220000001 cycles: 95256096 heartbeat IPC: 2.032 cumulative IPC: 2.054 (Simulation time: 00 hr 25 min 38 sec)
Heartbeat CPU 0 instructions: 230000002 cycles: 100493367 heartbeat IPC: 1.909 cumulative IPC: 2.046 (Simulation time: 00 hr 26 min 55 sec)
Heartbeat CPU 0 instructions: 240000001 cycles: 105450230 heartbeat IPC: 2.017 cumulative IPC: 2.044 (Simulation time: 00 hr 28 min 11 sec)
Heartbeat CPU 0 instructions: 250000003 cycles: 110619443 heartbeat IPC: 1.935 cumulative IPC: 2.038 (Simulation time: 00 hr 29 min 27 sec)
Heartbeat CPU 0 instructions: 260000001 cycles: 115478521 heartbeat IPC: 2.058 cumulative IPC: 2.039 (Simulation time: 00 hr 30 min 43 sec)
Heartbeat CPU 0 instructions: 270000000 cycles: 122734244 heartbeat IPC: 1.378 cumulative IPC: 1.996 (Simulation time: 00 hr 32 min 23 sec)
Heartbeat CPU 0 instructions: 280000000 cycles: 133416756 heartbeat IPC: 0.9361 cumulative IPC: 1.902 (Simulation time: 00 hr 34 min 35 sec)
Heartbeat CPU 0 instructions: 290000001 cycles: 143234081 heartbeat IPC: 1.019 cumulative IPC: 1.836 (Simulation time: 00 hr 36 min 41 sec)
Heartbeat CPU 0 instructions: 300000003 cycles: 150766727 heartbeat IPC: 1.328 cumulative IPC: 1.808 (Simulation time: 00 hr 38 min 27 sec)
Heartbeat CPU 0 instructions: 310000004 cycles: 161714758 heartbeat IPC: 0.9134 cumulative IPC: 1.742 (Simulation time: 00 hr 40 min 43 sec)
Heartbeat CPU 0 instructions: 320000004 cycles: 167420094 heartbeat IPC: 1.753 cumulative IPC: 1.743 (Simulation time: 00 hr 42 min 09 sec)
Heartbeat CPU 0 instructions: 330000000 cycles: 172652668 heartbeat IPC: 1.911 cumulative IPC: 1.748 (Simulation time: 00 hr 43 min 29 sec)
Heartbeat CPU 0 instructions: 340000001 cycles: 177619436 heartbeat IPC: 2.013 cumulative IPC: 1.756 (Simulation time: 00 hr 44 min 45 sec)
Heartbeat CPU 0 instructions: 350000000 cycles: 182866207 heartbeat IPC: 1.906 cumulative IPC: 1.761 (Simulation time: 00 hr 46 min 04 sec)
Heartbeat CPU 0 instructions: 360000003 cycles: 187897399 heartbeat IPC: 1.988 cumulative IPC: 1.767 (Simulation time: 00 hr 47 min 22 sec)
Heartbeat CPU 0 instructions: 370000001 cycles: 192889022 heartbeat IPC: 2.003 cumulative IPC: 1.774 (Simulation time: 00 hr 48 min 39 sec)
Heartbeat CPU 0 instructions: 380000004 cycles: 198155762 heartbeat IPC: 1.899 cumulative IPC: 1.777 (Simulation time: 00 hr 49 min 58 sec)
Heartbeat CPU 0 instructions: 390000002 cycles: 203472742 heartbeat IPC: 1.881 cumulative IPC: 1.78 (Simulation time: 00 hr 51 min 17 sec)
Heartbeat CPU 0 instructions: 400000000 cycles: 208870161 heartbeat IPC: 1.853 cumulative IPC: 1.782 (Simulation time: 00 hr 52 min 38 sec)
Heartbeat CPU 0 instructions: 410000000 cycles: 216521548 heartbeat IPC: 1.307 cumulative IPC: 1.765 (Simulation time: 00 hr 54 min 21 sec)
Heartbeat CPU 0 instructions: 420000001 cycles: 227106497 heartbeat IPC: 0.9447 cumulative IPC: 1.724 (Simulation time: 00 hr 56 min 33 sec)
Heartbeat CPU 0 instructions: 430000000 cycles: 234529682 heartbeat IPC: 1.347 cumulative IPC: 1.711 (Simulation time: 00 hr 58 min 19 sec)
Heartbeat CPU 0 instructions: 440000002 cycles: 241735083 heartbeat IPC: 1.388 cumulative IPC: 1.701 (Simulation time: 01 hr 00 min 02 sec)
Heartbeat CPU 0 instructions: 450000000 cycles: 248532816 heartbeat IPC: 1.471 cumulative IPC: 1.695 (Simulation time: 01 hr 01 min 41 sec)
Heartbeat CPU 0 instructions: 460000002 cycles: 259064651 heartbeat IPC: 0.9495 cumulative IPC: 1.663 (Simulation time: 01 hr 03 min 53 sec)
Heartbeat CPU 0 instructions: 470000000 cycles: 268659182 heartbeat IPC: 1.042 cumulative IPC: 1.64 (Simulation time: 01 hr 05 min 56 sec)
Heartbeat CPU 0 instructions: 480000000 cycles: 273936587 heartbeat IPC: 1.895 cumulative IPC: 1.645 (Simulation time: 01 hr 07 min 15 sec)
Heartbeat CPU 0 instructions: 490000001 cycles: 279418194 heartbeat IPC: 1.824 cumulative IPC: 1.648 (Simulation time: 01 hr 08 min 36 sec)
Heartbeat CPU 0 instructions: 500000002 cycles: 284915866 heartbeat IPC: 1.819 cumulative IPC: 1.652 (Simulation time: 01 hr 09 min 58 sec)
Heartbeat CPU 0 instructions: 510000000 cycles: 290502200 heartbeat IPC: 1.79 cumulative IPC: 1.655 (Simulation time: 01 hr 11 min 21 sec)
Heartbeat CPU 0 instructions: 520000000 cycles: 296152145 heartbeat IPC: 1.77 cumulative IPC: 1.657 (Simulation time: 01 hr 12 min 44 sec)
Heartbeat CPU 0 instructions: 530000001 cycles: 306876566 heartbeat IPC: 0.9325 cumulative IPC: 1.631 (Simulation time: 01 hr 14 min 57 sec)
Heartbeat CPU 0 instructions: 540000000 cycles: 317288972 heartbeat IPC: 0.9604 cumulative IPC: 1.608 (Simulation time: 01 hr 17 min 10 sec)
Heartbeat CPU 0 instructions: 550000002 cycles: 329401595 heartbeat IPC: 0.8256 cumulative IPC: 1.578 (Simulation time: 01 hr 19 min 37 sec)
Heartbeat CPU 0 instructions: 560000004 cycles: 334251549 heartbeat IPC: 2.062 cumulative IPC: 1.585 (Simulation time: 01 hr 20 min 53 sec)
Heartbeat CPU 0 instructions: 570000001 cycles: 338660277 heartbeat IPC: 2.268 cumulative IPC: 1.594 (Simulation time: 01 hr 22 min 06 sec)
Heartbeat CPU 0 instructions: 580000003 cycles: 342888939 heartbeat IPC: 2.365 cumulative IPC: 1.604 (Simulation time: 01 hr 23 min 16 sec)
Heartbeat CPU 0 instructions: 590000001 cycles: 347780111 heartbeat IPC: 2.044 cumulative IPC: 1.611 (Simulation time: 01 hr 24 min 31 sec)
Heartbeat CPU 0 instructions: 600000003 cycles: 352412571 heartbeat IPC: 2.159 cumulative IPC: 1.618 (Simulation time: 01 hr 25 min 32 sec)
Heartbeat CPU 0 instructions: 610000001 cycles: 357262672 heartbeat IPC: 2.062 cumulative IPC: 1.624 (Simulation time: 01 hr 26 min 24 sec)
Heartbeat CPU 0 instructions: 620000000 cycles: 362323730 heartbeat IPC: 1.976 cumulative IPC: 1.629 (Simulation time: 01 hr 27 min 09 sec)
Heartbeat CPU 0 instructions: 630000002 cycles: 366556172 heartbeat IPC: 2.363 cumulative IPC: 1.638 (Simulation time: 01 hr 27 min 51 sec)
Heartbeat CPU 0 instructions: 640000004 cycles: 371834297 heartbeat IPC: 1.895 cumulative IPC: 1.642 (Simulation time: 01 hr 28 min 33 sec)
Heartbeat CPU 0 instructions: 650000001 cycles: 376579334 heartbeat IPC: 2.107 cumulative IPC: 1.648 (Simulation time: 01 hr 29 min 08 sec)
Simulation finished CPU 0 instructions: 600000001 cycles: 364079273 cumulative IPC: 1.648 (Simulation time: 01 hr 29 min 08 sec)
Simulation complete CPU 0 instructions: 600000001 cycles: 364079273 cumulative IPC: 1.648 (Simulation time: 01 hr 29 min 08 sec)

ChampSim completed all CPUs

=== Simulation ===
CPU 0 runs traces/400.perlbench-50B.champsimtrace.xz
Region of Interest Statistics

CPU 0 cumulative IPC: 1.648 instructions: 600000001 cycles: 364079273
CPU 0 Branch Prediction Accuracy: 93.83% MPKI: 12.71 Average ROB Occupancy at Mispredict: 29.39
Branch type MPKI
BRANCH_DIRECT_JUMP: 0.0176
BRANCH_INDIRECT: 0.38
BRANCH_CONDITIONAL: 11.9
BRANCH_DIRECT_CALL: 0.0067
BRANCH_INDIRECT_CALL: 0.431
BRANCH_RETURN: 0.0161

LLC TOTAL        ACCESS:    1371874 HIT:     952440 MISS:     419434
LLC LOAD         ACCESS:     586714 HIT:     398967 MISS:     187747
LLC RFO          ACCESS:      48101 HIT:      30765 MISS:      17336
LLC PREFETCH     ACCESS:     586714 HIT:     387590 MISS:     199124
LLC WRITE        ACCESS:     128279 HIT:     124945 MISS:       3334
LLC TRANSLATION  ACCESS:      22066 HIT:      10173 MISS:      11893
LLC PREFETCH REQUESTED:     586714 ISSUED:     586714 USEFUL:      76822 USELESS:      62615
LLC AVERAGE MISS LATENCY: 517.5 cycles
cpu0_DTLB TOTAL        ACCESS:  156777951 HIT:  155476362 MISS:    1301589
cpu0_DTLB LOAD         ACCESS:  156777951 HIT:  155476362 MISS:    1301589
cpu0_DTLB RFO          ACCESS:          0 HIT:          0 MISS:          0
cpu0_DTLB PREFETCH     ACCESS:          0 HIT:          0 MISS:          0
cpu0_DTLB WRITE        ACCESS:          0 HIT:          0 MISS:          0
cpu0_DTLB TRANSLATION  ACCESS:          0 HIT:          0 MISS:          0
cpu0_DTLB PREFETCH REQUESTED:          0 ISSUED:          0 USEFUL:          0 USELESS:          0
cpu0_DTLB AVERAGE MISS LATENCY: 12.32 cycles
cpu0_ITLB TOTAL        ACCESS:    8931847 HIT:    8733246 MISS:     198601
cpu0_ITLB LOAD         ACCESS:    8931847 HIT:    8733246 MISS:     198601
cpu0_ITLB RFO          ACCESS:          0 HIT:          0 MISS:          0
cpu0_ITLB PREFETCH     ACCESS:          0 HIT:          0 MISS:          0
cpu0_ITLB WRITE        ACCESS:          0 HIT:          0 MISS:          0
cpu0_ITLB TRANSLATION  ACCESS:          0 HIT:          0 MISS:          0
cpu0_ITLB PREFETCH REQUESTED:          0 ISSUED:          0 USEFUL:          0 USELESS:          0
cpu0_ITLB AVERAGE MISS LATENCY: 3.143 cycles
cpu0_L1D TOTAL        ACCESS:  203630174 HIT:  199966619 MISS:    3663555
cpu0_L1D LOAD         ACCESS:  117952976 HIT:  114943557 MISS:    3009419
cpu0_L1D RFO          ACCESS:          0 HIT:          0 MISS:          0
cpu0_L1D PREFETCH     ACCESS:          0 HIT:          0 MISS:          0
cpu0_L1D WRITE        ACCESS:   85648660 HIT:   85021658 MISS:     627002
cpu0_L1D TRANSLATION  ACCESS:      28538 HIT:       1404 MISS:      27134
cpu0_L1D PREFETCH REQUESTED:          0 ISSUED:          0 USEFUL:          0 USELESS:          0
cpu0_L1D AVERAGE MISS LATENCY: 39.31 cycles
cpu0_L1I TOTAL        ACCESS:   10370612 HIT:    8573617 MISS:    1796995
cpu0_L1I LOAD         ACCESS:   10370612 HIT:    8573617 MISS:    1796995
cpu0_L1I RFO          ACCESS:          0 HIT:          0 MISS:          0
cpu0_L1I PREFETCH     ACCESS:          0 HIT:          0 MISS:          0
cpu0_L1I WRITE        ACCESS:          0 HIT:          0 MISS:          0
cpu0_L1I TRANSLATION  ACCESS:          0 HIT:          0 MISS:          0
cpu0_L1I PREFETCH REQUESTED:          0 ISSUED:          0 USEFUL:          0 USELESS:          0
cpu0_L1I AVERAGE MISS LATENCY: 11 cycles
cpu0_L2C TOTAL        ACCESS:    3837182 HIT:    3176880 MISS:     660302
cpu0_L2C LOAD         ACCESS:    3106394 HIT:    2519680 MISS:     586714
cpu0_L2C RFO          ACCESS:     191837 HIT:     143736 MISS:      48101
cpu0_L2C PREFETCH     ACCESS:          0 HIT:          0 MISS:          0
cpu0_L2C WRITE        ACCESS:     511900 HIT:     508479 MISS:       3421
cpu0_L2C TRANSLATION  ACCESS:      27051 HIT:       4985 MISS:      22066
cpu0_L2C PREFETCH REQUESTED:          0 ISSUED:          0 USEFUL:          0 USELESS:          0
cpu0_L2C AVERAGE MISS LATENCY: 207.8 cycles
cpu0_STLB TOTAL        ACCESS:    1009276 HIT:     982586 MISS:      26690
cpu0_STLB LOAD         ACCESS:    1009276 HIT:     982586 MISS:      26690
cpu0_STLB RFO          ACCESS:          0 HIT:          0 MISS:          0
cpu0_STLB PREFETCH     ACCESS:          0 HIT:          0 MISS:          0
cpu0_STLB WRITE        ACCESS:          0 HIT:          0 MISS:          0
cpu0_STLB TRANSLATION  ACCESS:          0 HIT:          0 MISS:          0
cpu0_STLB PREFETCH REQUESTED:          0 ISSUED:          0 USEFUL:          0 USELESS:          0
cpu0_STLB AVERAGE MISS LATENCY: 380.5 cycles

DRAM Statistics

Channel 0 RQ ROW_BUFFER_HIT:      68653
  ROW_BUFFER_MISS:     285313
 AVG DBUS CONGESTED CYCLE: 3.854
WQ ROW_BUFFER_HIT: Channel 0 
  ROW_BUFFER_MISS:       7152
  FULL:      35025
