WARNING: physical memory size is smaller than virtual memory size.

*** ChampSim Multicore Out-of-Order Simulator ***
Warmup Instructions: 50000000
Simulation Instructions: 600000000
Number of CPUs: 1
Page size: 4096

CPU 0 Tage branch predictor
Off-chip DRAM Size: 4 GiB Channels: 1 Width: 64-bit Data Race: 3200 MT/s
Heartbeat CPU 0 instructions: 10000000 cycles: 2500061 heartbeat IPC: 4 cumulative IPC: 4 (Simulation time: 00 hr 01 min 16 sec)
Heartbeat CPU 0 instructions: 20000000 cycles: 5000061 heartbeat IPC: 4 cumulative IPC: 4 (Simulation time: 00 hr 02 min 16 sec)
Heartbeat CPU 0 instructions: 30000000 cycles: 7500061 heartbeat IPC: 4 cumulative IPC: 4 (Simulation time: 00 hr 03 min 25 sec)
Heartbeat CPU 0 instructions: 40000000 cycles: 10000061 heartbeat IPC: 4 cumulative IPC: 4 (Simulation time: 00 hr 04 min 30 sec)
Heartbeat CPU 0 instructions: 50000000 cycles: 12500061 heartbeat IPC: 4 cumulative IPC: 4 (Simulation time: 00 hr 05 min 29 sec)
Warmup finished CPU 0 instructions: 50000000 cycles: 12500062 cumulative IPC: 4 (Simulation time: 00 hr 05 min 29 sec)
Warmup complete CPU 0 instructions: 50000000 cycles: 12500062 cumulative IPC: 4 (Simulation time: 00 hr 05 min 29 sec)
Heartbeat CPU 0 instructions: 60000004 cycles: 15503677 heartbeat IPC: 3.329 cumulative IPC: 3.329 (Simulation time: 00 hr 06 min 40 sec)
Heartbeat CPU 0 instructions: 70000003 cycles: 18382317 heartbeat IPC: 3.474 cumulative IPC: 3.4 (Simulation time: 00 hr 07 min 51 sec)
Heartbeat CPU 0 instructions: 80000002 cycles: 21404747 heartbeat IPC: 3.309 cumulative IPC: 3.369 (Simulation time: 00 hr 09 min 02 sec)
Heartbeat CPU 0 instructions: 90000000 cycles: 24127135 heartbeat IPC: 3.673 cumulative IPC: 3.44 (Simulation time: 00 hr 10 min 09 sec)
Heartbeat CPU 0 instructions: 100000003 cycles: 26893697 heartbeat IPC: 3.615 cumulative IPC: 3.474 (Simulation time: 00 hr 11 min 19 sec)
Heartbeat CPU 0 instructions: 110000001 cycles: 29799971 heartbeat IPC: 3.441 cumulative IPC: 3.468 (Simulation time: 00 hr 12 min 29 sec)
Heartbeat CPU 0 instructions: 120000001 cycles: 32524189 heartbeat IPC: 3.671 cumulative IPC: 3.496 (Simulation time: 00 hr 13 min 40 sec)
Heartbeat CPU 0 instructions: 130000003 cycles: 35426960 heartbeat IPC: 3.445 cumulative IPC: 3.489 (Simulation time: 00 hr 14 min 49 sec)
Heartbeat CPU 0 instructions: 140000002 cycles: 38265022 heartbeat IPC: 3.524 cumulative IPC: 3.493 (Simulation time: 00 hr 16 min 00 sec)
Heartbeat CPU 0 instructions: 150000001 cycles: 41038933 heartbeat IPC: 3.605 cumulative IPC: 3.504 (Simulation time: 00 hr 17 min 09 sec)
Heartbeat CPU 0 instructions: 160000000 cycles: 43953820 heartbeat IPC: 3.431 cumulative IPC: 3.497 (Simulation time: 00 hr 18 min 18 sec)
Heartbeat CPU 0 instructions: 170000001 cycles: 46884845 heartbeat IPC: 3.412 cumulative IPC: 3.49 (Simulation time: 00 hr 19 min 28 sec)
Heartbeat CPU 0 instructions: 180000000 cycles: 49682531 heartbeat IPC: 3.574 cumulative IPC: 3.496 (Simulation time: 00 hr 20 min 40 sec)
Heartbeat CPU 0 instructions: 190000002 cycles: 52390539 heartbeat IPC: 3.693 cumulative IPC: 3.51 (Simulation time: 00 hr 22 min 05 sec)
Heartbeat CPU 0 instructions: 200000002 cycles: 55219937 heartbeat IPC: 3.534 cumulative IPC: 3.511 (Simulation time: 00 hr 23 min 24 sec)
Heartbeat CPU 0 instructions: 210000000 cycles: 58119126 heartbeat IPC: 3.449 cumulative IPC: 3.507 (Simulation time: 00 hr 24 min 35 sec)
Heartbeat CPU 0 instructions: 220000001 cycles: 60883566 heartbeat IPC: 3.617 cumulative IPC: 3.514 (Simulation time: 00 hr 25 min 45 sec)
Heartbeat CPU 0 instructions: 230000002 cycles: 63776820 heartbeat IPC: 3.456 cumulative IPC: 3.51 (Simulation time: 00 hr 26 min 56 sec)
Heartbeat CPU 0 instructions: 240000004 cycles: 66737011 heartbeat IPC: 3.378 cumulative IPC: 3.503 (Simulation time: 00 hr 28 min 18 sec)
Heartbeat CPU 0 instructions: 250000003 cycles: 69643379 heartbeat IPC: 3.441 cumulative IPC: 3.5 (Simulation time: 00 hr 29 min 34 sec)
Heartbeat CPU 0 instructions: 260000001 cycles: 72434967 heartbeat IPC: 3.582 cumulative IPC: 3.504 (Simulation time: 00 hr 30 min 45 sec)
Heartbeat CPU 0 instructions: 270000002 cycles: 77842948 heartbeat IPC: 1.849 cumulative IPC: 3.367 (Simulation time: 00 hr 32 min 23 sec)
Heartbeat CPU 0 instructions: 280000000 cycles: 85962458 heartbeat IPC: 1.232 cumulative IPC: 3.131 (Simulation time: 00 hr 34 min 38 sec)
Heartbeat CPU 0 instructions: 290000000 cycles: 92967195 heartbeat IPC: 1.428 cumulative IPC: 2.983 (Simulation time: 00 hr 36 min 38 sec)
Heartbeat CPU 0 instructions: 300000003 cycles: 98145728 heartbeat IPC: 1.931 cumulative IPC: 2.919 (Simulation time: 00 hr 38 min 20 sec)
Heartbeat CPU 0 instructions: 310000001 cycles: 106045657 heartbeat IPC: 1.266 cumulative IPC: 2.779 (Simulation time: 00 hr 40 min 27 sec)
Heartbeat CPU 0 instructions: 320000004 cycles: 109763612 heartbeat IPC: 2.69 cumulative IPC: 2.776 (Simulation time: 00 hr 41 min 53 sec)
Heartbeat CPU 0 instructions: 330000000 cycles: 112951175 heartbeat IPC: 3.137 cumulative IPC: 2.787 (Simulation time: 00 hr 43 min 10 sec)
Heartbeat CPU 0 instructions: 340000001 cycles: 116152826 heartbeat IPC: 3.123 cumulative IPC: 2.798 (Simulation time: 00 hr 44 min 25 sec)
Heartbeat CPU 0 instructions: 350000000 cycles: 119523367 heartbeat IPC: 2.967 cumulative IPC: 2.803 (Simulation time: 00 hr 45 min 45 sec)
Heartbeat CPU 0 instructions: 360000004 cycles: 122702792 heartbeat IPC: 3.145 cumulative IPC: 2.813 (Simulation time: 00 hr 47 min 01 sec)
Heartbeat CPU 0 instructions: 370000001 cycles: 125810803 heartbeat IPC: 3.217 cumulative IPC: 2.824 (Simulation time: 00 hr 48 min 14 sec)
Heartbeat CPU 0 instructions: 380000004 cycles: 128929673 heartbeat IPC: 3.206 cumulative IPC: 2.834 (Simulation time: 00 hr 49 min 29 sec)
Heartbeat CPU 0 instructions: 390000002 cycles: 132206160 heartbeat IPC: 3.052 cumulative IPC: 2.84 (Simulation time: 00 hr 50 min 44 sec)
Heartbeat CPU 0 instructions: 400000000 cycles: 135519028 heartbeat IPC: 3.019 cumulative IPC: 2.845 (Simulation time: 00 hr 52 min 00 sec)
Heartbeat CPU 0 instructions: 410000000 cycles: 141256379 heartbeat IPC: 1.743 cumulative IPC: 2.796 (Simulation time: 00 hr 53 min 42 sec)
Heartbeat CPU 0 instructions: 420000003 cycles: 149696251 heartbeat IPC: 1.185 cumulative IPC: 2.697 (Simulation time: 00 hr 56 min 01 sec)
Heartbeat CPU 0 instructions: 430000000 cycles: 154820015 heartbeat IPC: 1.952 cumulative IPC: 2.67 (Simulation time: 00 hr 57 min 41 sec)
Heartbeat CPU 0 instructions: 440000004 cycles: 159604434 heartbeat IPC: 2.09 cumulative IPC: 2.651 (Simulation time: 00 hr 59 min 17 sec)
Heartbeat CPU 0 instructions: 450000001 cycles: 164212035 heartbeat IPC: 2.17 cumulative IPC: 2.637 (Simulation time: 01 hr 00 min 50 sec)
Heartbeat CPU 0 instructions: 460000002 cycles: 171556995 heartbeat IPC: 1.361 cumulative IPC: 2.578 (Simulation time: 01 hr 02 min 52 sec)
Heartbeat CPU 0 instructions: 470000003 cycles: 178737289 heartbeat IPC: 1.393 cumulative IPC: 2.527 (Simulation time: 01 hr 04 min 52 sec)
Heartbeat CPU 0 instructions: 480000000 cycles: 182170940 heartbeat IPC: 2.912 cumulative IPC: 2.534 (Simulation time: 01 hr 06 min 10 sec)
Heartbeat CPU 0 instructions: 490000001 cycles: 185839335 heartbeat IPC: 2.726 cumulative IPC: 2.538 (Simulation time: 01 hr 07 min 31 sec)
Heartbeat CPU 0 instructions: 500000002 cycles: 189340870 heartbeat IPC: 2.856 cumulative IPC: 2.545 (Simulation time: 01 hr 08 min 49 sec)
Heartbeat CPU 0 instructions: 510000000 cycles: 192848036 heartbeat IPC: 2.851 cumulative IPC: 2.551 (Simulation time: 01 hr 10 min 08 sec)
Heartbeat CPU 0 instructions: 520000000 cycles: 196380333 heartbeat IPC: 2.831 cumulative IPC: 2.556 (Simulation time: 01 hr 11 min 28 sec)
Heartbeat CPU 0 instructions: 530000001 cycles: 205010374 heartbeat IPC: 1.159 cumulative IPC: 2.493 (Simulation time: 01 hr 13 min 40 sec)
Heartbeat CPU 0 instructions: 540000000 cycles: 213241010 heartbeat IPC: 1.215 cumulative IPC: 2.441 (Simulation time: 01 hr 15 min 50 sec)
Heartbeat CPU 0 instructions: 550000004 cycles: 222928227 heartbeat IPC: 1.032 cumulative IPC: 2.376 (Simulation time: 01 hr 18 min 14 sec)
Heartbeat CPU 0 instructions: 560000004 cycles: 226430274 heartbeat IPC: 2.855 cumulative IPC: 2.384 (Simulation time: 01 hr 19 min 31 sec)
Heartbeat CPU 0 instructions: 570000002 cycles: 229257489 heartbeat IPC: 3.537 cumulative IPC: 2.399 (Simulation time: 01 hr 20 min 42 sec)
Heartbeat CPU 0 instructions: 580000000 cycles: 232185668 heartbeat IPC: 3.415 cumulative IPC: 2.413 (Simulation time: 01 hr 21 min 52 sec)
Heartbeat CPU 0 instructions: 590000001 cycles: 235122341 heartbeat IPC: 3.405 cumulative IPC: 2.426 (Simulation time: 01 hr 23 min 03 sec)
Heartbeat CPU 0 instructions: 600000003 cycles: 237820286 heartbeat IPC: 3.707 cumulative IPC: 2.441 (Simulation time: 01 hr 24 min 13 sec)
Heartbeat CPU 0 instructions: 610000001 cycles: 240694575 heartbeat IPC: 3.479 cumulative IPC: 2.454 (Simulation time: 01 hr 25 min 24 sec)
Heartbeat CPU 0 instructions: 620000004 cycles: 243655021 heartbeat IPC: 3.378 cumulative IPC: 2.466 (Simulation time: 01 hr 26 min 37 sec)
Heartbeat CPU 0 instructions: 630000002 cycles: 246466016 heartbeat IPC: 3.557 cumulative IPC: 2.479 (Simulation time: 01 hr 28 min 03 sec)
Heartbeat CPU 0 instructions: 640000004 cycles: 249517901 heartbeat IPC: 3.277 cumulative IPC: 2.489 (Simulation time: 01 hr 29 min 15 sec)
Heartbeat CPU 0 instructions: 650000001 cycles: 252227337 heartbeat IPC: 3.691 cumulative IPC: 2.503 (Simulation time: 01 hr 30 min 24 sec)
Simulation finished CPU 0 instructions: 600000001 cycles: 239727276 cumulative IPC: 2.503 (Simulation time: 01 hr 30 min 24 sec)
Simulation complete CPU 0 instructions: 600000001 cycles: 239727276 cumulative IPC: 2.503 (Simulation time: 01 hr 30 min 24 sec)

ChampSim completed all CPUs

=== Simulation ===
CPU 0 runs traces/400.perlbench-50B.champsimtrace.xz
Region of Interest Statistics

CPU 0 cumulative IPC: 2.503 instructions: 600000001 cycles: 239727276
CPU 0 Branch Prediction Accuracy: 99.01% MPKI: 2.04 Average ROB Occupancy at Mispredict: 94.32
Branch type MPKI
BRANCH_DIRECT_JUMP: 0.0176
BRANCH_INDIRECT: 0.38
BRANCH_CONDITIONAL: 1.19
BRANCH_DIRECT_CALL: 0.0067
BRANCH_INDIRECT_CALL: 0.431
BRANCH_RETURN: 0.0161

LLC TOTAL        ACCESS:    1361988 HIT:     910385 MISS:     451603
LLC LOAD         ACCESS:     582543 HIT:     381120 MISS:     201423
LLC RFO          ACCESS:      47093 HIT:      29519 MISS:      17574
LLC PREFETCH     ACCESS:     582543 HIT:     372551 MISS:     209992
LLC WRITE        ACCESS:     127710 HIT:     123451 MISS:       4259
LLC TRANSLATION  ACCESS:      22099 HIT:       3744 MISS:      18355
LLC PREFETCH REQUESTED:     582543 ISSUED:     582543 USEFUL:      82018 USELESS:      57915
LLC AVERAGE MISS LATENCY: 591.9 cycles
cpu0_DTLB TOTAL        ACCESS:  133232847 HIT:  131877208 MISS:    1355639
cpu0_DTLB LOAD         ACCESS:  133232847 HIT:  131877208 MISS:    1355639
cpu0_DTLB RFO          ACCESS:          0 HIT:          0 MISS:          0
cpu0_DTLB PREFETCH     ACCESS:          0 HIT:          0 MISS:          0
cpu0_DTLB WRITE        ACCESS:          0 HIT:          0 MISS:          0
cpu0_DTLB TRANSLATION  ACCESS:          0 HIT:          0 MISS:          0
cpu0_DTLB PREFETCH REQUESTED:          0 ISSUED:          0 USEFUL:          0 USELESS:          0
cpu0_DTLB AVERAGE MISS LATENCY: 15.14 cycles
cpu0_ITLB TOTAL        ACCESS:    8991551 HIT:    8782149 MISS:     209402
cpu0_ITLB LOAD         ACCESS:    8991551 HIT:    8782149 MISS:     209402
cpu0_ITLB RFO          ACCESS:          0 HIT:          0 MISS:          0
cpu0_ITLB PREFETCH     ACCESS:          0 HIT:          0 MISS:          0
cpu0_ITLB WRITE        ACCESS:          0 HIT:          0 MISS:          0
cpu0_ITLB TRANSLATION  ACCESS:          0 HIT:          0 MISS:          0
cpu0_ITLB PREFETCH REQUESTED:          0 ISSUED:          0 USEFUL:          0 USELESS:          0
cpu0_ITLB AVERAGE MISS LATENCY: 3.316 cycles
cpu0_L1D TOTAL        ACCESS:  178273746 HIT:  174489569 MISS:    3784177
cpu0_L1D LOAD         ACCESS:   92755018 HIT:   89653444 MISS:    3101574
cpu0_L1D RFO          ACCESS:          0 HIT:          0 MISS:          0
cpu0_L1D PREFETCH     ACCESS:          0 HIT:          0 MISS:          0
cpu0_L1D WRITE        ACCESS:   85490193 HIT:   84834710 MISS:     655483
cpu0_L1D TRANSLATION  ACCESS:      28535 HIT:       1415 MISS:      27120
cpu0_L1D PREFETCH REQUESTED:          0 ISSUED:          0 USEFUL:          0 USELESS:          0
cpu0_L1D AVERAGE MISS LATENCY: 45.87 cycles
cpu0_L1I TOTAL        ACCESS:   10511567 HIT:    8613652 MISS:    1897915
cpu0_L1I LOAD         ACCESS:   10511567 HIT:    8613652 MISS:    1897915
cpu0_L1I RFO          ACCESS:          0 HIT:          0 MISS:          0
cpu0_L1I PREFETCH     ACCESS:          0 HIT:          0 MISS:          0
cpu0_L1I WRITE        ACCESS:          0 HIT:          0 MISS:          0
cpu0_L1I TRANSLATION  ACCESS:          0 HIT:          0 MISS:          0
cpu0_L1I PREFETCH REQUESTED:          0 ISSUED:          0 USEFUL:          0 USELESS:          0
cpu0_L1I AVERAGE MISS LATENCY: 9.317 cycles
cpu0_L2C TOTAL        ACCESS:    3840227 HIT:    3185557 MISS:     654670
cpu0_L2C LOAD         ACCESS:    3103788 HIT:    2521245 MISS:     582543
cpu0_L2C RFO          ACCESS:     194899 HIT:     147805 MISS:      47094
cpu0_L2C PREFETCH     ACCESS:          0 HIT:          0 MISS:          0
cpu0_L2C WRITE        ACCESS:     514504 HIT:     511570 MISS:       2934
cpu0_L2C TRANSLATION  ACCESS:      27036 HIT:       4937 MISS:      22099
cpu0_L2C PREFETCH REQUESTED:          0 ISSUED:          0 USEFUL:          0 USELESS:          0
cpu0_L2C AVERAGE MISS LATENCY: 262 cycles
cpu0_STLB TOTAL        ACCESS:    1009947 HIT:     983256 MISS:      26691
cpu0_STLB LOAD         ACCESS:    1009947 HIT:     983256 MISS:      26691
cpu0_STLB RFO          ACCESS:          0 HIT:          0 MISS:          0
cpu0_STLB PREFETCH     ACCESS:          0 HIT:          0 MISS:          0
cpu0_STLB WRITE        ACCESS:          0 HIT:          0 MISS:          0
cpu0_STLB TRANSLATION  ACCESS:          0 HIT:          0 MISS:          0
cpu0_STLB PREFETCH REQUESTED:          0 ISSUED:          0 USEFUL:          0 USELESS:          0
cpu0_STLB AVERAGE MISS LATENCY: 577.2 cycles

DRAM Statistics

Channel 0 RQ ROW_BUFFER_HIT:      85197
  ROW_BUFFER_MISS:     283420
 AVG DBUS CONGESTED CYCLE: 3.884
WQ ROW_BUFFER_HIT: Channel 0 
  ROW_BUFFER_MISS:       4894
  FULL:      34433
Final OPTGen Hits: 12480
Final OPTGen Access: 10293
Final OPTGEN Hit Rate: 121.248
