WARNING: physical memory size is smaller than virtual memory size.

*** ChampSim Multicore Out-of-Order Simulator ***
Warmup Instructions: 50000000
Simulation Instructions: 600000000
Number of CPUs: 1
Page size: 4096

Off-chip DRAM Size: 4 GiB Channels: 1 Width: 64-bit Data Race: 3200 MT/s
Heartbeat CPU 0 instructions: 10000001 cycles: 2500318 heartbeat IPC: 3.999 cumulative IPC: 3.999 (Simulation time: 00 hr 01 min 04 sec)
Heartbeat CPU 0 instructions: 20000002 cycles: 5037135 heartbeat IPC: 3.942 cumulative IPC: 3.971 (Simulation time: 00 hr 01 min 57 sec)
Heartbeat CPU 0 instructions: 30000002 cycles: 7537135 heartbeat IPC: 4 cumulative IPC: 3.98 (Simulation time: 00 hr 02 min 44 sec)
Heartbeat CPU 0 instructions: 40000002 cycles: 10037135 heartbeat IPC: 4 cumulative IPC: 3.985 (Simulation time: 00 hr 03 min 33 sec)
Heartbeat CPU 0 instructions: 50000002 cycles: 12537135 heartbeat IPC: 4 cumulative IPC: 3.988 (Simulation time: 00 hr 04 min 20 sec)
Warmup finished CPU 0 instructions: 50000002 cycles: 12537136 cumulative IPC: 3.988 (Simulation time: 00 hr 04 min 20 sec)
Warmup complete CPU 0 instructions: 50000002 cycles: 12537136 cumulative IPC: 3.988 (Simulation time: 00 hr 04 min 20 sec)
Heartbeat CPU 0 instructions: 60000000 cycles: 17708344 heartbeat IPC: 1.934 cumulative IPC: 1.934 (Simulation time: 00 hr 05 min 35 sec)
Heartbeat CPU 0 instructions: 70000002 cycles: 22599341 heartbeat IPC: 2.045 cumulative IPC: 1.988 (Simulation time: 00 hr 06 min 49 sec)
Heartbeat CPU 0 instructions: 80000001 cycles: 27963492 heartbeat IPC: 1.864 cumulative IPC: 1.945 (Simulation time: 00 hr 08 min 06 sec)
Heartbeat CPU 0 instructions: 90000001 cycles: 32842990 heartbeat IPC: 2.049 cumulative IPC: 1.97 (Simulation time: 00 hr 09 min 18 sec)
Heartbeat CPU 0 instructions: 100000000 cycles: 37956423 heartbeat IPC: 1.956 cumulative IPC: 1.967 (Simulation time: 00 hr 10 min 33 sec)
Heartbeat CPU 0 instructions: 110000000 cycles: 42846017 heartbeat IPC: 2.045 cumulative IPC: 1.98 (Simulation time: 00 hr 11 min 46 sec)
Heartbeat CPU 0 instructions: 120000001 cycles: 48028814 heartbeat IPC: 1.929 cumulative IPC: 1.972 (Simulation time: 00 hr 13 min 01 sec)
Heartbeat CPU 0 instructions: 130000001 cycles: 53176976 heartbeat IPC: 1.942 cumulative IPC: 1.969 (Simulation time: 00 hr 14 min 17 sec)
Heartbeat CPU 0 instructions: 140000001 cycles: 58482942 heartbeat IPC: 1.885 cumulative IPC: 1.959 (Simulation time: 00 hr 15 min 34 sec)
Heartbeat CPU 0 instructions: 150000001 cycles: 63801372 heartbeat IPC: 1.88 cumulative IPC: 1.951 (Simulation time: 00 hr 16 min 50 sec)
Heartbeat CPU 0 instructions: 160000004 cycles: 68999182 heartbeat IPC: 1.924 cumulative IPC: 1.948 (Simulation time: 00 hr 18 min 06 sec)
Heartbeat CPU 0 instructions: 170000004 cycles: 79638217 heartbeat IPC: 0.9399 cumulative IPC: 1.788 (Simulation time: 00 hr 20 min 12 sec)
Heartbeat CPU 0 instructions: 180000004 cycles: 90906477 heartbeat IPC: 0.8874 cumulative IPC: 1.659 (Simulation time: 00 hr 22 min 27 sec)
Heartbeat CPU 0 instructions: 190000001 cycles: 102275861 heartbeat IPC: 0.8796 cumulative IPC: 1.56 (Simulation time: 00 hr 24 min 42 sec)
Heartbeat CPU 0 instructions: 200000003 cycles: 107038290 heartbeat IPC: 2.1 cumulative IPC: 1.587 (Simulation time: 00 hr 25 min 54 sec)
Heartbeat CPU 0 instructions: 210000001 cycles: 111955406 heartbeat IPC: 2.034 cumulative IPC: 1.609 (Simulation time: 00 hr 27 min 08 sec)
Heartbeat CPU 0 instructions: 220000000 cycles: 116783434 heartbeat IPC: 2.071 cumulative IPC: 1.631 (Simulation time: 00 hr 28 min 21 sec)
Heartbeat CPU 0 instructions: 230000002 cycles: 122091440 heartbeat IPC: 1.884 cumulative IPC: 1.643 (Simulation time: 00 hr 29 min 37 sec)
Heartbeat CPU 0 instructions: 240000000 cycles: 126935305 heartbeat IPC: 2.064 cumulative IPC: 1.661 (Simulation time: 00 hr 30 min 51 sec)
Heartbeat CPU 0 instructions: 250000000 cycles: 132083556 heartbeat IPC: 1.942 cumulative IPC: 1.673 (Simulation time: 00 hr 32 min 06 sec)
Heartbeat CPU 0 instructions: 260000000 cycles: 137099349 heartbeat IPC: 1.994 cumulative IPC: 1.686 (Simulation time: 00 hr 33 min 21 sec)
Heartbeat CPU 0 instructions: 270000002 cycles: 141987349 heartbeat IPC: 2.046 cumulative IPC: 1.699 (Simulation time: 00 hr 34 min 35 sec)
Heartbeat CPU 0 instructions: 280000002 cycles: 146896912 heartbeat IPC: 2.037 cumulative IPC: 1.712 (Simulation time: 00 hr 35 min 48 sec)
Heartbeat CPU 0 instructions: 290000001 cycles: 152259092 heartbeat IPC: 1.865 cumulative IPC: 1.718 (Simulation time: 00 hr 37 min 06 sec)
Heartbeat CPU 0 instructions: 300000003 cycles: 157311358 heartbeat IPC: 1.979 cumulative IPC: 1.727 (Simulation time: 00 hr 38 min 22 sec)
Heartbeat CPU 0 instructions: 310000001 cycles: 162594924 heartbeat IPC: 1.893 cumulative IPC: 1.733 (Simulation time: 00 hr 39 min 50 sec)
Heartbeat CPU 0 instructions: 320000003 cycles: 167795760 heartbeat IPC: 1.923 cumulative IPC: 1.739 (Simulation time: 00 hr 41 min 06 sec)
Heartbeat CPU 0 instructions: 330000003 cycles: 173082995 heartbeat IPC: 1.891 cumulative IPC: 1.744 (Simulation time: 00 hr 42 min 33 sec)
Heartbeat CPU 0 instructions: 340000000 cycles: 183553293 heartbeat IPC: 0.9551 cumulative IPC: 1.696 (Simulation time: 00 hr 44 min 38 sec)
Heartbeat CPU 0 instructions: 350000000 cycles: 195038563 heartbeat IPC: 0.8707 cumulative IPC: 1.644 (Simulation time: 00 hr 47 min 08 sec)
Heartbeat CPU 0 instructions: 360000004 cycles: 206747994 heartbeat IPC: 0.854 cumulative IPC: 1.596 (Simulation time: 00 hr 49 min 25 sec)
Heartbeat CPU 0 instructions: 370000000 cycles: 211167614 heartbeat IPC: 2.263 cumulative IPC: 1.611 (Simulation time: 00 hr 50 min 34 sec)
Heartbeat CPU 0 instructions: 380000001 cycles: 216089316 heartbeat IPC: 2.032 cumulative IPC: 1.621 (Simulation time: 00 hr 51 min 49 sec)
Heartbeat CPU 0 instructions: 390000002 cycles: 220912194 heartbeat IPC: 2.073 cumulative IPC: 1.632 (Simulation time: 00 hr 53 min 03 sec)
Heartbeat CPU 0 instructions: 400000004 cycles: 225848751 heartbeat IPC: 2.026 cumulative IPC: 1.641 (Simulation time: 00 hr 54 min 17 sec)
Heartbeat CPU 0 instructions: 410000000 cycles: 230572043 heartbeat IPC: 2.117 cumulative IPC: 1.651 (Simulation time: 00 hr 55 min 29 sec)
Heartbeat CPU 0 instructions: 420000000 cycles: 235788331 heartbeat IPC: 1.917 cumulative IPC: 1.657 (Simulation time: 00 hr 56 min 45 sec)
Heartbeat CPU 0 instructions: 430000001 cycles: 240265515 heartbeat IPC: 2.234 cumulative IPC: 1.669 (Simulation time: 00 hr 57 min 56 sec)
Heartbeat CPU 0 instructions: 440000000 cycles: 245622315 heartbeat IPC: 1.867 cumulative IPC: 1.673 (Simulation time: 00 hr 59 min 13 sec)
Heartbeat CPU 0 instructions: 450000002 cycles: 250292924 heartbeat IPC: 2.141 cumulative IPC: 1.682 (Simulation time: 01 hr 00 min 25 sec)
Heartbeat CPU 0 instructions: 460000000 cycles: 255093834 heartbeat IPC: 2.083 cumulative IPC: 1.69 (Simulation time: 01 hr 01 min 37 sec)
Heartbeat CPU 0 instructions: 470000000 cycles: 260079110 heartbeat IPC: 2.006 cumulative IPC: 1.697 (Simulation time: 01 hr 02 min 52 sec)
Heartbeat CPU 0 instructions: 480000003 cycles: 264936454 heartbeat IPC: 2.059 cumulative IPC: 1.704 (Simulation time: 01 hr 04 min 05 sec)
Heartbeat CPU 0 instructions: 490000000 cycles: 269553208 heartbeat IPC: 2.166 cumulative IPC: 1.712 (Simulation time: 01 hr 05 min 16 sec)
Heartbeat CPU 0 instructions: 500000000 cycles: 274577643 heartbeat IPC: 1.99 cumulative IPC: 1.717 (Simulation time: 01 hr 06 min 30 sec)
Heartbeat CPU 0 instructions: 510000003 cycles: 280301805 heartbeat IPC: 1.747 cumulative IPC: 1.718 (Simulation time: 01 hr 07 min 51 sec)
Heartbeat CPU 0 instructions: 520000001 cycles: 284999382 heartbeat IPC: 2.129 cumulative IPC: 1.725 (Simulation time: 01 hr 09 min 04 sec)
Heartbeat CPU 0 instructions: 530000002 cycles: 290189477 heartbeat IPC: 1.927 cumulative IPC: 1.729 (Simulation time: 01 hr 10 min 20 sec)
Heartbeat CPU 0 instructions: 540000000 cycles: 295314253 heartbeat IPC: 1.951 cumulative IPC: 1.733 (Simulation time: 01 hr 11 min 36 sec)
Heartbeat CPU 0 instructions: 550000001 cycles: 300117465 heartbeat IPC: 2.082 cumulative IPC: 1.739 (Simulation time: 01 hr 12 min 49 sec)
Heartbeat CPU 0 instructions: 560000000 cycles: 305461902 heartbeat IPC: 1.871 cumulative IPC: 1.741 (Simulation time: 01 hr 14 min 07 sec)
Heartbeat CPU 0 instructions: 570000004 cycles: 312632336 heartbeat IPC: 1.395 cumulative IPC: 1.733 (Simulation time: 01 hr 15 min 43 sec)
Heartbeat CPU 0 instructions: 580000003 cycles: 324954219 heartbeat IPC: 0.8116 cumulative IPC: 1.696 (Simulation time: 01 hr 18 min 08 sec)
Heartbeat CPU 0 instructions: 590000002 cycles: 339079315 heartbeat IPC: 0.708 cumulative IPC: 1.654 (Simulation time: 01 hr 20 min 49 sec)
Heartbeat CPU 0 instructions: 600000000 cycles: 343683870 heartbeat IPC: 2.172 cumulative IPC: 1.661 (Simulation time: 01 hr 22 min 00 sec)
Heartbeat CPU 0 instructions: 610000002 cycles: 348174385 heartbeat IPC: 2.227 cumulative IPC: 1.668 (Simulation time: 01 hr 23 min 10 sec)
Heartbeat CPU 0 instructions: 620000000 cycles: 352979908 heartbeat IPC: 2.081 cumulative IPC: 1.674 (Simulation time: 01 hr 24 min 25 sec)
Heartbeat CPU 0 instructions: 630000002 cycles: 358064091 heartbeat IPC: 1.967 cumulative IPC: 1.679 (Simulation time: 01 hr 25 min 40 sec)
Heartbeat CPU 0 instructions: 640000001 cycles: 362916788 heartbeat IPC: 2.061 cumulative IPC: 1.684 (Simulation time: 01 hr 26 min 54 sec)
Heartbeat CPU 0 instructions: 650000000 cycles: 367472478 heartbeat IPC: 2.195 cumulative IPC: 1.69 (Simulation time: 01 hr 28 min 05 sec)
Simulation finished CPU 0 instructions: 600000001 cycles: 354935344 cumulative IPC: 1.69 (Simulation time: 01 hr 28 min 05 sec)
Simulation complete CPU 0 instructions: 600000001 cycles: 354935344 cumulative IPC: 1.69 (Simulation time: 01 hr 28 min 05 sec)

ChampSim completed all CPUs

=== Simulation ===
CPU 0 runs traces/400.perlbench-41B.champsimtrace.xz
Region of Interest Statistics

CPU 0 cumulative IPC: 1.69 instructions: 600000001 cycles: 354935344
CPU 0 Branch Prediction Accuracy: 93.95% MPKI: 12.5 Average ROB Occupancy at Mispredict: 29.64
Branch type MPKI
BRANCH_DIRECT_JUMP: 0.0123
BRANCH_INDIRECT: 0.323
BRANCH_CONDITIONAL: 12
BRANCH_DIRECT_CALL: 0.0043
BRANCH_INDIRECT_CALL: 0.2
BRANCH_RETURN: 0.00828

LLC TOTAL        ACCESS:     595502 HIT:     292443 MISS:     303059
LLC LOAD         ACCESS:     402610 HIT:     170744 MISS:     231866
LLC RFO          ACCESS:      32454 HIT:      16614 MISS:      15840
LLC PREFETCH     ACCESS:      55016 HIT:      27489 MISS:      27527
LLC WRITE        ACCESS:      86361 HIT:      69481 MISS:      16880
LLC TRANSLATION  ACCESS:      19061 HIT:       8115 MISS:      10946
LLC PREFETCH REQUESTED:      55016 ISSUED:      55016 USEFUL:      17948 USELESS:       5693
LLC AVERAGE MISS LATENCY: 537.8 cycles
cpu0_DTLB TOTAL        ACCESS:  153675410 HIT:  152997637 MISS:     677773
cpu0_DTLB LOAD         ACCESS:  153675410 HIT:  152997637 MISS:     677773
cpu0_DTLB RFO          ACCESS:          0 HIT:          0 MISS:          0
cpu0_DTLB PREFETCH     ACCESS:          0 HIT:          0 MISS:          0
cpu0_DTLB WRITE        ACCESS:          0 HIT:          0 MISS:          0
cpu0_DTLB TRANSLATION  ACCESS:          0 HIT:          0 MISS:          0
cpu0_DTLB PREFETCH REQUESTED:          0 ISSUED:          0 USEFUL:          0 USELESS:          0
cpu0_DTLB AVERAGE MISS LATENCY: 16.57 cycles
cpu0_ITLB TOTAL        ACCESS:    4836659 HIT:    4778779 MISS:      57880
cpu0_ITLB LOAD         ACCESS:    4836659 HIT:    4778779 MISS:      57880
cpu0_ITLB RFO          ACCESS:          0 HIT:          0 MISS:          0
cpu0_ITLB PREFETCH     ACCESS:          0 HIT:          0 MISS:          0
cpu0_ITLB WRITE        ACCESS:          0 HIT:          0 MISS:          0
cpu0_ITLB TRANSLATION  ACCESS:          0 HIT:          0 MISS:          0
cpu0_ITLB PREFETCH REQUESTED:          0 ISSUED:          0 USEFUL:          0 USELESS:          0
cpu0_ITLB AVERAGE MISS LATENCY: 7.265 cycles
cpu0_L1D TOTAL        ACCESS:  200294917 HIT:  198937178 MISS:    1357739
cpu0_L1D LOAD         ACCESS:  117050836 HIT:  116008629 MISS:    1042207
cpu0_L1D RFO          ACCESS:          0 HIT:          0 MISS:          0
cpu0_L1D PREFETCH     ACCESS:          0 HIT:          0 MISS:          0
cpu0_L1D WRITE        ACCESS:   83219625 HIT:   82926980 MISS:     292645
cpu0_L1D TRANSLATION  ACCESS:      24456 HIT:       1569 MISS:      22887
cpu0_L1D PREFETCH REQUESTED:          0 ISSUED:          0 USEFUL:          0 USELESS:          0
cpu0_L1D AVERAGE MISS LATENCY: 112.2 cycles
cpu0_L1I TOTAL        ACCESS:    5579081 HIT:    4817785 MISS:     761296
cpu0_L1I LOAD         ACCESS:    5579081 HIT:    4817785 MISS:     761296
cpu0_L1I RFO          ACCESS:          0 HIT:          0 MISS:          0
cpu0_L1I PREFETCH     ACCESS:          0 HIT:          0 MISS:          0
cpu0_L1I WRITE        ACCESS:          0 HIT:          0 MISS:          0
cpu0_L1I TRANSLATION  ACCESS:          0 HIT:          0 MISS:          0
cpu0_L1I PREFETCH REQUESTED:          0 ISSUED:          0 USEFUL:          0 USELESS:          0
cpu0_L1I AVERAGE MISS LATENCY: 13.56 cycles
cpu0_L2C TOTAL        ACCESS:    1382367 HIT:     924533 MISS:     457834
cpu0_L2C LOAD         ACCESS:    1125632 HIT:     723022 MISS:     402610
cpu0_L2C RFO          ACCESS:      63900 HIT:      31446 MISS:      32454
cpu0_L2C PREFETCH     ACCESS:          0 HIT:          0 MISS:          0
cpu0_L2C WRITE        ACCESS:     170030 HIT:     166321 MISS:       3709
cpu0_L2C TRANSLATION  ACCESS:      22805 HIT:       3744 MISS:      19061
cpu0_L2C PREFETCH REQUESTED:          0 ISSUED:          0 USEFUL:          0 USELESS:          0
cpu0_L2C AVERAGE MISS LATENCY: 338.6 cycles
cpu0_STLB TOTAL        ACCESS:     505083 HIT:     482295 MISS:      22788
cpu0_STLB LOAD         ACCESS:     505083 HIT:     482295 MISS:      22788
cpu0_STLB RFO          ACCESS:          0 HIT:          0 MISS:          0
cpu0_STLB PREFETCH     ACCESS:          0 HIT:          0 MISS:          0
cpu0_STLB WRITE        ACCESS:          0 HIT:          0 MISS:          0
cpu0_STLB TRANSLATION  ACCESS:          0 HIT:          0 MISS:          0
cpu0_STLB PREFETCH REQUESTED:          0 ISSUED:          0 USEFUL:          0 USELESS:          0
cpu0_STLB AVERAGE MISS LATENCY: 372.5 cycles

DRAM Statistics

Channel 0 RQ ROW_BUFFER_HIT:      47712
  ROW_BUFFER_MISS:     233524
 AVG DBUS CONGESTED CYCLE: 3.816
WQ ROW_BUFFER_HIT: Channel 0 
  ROW_BUFFER_MISS:       9039
  FULL:      34194
Final OPTGen Hits: 5879
Final OPTGen Access: 9213
Final OPTGEN Hit Rate: 63.8121
