WARNING: physical memory size is smaller than virtual memory size.

*** ChampSim Multicore Out-of-Order Simulator ***
Warmup Instructions: 50000000
Simulation Instructions: 600000000
Number of CPUs: 1
Page size: 4096

Off-chip DRAM Size: 4 GiB Channels: 1 Width: 64-bit Data Race: 3200 MT/s
Heartbeat CPU 0 instructions: 10000000 cycles: 2500061 heartbeat IPC: 4 cumulative IPC: 4 (Simulation time: 00 hr 01 min 02 sec)
Heartbeat CPU 0 instructions: 20000000 cycles: 5000061 heartbeat IPC: 4 cumulative IPC: 4 (Simulation time: 00 hr 01 min 59 sec)
Heartbeat CPU 0 instructions: 30000000 cycles: 7500061 heartbeat IPC: 4 cumulative IPC: 4 (Simulation time: 00 hr 02 min 53 sec)
Heartbeat CPU 0 instructions: 40000000 cycles: 10000061 heartbeat IPC: 4 cumulative IPC: 4 (Simulation time: 00 hr 03 min 47 sec)
Heartbeat CPU 0 instructions: 50000000 cycles: 12500061 heartbeat IPC: 4 cumulative IPC: 4 (Simulation time: 00 hr 04 min 37 sec)
Warmup finished CPU 0 instructions: 50000000 cycles: 12500062 cumulative IPC: 4 (Simulation time: 00 hr 04 min 37 sec)
Warmup complete CPU 0 instructions: 50000000 cycles: 12500062 cumulative IPC: 4 (Simulation time: 00 hr 04 min 37 sec)
Heartbeat CPU 0 instructions: 60000002 cycles: 16435451 heartbeat IPC: 2.541 cumulative IPC: 2.541 (Simulation time: 00 hr 05 min 53 sec)
Heartbeat CPU 0 instructions: 70000003 cycles: 20748814 heartbeat IPC: 2.318 cumulative IPC: 2.425 (Simulation time: 00 hr 07 min 09 sec)
Heartbeat CPU 0 instructions: 80000003 cycles: 25212047 heartbeat IPC: 2.241 cumulative IPC: 2.36 (Simulation time: 00 hr 08 min 23 sec)
Heartbeat CPU 0 instructions: 90000000 cycles: 28901952 heartbeat IPC: 2.71 cumulative IPC: 2.439 (Simulation time: 00 hr 09 min 30 sec)
Heartbeat CPU 0 instructions: 100000003 cycles: 32796051 heartbeat IPC: 2.568 cumulative IPC: 2.464 (Simulation time: 00 hr 10 min 33 sec)
Heartbeat CPU 0 instructions: 110000002 cycles: 36887380 heartbeat IPC: 2.444 cumulative IPC: 2.46 (Simulation time: 00 hr 11 min 38 sec)
Heartbeat CPU 0 instructions: 120000001 cycles: 40600339 heartbeat IPC: 2.693 cumulative IPC: 2.491 (Simulation time: 00 hr 12 min 56 sec)
Heartbeat CPU 0 instructions: 130000003 cycles: 44364917 heartbeat IPC: 2.656 cumulative IPC: 2.511 (Simulation time: 00 hr 14 min 18 sec)
Heartbeat CPU 0 instructions: 140000002 cycles: 48489994 heartbeat IPC: 2.424 cumulative IPC: 2.501 (Simulation time: 00 hr 15 min 32 sec)
Heartbeat CPU 0 instructions: 150000001 cycles: 52534004 heartbeat IPC: 2.473 cumulative IPC: 2.498 (Simulation time: 00 hr 16 min 38 sec)
Heartbeat CPU 0 instructions: 160000000 cycles: 56183103 heartbeat IPC: 2.74 cumulative IPC: 2.518 (Simulation time: 00 hr 17 min 40 sec)
Heartbeat CPU 0 instructions: 170000001 cycles: 60348403 heartbeat IPC: 2.401 cumulative IPC: 2.508 (Simulation time: 00 hr 18 min 46 sec)
Heartbeat CPU 0 instructions: 180000001 cycles: 63804167 heartbeat IPC: 2.894 cumulative IPC: 2.534 (Simulation time: 00 hr 19 min 52 sec)
Heartbeat CPU 0 instructions: 190000002 cycles: 67380677 heartbeat IPC: 2.796 cumulative IPC: 2.551 (Simulation time: 00 hr 21 min 01 sec)
Heartbeat CPU 0 instructions: 200000002 cycles: 71150820 heartbeat IPC: 2.652 cumulative IPC: 2.558 (Simulation time: 00 hr 22 min 07 sec)
Heartbeat CPU 0 instructions: 210000000 cycles: 74786493 heartbeat IPC: 2.751 cumulative IPC: 2.569 (Simulation time: 00 hr 23 min 10 sec)
Heartbeat CPU 0 instructions: 220000001 cycles: 78653979 heartbeat IPC: 2.586 cumulative IPC: 2.57 (Simulation time: 00 hr 24 min 14 sec)
Heartbeat CPU 0 instructions: 230000002 cycles: 82490120 heartbeat IPC: 2.607 cumulative IPC: 2.572 (Simulation time: 00 hr 25 min 33 sec)
Heartbeat CPU 0 instructions: 240000001 cycles: 86691505 heartbeat IPC: 2.38 cumulative IPC: 2.561 (Simulation time: 00 hr 26 min 59 sec)
Heartbeat CPU 0 instructions: 250000003 cycles: 91249644 heartbeat IPC: 2.194 cumulative IPC: 2.54 (Simulation time: 00 hr 28 min 18 sec)
Heartbeat CPU 0 instructions: 260000000 cycles: 95042432 heartbeat IPC: 2.637 cumulative IPC: 2.544 (Simulation time: 00 hr 29 min 28 sec)
Heartbeat CPU 0 instructions: 270000003 cycles: 101768820 heartbeat IPC: 1.487 cumulative IPC: 2.464 (Simulation time: 00 hr 30 min 59 sec)
Heartbeat CPU 0 instructions: 280000000 cycles: 112898480 heartbeat IPC: 0.8985 cumulative IPC: 2.291 (Simulation time: 00 hr 33 min 15 sec)
Heartbeat CPU 0 instructions: 290000000 cycles: 127089210 heartbeat IPC: 0.7047 cumulative IPC: 2.094 (Simulation time: 00 hr 35 min 51 sec)
Heartbeat CPU 0 instructions: 300000003 cycles: 137440069 heartbeat IPC: 0.9661 cumulative IPC: 2.001 (Simulation time: 00 hr 37 min 54 sec)
Heartbeat CPU 0 instructions: 310000004 cycles: 152248369 heartbeat IPC: 0.6753 cumulative IPC: 1.86 (Simulation time: 00 hr 41 min 12 sec)
Heartbeat CPU 0 instructions: 320000004 cycles: 158730011 heartbeat IPC: 1.543 cumulative IPC: 1.846 (Simulation time: 00 hr 42 min 43 sec)
Heartbeat CPU 0 instructions: 330000000 cycles: 162798004 heartbeat IPC: 2.458 cumulative IPC: 1.863 (Simulation time: 00 hr 43 min 49 sec)
Heartbeat CPU 0 instructions: 340000001 cycles: 167184722 heartbeat IPC: 2.28 cumulative IPC: 1.875 (Simulation time: 00 hr 45 min 01 sec)
Heartbeat CPU 0 instructions: 350000004 cycles: 171705793 heartbeat IPC: 2.212 cumulative IPC: 1.884 (Simulation time: 00 hr 46 min 16 sec)
Heartbeat CPU 0 instructions: 360000003 cycles: 175872417 heartbeat IPC: 2.4 cumulative IPC: 1.898 (Simulation time: 00 hr 47 min 30 sec)
Heartbeat CPU 0 instructions: 370000001 cycles: 179808063 heartbeat IPC: 2.541 cumulative IPC: 1.913 (Simulation time: 00 hr 48 min 39 sec)
Heartbeat CPU 0 instructions: 380000004 cycles: 183605805 heartbeat IPC: 2.633 cumulative IPC: 1.929 (Simulation time: 00 hr 49 min 45 sec)
Heartbeat CPU 0 instructions: 390000002 cycles: 187785512 heartbeat IPC: 2.393 cumulative IPC: 1.94 (Simulation time: 00 hr 51 min 08 sec)
Heartbeat CPU 0 instructions: 400000000 cycles: 192235476 heartbeat IPC: 2.247 cumulative IPC: 1.947 (Simulation time: 00 hr 52 min 43 sec)
Heartbeat CPU 0 instructions: 410000000 cycles: 201496924 heartbeat IPC: 1.08 cumulative IPC: 1.905 (Simulation time: 00 hr 54 min 53 sec)
Heartbeat CPU 0 instructions: 420000003 cycles: 214676210 heartbeat IPC: 0.7588 cumulative IPC: 1.83 (Simulation time: 00 hr 57 min 28 sec)
Heartbeat CPU 0 instructions: 430000000 cycles: 224454777 heartbeat IPC: 1.023 cumulative IPC: 1.793 (Simulation time: 00 hr 59 min 37 sec)
Heartbeat CPU 0 instructions: 440000004 cycles: 234551510 heartbeat IPC: 0.9904 cumulative IPC: 1.756 (Simulation time: 01 hr 01 min 42 sec)
Heartbeat CPU 0 instructions: 450000000 cycles: 244638996 heartbeat IPC: 0.9913 cumulative IPC: 1.723 (Simulation time: 01 hr 03 min 49 sec)
Heartbeat CPU 0 instructions: 460000002 cycles: 261794883 heartbeat IPC: 0.5829 cumulative IPC: 1.645 (Simulation time: 01 hr 07 min 32 sec)
Heartbeat CPU 0 instructions: 470000003 cycles: 274260505 heartbeat IPC: 0.8022 cumulative IPC: 1.605 (Simulation time: 01 hr 10 min 02 sec)
Heartbeat CPU 0 instructions: 480000003 cycles: 278686106 heartbeat IPC: 2.26 cumulative IPC: 1.615 (Simulation time: 01 hr 11 min 20 sec)
Heartbeat CPU 0 instructions: 490000001 cycles: 283179458 heartbeat IPC: 2.226 cumulative IPC: 1.626 (Simulation time: 01 hr 12 min 36 sec)
Heartbeat CPU 0 instructions: 500000002 cycles: 287500878 heartbeat IPC: 2.314 cumulative IPC: 1.636 (Simulation time: 01 hr 13 min 49 sec)
Heartbeat CPU 0 instructions: 510000000 cycles: 291558415 heartbeat IPC: 2.465 cumulative IPC: 1.648 (Simulation time: 01 hr 14 min 58 sec)
Heartbeat CPU 0 instructions: 520000000 cycles: 295791788 heartbeat IPC: 2.362 cumulative IPC: 1.659 (Simulation time: 01 hr 16 min 06 sec)
Heartbeat CPU 0 instructions: 530000001 cycles: 310139326 heartbeat IPC: 0.697 cumulative IPC: 1.613 (Simulation time: 01 hr 19 min 20 sec)
Heartbeat CPU 0 instructions: 540000000 cycles: 325033995 heartbeat IPC: 0.6714 cumulative IPC: 1.568 (Simulation time: 01 hr 22 min 22 sec)
Heartbeat CPU 0 instructions: 550000004 cycles: 342902663 heartbeat IPC: 0.5596 cumulative IPC: 1.513 (Simulation time: 01 hr 25 min 44 sec)
Heartbeat CPU 0 instructions: 560000004 cycles: 347644118 heartbeat IPC: 2.109 cumulative IPC: 1.522 (Simulation time: 01 hr 27 min 03 sec)
Heartbeat CPU 0 instructions: 570000001 cycles: 350781040 heartbeat IPC: 3.188 cumulative IPC: 1.537 (Simulation time: 01 hr 28 min 04 sec)
Heartbeat CPU 0 instructions: 580000003 cycles: 354333268 heartbeat IPC: 2.815 cumulative IPC: 1.55 (Simulation time: 01 hr 29 min 05 sec)
Heartbeat CPU 0 instructions: 590000002 cycles: 357960344 heartbeat IPC: 2.757 cumulative IPC: 1.563 (Simulation time: 01 hr 30 min 18 sec)
Heartbeat CPU 0 instructions: 600000003 cycles: 361025590 heartbeat IPC: 3.262 cumulative IPC: 1.578 (Simulation time: 01 hr 31 min 41 sec)
Heartbeat CPU 0 instructions: 610000001 cycles: 364539322 heartbeat IPC: 2.846 cumulative IPC: 1.591 (Simulation time: 01 hr 33 min 02 sec)
Heartbeat CPU 0 instructions: 620000000 cycles: 368552718 heartbeat IPC: 2.492 cumulative IPC: 1.601 (Simulation time: 01 hr 34 min 22 sec)
Heartbeat CPU 0 instructions: 630000002 cycles: 371915931 heartbeat IPC: 2.973 cumulative IPC: 1.614 (Simulation time: 01 hr 35 min 33 sec)
Heartbeat CPU 0 instructions: 640000004 cycles: 375913885 heartbeat IPC: 2.501 cumulative IPC: 1.623 (Simulation time: 01 hr 36 min 48 sec)
Heartbeat CPU 0 instructions: 650000001 cycles: 379730504 heartbeat IPC: 2.62 cumulative IPC: 1.634 (Simulation time: 01 hr 38 min 03 sec)
Simulation finished CPU 0 instructions: 600000001 cycles: 367230443 cumulative IPC: 1.634 (Simulation time: 01 hr 38 min 03 sec)
Simulation complete CPU 0 instructions: 600000001 cycles: 367230443 cumulative IPC: 1.634 (Simulation time: 01 hr 38 min 03 sec)

ChampSim completed all CPUs

=== Simulation ===
CPU 0 runs traces/400.perlbench-50B.champsimtrace.xz
Region of Interest Statistics

CPU 0 cumulative IPC: 1.634 instructions: 600000001 cycles: 367230443
CPU 0 Branch Prediction Accuracy: 96.2% MPKI: 7.839 Average ROB Occupancy at Mispredict: 44.03
Branch type MPKI
BRANCH_DIRECT_JUMP: 0.0176
BRANCH_INDIRECT: 0.38
BRANCH_CONDITIONAL: 6.99
BRANCH_DIRECT_CALL: 0.0067
BRANCH_INDIRECT_CALL: 0.431
BRANCH_RETURN: 0.0161

LLC TOTAL        ACCESS:    1352047 HIT:     553693 MISS:     798354
LLC LOAD         ACCESS:     576771 HIT:     248091 MISS:     328680
LLC RFO          ACCESS:      47317 HIT:      20716 MISS:      26601
LLC PREFETCH     ACCESS:     576771 HIT:     222807 MISS:     353964
LLC WRITE        ACCESS:     129132 HIT:      60270 MISS:      68862
LLC TRANSLATION  ACCESS:      22056 HIT:       1809 MISS:      20247
LLC PREFETCH REQUESTED:     576771 ISSUED:     576771 USEFUL:      89956 USELESS:     192785
LLC AVERAGE MISS LATENCY: 511.3 cycles
cpu0_DTLB TOTAL        ACCESS:  146457221 HIT:  145152735 MISS:    1304486
cpu0_DTLB LOAD         ACCESS:  146457221 HIT:  145152735 MISS:    1304486
cpu0_DTLB RFO          ACCESS:          0 HIT:          0 MISS:          0
cpu0_DTLB PREFETCH     ACCESS:          0 HIT:          0 MISS:          0
cpu0_DTLB WRITE        ACCESS:          0 HIT:          0 MISS:          0
cpu0_DTLB TRANSLATION  ACCESS:          0 HIT:          0 MISS:          0
cpu0_DTLB PREFETCH REQUESTED:          0 ISSUED:          0 USEFUL:          0 USELESS:          0
cpu0_DTLB AVERAGE MISS LATENCY: 17.11 cycles
cpu0_ITLB TOTAL        ACCESS:    8985804 HIT:    8801316 MISS:     184488
cpu0_ITLB LOAD         ACCESS:    8985804 HIT:    8801316 MISS:     184488
cpu0_ITLB RFO          ACCESS:          0 HIT:          0 MISS:          0
cpu0_ITLB PREFETCH     ACCESS:          0 HIT:          0 MISS:          0
cpu0_ITLB WRITE        ACCESS:          0 HIT:          0 MISS:          0
cpu0_ITLB TRANSLATION  ACCESS:          0 HIT:          0 MISS:          0
cpu0_ITLB PREFETCH REQUESTED:          0 ISSUED:          0 USEFUL:          0 USELESS:          0
cpu0_ITLB AVERAGE MISS LATENCY: 4.576 cycles
cpu0_L1D TOTAL        ACCESS:  193247323 HIT:  190347088 MISS:    2900235
cpu0_L1D LOAD         ACCESS:  107399863 HIT:  105008773 MISS:    2391090
cpu0_L1D RFO          ACCESS:          0 HIT:          0 MISS:          0
cpu0_L1D PREFETCH     ACCESS:          0 HIT:          0 MISS:          0
cpu0_L1D WRITE        ACCESS:   85818938 HIT:   85336311 MISS:     482627
cpu0_L1D TRANSLATION  ACCESS:      28522 HIT:       2004 MISS:      26518
cpu0_L1D PREFETCH REQUESTED:          0 ISSUED:          0 USEFUL:          0 USELESS:          0
cpu0_L1D AVERAGE MISS LATENCY: 73.74 cycles
cpu0_L1I TOTAL        ACCESS:   10420500 HIT:    8659070 MISS:    1761430
cpu0_L1I LOAD         ACCESS:   10420500 HIT:    8659070 MISS:    1761430
cpu0_L1I RFO          ACCESS:          0 HIT:          0 MISS:          0
cpu0_L1I PREFETCH     ACCESS:          0 HIT:          0 MISS:          0
cpu0_L1I WRITE        ACCESS:          0 HIT:          0 MISS:          0
cpu0_L1I TRANSLATION  ACCESS:          0 HIT:          0 MISS:          0
cpu0_L1I PREFETCH REQUESTED:          0 ISSUED:          0 USEFUL:          0 USELESS:          0
cpu0_L1I AVERAGE MISS LATENCY: 26.84 cycles
cpu0_L2C TOTAL        ACCESS:    3232108 HIT:    2579910 MISS:     652198
cpu0_L2C LOAD         ACCESS:    2710104 HIT:    2133333 MISS:     576771
cpu0_L2C RFO          ACCESS:     133255 HIT:      85938 MISS:      47317
cpu0_L2C PREFETCH     ACCESS:          0 HIT:          0 MISS:          0
cpu0_L2C WRITE        ACCESS:     362307 HIT:     356253 MISS:       6054
cpu0_L2C TRANSLATION  ACCESS:      26442 HIT:       4386 MISS:      22056
cpu0_L2C PREFETCH REQUESTED:          0 ISSUED:          0 USEFUL:          0 USELESS:          0
cpu0_L2C AVERAGE MISS LATENCY: 368.4 cycles
cpu0_STLB TOTAL        ACCESS:    1008586 HIT:     981893 MISS:      26693
cpu0_STLB LOAD         ACCESS:    1008586 HIT:     981893 MISS:      26693
cpu0_STLB RFO          ACCESS:          0 HIT:          0 MISS:          0
cpu0_STLB PREFETCH     ACCESS:          0 HIT:          0 MISS:          0
cpu0_STLB WRITE        ACCESS:          0 HIT:          0 MISS:          0
cpu0_STLB TRANSLATION  ACCESS:          0 HIT:          0 MISS:          0
cpu0_STLB PREFETCH REQUESTED:          0 ISSUED:          0 USEFUL:          0 USELESS:          0
cpu0_STLB AVERAGE MISS LATENCY: 633.2 cycles

DRAM Statistics

Channel 0 RQ ROW_BUFFER_HIT:      92249
  ROW_BUFFER_MISS:     540445
 AVG DBUS CONGESTED CYCLE: 3.888
WQ ROW_BUFFER_HIT: Channel 0 
  ROW_BUFFER_MISS:      11744
  FULL:      70064
