WARNING: physical memory size is smaller than virtual memory size.

*** ChampSim Multicore Out-of-Order Simulator ***
Warmup Instructions: 50000000
Simulation Instructions: 600000000
Number of CPUs: 1
Page size: 4096

Off-chip DRAM Size: 4 GiB Channels: 1 Width: 64-bit Data Race: 3200 MT/s
Heartbeat CPU 0 instructions: 10000000 cycles: 2500061 heartbeat IPC: 4 cumulative IPC: 4 (Simulation time: 00 hr 00 min 54 sec)
Heartbeat CPU 0 instructions: 20000000 cycles: 5000061 heartbeat IPC: 4 cumulative IPC: 4 (Simulation time: 00 hr 01 min 41 sec)
Heartbeat CPU 0 instructions: 30000000 cycles: 7500061 heartbeat IPC: 4 cumulative IPC: 4 (Simulation time: 00 hr 02 min 37 sec)
Heartbeat CPU 0 instructions: 40000000 cycles: 10000061 heartbeat IPC: 4 cumulative IPC: 4 (Simulation time: 00 hr 03 min 33 sec)
Heartbeat CPU 0 instructions: 50000000 cycles: 12500061 heartbeat IPC: 4 cumulative IPC: 4 (Simulation time: 00 hr 04 min 29 sec)
Warmup finished CPU 0 instructions: 50000000 cycles: 12500062 cumulative IPC: 4 (Simulation time: 00 hr 04 min 29 sec)
Warmup complete CPU 0 instructions: 50000000 cycles: 12500062 cumulative IPC: 4 (Simulation time: 00 hr 04 min 29 sec)
Heartbeat CPU 0 instructions: 60000002 cycles: 16906981 heartbeat IPC: 2.269 cumulative IPC: 2.269 (Simulation time: 00 hr 05 min 55 sec)
Heartbeat CPU 0 instructions: 70000003 cycles: 21887535 heartbeat IPC: 2.008 cumulative IPC: 2.13 (Simulation time: 00 hr 07 min 21 sec)
Heartbeat CPU 0 instructions: 80000001 cycles: 27229088 heartbeat IPC: 1.872 cumulative IPC: 2.037 (Simulation time: 00 hr 08 min 55 sec)
Heartbeat CPU 0 instructions: 90000000 cycles: 31525396 heartbeat IPC: 2.328 cumulative IPC: 2.102 (Simulation time: 00 hr 10 min 15 sec)
Heartbeat CPU 0 instructions: 100000003 cycles: 36377115 heartbeat IPC: 2.061 cumulative IPC: 2.094 (Simulation time: 00 hr 11 min 40 sec)
Heartbeat CPU 0 instructions: 110000002 cycles: 41244754 heartbeat IPC: 2.054 cumulative IPC: 2.087 (Simulation time: 00 hr 13 min 13 sec)
Heartbeat CPU 0 instructions: 120000001 cycles: 46238023 heartbeat IPC: 2.003 cumulative IPC: 2.075 (Simulation time: 00 hr 14 min 42 sec)
Heartbeat CPU 0 instructions: 130000003 cycles: 50804474 heartbeat IPC: 2.19 cumulative IPC: 2.089 (Simulation time: 00 hr 16 min 08 sec)
Heartbeat CPU 0 instructions: 140000002 cycles: 55692287 heartbeat IPC: 2.046 cumulative IPC: 2.084 (Simulation time: 00 hr 17 min 30 sec)
Heartbeat CPU 0 instructions: 150000001 cycles: 60357159 heartbeat IPC: 2.144 cumulative IPC: 2.09 (Simulation time: 00 hr 18 min 58 sec)
Heartbeat CPU 0 instructions: 160000000 cycles: 64993046 heartbeat IPC: 2.157 cumulative IPC: 2.096 (Simulation time: 00 hr 20 min 19 sec)
Heartbeat CPU 0 instructions: 170000000 cycles: 70321999 heartbeat IPC: 1.877 cumulative IPC: 2.075 (Simulation time: 00 hr 21 min 53 sec)
Heartbeat CPU 0 instructions: 180000001 cycles: 76039062 heartbeat IPC: 1.749 cumulative IPC: 2.046 (Simulation time: 00 hr 23 min 21 sec)
Heartbeat CPU 0 instructions: 190000002 cycles: 80507077 heartbeat IPC: 2.238 cumulative IPC: 2.059 (Simulation time: 00 hr 24 min 50 sec)
Heartbeat CPU 0 instructions: 200000002 cycles: 85405744 heartbeat IPC: 2.041 cumulative IPC: 2.057 (Simulation time: 00 hr 26 min 13 sec)
Heartbeat CPU 0 instructions: 210000000 cycles: 90406939 heartbeat IPC: 2 cumulative IPC: 2.054 (Simulation time: 00 hr 27 min 46 sec)
Heartbeat CPU 0 instructions: 220000001 cycles: 95328642 heartbeat IPC: 2.032 cumulative IPC: 2.052 (Simulation time: 00 hr 29 min 09 sec)
Heartbeat CPU 0 instructions: 230000002 cycles: 100572950 heartbeat IPC: 1.907 cumulative IPC: 2.044 (Simulation time: 00 hr 30 min 42 sec)
Heartbeat CPU 0 instructions: 240000001 cycles: 105535222 heartbeat IPC: 2.015 cumulative IPC: 2.042 (Simulation time: 00 hr 32 min 06 sec)
Heartbeat CPU 0 instructions: 250000003 cycles: 110710321 heartbeat IPC: 1.932 cumulative IPC: 2.036 (Simulation time: 00 hr 33 min 39 sec)
Heartbeat CPU 0 instructions: 260000001 cycles: 115567509 heartbeat IPC: 2.059 cumulative IPC: 2.038 (Simulation time: 00 hr 34 min 51 sec)
Heartbeat CPU 0 instructions: 270000000 cycles: 123326962 heartbeat IPC: 1.289 cumulative IPC: 1.985 (Simulation time: 00 hr 36 min 11 sec)
Heartbeat CPU 0 instructions: 280000000 cycles: 134944807 heartbeat IPC: 0.8607 cumulative IPC: 1.878 (Simulation time: 00 hr 37 min 58 sec)
Heartbeat CPU 0 instructions: 290000001 cycles: 145161827 heartbeat IPC: 0.9788 cumulative IPC: 1.809 (Simulation time: 00 hr 39 min 38 sec)
Heartbeat CPU 0 instructions: 300000003 cycles: 152688779 heartbeat IPC: 1.329 cumulative IPC: 1.783 (Simulation time: 00 hr 41 min 00 sec)
Heartbeat CPU 0 instructions: 310000004 cycles: 163687972 heartbeat IPC: 0.9092 cumulative IPC: 1.72 (Simulation time: 00 hr 42 min 48 sec)
Heartbeat CPU 0 instructions: 320000004 cycles: 169377272 heartbeat IPC: 1.758 cumulative IPC: 1.721 (Simulation time: 00 hr 43 min 55 sec)
Heartbeat CPU 0 instructions: 330000000 cycles: 174675806 heartbeat IPC: 1.887 cumulative IPC: 1.727 (Simulation time: 00 hr 44 min 57 sec)
Heartbeat CPU 0 instructions: 340000001 cycles: 179907739 heartbeat IPC: 1.911 cumulative IPC: 1.732 (Simulation time: 00 hr 45 min 58 sec)
Heartbeat CPU 0 instructions: 350000000 cycles: 185335790 heartbeat IPC: 1.842 cumulative IPC: 1.736 (Simulation time: 00 hr 47 min 01 sec)
Heartbeat CPU 0 instructions: 360000003 cycles: 190519473 heartbeat IPC: 1.929 cumulative IPC: 1.741 (Simulation time: 00 hr 48 min 03 sec)
Heartbeat CPU 0 instructions: 370000001 cycles: 195621022 heartbeat IPC: 1.96 cumulative IPC: 1.747 (Simulation time: 00 hr 49 min 04 sec)
Heartbeat CPU 0 instructions: 380000004 cycles: 200992678 heartbeat IPC: 1.862 cumulative IPC: 1.751 (Simulation time: 00 hr 50 min 07 sec)
Heartbeat CPU 0 instructions: 390000002 cycles: 206408650 heartbeat IPC: 1.846 cumulative IPC: 1.753 (Simulation time: 00 hr 51 min 10 sec)
Heartbeat CPU 0 instructions: 400000000 cycles: 211919586 heartbeat IPC: 1.815 cumulative IPC: 1.755 (Simulation time: 00 hr 52 min 14 sec)
Heartbeat CPU 0 instructions: 410000000 cycles: 219989333 heartbeat IPC: 1.239 cumulative IPC: 1.735 (Simulation time: 00 hr 53 min 38 sec)
Heartbeat CPU 0 instructions: 420000001 cycles: 231180612 heartbeat IPC: 0.8936 cumulative IPC: 1.692 (Simulation time: 00 hr 55 min 12 sec)
Heartbeat CPU 0 instructions: 430000000 cycles: 238844950 heartbeat IPC: 1.305 cumulative IPC: 1.679 (Simulation time: 00 hr 56 min 12 sec)
Heartbeat CPU 0 instructions: 440000002 cycles: 245904013 heartbeat IPC: 1.417 cumulative IPC: 1.671 (Simulation time: 00 hr 57 min 00 sec)
Heartbeat CPU 0 instructions: 450000000 cycles: 252719711 heartbeat IPC: 1.467 cumulative IPC: 1.665 (Simulation time: 00 hr 57 min 47 sec)
Heartbeat CPU 0 instructions: 460000002 cycles: 263491709 heartbeat IPC: 0.9283 cumulative IPC: 1.634 (Simulation time: 00 hr 58 min 43 sec)
Heartbeat CPU 0 instructions: 470000000 cycles: 273162545 heartbeat IPC: 1.034 cumulative IPC: 1.611 (Simulation time: 00 hr 59 min 34 sec)
Heartbeat CPU 0 instructions: 480000000 cycles: 278648644 heartbeat IPC: 1.823 cumulative IPC: 1.616 (Simulation time: 01 hr 00 min 09 sec)
Heartbeat CPU 0 instructions: 490000001 cycles: 284420067 heartbeat IPC: 1.733 cumulative IPC: 1.618 (Simulation time: 01 hr 00 min 44 sec)
Heartbeat CPU 0 instructions: 500000002 cycles: 290050006 heartbeat IPC: 1.776 cumulative IPC: 1.621 (Simulation time: 01 hr 01 min 19 sec)
Heartbeat CPU 0 instructions: 510000000 cycles: 295767701 heartbeat IPC: 1.749 cumulative IPC: 1.624 (Simulation time: 01 hr 01 min 55 sec)
Heartbeat CPU 0 instructions: 520000000 cycles: 301570571 heartbeat IPC: 1.723 cumulative IPC: 1.626 (Simulation time: 01 hr 02 min 31 sec)
Heartbeat CPU 0 instructions: 530000001 cycles: 312930112 heartbeat IPC: 0.8803 cumulative IPC: 1.598 (Simulation time: 01 hr 03 min 28 sec)
Heartbeat CPU 0 instructions: 540000000 cycles: 323666829 heartbeat IPC: 0.9314 cumulative IPC: 1.575 (Simulation time: 01 hr 04 min 24 sec)
Heartbeat CPU 0 instructions: 550000002 cycles: 336530020 heartbeat IPC: 0.7774 cumulative IPC: 1.543 (Simulation time: 01 hr 05 min 26 sec)
Heartbeat CPU 0 instructions: 560000004 cycles: 341324325 heartbeat IPC: 2.086 cumulative IPC: 1.551 (Simulation time: 01 hr 05 min 58 sec)
Heartbeat CPU 0 instructions: 570000001 cycles: 345734953 heartbeat IPC: 2.267 cumulative IPC: 1.56 (Simulation time: 01 hr 06 min 30 sec)
Heartbeat CPU 0 instructions: 580000003 cycles: 349980059 heartbeat IPC: 2.356 cumulative IPC: 1.57 (Simulation time: 01 hr 06 min 59 sec)
Heartbeat CPU 0 instructions: 590000001 cycles: 354882651 heartbeat IPC: 2.04 cumulative IPC: 1.577 (Simulation time: 01 hr 07 min 32 sec)
Heartbeat CPU 0 instructions: 600000003 cycles: 359523694 heartbeat IPC: 2.155 cumulative IPC: 1.585 (Simulation time: 01 hr 08 min 03 sec)
Heartbeat CPU 0 instructions: 610000001 cycles: 364384782 heartbeat IPC: 2.057 cumulative IPC: 1.591 (Simulation time: 01 hr 08 min 35 sec)
Heartbeat CPU 0 instructions: 620000000 cycles: 369452996 heartbeat IPC: 1.973 cumulative IPC: 1.597 (Simulation time: 01 hr 09 min 05 sec)
Heartbeat CPU 0 instructions: 630000002 cycles: 373699345 heartbeat IPC: 2.355 cumulative IPC: 1.606 (Simulation time: 01 hr 09 min 29 sec)
Heartbeat CPU 0 instructions: 640000004 cycles: 379019172 heartbeat IPC: 1.88 cumulative IPC: 1.61 (Simulation time: 01 hr 09 min 56 sec)
Heartbeat CPU 0 instructions: 650000001 cycles: 383783707 heartbeat IPC: 2.099 cumulative IPC: 1.616 (Simulation time: 01 hr 10 min 21 sec)
Simulation finished CPU 0 instructions: 600000001 cycles: 371283646 cumulative IPC: 1.616 (Simulation time: 01 hr 10 min 21 sec)
Simulation complete CPU 0 instructions: 600000001 cycles: 371283646 cumulative IPC: 1.616 (Simulation time: 01 hr 10 min 21 sec)

ChampSim completed all CPUs

=== Simulation ===
CPU 0 runs traces/400.perlbench-50B.champsimtrace.xz
Region of Interest Statistics

CPU 0 cumulative IPC: 1.616 instructions: 600000001 cycles: 371283646
CPU 0 Branch Prediction Accuracy: 93.83% MPKI: 12.71 Average ROB Occupancy at Mispredict: 29.39
Branch type MPKI
BRANCH_DIRECT_JUMP: 0.0176
BRANCH_INDIRECT: 0.38
BRANCH_CONDITIONAL: 11.9
BRANCH_DIRECT_CALL: 0.0067
BRANCH_INDIRECT_CALL: 0.431
BRANCH_RETURN: 0.0161

LLC TOTAL        ACCESS:     856271 HIT:     545244 MISS:     311027
LLC LOAD         ACCESS:     587662 HIT:     337594 MISS:     250068
LLC RFO          ACCESS:      48271 HIT:      28179 MISS:      20092
LLC PREFETCH     ACCESS:      66601 HIT:      38043 MISS:      28558
LLC WRITE        ACCESS:     131740 HIT:     131358 MISS:        382
LLC TRANSLATION  ACCESS:      21997 HIT:      10070 MISS:      11927
LLC PREFETCH REQUESTED:      66601 ISSUED:      66601 USEFUL:      17760 USELESS:       6708
LLC AVERAGE MISS LATENCY: 548.5 cycles
cpu0_DTLB TOTAL        ACCESS:  156768354 HIT:  155467329 MISS:    1301025
cpu0_DTLB LOAD         ACCESS:  156768354 HIT:  155467329 MISS:    1301025
cpu0_DTLB RFO          ACCESS:          0 HIT:          0 MISS:          0
cpu0_DTLB PREFETCH     ACCESS:          0 HIT:          0 MISS:          0
cpu0_DTLB WRITE        ACCESS:          0 HIT:          0 MISS:          0
cpu0_DTLB TRANSLATION  ACCESS:          0 HIT:          0 MISS:          0
cpu0_DTLB PREFETCH REQUESTED:          0 ISSUED:          0 USEFUL:          0 USELESS:          0
cpu0_DTLB AVERAGE MISS LATENCY: 12.04 cycles
cpu0_ITLB TOTAL        ACCESS:    8933012 HIT:    8734435 MISS:     198577
cpu0_ITLB LOAD         ACCESS:    8933012 HIT:    8734435 MISS:     198577
cpu0_ITLB RFO          ACCESS:          0 HIT:          0 MISS:          0
cpu0_ITLB PREFETCH     ACCESS:          0 HIT:          0 MISS:          0
cpu0_ITLB WRITE        ACCESS:          0 HIT:          0 MISS:          0
cpu0_ITLB TRANSLATION  ACCESS:          0 HIT:          0 MISS:          0
cpu0_ITLB PREFETCH REQUESTED:          0 ISSUED:          0 USEFUL:          0 USELESS:          0
cpu0_ITLB AVERAGE MISS LATENCY: 3.238 cycles
cpu0_L1D TOTAL        ACCESS:  203629104 HIT:  200745375 MISS:    2883729
cpu0_L1D LOAD         ACCESS:  117952478 HIT:  115584377 MISS:    2368101
cpu0_L1D RFO          ACCESS:          0 HIT:          0 MISS:          0
cpu0_L1D PREFETCH     ACCESS:          0 HIT:          0 MISS:          0
cpu0_L1D WRITE        ACCESS:   85648087 HIT:   85159008 MISS:     489079
cpu0_L1D TRANSLATION  ACCESS:      28539 HIT:       1990 MISS:      26549
cpu0_L1D PREFETCH REQUESTED:          0 ISSUED:          0 USEFUL:          0 USELESS:          0
cpu0_L1D AVERAGE MISS LATENCY: 58.8 cycles
cpu0_L1I TOTAL        ACCESS:   10371598 HIT:    8574567 MISS:    1797031
cpu0_L1I LOAD         ACCESS:   10371598 HIT:    8574567 MISS:    1797031
cpu0_L1I RFO          ACCESS:          0 HIT:          0 MISS:          0
cpu0_L1I PREFETCH     ACCESS:          0 HIT:          0 MISS:          0
cpu0_L1I WRITE        ACCESS:          0 HIT:          0 MISS:          0
cpu0_L1I TRANSLATION  ACCESS:          0 HIT:          0 MISS:          0
cpu0_L1I PREFETCH REQUESTED:          0 ISSUED:          0 USEFUL:          0 USELESS:          0
cpu0_L1I AVERAGE MISS LATENCY: 10.72 cycles
cpu0_L2C TOTAL        ACCESS:    3235324 HIT:    2570473 MISS:     664851
cpu0_L2C LOAD         ACCESS:    2711714 HIT:    2124052 MISS:     587662
cpu0_L2C RFO          ACCESS:     133685 HIT:      85414 MISS:      48271
cpu0_L2C PREFETCH     ACCESS:          0 HIT:          0 MISS:          0
cpu0_L2C WRITE        ACCESS:     363461 HIT:     356540 MISS:       6921
cpu0_L2C TRANSLATION  ACCESS:      26464 HIT:       4467 MISS:      21997
cpu0_L2C PREFETCH REQUESTED:          0 ISSUED:          0 USEFUL:          0 USELESS:          0
cpu0_L2C AVERAGE MISS LATENCY: 250.7 cycles
cpu0_STLB TOTAL        ACCESS:    1009171 HIT:     982480 MISS:      26691
cpu0_STLB LOAD         ACCESS:    1009171 HIT:     982480 MISS:      26691
cpu0_STLB RFO          ACCESS:          0 HIT:          0 MISS:          0
cpu0_STLB PREFETCH     ACCESS:          0 HIT:          0 MISS:          0
cpu0_STLB WRITE        ACCESS:          0 HIT:          0 MISS:          0
cpu0_STLB TRANSLATION  ACCESS:          0 HIT:          0 MISS:          0
cpu0_STLB PREFETCH REQUESTED:          0 ISSUED:          0 USEFUL:          0 USELESS:          0
cpu0_STLB AVERAGE MISS LATENCY: 367 cycles

DRAM Statistics

Channel 0 RQ ROW_BUFFER_HIT:      60139
  ROW_BUFFER_MISS:     245566
 AVG DBUS CONGESTED CYCLE: 3.813
WQ ROW_BUFFER_HIT: Channel 0 
  ROW_BUFFER_MISS:       8544
  FULL:      35773
