WARNING: physical memory size is smaller than virtual memory size.

*** ChampSim Multicore Out-of-Order Simulator ***
Warmup Instructions: 50000000
Simulation Instructions: 600000000
Number of CPUs: 1
Page size: 4096

Off-chip DRAM Size: 4 GiB Channels: 1 Width: 64-bit Data Race: 3200 MT/s
Heartbeat CPU 0 instructions: 10000001 cycles: 2500318 heartbeat IPC: 3.999 cumulative IPC: 3.999 (Simulation time: 00 hr 00 min 50 sec)
Heartbeat CPU 0 instructions: 20000002 cycles: 5037128 heartbeat IPC: 3.942 cumulative IPC: 3.971 (Simulation time: 00 hr 01 min 45 sec)
Heartbeat CPU 0 instructions: 30000002 cycles: 7537128 heartbeat IPC: 4 cumulative IPC: 3.98 (Simulation time: 00 hr 02 min 32 sec)
Heartbeat CPU 0 instructions: 40000002 cycles: 10037128 heartbeat IPC: 4 cumulative IPC: 3.985 (Simulation time: 00 hr 03 min 18 sec)
Heartbeat CPU 0 instructions: 50000002 cycles: 12537128 heartbeat IPC: 4 cumulative IPC: 3.988 (Simulation time: 00 hr 04 min 06 sec)
Warmup finished CPU 0 instructions: 50000002 cycles: 12537129 cumulative IPC: 3.988 (Simulation time: 00 hr 04 min 06 sec)
Warmup complete CPU 0 instructions: 50000002 cycles: 12537129 cumulative IPC: 3.988 (Simulation time: 00 hr 04 min 06 sec)
Heartbeat CPU 0 instructions: 60000000 cycles: 17693704 heartbeat IPC: 1.939 cumulative IPC: 1.939 (Simulation time: 00 hr 05 min 23 sec)
Heartbeat CPU 0 instructions: 70000002 cycles: 22579838 heartbeat IPC: 2.047 cumulative IPC: 1.991 (Simulation time: 00 hr 06 min 34 sec)
Heartbeat CPU 0 instructions: 80000001 cycles: 27936319 heartbeat IPC: 1.867 cumulative IPC: 1.948 (Simulation time: 00 hr 07 min 45 sec)
Heartbeat CPU 0 instructions: 90000001 cycles: 32810558 heartbeat IPC: 2.052 cumulative IPC: 1.973 (Simulation time: 00 hr 08 min 56 sec)
Heartbeat CPU 0 instructions: 100000000 cycles: 37914466 heartbeat IPC: 1.959 cumulative IPC: 1.97 (Simulation time: 00 hr 10 min 03 sec)
Heartbeat CPU 0 instructions: 110000000 cycles: 42797167 heartbeat IPC: 2.048 cumulative IPC: 1.983 (Simulation time: 00 hr 11 min 08 sec)
Heartbeat CPU 0 instructions: 120000001 cycles: 47986417 heartbeat IPC: 1.927 cumulative IPC: 1.975 (Simulation time: 00 hr 12 min 11 sec)
Heartbeat CPU 0 instructions: 130000001 cycles: 53134581 heartbeat IPC: 1.942 cumulative IPC: 1.971 (Simulation time: 00 hr 13 min 15 sec)
Heartbeat CPU 0 instructions: 140000001 cycles: 58434776 heartbeat IPC: 1.887 cumulative IPC: 1.961 (Simulation time: 00 hr 14 min 21 sec)
Heartbeat CPU 0 instructions: 150000001 cycles: 63736004 heartbeat IPC: 1.886 cumulative IPC: 1.953 (Simulation time: 00 hr 15 min 30 sec)
Heartbeat CPU 0 instructions: 160000004 cycles: 68922728 heartbeat IPC: 1.928 cumulative IPC: 1.951 (Simulation time: 00 hr 16 min 40 sec)
Heartbeat CPU 0 instructions: 170000000 cycles: 77680719 heartbeat IPC: 1.142 cumulative IPC: 1.842 (Simulation time: 00 hr 18 min 19 sec)
Heartbeat CPU 0 instructions: 180000004 cycles: 86280485 heartbeat IPC: 1.163 cumulative IPC: 1.763 (Simulation time: 00 hr 20 min 01 sec)
Heartbeat CPU 0 instructions: 190000001 cycles: 96149682 heartbeat IPC: 1.013 cumulative IPC: 1.674 (Simulation time: 00 hr 21 min 46 sec)
Heartbeat CPU 0 instructions: 200000003 cycles: 100874452 heartbeat IPC: 2.117 cumulative IPC: 1.698 (Simulation time: 00 hr 22 min 53 sec)
Heartbeat CPU 0 instructions: 210000001 cycles: 105762715 heartbeat IPC: 2.046 cumulative IPC: 1.716 (Simulation time: 00 hr 24 min 00 sec)
Heartbeat CPU 0 instructions: 220000000 cycles: 110575743 heartbeat IPC: 2.078 cumulative IPC: 1.734 (Simulation time: 00 hr 25 min 03 sec)
Heartbeat CPU 0 instructions: 230000002 cycles: 115833394 heartbeat IPC: 1.902 cumulative IPC: 1.743 (Simulation time: 00 hr 26 min 12 sec)
Heartbeat CPU 0 instructions: 240000000 cycles: 120644383 heartbeat IPC: 2.079 cumulative IPC: 1.758 (Simulation time: 00 hr 27 min 18 sec)
Heartbeat CPU 0 instructions: 250000000 cycles: 125766287 heartbeat IPC: 1.952 cumulative IPC: 1.766 (Simulation time: 00 hr 28 min 26 sec)
Heartbeat CPU 0 instructions: 260000000 cycles: 130757773 heartbeat IPC: 2.003 cumulative IPC: 1.776 (Simulation time: 00 hr 29 min 33 sec)
Heartbeat CPU 0 instructions: 270000002 cycles: 135612616 heartbeat IPC: 2.06 cumulative IPC: 1.788 (Simulation time: 00 hr 30 min 38 sec)
Heartbeat CPU 0 instructions: 280000002 cycles: 140501572 heartbeat IPC: 2.045 cumulative IPC: 1.797 (Simulation time: 00 hr 31 min 46 sec)
Heartbeat CPU 0 instructions: 290000001 cycles: 145846362 heartbeat IPC: 1.871 cumulative IPC: 1.8 (Simulation time: 00 hr 32 min 52 sec)
Heartbeat CPU 0 instructions: 300000003 cycles: 150860939 heartbeat IPC: 1.994 cumulative IPC: 1.807 (Simulation time: 00 hr 33 min 55 sec)
Heartbeat CPU 0 instructions: 310000001 cycles: 156107824 heartbeat IPC: 1.906 cumulative IPC: 1.811 (Simulation time: 00 hr 35 min 05 sec)
Heartbeat CPU 0 instructions: 320000003 cycles: 161276794 heartbeat IPC: 1.935 cumulative IPC: 1.815 (Simulation time: 00 hr 36 min 09 sec)
Heartbeat CPU 0 instructions: 330000003 cycles: 166513707 heartbeat IPC: 1.91 cumulative IPC: 1.818 (Simulation time: 00 hr 37 min 17 sec)
Heartbeat CPU 0 instructions: 340000000 cycles: 175131197 heartbeat IPC: 1.16 cumulative IPC: 1.784 (Simulation time: 00 hr 38 min 51 sec)
Heartbeat CPU 0 instructions: 350000000 cycles: 184087418 heartbeat IPC: 1.117 cumulative IPC: 1.749 (Simulation time: 00 hr 40 min 29 sec)
Heartbeat CPU 0 instructions: 360000004 cycles: 194038446 heartbeat IPC: 1.005 cumulative IPC: 1.708 (Simulation time: 00 hr 42 min 19 sec)
Heartbeat CPU 0 instructions: 370000000 cycles: 198427032 heartbeat IPC: 2.279 cumulative IPC: 1.721 (Simulation time: 00 hr 43 min 22 sec)
Heartbeat CPU 0 instructions: 380000001 cycles: 203318789 heartbeat IPC: 2.044 cumulative IPC: 1.73 (Simulation time: 00 hr 44 min 30 sec)
Heartbeat CPU 0 instructions: 390000002 cycles: 208126274 heartbeat IPC: 2.08 cumulative IPC: 1.738 (Simulation time: 00 hr 45 min 39 sec)
Heartbeat CPU 0 instructions: 400000004 cycles: 213049033 heartbeat IPC: 2.031 cumulative IPC: 1.746 (Simulation time: 00 hr 46 min 48 sec)
Heartbeat CPU 0 instructions: 410000000 cycles: 217745071 heartbeat IPC: 2.129 cumulative IPC: 1.754 (Simulation time: 00 hr 47 min 54 sec)
Heartbeat CPU 0 instructions: 420000000 cycles: 222792975 heartbeat IPC: 1.981 cumulative IPC: 1.76 (Simulation time: 00 hr 49 min 00 sec)
Heartbeat CPU 0 instructions: 430000001 cycles: 227236168 heartbeat IPC: 2.251 cumulative IPC: 1.77 (Simulation time: 00 hr 50 min 02 sec)
Heartbeat CPU 0 instructions: 440000000 cycles: 232570093 heartbeat IPC: 1.875 cumulative IPC: 1.772 (Simulation time: 00 hr 51 min 07 sec)
Heartbeat CPU 0 instructions: 450000002 cycles: 237208676 heartbeat IPC: 2.156 cumulative IPC: 1.78 (Simulation time: 00 hr 52 min 08 sec)
Heartbeat CPU 0 instructions: 460000000 cycles: 241980443 heartbeat IPC: 2.096 cumulative IPC: 1.787 (Simulation time: 00 hr 53 min 11 sec)
Heartbeat CPU 0 instructions: 470000000 cycles: 246932054 heartbeat IPC: 2.02 cumulative IPC: 1.792 (Simulation time: 00 hr 54 min 20 sec)
Heartbeat CPU 0 instructions: 480000003 cycles: 251682024 heartbeat IPC: 2.105 cumulative IPC: 1.798 (Simulation time: 00 hr 55 min 26 sec)
Heartbeat CPU 0 instructions: 490000000 cycles: 256281970 heartbeat IPC: 2.174 cumulative IPC: 1.805 (Simulation time: 00 hr 56 min 31 sec)
Heartbeat CPU 0 instructions: 500000000 cycles: 261289369 heartbeat IPC: 1.997 cumulative IPC: 1.809 (Simulation time: 00 hr 57 min 37 sec)
Heartbeat CPU 0 instructions: 510000003 cycles: 266877080 heartbeat IPC: 1.79 cumulative IPC: 1.809 (Simulation time: 00 hr 58 min 44 sec)
Heartbeat CPU 0 instructions: 520000001 cycles: 271540201 heartbeat IPC: 2.144 cumulative IPC: 1.815 (Simulation time: 00 hr 59 min 46 sec)
Heartbeat CPU 0 instructions: 530000002 cycles: 276647670 heartbeat IPC: 1.958 cumulative IPC: 1.817 (Simulation time: 01 hr 00 min 51 sec)
Heartbeat CPU 0 instructions: 540000000 cycles: 281739324 heartbeat IPC: 1.964 cumulative IPC: 1.82 (Simulation time: 01 hr 01 min 56 sec)
Heartbeat CPU 0 instructions: 550000001 cycles: 286526091 heartbeat IPC: 2.089 cumulative IPC: 1.825 (Simulation time: 01 hr 03 min 00 sec)
Heartbeat CPU 0 instructions: 560000000 cycles: 291689591 heartbeat IPC: 1.937 cumulative IPC: 1.827 (Simulation time: 01 hr 04 min 11 sec)
Heartbeat CPU 0 instructions: 570000004 cycles: 298126875 heartbeat IPC: 1.553 cumulative IPC: 1.821 (Simulation time: 01 hr 05 min 34 sec)
Heartbeat CPU 0 instructions: 580000003 cycles: 307886553 heartbeat IPC: 1.025 cumulative IPC: 1.794 (Simulation time: 01 hr 07 min 27 sec)
Heartbeat CPU 0 instructions: 590000002 cycles: 319330415 heartbeat IPC: 0.8738 cumulative IPC: 1.76 (Simulation time: 01 hr 09 min 28 sec)
Heartbeat CPU 0 instructions: 600000000 cycles: 323838862 heartbeat IPC: 2.218 cumulative IPC: 1.767 (Simulation time: 01 hr 10 min 36 sec)
Heartbeat CPU 0 instructions: 610000002 cycles: 328306053 heartbeat IPC: 2.239 cumulative IPC: 1.773 (Simulation time: 01 hr 11 min 41 sec)
Heartbeat CPU 0 instructions: 620000000 cycles: 333096765 heartbeat IPC: 2.087 cumulative IPC: 1.778 (Simulation time: 01 hr 12 min 51 sec)
Heartbeat CPU 0 instructions: 630000002 cycles: 338159918 heartbeat IPC: 1.975 cumulative IPC: 1.781 (Simulation time: 01 hr 14 min 02 sec)
Heartbeat CPU 0 instructions: 640000001 cycles: 343002311 heartbeat IPC: 2.065 cumulative IPC: 1.785 (Simulation time: 01 hr 15 min 11 sec)
Heartbeat CPU 0 instructions: 650000000 cycles: 347547306 heartbeat IPC: 2.2 cumulative IPC: 1.791 (Simulation time: 01 hr 16 min 19 sec)
Simulation finished CPU 0 instructions: 600000001 cycles: 335010179 cumulative IPC: 1.791 (Simulation time: 01 hr 16 min 19 sec)
Simulation complete CPU 0 instructions: 600000001 cycles: 335010179 cumulative IPC: 1.791 (Simulation time: 01 hr 16 min 19 sec)

ChampSim completed all CPUs

=== Simulation ===
CPU 0 runs traces/400.perlbench-41B.champsimtrace.xz
Region of Interest Statistics

CPU 0 cumulative IPC: 1.791 instructions: 600000001 cycles: 335010179
CPU 0 Branch Prediction Accuracy: 93.95% MPKI: 12.5 Average ROB Occupancy at Mispredict: 29.55
Branch type MPKI
BRANCH_DIRECT_JUMP: 0.0123
BRANCH_INDIRECT: 0.323
BRANCH_CONDITIONAL: 12
BRANCH_DIRECT_CALL: 0.0043
BRANCH_INDIRECT_CALL: 0.2
BRANCH_RETURN: 0.00828

LLC TOTAL        ACCESS:     541093 HIT:     344408 MISS:     196685
LLC LOAD         ACCESS:     403586 HIT:     220816 MISS:     182770
LLC RFO          ACCESS:      32579 HIT:      27189 MISS:       5390
LLC PREFETCH     ACCESS:          0 HIT:          0 MISS:          0
LLC WRITE        ACCESS:      85898 HIT:      85885 MISS:         13
LLC TRANSLATION  ACCESS:      19030 HIT:      10518 MISS:       8512
LLC PREFETCH REQUESTED:          0 ISSUED:          0 USEFUL:          0 USELESS:          0
LLC AVERAGE MISS LATENCY: 485.7 cycles
cpu0_DTLB TOTAL        ACCESS:  153690830 HIT:  153012854 MISS:     677976
cpu0_DTLB LOAD         ACCESS:  153690830 HIT:  153012854 MISS:     677976
cpu0_DTLB RFO          ACCESS:          0 HIT:          0 MISS:          0
cpu0_DTLB PREFETCH     ACCESS:          0 HIT:          0 MISS:          0
cpu0_DTLB WRITE        ACCESS:          0 HIT:          0 MISS:          0
cpu0_DTLB TRANSLATION  ACCESS:          0 HIT:          0 MISS:          0
cpu0_DTLB PREFETCH REQUESTED:          0 ISSUED:          0 USEFUL:          0 USELESS:          0
cpu0_DTLB AVERAGE MISS LATENCY: 13 cycles
cpu0_ITLB TOTAL        ACCESS:    4836287 HIT:    4778444 MISS:      57843
cpu0_ITLB LOAD         ACCESS:    4836287 HIT:    4778444 MISS:      57843
cpu0_ITLB RFO          ACCESS:          0 HIT:          0 MISS:          0
cpu0_ITLB PREFETCH     ACCESS:          0 HIT:          0 MISS:          0
cpu0_ITLB WRITE        ACCESS:          0 HIT:          0 MISS:          0
cpu0_ITLB TRANSLATION  ACCESS:          0 HIT:          0 MISS:          0
cpu0_ITLB PREFETCH REQUESTED:          0 ISSUED:          0 USEFUL:          0 USELESS:          0
cpu0_ITLB AVERAGE MISS LATENCY: 6.333 cycles
cpu0_L1D TOTAL        ACCESS:  200300335 HIT:  198584589 MISS:    1715746
cpu0_L1D LOAD         ACCESS:  117057487 HIT:  115710760 MISS:    1346727
cpu0_L1D RFO          ACCESS:          0 HIT:          0 MISS:          0
cpu0_L1D PREFETCH     ACCESS:          0 HIT:          0 MISS:          0
cpu0_L1D WRITE        ACCESS:   83218386 HIT:   82872794 MISS:     345592
cpu0_L1D TRANSLATION  ACCESS:      24462 HIT:       1035 MISS:      23427
cpu0_L1D PREFETCH REQUESTED:          0 ISSUED:          0 USEFUL:          0 USELESS:          0
cpu0_L1D AVERAGE MISS LATENCY: 63 cycles
cpu0_L1I TOTAL        ACCESS:    5578874 HIT:    4817359 MISS:     761515
cpu0_L1I LOAD         ACCESS:    5578874 HIT:    4817359 MISS:     761515
cpu0_L1I RFO          ACCESS:          0 HIT:          0 MISS:          0
cpu0_L1I PREFETCH     ACCESS:          0 HIT:          0 MISS:          0
cpu0_L1I WRITE        ACCESS:          0 HIT:          0 MISS:          0
cpu0_L1I TRANSLATION  ACCESS:          0 HIT:          0 MISS:          0
cpu0_L1I PREFETCH REQUESTED:          0 ISSUED:          0 USEFUL:          0 USELESS:          0
cpu0_L1I AVERAGE MISS LATENCY: 9.743 cycles
cpu0_L2C TOTAL        ACCESS:    1668144 HIT:    1211132 MISS:     457012
cpu0_L2C LOAD         ACCESS:    1317128 HIT:     913542 MISS:     403586
cpu0_L2C RFO          ACCESS:      88598 HIT:      56019 MISS:      32579
cpu0_L2C PREFETCH     ACCESS:          0 HIT:          0 MISS:          0
cpu0_L2C WRITE        ACCESS:     239076 HIT:     237259 MISS:       1817
cpu0_L2C TRANSLATION  ACCESS:      23342 HIT:       4312 MISS:      19030
cpu0_L2C PREFETCH REQUESTED:          0 ISSUED:          0 USEFUL:          0 USELESS:          0
cpu0_L2C AVERAGE MISS LATENCY: 229.4 cycles
cpu0_STLB TOTAL        ACCESS:     505293 HIT:     482504 MISS:      22789
cpu0_STLB LOAD         ACCESS:     505293 HIT:     482504 MISS:      22789
cpu0_STLB RFO          ACCESS:          0 HIT:          0 MISS:          0
cpu0_STLB PREFETCH     ACCESS:          0 HIT:          0 MISS:          0
cpu0_STLB WRITE        ACCESS:          0 HIT:          0 MISS:          0
cpu0_STLB TRANSLATION  ACCESS:          0 HIT:          0 MISS:          0
cpu0_STLB PREFETCH REQUESTED:          0 ISSUED:          0 USEFUL:          0 USELESS:          0
cpu0_STLB AVERAGE MISS LATENCY: 258.9 cycles

DRAM Statistics

Channel 0 RQ ROW_BUFFER_HIT:      51838
  ROW_BUFFER_MISS:     144825
 AVG DBUS CONGESTED CYCLE: 3.682
WQ ROW_BUFFER_HIT: Channel 0 
  ROW_BUFFER_MISS:       2569
  FULL:       2299
