WARNING: physical memory size is smaller than virtual memory size.

*** ChampSim Multicore Out-of-Order Simulator ***
Warmup Instructions: 50000000
Simulation Instructions: 600000000
Number of CPUs: 1
Page size: 4096

Off-chip DRAM Size: 4 GiB Channels: 1 Width: 64-bit Data Race: 3200 MT/s
Heartbeat CPU 0 instructions: 10000000 cycles: 2500061 heartbeat IPC: 4 cumulative IPC: 4 (Simulation time: 00 hr 03 min 21 sec)
Heartbeat CPU 0 instructions: 20000000 cycles: 5000061 heartbeat IPC: 4 cumulative IPC: 4 (Simulation time: 00 hr 06 min 45 sec)
Heartbeat CPU 0 instructions: 30000000 cycles: 7500061 heartbeat IPC: 4 cumulative IPC: 4 (Simulation time: 00 hr 10 min 11 sec)
Heartbeat CPU 0 instructions: 40000000 cycles: 10000061 heartbeat IPC: 4 cumulative IPC: 4 (Simulation time: 00 hr 13 min 26 sec)
Heartbeat CPU 0 instructions: 50000000 cycles: 12500061 heartbeat IPC: 4 cumulative IPC: 4 (Simulation time: 00 hr 16 min 45 sec)
Warmup finished CPU 0 instructions: 50000000 cycles: 12500062 cumulative IPC: 4 (Simulation time: 00 hr 16 min 45 sec)
Warmup complete CPU 0 instructions: 50000000 cycles: 12500062 cumulative IPC: 4 (Simulation time: 00 hr 16 min 45 sec)
Heartbeat CPU 0 instructions: 60000002 cycles: 16444688 heartbeat IPC: 2.535 cumulative IPC: 2.535 (Simulation time: 00 hr 21 min 27 sec)
Heartbeat CPU 0 instructions: 70000003 cycles: 20760893 heartbeat IPC: 2.317 cumulative IPC: 2.421 (Simulation time: 00 hr 26 min 04 sec)
Heartbeat CPU 0 instructions: 80000003 cycles: 25229157 heartbeat IPC: 2.238 cumulative IPC: 2.357 (Simulation time: 00 hr 30 min 45 sec)
Heartbeat CPU 0 instructions: 90000000 cycles: 28920814 heartbeat IPC: 2.709 cumulative IPC: 2.436 (Simulation time: 00 hr 35 min 05 sec)
Heartbeat CPU 0 instructions: 100000003 cycles: 32818788 heartbeat IPC: 2.565 cumulative IPC: 2.461 (Simulation time: 00 hr 39 min 33 sec)
Heartbeat CPU 0 instructions: 110000002 cycles: 36920325 heartbeat IPC: 2.438 cumulative IPC: 2.457 (Simulation time: 00 hr 43 min 58 sec)
Heartbeat CPU 0 instructions: 120000001 cycles: 40635683 heartbeat IPC: 2.692 cumulative IPC: 2.488 (Simulation time: 00 hr 48 min 14 sec)
Heartbeat CPU 0 instructions: 130000003 cycles: 44404658 heartbeat IPC: 2.653 cumulative IPC: 2.507 (Simulation time: 00 hr 52 min 32 sec)
Heartbeat CPU 0 instructions: 140000002 cycles: 48538024 heartbeat IPC: 2.419 cumulative IPC: 2.497 (Simulation time: 00 hr 56 min 59 sec)
Heartbeat CPU 0 instructions: 150000001 cycles: 52589949 heartbeat IPC: 2.468 cumulative IPC: 2.494 (Simulation time: 01 hr 01 min 23 sec)
Heartbeat CPU 0 instructions: 160000000 cycles: 56247531 heartbeat IPC: 2.734 cumulative IPC: 2.514 (Simulation time: 01 hr 05 min 37 sec)
Heartbeat CPU 0 instructions: 170000001 cycles: 60421737 heartbeat IPC: 2.396 cumulative IPC: 2.504 (Simulation time: 01 hr 10 min 05 sec)
Heartbeat CPU 0 instructions: 180000001 cycles: 63882371 heartbeat IPC: 2.89 cumulative IPC: 2.53 (Simulation time: 01 hr 14 min 15 sec)
Heartbeat CPU 0 instructions: 190000002 cycles: 67465761 heartbeat IPC: 2.791 cumulative IPC: 2.547 (Simulation time: 01 hr 18 min 31 sec)
Heartbeat CPU 0 instructions: 200000002 cycles: 71249161 heartbeat IPC: 2.643 cumulative IPC: 2.553 (Simulation time: 01 hr 22 min 51 sec)
Heartbeat CPU 0 instructions: 210000000 cycles: 74888079 heartbeat IPC: 2.748 cumulative IPC: 2.565 (Simulation time: 01 hr 27 min 05 sec)
Heartbeat CPU 0 instructions: 220000001 cycles: 78754029 heartbeat IPC: 2.587 cumulative IPC: 2.566 (Simulation time: 01 hr 31 min 27 sec)
Heartbeat CPU 0 instructions: 230000002 cycles: 82594747 heartbeat IPC: 2.604 cumulative IPC: 2.568 (Simulation time: 01 hr 35 min 51 sec)
Heartbeat CPU 0 instructions: 240000001 cycles: 86801493 heartbeat IPC: 2.377 cumulative IPC: 2.557 (Simulation time: 01 hr 40 min 24 sec)
Heartbeat CPU 0 instructions: 250000003 cycles: 91366485 heartbeat IPC: 2.191 cumulative IPC: 2.536 (Simulation time: 01 hr 45 min 03 sec)
Heartbeat CPU 0 instructions: 260000000 cycles: 95158973 heartbeat IPC: 2.637 cumulative IPC: 2.541 (Simulation time: 01 hr 49 min 23 sec)
Heartbeat CPU 0 instructions: 270000003 cycles: 102228918 heartbeat IPC: 1.414 cumulative IPC: 2.452 (Simulation time: 01 hr 55 min 44 sec)
Heartbeat CPU 0 instructions: 280000000 cycles: 112844340 heartbeat IPC: 0.942 cumulative IPC: 2.292 (Simulation time: 02 hr 04 min 17 sec)
Heartbeat CPU 0 instructions: 290000000 cycles: 123087240 heartbeat IPC: 0.9763 cumulative IPC: 2.17 (Simulation time: 02 hr 12 min 43 sec)
Heartbeat CPU 0 instructions: 300000003 cycles: 130645167 heartbeat IPC: 1.323 cumulative IPC: 2.116 (Simulation time: 02 hr 19 min 43 sec)
Heartbeat CPU 0 instructions: 310000004 cycles: 141437028 heartbeat IPC: 0.9266 cumulative IPC: 2.016 (Simulation time: 02 hr 28 min 36 sec)
Heartbeat CPU 0 instructions: 320000004 cycles: 146543060 heartbeat IPC: 1.958 cumulative IPC: 2.014 (Simulation time: 02 hr 33 min 56 sec)
Heartbeat CPU 0 instructions: 330000000 cycles: 150613873 heartbeat IPC: 2.457 cumulative IPC: 2.027 (Simulation time: 02 hr 38 min 31 sec)
Heartbeat CPU 0 instructions: 340000001 cycles: 154859321 heartbeat IPC: 2.355 cumulative IPC: 2.037 (Simulation time: 02 hr 43 min 11 sec)
Heartbeat CPU 0 instructions: 350000004 cycles: 159191003 heartbeat IPC: 2.309 cumulative IPC: 2.045 (Simulation time: 02 hr 47 min 54 sec)
Heartbeat CPU 0 instructions: 360000003 cycles: 163166807 heartbeat IPC: 2.515 cumulative IPC: 2.058 (Simulation time: 02 hr 52 min 24 sec)
Heartbeat CPU 0 instructions: 370000001 cycles: 167025152 heartbeat IPC: 2.592 cumulative IPC: 2.071 (Simulation time: 02 hr 56 min 48 sec)
Heartbeat CPU 0 instructions: 380000004 cycles: 170704507 heartbeat IPC: 2.718 cumulative IPC: 2.086 (Simulation time: 03 hr 01 min 09 sec)
Heartbeat CPU 0 instructions: 390000002 cycles: 174432705 heartbeat IPC: 2.682 cumulative IPC: 2.1 (Simulation time: 03 hr 05 min 32 sec)
Heartbeat CPU 0 instructions: 400000000 cycles: 178381524 heartbeat IPC: 2.532 cumulative IPC: 2.11 (Simulation time: 03 hr 10 min 00 sec)
Heartbeat CPU 0 instructions: 410000000 cycles: 184256704 heartbeat IPC: 1.702 cumulative IPC: 2.096 (Simulation time: 03 hr 15 min 41 sec)
Heartbeat CPU 0 instructions: 420000003 cycles: 191769707 heartbeat IPC: 1.331 cumulative IPC: 2.064 (Simulation time: 03 hr 22 min 26 sec)
Heartbeat CPU 0 instructions: 430000000 cycles: 198916253 heartbeat IPC: 1.399 cumulative IPC: 2.038 (Simulation time: 03 hr 29 min 13 sec)
Heartbeat CPU 0 instructions: 440000004 cycles: 205648365 heartbeat IPC: 1.485 cumulative IPC: 2.019 (Simulation time: 03 hr 35 min 43 sec)
Heartbeat CPU 0 instructions: 450000001 cycles: 212375607 heartbeat IPC: 1.486 cumulative IPC: 2.001 (Simulation time: 03 hr 42 min 09 sec)
Heartbeat CPU 0 instructions: 460000002 cycles: 222250588 heartbeat IPC: 1.013 cumulative IPC: 1.955 (Simulation time: 03 hr 50 min 24 sec)
Heartbeat CPU 0 instructions: 470000003 cycles: 231337091 heartbeat IPC: 1.101 cumulative IPC: 1.919 (Simulation time: 03 hr 58 min 10 sec)
Heartbeat CPU 0 instructions: 480000003 cycles: 235538529 heartbeat IPC: 2.38 cumulative IPC: 1.928 (Simulation time: 04 hr 02 min 49 sec)
Heartbeat CPU 0 instructions: 490000001 cycles: 240068529 heartbeat IPC: 2.208 cumulative IPC: 1.933 (Simulation time: 04 hr 07 min 37 sec)
Heartbeat CPU 0 instructions: 500000002 cycles: 244194904 heartbeat IPC: 2.423 cumulative IPC: 1.942 (Simulation time: 04 hr 12 min 10 sec)
Heartbeat CPU 0 instructions: 510000000 cycles: 248010601 heartbeat IPC: 2.621 cumulative IPC: 1.953 (Simulation time: 04 hr 16 min 35 sec)
Heartbeat CPU 0 instructions: 520000000 cycles: 251867790 heartbeat IPC: 2.593 cumulative IPC: 1.964 (Simulation time: 04 hr 21 min 00 sec)
Heartbeat CPU 0 instructions: 530000001 cycles: 259438502 heartbeat IPC: 1.321 cumulative IPC: 1.944 (Simulation time: 04 hr 27 min 50 sec)
Heartbeat CPU 0 instructions: 540000000 cycles: 267871692 heartbeat IPC: 1.186 cumulative IPC: 1.919 (Simulation time: 04 hr 35 min 12 sec)
Heartbeat CPU 0 instructions: 550000004 cycles: 278833648 heartbeat IPC: 0.9122 cumulative IPC: 1.877 (Simulation time: 04 hr 44 min 06 sec)
Heartbeat CPU 0 instructions: 560000004 cycles: 282985807 heartbeat IPC: 2.408 cumulative IPC: 1.885 (Simulation time: 04 hr 48 min 40 sec)
Heartbeat CPU 0 instructions: 570000001 cycles: 286110367 heartbeat IPC: 3.2 cumulative IPC: 1.901 (Simulation time: 04 hr 52 min 44 sec)
Heartbeat CPU 0 instructions: 580000003 cycles: 289654431 heartbeat IPC: 2.822 cumulative IPC: 1.912 (Simulation time: 04 hr 56 min 55 sec)
Heartbeat CPU 0 instructions: 590000002 cycles: 293273760 heartbeat IPC: 2.763 cumulative IPC: 1.923 (Simulation time: 05 hr 01 min 22 sec)
Heartbeat CPU 0 instructions: 600000003 cycles: 296333132 heartbeat IPC: 3.269 cumulative IPC: 1.938 (Simulation time: 05 hr 05 min 26 sec)
Heartbeat CPU 0 instructions: 610000001 cycles: 299839081 heartbeat IPC: 2.852 cumulative IPC: 1.949 (Simulation time: 05 hr 09 min 50 sec)
Heartbeat CPU 0 instructions: 620000000 cycles: 303854191 heartbeat IPC: 2.491 cumulative IPC: 1.956 (Simulation time: 05 hr 14 min 45 sec)
Heartbeat CPU 0 instructions: 630000002 cycles: 307219313 heartbeat IPC: 2.972 cumulative IPC: 1.968 (Simulation time: 05 hr 18 min 54 sec)
Heartbeat CPU 0 instructions: 640000004 cycles: 311225667 heartbeat IPC: 2.496 cumulative IPC: 1.975 (Simulation time: 05 hr 23 min 32 sec)
Heartbeat CPU 0 instructions: 650000001 cycles: 315048052 heartbeat IPC: 2.616 cumulative IPC: 1.983 (Simulation time: 05 hr 28 min 02 sec)
Simulation finished CPU 0 instructions: 600000001 cycles: 302547991 cumulative IPC: 1.983 (Simulation time: 05 hr 28 min 02 sec)
Simulation complete CPU 0 instructions: 600000001 cycles: 302547991 cumulative IPC: 1.983 (Simulation time: 05 hr 28 min 02 sec)

ChampSim completed all CPUs

=== Simulation ===
CPU 0 runs traces/400.perlbench-50B.champsimtrace.xz
Region of Interest Statistics

CPU 0 cumulative IPC: 1.983 instructions: 600000001 cycles: 302547991
CPU 0 Branch Prediction Accuracy: 96.2% MPKI: 7.839 Average ROB Occupancy at Mispredict: 43.45
Branch type MPKI
BRANCH_DIRECT_JUMP: 0.0176
BRANCH_INDIRECT: 0.38
BRANCH_CONDITIONAL: 6.99
BRANCH_DIRECT_CALL: 0.0067
BRANCH_INDIRECT_CALL: 0.431
BRANCH_RETURN: 0.0161

LLC TOTAL        ACCESS:     837473 HIT:     617088 MISS:     220385
LLC LOAD         ACCESS:     576641 HIT:     406039 MISS:     170602
LLC RFO          ACCESS:      47569 HIT:      32947 MISS:      14622
LLC PREFETCH     ACCESS:      64048 HIT:      49488 MISS:      14560
LLC WRITE        ACCESS:     127122 HIT:     119377 MISS:       7745
LLC TRANSLATION  ACCESS:      22093 HIT:       9237 MISS:      12856
LLC PREFETCH REQUESTED:      64048 ISSUED:      64048 USEFUL:       7401 USELESS:       4103
LLC AVERAGE MISS LATENCY: 488.1 cycles
cpu0_DTLB TOTAL        ACCESS:  146511008 HIT:  145205398 MISS:    1305610
cpu0_DTLB LOAD         ACCESS:  146511008 HIT:  145205398 MISS:    1305610
cpu0_DTLB RFO          ACCESS:          0 HIT:          0 MISS:          0
cpu0_DTLB PREFETCH     ACCESS:          0 HIT:          0 MISS:          0
cpu0_DTLB WRITE        ACCESS:          0 HIT:          0 MISS:          0
cpu0_DTLB TRANSLATION  ACCESS:          0 HIT:          0 MISS:          0
cpu0_DTLB PREFETCH REQUESTED:          0 ISSUED:          0 USEFUL:          0 USELESS:          0
cpu0_DTLB AVERAGE MISS LATENCY: 11.69 cycles
cpu0_ITLB TOTAL        ACCESS:    8989170 HIT:    8804674 MISS:     184496
cpu0_ITLB LOAD         ACCESS:    8989170 HIT:    8804674 MISS:     184496
cpu0_ITLB RFO          ACCESS:          0 HIT:          0 MISS:          0
cpu0_ITLB PREFETCH     ACCESS:          0 HIT:          0 MISS:          0
cpu0_ITLB WRITE        ACCESS:          0 HIT:          0 MISS:          0
cpu0_ITLB TRANSLATION  ACCESS:          0 HIT:          0 MISS:          0
cpu0_ITLB PREFETCH REQUESTED:          0 ISSUED:          0 USEFUL:          0 USELESS:          0
cpu0_ITLB AVERAGE MISS LATENCY: 3.433 cycles
cpu0_L1D TOTAL        ACCESS:  193296360 HIT:  189651355 MISS:    3645005
cpu0_L1D LOAD         ACCESS:  107450272 HIT:  104447770 MISS:    3002502
cpu0_L1D RFO          ACCESS:          0 HIT:          0 MISS:          0
cpu0_L1D PREFETCH     ACCESS:          0 HIT:          0 MISS:          0
cpu0_L1D WRITE        ACCESS:   85817566 HIT:   85202158 MISS:     615408
cpu0_L1D TRANSLATION  ACCESS:      28522 HIT:       1427 MISS:      27095
cpu0_L1D PREFETCH REQUESTED:          0 ISSUED:          0 USEFUL:          0 USELESS:          0
cpu0_L1D AVERAGE MISS LATENCY: 33.55 cycles
cpu0_L1I TOTAL        ACCESS:   10423406 HIT:    8661232 MISS:    1762174
cpu0_L1I LOAD         ACCESS:   10423406 HIT:    8661232 MISS:    1762174
cpu0_L1I RFO          ACCESS:          0 HIT:          0 MISS:          0
cpu0_L1I PREFETCH     ACCESS:          0 HIT:          0 MISS:          0
cpu0_L1I WRITE        ACCESS:          0 HIT:          0 MISS:          0
cpu0_L1I TRANSLATION  ACCESS:          0 HIT:          0 MISS:          0
cpu0_L1I PREFETCH REQUESTED:          0 ISSUED:          0 USEFUL:          0 USELESS:          0
cpu0_L1I AVERAGE MISS LATENCY: 10 cycles
cpu0_L2C TOTAL        ACCESS:    3834678 HIT:    3185221 MISS:     649457
cpu0_L2C LOAD         ACCESS:    3105026 HIT:    2528385 MISS:     576641
cpu0_L2C RFO          ACCESS:     191540 HIT:     143970 MISS:      47570
cpu0_L2C PREFETCH     ACCESS:          0 HIT:          0 MISS:          0
cpu0_L2C WRITE        ACCESS:     511084 HIT:     507931 MISS:       3153
cpu0_L2C TRANSLATION  ACCESS:      27028 HIT:       4935 MISS:      22093
cpu0_L2C PREFETCH REQUESTED:          0 ISSUED:          0 USEFUL:          0 USELESS:          0
cpu0_L2C AVERAGE MISS LATENCY: 174.2 cycles
cpu0_STLB TOTAL        ACCESS:    1008371 HIT:     981679 MISS:      26692
cpu0_STLB LOAD         ACCESS:    1008371 HIT:     981679 MISS:      26692
cpu0_STLB RFO          ACCESS:          0 HIT:          0 MISS:          0
cpu0_STLB PREFETCH     ACCESS:          0 HIT:          0 MISS:          0
cpu0_STLB WRITE        ACCESS:          0 HIT:          0 MISS:          0
cpu0_STLB TRANSLATION  ACCESS:          0 HIT:          0 MISS:          0
cpu0_STLB PREFETCH REQUESTED:          0 ISSUED:          0 USEFUL:          0 USELESS:          0
cpu0_STLB AVERAGE MISS LATENCY: 351.9 cycles

DRAM Statistics

Channel 0 RQ ROW_BUFFER_HIT:      47677
  ROW_BUFFER_MISS:     162093
 AVG DBUS CONGESTED CYCLE: 3.765
WQ ROW_BUFFER_HIT: Channel 0 
  ROW_BUFFER_MISS:       7020
  FULL:      13885
