WARNING: physical memory size is smaller than virtual memory size.

*** ChampSim Multicore Out-of-Order Simulator ***
Warmup Instructions: 50000000
Simulation Instructions: 600000000
Number of CPUs: 1
Page size: 4096

Off-chip DRAM Size: 4 GiB Channels: 1 Width: 64-bit Data Race: 3200 MT/s
Heartbeat CPU 0 instructions: 10000001 cycles: 2500318 heartbeat IPC: 3.999 cumulative IPC: 3.999 (Simulation time: 00 hr 00 min 54 sec)
Heartbeat CPU 0 instructions: 20000002 cycles: 5037130 heartbeat IPC: 3.942 cumulative IPC: 3.971 (Simulation time: 00 hr 01 min 48 sec)
Heartbeat CPU 0 instructions: 30000002 cycles: 7537130 heartbeat IPC: 4 cumulative IPC: 3.98 (Simulation time: 00 hr 02 min 40 sec)
Heartbeat CPU 0 instructions: 40000002 cycles: 10037130 heartbeat IPC: 4 cumulative IPC: 3.985 (Simulation time: 00 hr 03 min 30 sec)
Heartbeat CPU 0 instructions: 50000002 cycles: 12537130 heartbeat IPC: 4 cumulative IPC: 3.988 (Simulation time: 00 hr 04 min 26 sec)
Warmup finished CPU 0 instructions: 50000002 cycles: 12537131 cumulative IPC: 3.988 (Simulation time: 00 hr 04 min 26 sec)
Warmup complete CPU 0 instructions: 50000002 cycles: 12537131 cumulative IPC: 3.988 (Simulation time: 00 hr 04 min 26 sec)
Heartbeat CPU 0 instructions: 60000000 cycles: 17164552 heartbeat IPC: 2.161 cumulative IPC: 2.161 (Simulation time: 00 hr 05 min 53 sec)
Heartbeat CPU 0 instructions: 70000004 cycles: 21461726 heartbeat IPC: 2.327 cumulative IPC: 2.241 (Simulation time: 00 hr 07 min 21 sec)
Heartbeat CPU 0 instructions: 80000001 cycles: 26078918 heartbeat IPC: 2.166 cumulative IPC: 2.215 (Simulation time: 00 hr 08 min 41 sec)
Heartbeat CPU 0 instructions: 90000001 cycles: 30226277 heartbeat IPC: 2.411 cumulative IPC: 2.261 (Simulation time: 00 hr 09 min 50 sec)
Heartbeat CPU 0 instructions: 100000000 cycles: 34297877 heartbeat IPC: 2.456 cumulative IPC: 2.298 (Simulation time: 00 hr 11 min 00 sec)
Heartbeat CPU 0 instructions: 110000000 cycles: 38545687 heartbeat IPC: 2.354 cumulative IPC: 2.307 (Simulation time: 00 hr 12 min 17 sec)
Heartbeat CPU 0 instructions: 120000001 cycles: 42569187 heartbeat IPC: 2.485 cumulative IPC: 2.331 (Simulation time: 00 hr 13 min 28 sec)
Heartbeat CPU 0 instructions: 130000001 cycles: 46329349 heartbeat IPC: 2.659 cumulative IPC: 2.367 (Simulation time: 00 hr 14 min 42 sec)
Heartbeat CPU 0 instructions: 140000001 cycles: 50518718 heartbeat IPC: 2.387 cumulative IPC: 2.37 (Simulation time: 00 hr 15 min 50 sec)
Heartbeat CPU 0 instructions: 150000001 cycles: 54736050 heartbeat IPC: 2.371 cumulative IPC: 2.37 (Simulation time: 00 hr 16 min 57 sec)
Heartbeat CPU 0 instructions: 160000004 cycles: 59177260 heartbeat IPC: 2.252 cumulative IPC: 2.358 (Simulation time: 00 hr 18 min 17 sec)
Heartbeat CPU 0 instructions: 170000000 cycles: 67647514 heartbeat IPC: 1.181 cumulative IPC: 2.177 (Simulation time: 00 hr 20 min 24 sec)
Heartbeat CPU 0 instructions: 180000004 cycles: 77080230 heartbeat IPC: 1.06 cumulative IPC: 2.014 (Simulation time: 00 hr 22 min 30 sec)
Heartbeat CPU 0 instructions: 190000001 cycles: 88866219 heartbeat IPC: 0.8485 cumulative IPC: 1.834 (Simulation time: 00 hr 24 min 57 sec)
Heartbeat CPU 0 instructions: 200000004 cycles: 92668500 heartbeat IPC: 2.63 cumulative IPC: 1.872 (Simulation time: 00 hr 26 min 09 sec)
Heartbeat CPU 0 instructions: 210000001 cycles: 96600321 heartbeat IPC: 2.543 cumulative IPC: 1.903 (Simulation time: 00 hr 27 min 18 sec)
Heartbeat CPU 0 instructions: 220000000 cycles: 100570083 heartbeat IPC: 2.519 cumulative IPC: 1.931 (Simulation time: 00 hr 28 min 24 sec)
Heartbeat CPU 0 instructions: 230000002 cycles: 105270976 heartbeat IPC: 2.127 cumulative IPC: 1.941 (Simulation time: 00 hr 29 min 34 sec)
Heartbeat CPU 0 instructions: 240000000 cycles: 109489232 heartbeat IPC: 2.371 cumulative IPC: 1.96 (Simulation time: 00 hr 30 min 52 sec)
Heartbeat CPU 0 instructions: 250000000 cycles: 113826998 heartbeat IPC: 2.305 cumulative IPC: 1.975 (Simulation time: 00 hr 32 min 24 sec)
Heartbeat CPU 0 instructions: 260000000 cycles: 118030931 heartbeat IPC: 2.379 cumulative IPC: 1.991 (Simulation time: 00 hr 33 min 46 sec)
Heartbeat CPU 0 instructions: 270000002 cycles: 121898910 heartbeat IPC: 2.585 cumulative IPC: 2.012 (Simulation time: 00 hr 34 min 54 sec)
Heartbeat CPU 0 instructions: 280000002 cycles: 126088129 heartbeat IPC: 2.387 cumulative IPC: 2.026 (Simulation time: 00 hr 36 min 01 sec)
Heartbeat CPU 0 instructions: 290000001 cycles: 130007807 heartbeat IPC: 2.551 cumulative IPC: 2.043 (Simulation time: 00 hr 37 min 05 sec)
Heartbeat CPU 0 instructions: 300000003 cycles: 133875069 heartbeat IPC: 2.586 cumulative IPC: 2.06 (Simulation time: 00 hr 38 min 14 sec)
Heartbeat CPU 0 instructions: 310000001 cycles: 138032179 heartbeat IPC: 2.406 cumulative IPC: 2.072 (Simulation time: 00 hr 39 min 24 sec)
Heartbeat CPU 0 instructions: 320000003 cycles: 142134152 heartbeat IPC: 2.438 cumulative IPC: 2.083 (Simulation time: 00 hr 40 min 33 sec)
Heartbeat CPU 0 instructions: 330000003 cycles: 146587522 heartbeat IPC: 2.245 cumulative IPC: 2.089 (Simulation time: 00 hr 41 min 42 sec)
Heartbeat CPU 0 instructions: 340000000 cycles: 155297245 heartbeat IPC: 1.148 cumulative IPC: 2.031 (Simulation time: 00 hr 43 min 30 sec)
Heartbeat CPU 0 instructions: 350000000 cycles: 165496307 heartbeat IPC: 0.9805 cumulative IPC: 1.961 (Simulation time: 00 hr 46 min 01 sec)
Heartbeat CPU 0 instructions: 360000004 cycles: 176977011 heartbeat IPC: 0.871 cumulative IPC: 1.885 (Simulation time: 00 hr 48 min 28 sec)
Heartbeat CPU 0 instructions: 370000000 cycles: 180441224 heartbeat IPC: 2.887 cumulative IPC: 1.906 (Simulation time: 00 hr 49 min 33 sec)
Heartbeat CPU 0 instructions: 380000001 cycles: 183872384 heartbeat IPC: 2.914 cumulative IPC: 1.926 (Simulation time: 00 hr 50 min 43 sec)
Heartbeat CPU 0 instructions: 390000004 cycles: 187630323 heartbeat IPC: 2.661 cumulative IPC: 1.942 (Simulation time: 00 hr 51 min 52 sec)
Heartbeat CPU 0 instructions: 400000004 cycles: 191445360 heartbeat IPC: 2.621 cumulative IPC: 1.956 (Simulation time: 00 hr 53 min 02 sec)
Heartbeat CPU 0 instructions: 410000001 cycles: 195124141 heartbeat IPC: 2.718 cumulative IPC: 1.972 (Simulation time: 00 hr 54 min 08 sec)
Heartbeat CPU 0 instructions: 420000003 cycles: 199224666 heartbeat IPC: 2.439 cumulative IPC: 1.982 (Simulation time: 00 hr 55 min 15 sec)
Heartbeat CPU 0 instructions: 430000001 cycles: 202935270 heartbeat IPC: 2.695 cumulative IPC: 1.996 (Simulation time: 00 hr 56 min 30 sec)
Heartbeat CPU 0 instructions: 440000004 cycles: 207044457 heartbeat IPC: 2.434 cumulative IPC: 2.005 (Simulation time: 00 hr 57 min 56 sec)
Heartbeat CPU 0 instructions: 450000002 cycles: 210798591 heartbeat IPC: 2.664 cumulative IPC: 2.018 (Simulation time: 00 hr 59 min 11 sec)
Heartbeat CPU 0 instructions: 460000000 cycles: 214493536 heartbeat IPC: 2.706 cumulative IPC: 2.03 (Simulation time: 01 hr 00 min 19 sec)
Heartbeat CPU 0 instructions: 470000000 cycles: 217980950 heartbeat IPC: 2.867 cumulative IPC: 2.044 (Simulation time: 01 hr 01 min 24 sec)
Heartbeat CPU 0 instructions: 480000003 cycles: 221872504 heartbeat IPC: 2.57 cumulative IPC: 2.054 (Simulation time: 01 hr 02 min 30 sec)
Heartbeat CPU 0 instructions: 490000000 cycles: 225519241 heartbeat IPC: 2.742 cumulative IPC: 2.066 (Simulation time: 01 hr 03 min 41 sec)
Heartbeat CPU 0 instructions: 500000000 cycles: 229232759 heartbeat IPC: 2.693 cumulative IPC: 2.077 (Simulation time: 01 hr 04 min 50 sec)
Heartbeat CPU 0 instructions: 510000003 cycles: 233003375 heartbeat IPC: 2.652 cumulative IPC: 2.086 (Simulation time: 01 hr 06 min 00 sec)
Heartbeat CPU 0 instructions: 520000001 cycles: 236437227 heartbeat IPC: 2.912 cumulative IPC: 2.099 (Simulation time: 01 hr 07 min 05 sec)
Heartbeat CPU 0 instructions: 530000002 cycles: 240178150 heartbeat IPC: 2.673 cumulative IPC: 2.109 (Simulation time: 01 hr 08 min 09 sec)
Heartbeat CPU 0 instructions: 540000000 cycles: 243729409 heartbeat IPC: 2.816 cumulative IPC: 2.119 (Simulation time: 01 hr 09 min 19 sec)
Heartbeat CPU 0 instructions: 550000001 cycles: 247446007 heartbeat IPC: 2.691 cumulative IPC: 2.128 (Simulation time: 01 hr 10 min 44 sec)
Heartbeat CPU 0 instructions: 560000000 cycles: 251551533 heartbeat IPC: 2.436 cumulative IPC: 2.134 (Simulation time: 01 hr 12 min 07 sec)
Heartbeat CPU 0 instructions: 570000004 cycles: 258293744 heartbeat IPC: 1.483 cumulative IPC: 2.116 (Simulation time: 01 hr 13 min 46 sec)
Heartbeat CPU 0 instructions: 580000003 cycles: 266403700 heartbeat IPC: 1.233 cumulative IPC: 2.088 (Simulation time: 01 hr 15 min 32 sec)
Heartbeat CPU 0 instructions: 590000002 cycles: 281271918 heartbeat IPC: 0.6726 cumulative IPC: 2.009 (Simulation time: 01 hr 18 min 16 sec)
Heartbeat CPU 0 instructions: 600000000 cycles: 285126966 heartbeat IPC: 2.594 cumulative IPC: 2.018 (Simulation time: 01 hr 19 min 24 sec)
Heartbeat CPU 0 instructions: 610000000 cycles: 289004232 heartbeat IPC: 2.579 cumulative IPC: 2.026 (Simulation time: 01 hr 20 min 28 sec)
Heartbeat CPU 0 instructions: 620000001 cycles: 292441710 heartbeat IPC: 2.909 cumulative IPC: 2.036 (Simulation time: 01 hr 21 min 26 sec)
Heartbeat CPU 0 instructions: 630000002 cycles: 296733515 heartbeat IPC: 2.33 cumulative IPC: 2.041 (Simulation time: 01 hr 22 min 35 sec)
Heartbeat CPU 0 instructions: 640000001 cycles: 300636385 heartbeat IPC: 2.562 cumulative IPC: 2.048 (Simulation time: 01 hr 23 min 56 sec)
Heartbeat CPU 0 instructions: 650000000 cycles: 304397869 heartbeat IPC: 2.659 cumulative IPC: 2.056 (Simulation time: 01 hr 25 min 16 sec)
Simulation finished CPU 0 instructions: 600000001 cycles: 291860740 cumulative IPC: 2.056 (Simulation time: 01 hr 25 min 16 sec)
Simulation complete CPU 0 instructions: 600000001 cycles: 291860740 cumulative IPC: 2.056 (Simulation time: 01 hr 25 min 16 sec)

ChampSim completed all CPUs

=== Simulation ===
CPU 0 runs traces/400.perlbench-41B.champsimtrace.xz
Region of Interest Statistics

CPU 0 cumulative IPC: 2.056 instructions: 600000001 cycles: 291860740
CPU 0 Branch Prediction Accuracy: 96.56% MPKI: 7.112 Average ROB Occupancy at Mispredict: 47.36
Branch type MPKI
BRANCH_DIRECT_JUMP: 0.0123
BRANCH_INDIRECT: 0.323
BRANCH_CONDITIONAL: 6.56
BRANCH_DIRECT_CALL: 0.0043
BRANCH_INDIRECT_CALL: 0.2
BRANCH_RETURN: 0.00828

LLC TOTAL        ACCESS:     538376 HIT:     274751 MISS:     263625
LLC LOAD         ACCESS:     401638 HIT:     199153 MISS:     202485
LLC RFO          ACCESS:      32292 HIT:      16375 MISS:      15917
LLC PREFETCH     ACCESS:          0 HIT:          0 MISS:          0
LLC WRITE        ACCESS:      85534 HIT:      55510 MISS:      30024
LLC TRANSLATION  ACCESS:      18912 HIT:       3713 MISS:      15199
LLC PREFETCH REQUESTED:          0 ISSUED:          0 USEFUL:          0 USELESS:          0
LLC AVERAGE MISS LATENCY: 503.7 cycles
cpu0_DTLB TOTAL        ACCESS:  141885656 HIT:  141198995 MISS:     686661
cpu0_DTLB LOAD         ACCESS:  141885656 HIT:  141198995 MISS:     686661
cpu0_DTLB RFO          ACCESS:          0 HIT:          0 MISS:          0
cpu0_DTLB PREFETCH     ACCESS:          0 HIT:          0 MISS:          0
cpu0_DTLB WRITE        ACCESS:          0 HIT:          0 MISS:          0
cpu0_DTLB TRANSLATION  ACCESS:          0 HIT:          0 MISS:          0
cpu0_DTLB PREFETCH REQUESTED:          0 ISSUED:          0 USEFUL:          0 USELESS:          0
cpu0_DTLB AVERAGE MISS LATENCY: 19.08 cycles
cpu0_ITLB TOTAL        ACCESS:    4857687 HIT:    4804536 MISS:      53151
cpu0_ITLB LOAD         ACCESS:    4857687 HIT:    4804536 MISS:      53151
cpu0_ITLB RFO          ACCESS:          0 HIT:          0 MISS:          0
cpu0_ITLB PREFETCH     ACCESS:          0 HIT:          0 MISS:          0
cpu0_ITLB WRITE        ACCESS:          0 HIT:          0 MISS:          0
cpu0_ITLB TRANSLATION  ACCESS:          0 HIT:          0 MISS:          0
cpu0_ITLB PREFETCH REQUESTED:          0 ISSUED:          0 USEFUL:          0 USELESS:          0
cpu0_ITLB AVERAGE MISS LATENCY: 7.663 cycles
cpu0_L1D TOTAL        ACCESS:  188553999 HIT:  187195288 MISS:    1358711
cpu0_L1D LOAD         ACCESS:  105185911 HIT:  104133130 MISS:    1052781
cpu0_L1D RFO          ACCESS:          0 HIT:          0 MISS:          0
cpu0_L1D PREFETCH     ACCESS:          0 HIT:          0 MISS:          0
cpu0_L1D WRITE        ACCESS:   83343626 HIT:   83060558 MISS:     283068
cpu0_L1D TRANSLATION  ACCESS:      24462 HIT:       1600 MISS:      22862
cpu0_L1D PREFETCH REQUESTED:          0 ISSUED:          0 USEFUL:          0 USELESS:          0
cpu0_L1D AVERAGE MISS LATENCY: 99.79 cycles
cpu0_L1I TOTAL        ACCESS:    5595590 HIT:    4852035 MISS:     743555
cpu0_L1I LOAD         ACCESS:    5595590 HIT:    4852035 MISS:     743555
cpu0_L1I RFO          ACCESS:          0 HIT:          0 MISS:          0
cpu0_L1I PREFETCH     ACCESS:          0 HIT:          0 MISS:          0
cpu0_L1I WRITE        ACCESS:          0 HIT:          0 MISS:          0
cpu0_L1I TRANSLATION  ACCESS:          0 HIT:          0 MISS:          0
cpu0_L1I PREFETCH REQUESTED:          0 ISSUED:          0 USEFUL:          0 USELESS:          0
cpu0_L1I AVERAGE MISS LATENCY: 18.24 cycles
cpu0_L2C TOTAL        ACCESS:    1380715 HIT:     924325 MISS:     456390
cpu0_L2C LOAD         ACCESS:    1124763 HIT:     723125 MISS:     401638
cpu0_L2C RFO          ACCESS:      63756 HIT:      31464 MISS:      32292
cpu0_L2C PREFETCH     ACCESS:          0 HIT:          0 MISS:          0
cpu0_L2C WRITE        ACCESS:     169406 HIT:     165858 MISS:       3548
cpu0_L2C TRANSLATION  ACCESS:      22790 HIT:       3878 MISS:      18912
cpu0_L2C PREFETCH REQUESTED:          0 ISSUED:          0 USEFUL:          0 USELESS:          0
cpu0_L2C AVERAGE MISS LATENCY: 311.3 cycles
cpu0_STLB TOTAL        ACCESS:     507302 HIT:     484507 MISS:      22795
cpu0_STLB LOAD         ACCESS:     507302 HIT:     484507 MISS:      22795
cpu0_STLB RFO          ACCESS:          0 HIT:          0 MISS:          0
cpu0_STLB PREFETCH     ACCESS:          0 HIT:          0 MISS:          0
cpu0_STLB WRITE        ACCESS:          0 HIT:          0 MISS:          0
cpu0_STLB TRANSLATION  ACCESS:          0 HIT:          0 MISS:          0
cpu0_STLB PREFETCH REQUESTED:          0 ISSUED:          0 USEFUL:          0 USELESS:          0
cpu0_STLB AVERAGE MISS LATENCY: 463.3 cycles

DRAM Statistics

Channel 0 RQ ROW_BUFFER_HIT:      31315
  ROW_BUFFER_MISS:     202215
 AVG DBUS CONGESTED CYCLE: 3.809
WQ ROW_BUFFER_HIT: Channel 0 
  ROW_BUFFER_MISS:       9510
  FULL:      29530
