WARNING: physical memory size is smaller than virtual memory size.

*** ChampSim Multicore Out-of-Order Simulator ***
Warmup Instructions: 50000000
Simulation Instructions: 600000000
Number of CPUs: 1
Page size: 4096

Off-chip DRAM Size: 4 GiB Channels: 1 Width: 64-bit Data Race: 3200 MT/s
Heartbeat CPU 0 instructions: 10000001 cycles: 2500318 heartbeat IPC: 3.999 cumulative IPC: 3.999 (Simulation time: 00 hr 00 min 58 sec)
Heartbeat CPU 0 instructions: 20000002 cycles: 5037125 heartbeat IPC: 3.942 cumulative IPC: 3.971 (Simulation time: 00 hr 02 min 04 sec)
Heartbeat CPU 0 instructions: 30000002 cycles: 7537125 heartbeat IPC: 4 cumulative IPC: 3.98 (Simulation time: 00 hr 03 min 07 sec)
Heartbeat CPU 0 instructions: 40000002 cycles: 10037125 heartbeat IPC: 4 cumulative IPC: 3.985 (Simulation time: 00 hr 04 min 06 sec)
Heartbeat CPU 0 instructions: 50000002 cycles: 12537125 heartbeat IPC: 4 cumulative IPC: 3.988 (Simulation time: 00 hr 05 min 02 sec)
Warmup finished CPU 0 instructions: 50000002 cycles: 12537126 cumulative IPC: 3.988 (Simulation time: 00 hr 05 min 02 sec)
Warmup complete CPU 0 instructions: 50000002 cycles: 12537126 cumulative IPC: 3.988 (Simulation time: 00 hr 05 min 02 sec)
Heartbeat CPU 0 instructions: 60000000 cycles: 17148741 heartbeat IPC: 2.168 cumulative IPC: 2.168 (Simulation time: 00 hr 06 min 18 sec)
Heartbeat CPU 0 instructions: 70000004 cycles: 21423731 heartbeat IPC: 2.339 cumulative IPC: 2.251 (Simulation time: 00 hr 07 min 32 sec)
Heartbeat CPU 0 instructions: 80000001 cycles: 26028037 heartbeat IPC: 2.172 cumulative IPC: 2.224 (Simulation time: 00 hr 08 min 46 sec)
Heartbeat CPU 0 instructions: 90000001 cycles: 30164575 heartbeat IPC: 2.417 cumulative IPC: 2.269 (Simulation time: 00 hr 09 min 53 sec)
Heartbeat CPU 0 instructions: 100000000 cycles: 34226929 heartbeat IPC: 2.462 cumulative IPC: 2.305 (Simulation time: 00 hr 10 min 58 sec)
Heartbeat CPU 0 instructions: 110000000 cycles: 38465745 heartbeat IPC: 2.359 cumulative IPC: 2.314 (Simulation time: 00 hr 12 min 20 sec)
Heartbeat CPU 0 instructions: 120000001 cycles: 42479317 heartbeat IPC: 2.492 cumulative IPC: 2.338 (Simulation time: 00 hr 13 min 46 sec)
Heartbeat CPU 0 instructions: 130000001 cycles: 46220279 heartbeat IPC: 2.673 cumulative IPC: 2.375 (Simulation time: 00 hr 15 min 07 sec)
Heartbeat CPU 0 instructions: 140000001 cycles: 50392160 heartbeat IPC: 2.397 cumulative IPC: 2.377 (Simulation time: 00 hr 16 min 23 sec)
Heartbeat CPU 0 instructions: 150000001 cycles: 54596429 heartbeat IPC: 2.379 cumulative IPC: 2.378 (Simulation time: 00 hr 17 min 34 sec)
Heartbeat CPU 0 instructions: 160000004 cycles: 59020730 heartbeat IPC: 2.26 cumulative IPC: 2.366 (Simulation time: 00 hr 18 min 54 sec)
Heartbeat CPU 0 instructions: 170000000 cycles: 68706854 heartbeat IPC: 1.032 cumulative IPC: 2.136 (Simulation time: 00 hr 20 min 52 sec)
Heartbeat CPU 0 instructions: 180000004 cycles: 79383499 heartbeat IPC: 0.9366 cumulative IPC: 1.945 (Simulation time: 00 hr 22 min 56 sec)
Heartbeat CPU 0 instructions: 190000001 cycles: 89618661 heartbeat IPC: 0.977 cumulative IPC: 1.816 (Simulation time: 00 hr 25 min 00 sec)
Heartbeat CPU 0 instructions: 200000004 cycles: 93403225 heartbeat IPC: 2.642 cumulative IPC: 1.855 (Simulation time: 00 hr 26 min 29 sec)
Heartbeat CPU 0 instructions: 210000001 cycles: 97326271 heartbeat IPC: 2.549 cumulative IPC: 1.887 (Simulation time: 00 hr 27 min 58 sec)
Heartbeat CPU 0 instructions: 220000000 cycles: 101288413 heartbeat IPC: 2.524 cumulative IPC: 1.915 (Simulation time: 00 hr 29 min 15 sec)
Heartbeat CPU 0 instructions: 230000002 cycles: 105971373 heartbeat IPC: 2.135 cumulative IPC: 1.926 (Simulation time: 00 hr 30 min 34 sec)
Heartbeat CPU 0 instructions: 240000000 cycles: 110169607 heartbeat IPC: 2.382 cumulative IPC: 1.946 (Simulation time: 00 hr 31 min 50 sec)
Heartbeat CPU 0 instructions: 250000000 cycles: 114498283 heartbeat IPC: 2.31 cumulative IPC: 1.962 (Simulation time: 00 hr 33 min 06 sec)
Heartbeat CPU 0 instructions: 260000000 cycles: 118691506 heartbeat IPC: 2.385 cumulative IPC: 1.978 (Simulation time: 00 hr 34 min 19 sec)
Heartbeat CPU 0 instructions: 270000002 cycles: 122546822 heartbeat IPC: 2.594 cumulative IPC: 2 (Simulation time: 00 hr 35 min 26 sec)
Heartbeat CPU 0 instructions: 280000002 cycles: 126724078 heartbeat IPC: 2.394 cumulative IPC: 2.014 (Simulation time: 00 hr 36 min 33 sec)
Heartbeat CPU 0 instructions: 290000001 cycles: 130630673 heartbeat IPC: 2.56 cumulative IPC: 2.032 (Simulation time: 00 hr 37 min 46 sec)
Heartbeat CPU 0 instructions: 300000003 cycles: 134467829 heartbeat IPC: 2.606 cumulative IPC: 2.05 (Simulation time: 00 hr 39 min 12 sec)
Heartbeat CPU 0 instructions: 310000001 cycles: 138605604 heartbeat IPC: 2.417 cumulative IPC: 2.062 (Simulation time: 00 hr 40 min 38 sec)
Heartbeat CPU 0 instructions: 320000003 cycles: 142693995 heartbeat IPC: 2.446 cumulative IPC: 2.074 (Simulation time: 00 hr 41 min 53 sec)
Heartbeat CPU 0 instructions: 330000003 cycles: 147116038 heartbeat IPC: 2.261 cumulative IPC: 2.081 (Simulation time: 00 hr 43 min 04 sec)
Heartbeat CPU 0 instructions: 340000000 cycles: 157039125 heartbeat IPC: 1.008 cumulative IPC: 2.007 (Simulation time: 00 hr 45 min 04 sec)
Heartbeat CPU 0 instructions: 350000000 cycles: 168079183 heartbeat IPC: 0.9058 cumulative IPC: 1.929 (Simulation time: 00 hr 47 min 11 sec)
Heartbeat CPU 0 instructions: 360000004 cycles: 178292174 heartbeat IPC: 0.9791 cumulative IPC: 1.87 (Simulation time: 00 hr 49 min 11 sec)
Heartbeat CPU 0 instructions: 370000000 cycles: 181745463 heartbeat IPC: 2.896 cumulative IPC: 1.891 (Simulation time: 00 hr 50 min 13 sec)
Heartbeat CPU 0 instructions: 380000001 cycles: 185170754 heartbeat IPC: 2.919 cumulative IPC: 1.912 (Simulation time: 00 hr 51 min 25 sec)
Heartbeat CPU 0 instructions: 390000004 cycles: 188918981 heartbeat IPC: 2.668 cumulative IPC: 1.928 (Simulation time: 00 hr 52 min 44 sec)
Heartbeat CPU 0 instructions: 400000004 cycles: 192732072 heartbeat IPC: 2.623 cumulative IPC: 1.942 (Simulation time: 00 hr 54 min 11 sec)
Heartbeat CPU 0 instructions: 410000001 cycles: 196394544 heartbeat IPC: 2.73 cumulative IPC: 1.958 (Simulation time: 00 hr 55 min 34 sec)
Heartbeat CPU 0 instructions: 420000003 cycles: 200441393 heartbeat IPC: 2.471 cumulative IPC: 1.969 (Simulation time: 00 hr 56 min 48 sec)
Heartbeat CPU 0 instructions: 430000001 cycles: 204106625 heartbeat IPC: 2.728 cumulative IPC: 1.984 (Simulation time: 00 hr 58 min 02 sec)
Heartbeat CPU 0 instructions: 440000004 cycles: 208203269 heartbeat IPC: 2.441 cumulative IPC: 1.993 (Simulation time: 00 hr 59 min 15 sec)
Heartbeat CPU 0 instructions: 450000002 cycles: 211944069 heartbeat IPC: 2.673 cumulative IPC: 2.006 (Simulation time: 01 hr 00 min 25 sec)
Heartbeat CPU 0 instructions: 460000000 cycles: 215620586 heartbeat IPC: 2.72 cumulative IPC: 2.019 (Simulation time: 01 hr 01 min 31 sec)
Heartbeat CPU 0 instructions: 470000000 cycles: 219091305 heartbeat IPC: 2.881 cumulative IPC: 2.033 (Simulation time: 01 hr 02 min 35 sec)
Heartbeat CPU 0 instructions: 480000003 cycles: 222912305 heartbeat IPC: 2.617 cumulative IPC: 2.044 (Simulation time: 01 hr 03 min 40 sec)
Heartbeat CPU 0 instructions: 490000000 cycles: 226545771 heartbeat IPC: 2.752 cumulative IPC: 2.056 (Simulation time: 01 hr 04 min 55 sec)
Heartbeat CPU 0 instructions: 500000000 cycles: 230247943 heartbeat IPC: 2.701 cumulative IPC: 2.067 (Simulation time: 01 hr 06 min 25 sec)
Heartbeat CPU 0 instructions: 510000003 cycles: 233904127 heartbeat IPC: 2.735 cumulative IPC: 2.078 (Simulation time: 01 hr 07 min 45 sec)
Heartbeat CPU 0 instructions: 520000001 cycles: 237325182 heartbeat IPC: 2.923 cumulative IPC: 2.091 (Simulation time: 01 hr 08 min 59 sec)
Heartbeat CPU 0 instructions: 530000002 cycles: 240998846 heartbeat IPC: 2.722 cumulative IPC: 2.101 (Simulation time: 01 hr 10 min 14 sec)
Heartbeat CPU 0 instructions: 540000000 cycles: 244534123 heartbeat IPC: 2.829 cumulative IPC: 2.112 (Simulation time: 01 hr 11 min 33 sec)
Heartbeat CPU 0 instructions: 550000001 cycles: 248236872 heartbeat IPC: 2.701 cumulative IPC: 2.121 (Simulation time: 01 hr 12 min 51 sec)
Heartbeat CPU 0 instructions: 560000000 cycles: 252218831 heartbeat IPC: 2.511 cumulative IPC: 2.128 (Simulation time: 01 hr 13 min 56 sec)
Heartbeat CPU 0 instructions: 570000004 cycles: 258608045 heartbeat IPC: 1.565 cumulative IPC: 2.113 (Simulation time: 01 hr 15 min 22 sec)
Heartbeat CPU 0 instructions: 580000003 cycles: 269983472 heartbeat IPC: 0.8791 cumulative IPC: 2.059 (Simulation time: 01 hr 17 min 22 sec)
Heartbeat CPU 0 instructions: 590000002 cycles: 283171105 heartbeat IPC: 0.7583 cumulative IPC: 1.995 (Simulation time: 01 hr 20 min 13 sec)
Heartbeat CPU 0 instructions: 600000000 cycles: 286922636 heartbeat IPC: 2.666 cumulative IPC: 2.004 (Simulation time: 01 hr 21 min 36 sec)
Heartbeat CPU 0 instructions: 610000000 cycles: 290792097 heartbeat IPC: 2.584 cumulative IPC: 2.013 (Simulation time: 01 hr 22 min 48 sec)
Heartbeat CPU 0 instructions: 620000001 cycles: 294229128 heartbeat IPC: 2.909 cumulative IPC: 2.023 (Simulation time: 01 hr 23 min 52 sec)
Heartbeat CPU 0 instructions: 630000002 cycles: 298509120 heartbeat IPC: 2.336 cumulative IPC: 2.028 (Simulation time: 01 hr 25 min 14 sec)
Heartbeat CPU 0 instructions: 640000001 cycles: 302407858 heartbeat IPC: 2.565 cumulative IPC: 2.035 (Simulation time: 01 hr 26 min 27 sec)
Heartbeat CPU 0 instructions: 650000000 cycles: 306166582 heartbeat IPC: 2.66 cumulative IPC: 2.043 (Simulation time: 01 hr 27 min 35 sec)
Simulation finished CPU 0 instructions: 600000001 cycles: 293629458 cumulative IPC: 2.043 (Simulation time: 01 hr 27 min 35 sec)
Simulation complete CPU 0 instructions: 600000001 cycles: 293629458 cumulative IPC: 2.043 (Simulation time: 01 hr 27 min 35 sec)

ChampSim completed all CPUs

=== Simulation ===
CPU 0 runs traces/400.perlbench-41B.champsimtrace.xz
Region of Interest Statistics

CPU 0 cumulative IPC: 2.043 instructions: 600000001 cycles: 293629458
CPU 0 Branch Prediction Accuracy: 96.56% MPKI: 7.112 Average ROB Occupancy at Mispredict: 47.36
Branch type MPKI
BRANCH_DIRECT_JUMP: 0.0123
BRANCH_INDIRECT: 0.323
BRANCH_CONDITIONAL: 6.56
BRANCH_DIRECT_CALL: 0.0043
BRANCH_INDIRECT_CALL: 0.2
BRANCH_RETURN: 0.00828

LLC TOTAL        ACCESS:     539009 HIT:     279798 MISS:     259211
LLC LOAD         ACCESS:     401873 HIT:     166962 MISS:     234911
LLC RFO          ACCESS:      32415 HIT:      18339 MISS:      14076
LLC PREFETCH     ACCESS:          0 HIT:          0 MISS:          0
LLC WRITE        ACCESS:      85771 HIT:      85671 MISS:        100
LLC TRANSLATION  ACCESS:      18950 HIT:       8826 MISS:      10124
LLC PREFETCH REQUESTED:          0 ISSUED:          0 USEFUL:          0 USELESS:          0
LLC AVERAGE MISS LATENCY: 570 cycles
cpu0_DTLB TOTAL        ACCESS:  141900012 HIT:  141213629 MISS:     686383
cpu0_DTLB LOAD         ACCESS:  141900012 HIT:  141213629 MISS:     686383
cpu0_DTLB RFO          ACCESS:          0 HIT:          0 MISS:          0
cpu0_DTLB PREFETCH     ACCESS:          0 HIT:          0 MISS:          0
cpu0_DTLB WRITE        ACCESS:          0 HIT:          0 MISS:          0
cpu0_DTLB TRANSLATION  ACCESS:          0 HIT:          0 MISS:          0
cpu0_DTLB PREFETCH REQUESTED:          0 ISSUED:          0 USEFUL:          0 USELESS:          0
cpu0_DTLB AVERAGE MISS LATENCY: 14.99 cycles
cpu0_ITLB TOTAL        ACCESS:    4859647 HIT:    4806508 MISS:      53139
cpu0_ITLB LOAD         ACCESS:    4859647 HIT:    4806508 MISS:      53139
cpu0_ITLB RFO          ACCESS:          0 HIT:          0 MISS:          0
cpu0_ITLB PREFETCH     ACCESS:          0 HIT:          0 MISS:          0
cpu0_ITLB WRITE        ACCESS:          0 HIT:          0 MISS:          0
cpu0_ITLB TRANSLATION  ACCESS:          0 HIT:          0 MISS:          0
cpu0_ITLB PREFETCH REQUESTED:          0 ISSUED:          0 USEFUL:          0 USELESS:          0
cpu0_ITLB AVERAGE MISS LATENCY: 8.282 cycles
cpu0_L1D TOTAL        ACCESS:  188561940 HIT:  187193254 MISS:    1368686
cpu0_L1D LOAD         ACCESS:  105193858 HIT:  104138076 MISS:    1055782
cpu0_L1D RFO          ACCESS:          0 HIT:          0 MISS:          0
cpu0_L1D PREFETCH     ACCESS:          0 HIT:          0 MISS:          0
cpu0_L1D WRITE        ACCESS:   83343622 HIT:   83053576 MISS:     290046
cpu0_L1D TRANSLATION  ACCESS:      24460 HIT:       1602 MISS:      22858
cpu0_L1D PREFETCH REQUESTED:          0 ISSUED:          0 USEFUL:          0 USELESS:          0
cpu0_L1D AVERAGE MISS LATENCY: 112.4 cycles
cpu0_L1I TOTAL        ACCESS:    5597605 HIT:    4853909 MISS:     743696
cpu0_L1I LOAD         ACCESS:    5597605 HIT:    4853909 MISS:     743696
cpu0_L1I RFO          ACCESS:          0 HIT:          0 MISS:          0
cpu0_L1I PREFETCH     ACCESS:          0 HIT:          0 MISS:          0
cpu0_L1I WRITE        ACCESS:          0 HIT:          0 MISS:          0
cpu0_L1I TRANSLATION  ACCESS:          0 HIT:          0 MISS:          0
cpu0_L1I PREFETCH REQUESTED:          0 ISSUED:          0 USEFUL:          0 USELESS:          0
cpu0_L1I AVERAGE MISS LATENCY: 12.63 cycles
cpu0_L2C TOTAL        ACCESS:    1380744 HIT:     923887 MISS:     456857
cpu0_L2C LOAD         ACCESS:    1124725 HIT:     722852 MISS:     401873
cpu0_L2C RFO          ACCESS:      63795 HIT:      31380 MISS:      32415
cpu0_L2C PREFETCH     ACCESS:          0 HIT:          0 MISS:          0
cpu0_L2C WRITE        ACCESS:     169434 HIT:     165815 MISS:       3619
cpu0_L2C TRANSLATION  ACCESS:      22790 HIT:       3840 MISS:      18950
cpu0_L2C PREFETCH REQUESTED:          0 ISSUED:          0 USEFUL:          0 USELESS:          0
cpu0_L2C AVERAGE MISS LATENCY: 343.8 cycles
cpu0_STLB TOTAL        ACCESS:     507383 HIT:     484589 MISS:      22794
cpu0_STLB LOAD         ACCESS:     507383 HIT:     484589 MISS:      22794
cpu0_STLB RFO          ACCESS:          0 HIT:          0 MISS:          0
cpu0_STLB PREFETCH     ACCESS:          0 HIT:          0 MISS:          0
cpu0_STLB WRITE        ACCESS:          0 HIT:          0 MISS:          0
cpu0_STLB TRANSLATION  ACCESS:          0 HIT:          0 MISS:          0
cpu0_STLB PREFETCH REQUESTED:          0 ISSUED:          0 USEFUL:          0 USELESS:          0
cpu0_STLB AVERAGE MISS LATENCY: 334.2 cycles

DRAM Statistics

Channel 0 RQ ROW_BUFFER_HIT:      43396
  ROW_BUFFER_MISS:     215705
 AVG DBUS CONGESTED CYCLE: 3.804
WQ ROW_BUFFER_HIT: Channel 0 
  ROW_BUFFER_MISS:       7197
  FULL:      29634
