WARNING: physical memory size is smaller than virtual memory size.

*** ChampSim Multicore Out-of-Order Simulator ***
Warmup Instructions: 50000000
Simulation Instructions: 600000000
Number of CPUs: 1
Page size: 4096

Off-chip DRAM Size: 4 GiB Channels: 1 Width: 64-bit Data Race: 3200 MT/s
Heartbeat CPU 0 instructions: 10000001 cycles: 2500318 heartbeat IPC: 3.999 cumulative IPC: 3.999 (Simulation time: 00 hr 01 min 55 sec)
Heartbeat CPU 0 instructions: 20000002 cycles: 5037136 heartbeat IPC: 3.942 cumulative IPC: 3.971 (Simulation time: 00 hr 04 min 30 sec)
Heartbeat CPU 0 instructions: 30000002 cycles: 7537136 heartbeat IPC: 4 cumulative IPC: 3.98 (Simulation time: 00 hr 07 min 33 sec)
Heartbeat CPU 0 instructions: 40000002 cycles: 10037136 heartbeat IPC: 4 cumulative IPC: 3.985 (Simulation time: 00 hr 11 min 06 sec)
Heartbeat CPU 0 instructions: 50000002 cycles: 12537136 heartbeat IPC: 4 cumulative IPC: 3.988 (Simulation time: 00 hr 14 min 44 sec)
Warmup finished CPU 0 instructions: 50000002 cycles: 12537137 cumulative IPC: 3.988 (Simulation time: 00 hr 14 min 44 sec)
Warmup complete CPU 0 instructions: 50000002 cycles: 12537137 cumulative IPC: 3.988 (Simulation time: 00 hr 14 min 44 sec)
Heartbeat CPU 0 instructions: 60000000 cycles: 17140320 heartbeat IPC: 2.172 cumulative IPC: 2.172 (Simulation time: 00 hr 19 min 51 sec)
Heartbeat CPU 0 instructions: 70000004 cycles: 21407026 heartbeat IPC: 2.344 cumulative IPC: 2.255 (Simulation time: 00 hr 24 min 43 sec)
Heartbeat CPU 0 instructions: 80000001 cycles: 26001067 heartbeat IPC: 2.177 cumulative IPC: 2.228 (Simulation time: 00 hr 29 min 48 sec)
Heartbeat CPU 0 instructions: 90000001 cycles: 30126727 heartbeat IPC: 2.424 cumulative IPC: 2.274 (Simulation time: 00 hr 34 min 40 sec)
Heartbeat CPU 0 instructions: 100000000 cycles: 34177411 heartbeat IPC: 2.469 cumulative IPC: 2.311 (Simulation time: 00 hr 39 min 28 sec)
Heartbeat CPU 0 instructions: 110000000 cycles: 38408004 heartbeat IPC: 2.364 cumulative IPC: 2.319 (Simulation time: 00 hr 44 min 19 sec)
Heartbeat CPU 0 instructions: 120000001 cycles: 42413114 heartbeat IPC: 2.497 cumulative IPC: 2.343 (Simulation time: 00 hr 49 min 07 sec)
Heartbeat CPU 0 instructions: 130000001 cycles: 46142471 heartbeat IPC: 2.681 cumulative IPC: 2.381 (Simulation time: 00 hr 53 min 49 sec)
Heartbeat CPU 0 instructions: 140000001 cycles: 50305131 heartbeat IPC: 2.402 cumulative IPC: 2.383 (Simulation time: 00 hr 58 min 39 sec)
Heartbeat CPU 0 instructions: 150000001 cycles: 54502853 heartbeat IPC: 2.382 cumulative IPC: 2.383 (Simulation time: 01 hr 03 min 32 sec)
Heartbeat CPU 0 instructions: 160000004 cycles: 58914145 heartbeat IPC: 2.267 cumulative IPC: 2.372 (Simulation time: 01 hr 08 min 31 sec)
Heartbeat CPU 0 instructions: 170000000 cycles: 67110159 heartbeat IPC: 1.22 cumulative IPC: 2.199 (Simulation time: 01 hr 16 min 02 sec)
Heartbeat CPU 0 instructions: 180000004 cycles: 76197815 heartbeat IPC: 1.1 cumulative IPC: 2.042 (Simulation time: 01 hr 24 min 18 sec)
Heartbeat CPU 0 instructions: 190000001 cycles: 84421699 heartbeat IPC: 1.216 cumulative IPC: 1.948 (Simulation time: 01 hr 31 min 54 sec)
Heartbeat CPU 0 instructions: 200000004 cycles: 88022152 heartbeat IPC: 2.777 cumulative IPC: 1.987 (Simulation time: 01 hr 36 min 29 sec)
Heartbeat CPU 0 instructions: 210000001 cycles: 91799437 heartbeat IPC: 2.647 cumulative IPC: 2.019 (Simulation time: 01 hr 41 min 10 sec)
Heartbeat CPU 0 instructions: 220000000 cycles: 95674974 heartbeat IPC: 2.58 cumulative IPC: 2.045 (Simulation time: 01 hr 45 min 51 sec)
Heartbeat CPU 0 instructions: 230000002 cycles: 100084965 heartbeat IPC: 2.268 cumulative IPC: 2.056 (Simulation time: 01 hr 50 min 49 sec)
Heartbeat CPU 0 instructions: 240000000 cycles: 104114107 heartbeat IPC: 2.482 cumulative IPC: 2.075 (Simulation time: 01 hr 55 min 36 sec)
Heartbeat CPU 0 instructions: 250000000 cycles: 108206644 heartbeat IPC: 2.443 cumulative IPC: 2.091 (Simulation time: 02 hr 00 min 23 sec)
Heartbeat CPU 0 instructions: 260000000 cycles: 112171438 heartbeat IPC: 2.522 cumulative IPC: 2.108 (Simulation time: 02 hr 05 min 07 sec)
Heartbeat CPU 0 instructions: 270000002 cycles: 115880044 heartbeat IPC: 2.696 cumulative IPC: 2.129 (Simulation time: 02 hr 09 min 39 sec)
Heartbeat CPU 0 instructions: 280000002 cycles: 119899454 heartbeat IPC: 2.488 cumulative IPC: 2.142 (Simulation time: 02 hr 14 min 22 sec)
Heartbeat CPU 0 instructions: 290000001 cycles: 123675574 heartbeat IPC: 2.648 cumulative IPC: 2.159 (Simulation time: 02 hr 19 min 02 sec)
Heartbeat CPU 0 instructions: 300000003 cycles: 127333891 heartbeat IPC: 2.733 cumulative IPC: 2.178 (Simulation time: 02 hr 23 min 41 sec)
Heartbeat CPU 0 instructions: 310000001 cycles: 131274843 heartbeat IPC: 2.537 cumulative IPC: 2.19 (Simulation time: 02 hr 28 min 30 sec)
Heartbeat CPU 0 instructions: 320000003 cycles: 135225575 heartbeat IPC: 2.531 cumulative IPC: 2.201 (Simulation time: 02 hr 33 min 12 sec)
Heartbeat CPU 0 instructions: 330000003 cycles: 139488347 heartbeat IPC: 2.346 cumulative IPC: 2.206 (Simulation time: 02 hr 38 min 03 sec)
Heartbeat CPU 0 instructions: 340000000 cycles: 147253001 heartbeat IPC: 1.288 cumulative IPC: 2.153 (Simulation time: 02 hr 45 min 22 sec)
Heartbeat CPU 0 instructions: 350000000 cycles: 156328473 heartbeat IPC: 1.102 cumulative IPC: 2.086 (Simulation time: 02 hr 53 min 39 sec)
Heartbeat CPU 0 instructions: 360000004 cycles: 164624629 heartbeat IPC: 1.205 cumulative IPC: 2.038 (Simulation time: 03 hr 01 min 20 sec)
Heartbeat CPU 0 instructions: 370000000 cycles: 167945229 heartbeat IPC: 3.012 cumulative IPC: 2.059 (Simulation time: 03 hr 05 min 40 sec)
Heartbeat CPU 0 instructions: 380000001 cycles: 171245809 heartbeat IPC: 3.03 cumulative IPC: 2.079 (Simulation time: 03 hr 10 min 06 sec)
Heartbeat CPU 0 instructions: 390000004 cycles: 174911750 heartbeat IPC: 2.728 cumulative IPC: 2.094 (Simulation time: 03 hr 14 min 39 sec)
Heartbeat CPU 0 instructions: 400000004 cycles: 178675076 heartbeat IPC: 2.657 cumulative IPC: 2.107 (Simulation time: 03 hr 19 min 18 sec)
Heartbeat CPU 0 instructions: 410000001 cycles: 182208833 heartbeat IPC: 2.83 cumulative IPC: 2.122 (Simulation time: 03 hr 23 min 45 sec)
Heartbeat CPU 0 instructions: 420000003 cycles: 186057067 heartbeat IPC: 2.599 cumulative IPC: 2.132 (Simulation time: 03 hr 28 min 24 sec)
Heartbeat CPU 0 instructions: 430000001 cycles: 189622932 heartbeat IPC: 2.804 cumulative IPC: 2.146 (Simulation time: 03 hr 32 min 57 sec)
Heartbeat CPU 0 instructions: 440000004 cycles: 193543815 heartbeat IPC: 2.55 cumulative IPC: 2.155 (Simulation time: 03 hr 37 min 40 sec)
Heartbeat CPU 0 instructions: 450000002 cycles: 197133159 heartbeat IPC: 2.786 cumulative IPC: 2.167 (Simulation time: 03 hr 42 min 09 sec)
Heartbeat CPU 0 instructions: 460000000 cycles: 200683587 heartbeat IPC: 2.817 cumulative IPC: 2.179 (Simulation time: 03 hr 46 min 41 sec)
Heartbeat CPU 0 instructions: 470000000 cycles: 204037024 heartbeat IPC: 2.982 cumulative IPC: 2.193 (Simulation time: 03 hr 51 min 08 sec)
Heartbeat CPU 0 instructions: 480000003 cycles: 207744997 heartbeat IPC: 2.697 cumulative IPC: 2.203 (Simulation time: 03 hr 55 min 40 sec)
Heartbeat CPU 0 instructions: 490000000 cycles: 211307806 heartbeat IPC: 2.807 cumulative IPC: 2.214 (Simulation time: 04 hr 00 min 08 sec)
Heartbeat CPU 0 instructions: 500000000 cycles: 214929516 heartbeat IPC: 2.761 cumulative IPC: 2.223 (Simulation time: 04 hr 04 min 40 sec)
Heartbeat CPU 0 instructions: 510000003 cycles: 218471073 heartbeat IPC: 2.824 cumulative IPC: 2.234 (Simulation time: 04 hr 09 min 13 sec)
Heartbeat CPU 0 instructions: 520000001 cycles: 221762072 heartbeat IPC: 3.039 cumulative IPC: 2.246 (Simulation time: 04 hr 13 min 37 sec)
Heartbeat CPU 0 instructions: 530000002 cycles: 225338166 heartbeat IPC: 2.796 cumulative IPC: 2.256 (Simulation time: 04 hr 18 min 06 sec)
Heartbeat CPU 0 instructions: 540000000 cycles: 228767617 heartbeat IPC: 2.916 cumulative IPC: 2.266 (Simulation time: 04 hr 22 min 32 sec)
Heartbeat CPU 0 instructions: 550000001 cycles: 232398487 heartbeat IPC: 2.754 cumulative IPC: 2.274 (Simulation time: 04 hr 27 min 05 sec)
Heartbeat CPU 0 instructions: 560000000 cycles: 236249896 heartbeat IPC: 2.596 cumulative IPC: 2.28 (Simulation time: 04 hr 31 min 42 sec)
Heartbeat CPU 0 instructions: 570000004 cycles: 241744783 heartbeat IPC: 1.82 cumulative IPC: 2.269 (Simulation time: 04 hr 37 min 31 sec)
Heartbeat CPU 0 instructions: 580000003 cycles: 250971095 heartbeat IPC: 1.084 cumulative IPC: 2.223 (Simulation time: 04 hr 45 min 46 sec)
Heartbeat CPU 0 instructions: 590000002 cycles: 261330874 heartbeat IPC: 0.9653 cumulative IPC: 2.17 (Simulation time: 04 hr 54 min 54 sec)
Heartbeat CPU 0 instructions: 600000000 cycles: 264948704 heartbeat IPC: 2.764 cumulative IPC: 2.179 (Simulation time: 04 hr 59 min 25 sec)
Heartbeat CPU 0 instructions: 610000000 cycles: 268711067 heartbeat IPC: 2.658 cumulative IPC: 2.186 (Simulation time: 05 hr 04 min 02 sec)
Heartbeat CPU 0 instructions: 620000001 cycles: 272092679 heartbeat IPC: 2.957 cumulative IPC: 2.196 (Simulation time: 05 hr 08 min 28 sec)
Heartbeat CPU 0 instructions: 630000002 cycles: 276281407 heartbeat IPC: 2.387 cumulative IPC: 2.199 (Simulation time: 05 hr 13 min 19 sec)
Heartbeat CPU 0 instructions: 640000001 cycles: 280146873 heartbeat IPC: 2.587 cumulative IPC: 2.205 (Simulation time: 05 hr 18 min 03 sec)
Heartbeat CPU 0 instructions: 650000000 cycles: 283868839 heartbeat IPC: 2.687 cumulative IPC: 2.211 (Simulation time: 05 hr 22 min 44 sec)
Simulation finished CPU 0 instructions: 600000001 cycles: 271331704 cumulative IPC: 2.211 (Simulation time: 05 hr 22 min 44 sec)
Simulation complete CPU 0 instructions: 600000001 cycles: 271331704 cumulative IPC: 2.211 (Simulation time: 05 hr 22 min 44 sec)

ChampSim completed all CPUs

=== Simulation ===
CPU 0 runs traces/400.perlbench-41B.champsimtrace.xz
Region of Interest Statistics

CPU 0 cumulative IPC: 2.211 instructions: 600000001 cycles: 271331704
CPU 0 Branch Prediction Accuracy: 96.56% MPKI: 7.112 Average ROB Occupancy at Mispredict: 47.16
Branch type MPKI
BRANCH_DIRECT_JUMP: 0.0123
BRANCH_INDIRECT: 0.323
BRANCH_CONDITIONAL: 6.56
BRANCH_DIRECT_CALL: 0.0043
BRANCH_INDIRECT_CALL: 0.2
BRANCH_RETURN: 0.00828

LLC TOTAL        ACCESS:     539358 HIT:     397825 MISS:     141533
LLC LOAD         ACCESS:     402676 HIT:     282389 MISS:     120287
LLC RFO          ACCESS:      32520 HIT:      23166 MISS:       9354
LLC PREFETCH     ACCESS:          0 HIT:          0 MISS:          0
LLC WRITE        ACCESS:      85131 HIT:      82520 MISS:       2611
LLC TRANSLATION  ACCESS:      19031 HIT:       9750 MISS:       9281
LLC PREFETCH REQUESTED:          0 ISSUED:          0 USEFUL:          0 USELESS:          0
LLC AVERAGE MISS LATENCY: 507.2 cycles
cpu0_DTLB TOTAL        ACCESS:  141903330 HIT:  141216898 MISS:     686432
cpu0_DTLB LOAD         ACCESS:  141903330 HIT:  141216898 MISS:     686432
cpu0_DTLB RFO          ACCESS:          0 HIT:          0 MISS:          0
cpu0_DTLB PREFETCH     ACCESS:          0 HIT:          0 MISS:          0
cpu0_DTLB WRITE        ACCESS:          0 HIT:          0 MISS:          0
cpu0_DTLB TRANSLATION  ACCESS:          0 HIT:          0 MISS:          0
cpu0_DTLB PREFETCH REQUESTED:          0 ISSUED:          0 USEFUL:          0 USELESS:          0
cpu0_DTLB AVERAGE MISS LATENCY: 13.16 cycles
cpu0_ITLB TOTAL        ACCESS:    4857078 HIT:    4803966 MISS:      53112
cpu0_ITLB LOAD         ACCESS:    4857078 HIT:    4803966 MISS:      53112
cpu0_ITLB RFO          ACCESS:          0 HIT:          0 MISS:          0
cpu0_ITLB PREFETCH     ACCESS:          0 HIT:          0 MISS:          0
cpu0_ITLB WRITE        ACCESS:          0 HIT:          0 MISS:          0
cpu0_ITLB TRANSLATION  ACCESS:          0 HIT:          0 MISS:          0
cpu0_ITLB PREFETCH REQUESTED:          0 ISSUED:          0 USEFUL:          0 USELESS:          0
cpu0_ITLB AVERAGE MISS LATENCY: 6.599 cycles
cpu0_L1D TOTAL        ACCESS:  188567937 HIT:  186851564 MISS:    1716373
cpu0_L1D LOAD         ACCESS:  105200758 HIT:  103857914 MISS:    1342844
cpu0_L1D RFO          ACCESS:          0 HIT:          0 MISS:          0
cpu0_L1D PREFETCH     ACCESS:          0 HIT:          0 MISS:          0
cpu0_L1D WRITE        ACCESS:   83342714 HIT:   82992583 MISS:     350131
cpu0_L1D TRANSLATION  ACCESS:      24465 HIT:       1067 MISS:      23398
cpu0_L1D PREFETCH REQUESTED:          0 ISSUED:          0 USEFUL:          0 USELESS:          0
cpu0_L1D AVERAGE MISS LATENCY: 48.88 cycles
cpu0_L1I TOTAL        ACCESS:    5595268 HIT:    4851841 MISS:     743427
cpu0_L1I LOAD         ACCESS:    5595268 HIT:    4851841 MISS:     743427
cpu0_L1I RFO          ACCESS:          0 HIT:          0 MISS:          0
cpu0_L1I PREFETCH     ACCESS:          0 HIT:          0 MISS:          0
cpu0_L1I WRITE        ACCESS:          0 HIT:          0 MISS:          0
cpu0_L1I TRANSLATION  ACCESS:          0 HIT:          0 MISS:          0
cpu0_L1I PREFETCH REQUESTED:          0 ISSUED:          0 USEFUL:          0 USELESS:          0
cpu0_L1I AVERAGE MISS LATENCY: 10.02 cycles
cpu0_L2C TOTAL        ACCESS:    1665898 HIT:    1209887 MISS:     456011
cpu0_L2C LOAD         ACCESS:    1316007 HIT:     913331 MISS:     402676
cpu0_L2C RFO          ACCESS:      88327 HIT:      55807 MISS:      32520
cpu0_L2C PREFETCH     ACCESS:          0 HIT:          0 MISS:          0
cpu0_L2C WRITE        ACCESS:     238235 HIT:     236451 MISS:       1784
cpu0_L2C TRANSLATION  ACCESS:      23329 HIT:       4298 MISS:      19031
cpu0_L2C PREFETCH REQUESTED:          0 ISSUED:          0 USEFUL:          0 USELESS:          0
cpu0_L2C AVERAGE MISS LATENCY: 177.7 cycles
cpu0_STLB TOTAL        ACCESS:     507121 HIT:     484327 MISS:      22794
cpu0_STLB LOAD         ACCESS:     507121 HIT:     484327 MISS:      22794
cpu0_STLB RFO          ACCESS:          0 HIT:          0 MISS:          0
cpu0_STLB PREFETCH     ACCESS:          0 HIT:          0 MISS:          0
cpu0_STLB WRITE        ACCESS:          0 HIT:          0 MISS:          0
cpu0_STLB TRANSLATION  ACCESS:          0 HIT:          0 MISS:          0
cpu0_STLB PREFETCH REQUESTED:          0 ISSUED:          0 USEFUL:          0 USELESS:          0
cpu0_STLB AVERAGE MISS LATENCY: 270.9 cycles

DRAM Statistics

Channel 0 RQ ROW_BUFFER_HIT:      24535
  ROW_BUFFER_MISS:     114376
 AVG DBUS CONGESTED CYCLE: 3.746
WQ ROW_BUFFER_HIT: Channel 0 
  ROW_BUFFER_MISS:       6866
  FULL:      11964
