WARNING: physical memory size is smaller than virtual memory size.

*** ChampSim Multicore Out-of-Order Simulator ***
Warmup Instructions: 50000000
Simulation Instructions: 600000000
Number of CPUs: 1
Page size: 4096

CPU 0 Tage branch predictor
Off-chip DRAM Size: 4 GiB Channels: 1 Width: 64-bit Data Race: 3200 MT/s
Heartbeat CPU 0 instructions: 10000001 cycles: 2500319 heartbeat IPC: 3.999 cumulative IPC: 3.999 (Simulation time: 00 hr 01 min 11 sec)
Heartbeat CPU 0 instructions: 20000002 cycles: 5037129 heartbeat IPC: 3.942 cumulative IPC: 3.971 (Simulation time: 00 hr 02 min 17 sec)
Heartbeat CPU 0 instructions: 30000002 cycles: 7537129 heartbeat IPC: 4 cumulative IPC: 3.98 (Simulation time: 00 hr 03 min 19 sec)
Heartbeat CPU 0 instructions: 40000002 cycles: 10037129 heartbeat IPC: 4 cumulative IPC: 3.985 (Simulation time: 00 hr 04 min 25 sec)
Heartbeat CPU 0 instructions: 50000002 cycles: 12537129 heartbeat IPC: 4 cumulative IPC: 3.988 (Simulation time: 00 hr 05 min 43 sec)
Warmup finished CPU 0 instructions: 50000002 cycles: 12537130 cumulative IPC: 3.988 (Simulation time: 00 hr 05 min 43 sec)
Warmup complete CPU 0 instructions: 50000002 cycles: 12537130 cumulative IPC: 3.988 (Simulation time: 00 hr 05 min 43 sec)
Heartbeat CPU 0 instructions: 60000001 cycles: 15568684 heartbeat IPC: 3.299 cumulative IPC: 3.299 (Simulation time: 00 hr 07 min 06 sec)
Heartbeat CPU 0 instructions: 70000004 cycles: 18679122 heartbeat IPC: 3.215 cumulative IPC: 3.256 (Simulation time: 00 hr 08 min 30 sec)
Heartbeat CPU 0 instructions: 80000001 cycles: 21765571 heartbeat IPC: 3.24 cumulative IPC: 3.251 (Simulation time: 00 hr 09 min 42 sec)
Heartbeat CPU 0 instructions: 90000001 cycles: 24740743 heartbeat IPC: 3.361 cumulative IPC: 3.278 (Simulation time: 00 hr 10 min 54 sec)
Heartbeat CPU 0 instructions: 100000000 cycles: 27692757 heartbeat IPC: 3.388 cumulative IPC: 3.299 (Simulation time: 00 hr 12 min 07 sec)
Heartbeat CPU 0 instructions: 110000000 cycles: 30665453 heartbeat IPC: 3.364 cumulative IPC: 3.31 (Simulation time: 00 hr 13 min 22 sec)
Heartbeat CPU 0 instructions: 120000001 cycles: 33669169 heartbeat IPC: 3.329 cumulative IPC: 3.313 (Simulation time: 00 hr 14 min 31 sec)
Heartbeat CPU 0 instructions: 130000001 cycles: 36564586 heartbeat IPC: 3.454 cumulative IPC: 3.33 (Simulation time: 00 hr 15 min 39 sec)
Heartbeat CPU 0 instructions: 140000001 cycles: 39666032 heartbeat IPC: 3.224 cumulative IPC: 3.317 (Simulation time: 00 hr 16 min 55 sec)
Heartbeat CPU 0 instructions: 150000001 cycles: 42723688 heartbeat IPC: 3.27 cumulative IPC: 3.313 (Simulation time: 00 hr 18 min 21 sec)
Heartbeat CPU 0 instructions: 160000004 cycles: 45796332 heartbeat IPC: 3.255 cumulative IPC: 3.307 (Simulation time: 00 hr 19 min 46 sec)
Heartbeat CPU 0 instructions: 170000000 cycles: 53211118 heartbeat IPC: 1.349 cumulative IPC: 2.95 (Simulation time: 00 hr 21 min 44 sec)
Heartbeat CPU 0 instructions: 180000004 cycles: 61754785 heartbeat IPC: 1.17 cumulative IPC: 2.641 (Simulation time: 00 hr 23 min 43 sec)
Heartbeat CPU 0 instructions: 190000001 cycles: 71164817 heartbeat IPC: 1.063 cumulative IPC: 2.388 (Simulation time: 00 hr 25 min 57 sec)
Heartbeat CPU 0 instructions: 200000004 cycles: 74160966 heartbeat IPC: 3.338 cumulative IPC: 2.434 (Simulation time: 00 hr 27 min 09 sec)
Heartbeat CPU 0 instructions: 210000001 cycles: 77148102 heartbeat IPC: 3.348 cumulative IPC: 2.476 (Simulation time: 00 hr 28 min 22 sec)
Heartbeat CPU 0 instructions: 220000000 cycles: 80053823 heartbeat IPC: 3.441 cumulative IPC: 2.518 (Simulation time: 00 hr 29 min 31 sec)
Heartbeat CPU 0 instructions: 230000002 cycles: 83122453 heartbeat IPC: 3.259 cumulative IPC: 2.55 (Simulation time: 00 hr 30 min 58 sec)
Heartbeat CPU 0 instructions: 240000003 cycles: 86190937 heartbeat IPC: 3.259 cumulative IPC: 2.58 (Simulation time: 00 hr 32 min 28 sec)
Heartbeat CPU 0 instructions: 250000000 cycles: 89248915 heartbeat IPC: 3.27 cumulative IPC: 2.607 (Simulation time: 00 hr 33 min 51 sec)
Heartbeat CPU 0 instructions: 260000002 cycles: 92246854 heartbeat IPC: 3.336 cumulative IPC: 2.635 (Simulation time: 00 hr 35 min 06 sec)
Heartbeat CPU 0 instructions: 270000002 cycles: 95181272 heartbeat IPC: 3.408 cumulative IPC: 2.662 (Simulation time: 00 hr 36 min 24 sec)
Heartbeat CPU 0 instructions: 280000002 cycles: 98089782 heartbeat IPC: 3.438 cumulative IPC: 2.688 (Simulation time: 00 hr 37 min 40 sec)
Heartbeat CPU 0 instructions: 290000002 cycles: 101075694 heartbeat IPC: 3.349 cumulative IPC: 2.711 (Simulation time: 00 hr 38 min 54 sec)
Heartbeat CPU 0 instructions: 300000003 cycles: 104010712 heartbeat IPC: 3.407 cumulative IPC: 2.733 (Simulation time: 00 hr 40 min 05 sec)
Heartbeat CPU 0 instructions: 310000001 cycles: 107104624 heartbeat IPC: 3.232 cumulative IPC: 2.749 (Simulation time: 00 hr 41 min 15 sec)
Heartbeat CPU 0 instructions: 320000003 cycles: 110151578 heartbeat IPC: 3.282 cumulative IPC: 2.766 (Simulation time: 00 hr 42 min 31 sec)
Heartbeat CPU 0 instructions: 330000003 cycles: 113197524 heartbeat IPC: 3.283 cumulative IPC: 2.782 (Simulation time: 00 hr 43 min 59 sec)
Heartbeat CPU 0 instructions: 340000000 cycles: 120916535 heartbeat IPC: 1.296 cumulative IPC: 2.676 (Simulation time: 00 hr 46 min 06 sec)
Heartbeat CPU 0 instructions: 350000000 cycles: 129857237 heartbeat IPC: 1.118 cumulative IPC: 2.557 (Simulation time: 00 hr 48 min 14 sec)
Heartbeat CPU 0 instructions: 360000004 cycles: 139117368 heartbeat IPC: 1.08 cumulative IPC: 2.449 (Simulation time: 00 hr 50 min 31 sec)
Heartbeat CPU 0 instructions: 370000000 cycles: 142102353 heartbeat IPC: 3.35 cumulative IPC: 2.47 (Simulation time: 00 hr 51 min 40 sec)
Heartbeat CPU 0 instructions: 380000003 cycles: 145046567 heartbeat IPC: 3.396 cumulative IPC: 2.49 (Simulation time: 00 hr 52 min 46 sec)
Heartbeat CPU 0 instructions: 390000002 cycles: 148042067 heartbeat IPC: 3.338 cumulative IPC: 2.509 (Simulation time: 00 hr 53 min 54 sec)
Heartbeat CPU 0 instructions: 400000004 cycles: 150949879 heartbeat IPC: 3.439 cumulative IPC: 2.529 (Simulation time: 00 hr 55 min 15 sec)
Heartbeat CPU 0 instructions: 410000002 cycles: 153922344 heartbeat IPC: 3.364 cumulative IPC: 2.546 (Simulation time: 00 hr 56 min 41 sec)
Heartbeat CPU 0 instructions: 420000003 cycles: 157110722 heartbeat IPC: 3.136 cumulative IPC: 2.559 (Simulation time: 00 hr 58 min 03 sec)
Heartbeat CPU 0 instructions: 430000001 cycles: 160152139 heartbeat IPC: 3.288 cumulative IPC: 2.574 (Simulation time: 00 hr 59 min 21 sec)
Heartbeat CPU 0 instructions: 440000004 cycles: 163317216 heartbeat IPC: 3.159 cumulative IPC: 2.587 (Simulation time: 01 hr 00 min 43 sec)
Heartbeat CPU 0 instructions: 450000002 cycles: 166262422 heartbeat IPC: 3.395 cumulative IPC: 2.602 (Simulation time: 01 hr 02 min 01 sec)
Heartbeat CPU 0 instructions: 460000000 cycles: 169216409 heartbeat IPC: 3.385 cumulative IPC: 2.617 (Simulation time: 01 hr 03 min 16 sec)
Heartbeat CPU 0 instructions: 470000001 cycles: 172092970 heartbeat IPC: 3.476 cumulative IPC: 2.632 (Simulation time: 01 hr 04 min 27 sec)
Heartbeat CPU 0 instructions: 480000003 cycles: 175190602 heartbeat IPC: 3.228 cumulative IPC: 2.644 (Simulation time: 01 hr 05 min 37 sec)
Heartbeat CPU 0 instructions: 490000004 cycles: 178031997 heartbeat IPC: 3.519 cumulative IPC: 2.659 (Simulation time: 01 hr 06 min 45 sec)
Heartbeat CPU 0 instructions: 500000004 cycles: 181030045 heartbeat IPC: 3.336 cumulative IPC: 2.671 (Simulation time: 01 hr 08 min 08 sec)
Heartbeat CPU 0 instructions: 510000003 cycles: 184131157 heartbeat IPC: 3.225 cumulative IPC: 2.681 (Simulation time: 01 hr 09 min 45 sec)
Heartbeat CPU 0 instructions: 520000001 cycles: 187044390 heartbeat IPC: 3.433 cumulative IPC: 2.693 (Simulation time: 01 hr 11 min 11 sec)
Heartbeat CPU 0 instructions: 530000001 cycles: 190109918 heartbeat IPC: 3.262 cumulative IPC: 2.703 (Simulation time: 01 hr 12 min 30 sec)
Heartbeat CPU 0 instructions: 540000000 cycles: 193098895 heartbeat IPC: 3.346 cumulative IPC: 2.714 (Simulation time: 01 hr 13 min 51 sec)
Heartbeat CPU 0 instructions: 550000001 cycles: 196108341 heartbeat IPC: 3.323 cumulative IPC: 2.724 (Simulation time: 01 hr 15 min 10 sec)
Heartbeat CPU 0 instructions: 560000000 cycles: 199285217 heartbeat IPC: 3.148 cumulative IPC: 2.731 (Simulation time: 01 hr 16 min 26 sec)
Heartbeat CPU 0 instructions: 570000004 cycles: 204733188 heartbeat IPC: 1.836 cumulative IPC: 2.706 (Simulation time: 01 hr 18 min 00 sec)
Heartbeat CPU 0 instructions: 580000003 cycles: 212843825 heartbeat IPC: 1.233 cumulative IPC: 2.646 (Simulation time: 01 hr 19 min 59 sec)
Heartbeat CPU 0 instructions: 590000002 cycles: 225337964 heartbeat IPC: 0.8004 cumulative IPC: 2.538 (Simulation time: 01 hr 23 min 21 sec)
Heartbeat CPU 0 instructions: 600000004 cycles: 228474176 heartbeat IPC: 3.189 cumulative IPC: 2.547 (Simulation time: 01 hr 24 min 45 sec)
Heartbeat CPU 0 instructions: 610000002 cycles: 231454219 heartbeat IPC: 3.356 cumulative IPC: 2.558 (Simulation time: 01 hr 26 min 03 sec)
Heartbeat CPU 0 instructions: 620000001 cycles: 234239050 heartbeat IPC: 3.591 cumulative IPC: 2.571 (Simulation time: 01 hr 27 min 17 sec)
Heartbeat CPU 0 instructions: 630000002 cycles: 237228279 heartbeat IPC: 3.345 cumulative IPC: 2.581 (Simulation time: 01 hr 28 min 30 sec)
Heartbeat CPU 0 instructions: 640000004 cycles: 240182718 heartbeat IPC: 3.385 cumulative IPC: 2.592 (Simulation time: 01 hr 29 min 40 sec)
Heartbeat CPU 0 instructions: 650000000 cycles: 242937627 heartbeat IPC: 3.63 cumulative IPC: 2.604 (Simulation time: 01 hr 31 min 00 sec)
Simulation finished CPU 0 instructions: 600000001 cycles: 230400499 cumulative IPC: 2.604 (Simulation time: 01 hr 31 min 00 sec)
Simulation complete CPU 0 instructions: 600000001 cycles: 230400499 cumulative IPC: 2.604 (Simulation time: 01 hr 31 min 00 sec)

ChampSim completed all CPUs

=== Simulation ===
CPU 0 runs traces/400.perlbench-41B.champsimtrace.xz
Region of Interest Statistics

CPU 0 cumulative IPC: 2.604 instructions: 600000001 cycles: 230400499
CPU 0 Branch Prediction Accuracy: 99.19% MPKI: 1.684 Average ROB Occupancy at Mispredict: 102.5
Branch type MPKI
BRANCH_DIRECT_JUMP: 0.0123
BRANCH_INDIRECT: 0.323
BRANCH_CONDITIONAL: 1.14
BRANCH_DIRECT_CALL: 0.0043
BRANCH_INDIRECT_CALL: 0.2
BRANCH_RETURN: 0.00828

LLC TOTAL        ACCESS:     937436 HIT:     490569 MISS:     446867
LLC LOAD         ACCESS:     400448 HIT:     213153 MISS:     187295
LLC RFO          ACCESS:      32369 HIT:      12394 MISS:      19975
LLC PREFETCH     ACCESS:     400448 HIT:     206137 MISS:     194311
LLC WRITE        ACCESS:      85332 HIT:      54779 MISS:      30553
LLC TRANSLATION  ACCESS:      18839 HIT:       4106 MISS:      14733
LLC PREFETCH REQUESTED:     400448 ISSUED:     400448 USEFUL:      60251 USELESS:      86871
LLC AVERAGE MISS LATENCY: 631.8 cycles
cpu0_DTLB TOTAL        ACCESS:  129734938 HIT:  129031154 MISS:     703784
cpu0_DTLB LOAD         ACCESS:  129734938 HIT:  129031154 MISS:     703784
cpu0_DTLB RFO          ACCESS:          0 HIT:          0 MISS:          0
cpu0_DTLB PREFETCH     ACCESS:          0 HIT:          0 MISS:          0
cpu0_DTLB WRITE        ACCESS:          0 HIT:          0 MISS:          0
cpu0_DTLB TRANSLATION  ACCESS:          0 HIT:          0 MISS:          0
cpu0_DTLB PREFETCH REQUESTED:          0 ISSUED:          0 USEFUL:          0 USELESS:          0
cpu0_DTLB AVERAGE MISS LATENCY: 21.6 cycles
cpu0_ITLB TOTAL        ACCESS:    4869746 HIT:    4807563 MISS:      62183
cpu0_ITLB LOAD         ACCESS:    4869746 HIT:    4807563 MISS:      62183
cpu0_ITLB RFO          ACCESS:          0 HIT:          0 MISS:          0
cpu0_ITLB PREFETCH     ACCESS:          0 HIT:          0 MISS:          0
cpu0_ITLB WRITE        ACCESS:          0 HIT:          0 MISS:          0
cpu0_ITLB TRANSLATION  ACCESS:          0 HIT:          0 MISS:          0
cpu0_ITLB PREFETCH REQUESTED:          0 ISSUED:          0 USEFUL:          0 USELESS:          0
cpu0_ITLB AVERAGE MISS LATENCY: 7.687 cycles
cpu0_L1D TOTAL        ACCESS:  174338230 HIT:  172922297 MISS:    1415933
cpu0_L1D LOAD         ACCESS:   91316335 HIT:   90227568 MISS:    1088767
cpu0_L1D RFO          ACCESS:          0 HIT:          0 MISS:          0
cpu0_L1D PREFETCH     ACCESS:          0 HIT:          0 MISS:          0
cpu0_L1D WRITE        ACCESS:   82997434 HIT:   82693126 MISS:     304308
cpu0_L1D TRANSLATION  ACCESS:      24461 HIT:       1603 MISS:      22858
cpu0_L1D PREFETCH REQUESTED:          0 ISSUED:          0 USEFUL:          0 USELESS:          0
cpu0_L1D AVERAGE MISS LATENCY: 115.8 cycles
cpu0_L1I TOTAL        ACCESS:    5649094 HIT:    4846021 MISS:     803073
cpu0_L1I LOAD         ACCESS:    5649094 HIT:    4846021 MISS:     803073
cpu0_L1I RFO          ACCESS:          0 HIT:          0 MISS:          0
cpu0_L1I PREFETCH     ACCESS:          0 HIT:          0 MISS:          0
cpu0_L1I WRITE        ACCESS:          0 HIT:          0 MISS:          0
cpu0_L1I TRANSLATION  ACCESS:          0 HIT:          0 MISS:          0
cpu0_L1I PREFETCH REQUESTED:          0 ISSUED:          0 USEFUL:          0 USELESS:          0
cpu0_L1I AVERAGE MISS LATENCY: 14.97 cycles
cpu0_L2C TOTAL        ACCESS:    1381342 HIT:     926143 MISS:     455199
cpu0_L2C LOAD         ACCESS:    1123973 HIT:     723525 MISS:     400448
cpu0_L2C RFO          ACCESS:      64487 HIT:      32118 MISS:      32369
cpu0_L2C PREFETCH     ACCESS:          0 HIT:          0 MISS:          0
cpu0_L2C WRITE        ACCESS:     170114 HIT:     166571 MISS:       3543
cpu0_L2C TRANSLATION  ACCESS:      22768 HIT:       3929 MISS:      18839
cpu0_L2C PREFETCH REQUESTED:          0 ISSUED:          0 USEFUL:          0 USELESS:          0
cpu0_L2C AVERAGE MISS LATENCY: 384.2 cycles
cpu0_STLB TOTAL        ACCESS:     508657 HIT:     485872 MISS:      22785
cpu0_STLB LOAD         ACCESS:     508657 HIT:     485872 MISS:      22785
cpu0_STLB RFO          ACCESS:          0 HIT:          0 MISS:          0
cpu0_STLB PREFETCH     ACCESS:          0 HIT:          0 MISS:          0
cpu0_STLB WRITE        ACCESS:          0 HIT:          0 MISS:          0
cpu0_STLB TRANSLATION  ACCESS:          0 HIT:          0 MISS:          0
cpu0_STLB PREFETCH REQUESTED:          0 ISSUED:          0 USEFUL:          0 USELESS:          0
cpu0_STLB AVERAGE MISS LATENCY: 580.9 cycles

DRAM Statistics

Channel 0 RQ ROW_BUFFER_HIT:      54745
  ROW_BUFFER_MISS:     293568
 AVG DBUS CONGESTED CYCLE: 3.909
WQ ROW_BUFFER_HIT: Channel 0 
  ROW_BUFFER_MISS:       5329
  FULL:      47868
