WARNING: physical memory size is smaller than virtual memory size.

*** ChampSim Multicore Out-of-Order Simulator ***
Warmup Instructions: 50000000
Simulation Instructions: 600000000
Number of CPUs: 1
Page size: 4096

CPU 0 Tage branch predictor
Off-chip DRAM Size: 4 GiB Channels: 1 Width: 64-bit Data Race: 3200 MT/s
Heartbeat CPU 0 instructions: 10000000 cycles: 2500061 heartbeat IPC: 4 cumulative IPC: 4 (Simulation time: 00 hr 00 min 33 sec)
Heartbeat CPU 0 instructions: 20000000 cycles: 5000061 heartbeat IPC: 4 cumulative IPC: 4 (Simulation time: 00 hr 01 min 11 sec)
Heartbeat CPU 0 instructions: 30000000 cycles: 7500061 heartbeat IPC: 4 cumulative IPC: 4 (Simulation time: 00 hr 01 min 55 sec)
Heartbeat CPU 0 instructions: 40000000 cycles: 10000061 heartbeat IPC: 4 cumulative IPC: 4 (Simulation time: 00 hr 02 min 43 sec)
Heartbeat CPU 0 instructions: 50000000 cycles: 12500061 heartbeat IPC: 4 cumulative IPC: 4 (Simulation time: 00 hr 03 min 36 sec)
Warmup finished CPU 0 instructions: 50000000 cycles: 12500062 cumulative IPC: 4 (Simulation time: 00 hr 03 min 36 sec)
Warmup complete CPU 0 instructions: 50000000 cycles: 12500062 cumulative IPC: 4 (Simulation time: 00 hr 03 min 36 sec)
Heartbeat CPU 0 instructions: 60000004 cycles: 15504574 heartbeat IPC: 3.328 cumulative IPC: 3.328 (Simulation time: 00 hr 04 min 47 sec)
Heartbeat CPU 0 instructions: 70000003 cycles: 18375027 heartbeat IPC: 3.484 cumulative IPC: 3.404 (Simulation time: 00 hr 05 min 51 sec)
Heartbeat CPU 0 instructions: 80000002 cycles: 21385455 heartbeat IPC: 3.322 cumulative IPC: 3.376 (Simulation time: 00 hr 06 min 56 sec)
Heartbeat CPU 0 instructions: 90000000 cycles: 24106445 heartbeat IPC: 3.675 cumulative IPC: 3.446 (Simulation time: 00 hr 07 min 55 sec)
Heartbeat CPU 0 instructions: 100000003 cycles: 26861573 heartbeat IPC: 3.63 cumulative IPC: 3.482 (Simulation time: 00 hr 08 min 56 sec)
Heartbeat CPU 0 instructions: 110000001 cycles: 29760716 heartbeat IPC: 3.449 cumulative IPC: 3.476 (Simulation time: 00 hr 09 min 59 sec)
Heartbeat CPU 0 instructions: 120000001 cycles: 32476957 heartbeat IPC: 3.682 cumulative IPC: 3.504 (Simulation time: 00 hr 11 min 01 sec)
Heartbeat CPU 0 instructions: 130000003 cycles: 35373828 heartbeat IPC: 3.452 cumulative IPC: 3.497 (Simulation time: 00 hr 12 min 05 sec)
Heartbeat CPU 0 instructions: 140000002 cycles: 38209923 heartbeat IPC: 3.526 cumulative IPC: 3.501 (Simulation time: 00 hr 13 min 09 sec)
Heartbeat CPU 0 instructions: 150000001 cycles: 40979169 heartbeat IPC: 3.611 cumulative IPC: 3.511 (Simulation time: 00 hr 14 min 15 sec)
Heartbeat CPU 0 instructions: 160000000 cycles: 43896422 heartbeat IPC: 3.428 cumulative IPC: 3.504 (Simulation time: 00 hr 15 min 20 sec)
Heartbeat CPU 0 instructions: 170000001 cycles: 46819705 heartbeat IPC: 3.421 cumulative IPC: 3.497 (Simulation time: 00 hr 16 min 24 sec)
Heartbeat CPU 0 instructions: 180000000 cycles: 49612091 heartbeat IPC: 3.581 cumulative IPC: 3.503 (Simulation time: 00 hr 17 min 29 sec)
Heartbeat CPU 0 instructions: 190000002 cycles: 52318430 heartbeat IPC: 3.695 cumulative IPC: 3.516 (Simulation time: 00 hr 18 min 38 sec)
Heartbeat CPU 0 instructions: 200000002 cycles: 55141199 heartbeat IPC: 3.543 cumulative IPC: 3.518 (Simulation time: 00 hr 19 min 43 sec)
Heartbeat CPU 0 instructions: 210000000 cycles: 58032005 heartbeat IPC: 3.459 cumulative IPC: 3.514 (Simulation time: 00 hr 20 min 47 sec)
Heartbeat CPU 0 instructions: 220000001 cycles: 60781438 heartbeat IPC: 3.637 cumulative IPC: 3.521 (Simulation time: 00 hr 21 min 52 sec)
Heartbeat CPU 0 instructions: 230000002 cycles: 63668564 heartbeat IPC: 3.464 cumulative IPC: 3.518 (Simulation time: 00 hr 22 min 56 sec)
Heartbeat CPU 0 instructions: 240000004 cycles: 66619176 heartbeat IPC: 3.389 cumulative IPC: 3.511 (Simulation time: 00 hr 24 min 04 sec)
Heartbeat CPU 0 instructions: 250000003 cycles: 69509596 heartbeat IPC: 3.46 cumulative IPC: 3.508 (Simulation time: 00 hr 25 min 09 sec)
Heartbeat CPU 0 instructions: 260000001 cycles: 72292418 heartbeat IPC: 3.593 cumulative IPC: 3.512 (Simulation time: 00 hr 26 min 13 sec)
Heartbeat CPU 0 instructions: 270000002 cycles: 78010768 heartbeat IPC: 1.749 cumulative IPC: 3.358 (Simulation time: 00 hr 27 min 45 sec)
Heartbeat CPU 0 instructions: 280000000 cycles: 86574381 heartbeat IPC: 1.168 cumulative IPC: 3.105 (Simulation time: 00 hr 29 min 37 sec)
Heartbeat CPU 0 instructions: 290000000 cycles: 94413224 heartbeat IPC: 1.276 cumulative IPC: 2.93 (Simulation time: 00 hr 31 min 31 sec)
Heartbeat CPU 0 instructions: 300000003 cycles: 99722156 heartbeat IPC: 1.884 cumulative IPC: 2.866 (Simulation time: 00 hr 33 min 03 sec)
Heartbeat CPU 0 instructions: 310000001 cycles: 108037055 heartbeat IPC: 1.203 cumulative IPC: 2.721 (Simulation time: 00 hr 35 min 01 sec)
Heartbeat CPU 0 instructions: 320000004 cycles: 111887921 heartbeat IPC: 2.597 cumulative IPC: 2.717 (Simulation time: 00 hr 36 min 19 sec)
Heartbeat CPU 0 instructions: 330000000 cycles: 115045187 heartbeat IPC: 3.167 cumulative IPC: 2.731 (Simulation time: 00 hr 37 min 28 sec)
Heartbeat CPU 0 instructions: 340000001 cycles: 118210036 heartbeat IPC: 3.16 cumulative IPC: 2.743 (Simulation time: 00 hr 38 min 35 sec)
Heartbeat CPU 0 instructions: 350000000 cycles: 121462185 heartbeat IPC: 3.075 cumulative IPC: 2.753 (Simulation time: 00 hr 39 min 46 sec)
Heartbeat CPU 0 instructions: 360000004 cycles: 124428289 heartbeat IPC: 3.371 cumulative IPC: 2.77 (Simulation time: 00 hr 40 min 54 sec)
Heartbeat CPU 0 instructions: 370000001 cycles: 127324655 heartbeat IPC: 3.453 cumulative IPC: 2.787 (Simulation time: 00 hr 41 min 58 sec)
Heartbeat CPU 0 instructions: 380000004 cycles: 130211967 heartbeat IPC: 3.463 cumulative IPC: 2.803 (Simulation time: 00 hr 43 min 03 sec)
Heartbeat CPU 0 instructions: 390000002 cycles: 133117168 heartbeat IPC: 3.442 cumulative IPC: 2.819 (Simulation time: 00 hr 44 min 08 sec)
Heartbeat CPU 0 instructions: 400000000 cycles: 136054086 heartbeat IPC: 3.405 cumulative IPC: 2.833 (Simulation time: 00 hr 45 min 13 sec)
Heartbeat CPU 0 instructions: 410000000 cycles: 140719520 heartbeat IPC: 2.143 cumulative IPC: 2.808 (Simulation time: 00 hr 46 min 38 sec)
Heartbeat CPU 0 instructions: 420000003 cycles: 146326419 heartbeat IPC: 1.784 cumulative IPC: 2.765 (Simulation time: 00 hr 48 min 08 sec)
Heartbeat CPU 0 instructions: 430000000 cycles: 151636512 heartbeat IPC: 1.883 cumulative IPC: 2.731 (Simulation time: 00 hr 49 min 33 sec)
Heartbeat CPU 0 instructions: 440000004 cycles: 156760944 heartbeat IPC: 1.951 cumulative IPC: 2.703 (Simulation time: 00 hr 50 min 55 sec)
Heartbeat CPU 0 instructions: 450000003 cycles: 161684822 heartbeat IPC: 2.031 cumulative IPC: 2.681 (Simulation time: 00 hr 52 min 15 sec)
Heartbeat CPU 0 instructions: 460000002 cycles: 169730584 heartbeat IPC: 1.243 cumulative IPC: 2.608 (Simulation time: 00 hr 53 min 59 sec)
Heartbeat CPU 0 instructions: 470000003 cycles: 176923197 heartbeat IPC: 1.39 cumulative IPC: 2.554 (Simulation time: 00 hr 55 min 35 sec)
Heartbeat CPU 0 instructions: 480000000 cycles: 180302578 heartbeat IPC: 2.959 cumulative IPC: 2.563 (Simulation time: 00 hr 56 min 41 sec)
Heartbeat CPU 0 instructions: 490000001 cycles: 183789129 heartbeat IPC: 2.868 cumulative IPC: 2.569 (Simulation time: 00 hr 57 min 52 sec)
Heartbeat CPU 0 instructions: 500000002 cycles: 186965405 heartbeat IPC: 3.148 cumulative IPC: 2.579 (Simulation time: 00 hr 59 min 01 sec)
Heartbeat CPU 0 instructions: 510000000 cycles: 189997984 heartbeat IPC: 3.298 cumulative IPC: 2.592 (Simulation time: 01 hr 00 min 07 sec)
Heartbeat CPU 0 instructions: 520000000 cycles: 192965833 heartbeat IPC: 3.369 cumulative IPC: 2.604 (Simulation time: 01 hr 01 min 12 sec)
Heartbeat CPU 0 instructions: 530000001 cycles: 198929982 heartbeat IPC: 1.677 cumulative IPC: 2.575 (Simulation time: 01 hr 02 min 45 sec)
Heartbeat CPU 0 instructions: 540000000 cycles: 205600734 heartbeat IPC: 1.499 cumulative IPC: 2.538 (Simulation time: 01 hr 04 min 26 sec)
Heartbeat CPU 0 instructions: 550000004 cycles: 214596009 heartbeat IPC: 1.112 cumulative IPC: 2.474 (Simulation time: 01 hr 06 min 25 sec)
Heartbeat CPU 0 instructions: 560000004 cycles: 218169427 heartbeat IPC: 2.798 cumulative IPC: 2.48 (Simulation time: 01 hr 07 min 34 sec)
Heartbeat CPU 0 instructions: 570000002 cycles: 220988873 heartbeat IPC: 3.547 cumulative IPC: 2.494 (Simulation time: 01 hr 08 min 39 sec)
Heartbeat CPU 0 instructions: 580000000 cycles: 223912871 heartbeat IPC: 3.42 cumulative IPC: 2.507 (Simulation time: 01 hr 09 min 43 sec)
Heartbeat CPU 0 instructions: 590000001 cycles: 226836011 heartbeat IPC: 3.421 cumulative IPC: 2.519 (Simulation time: 01 hr 10 min 50 sec)
Heartbeat CPU 0 instructions: 600000003 cycles: 229526396 heartbeat IPC: 3.717 cumulative IPC: 2.534 (Simulation time: 01 hr 12 min 00 sec)
Heartbeat CPU 0 instructions: 610000001 cycles: 232390387 heartbeat IPC: 3.492 cumulative IPC: 2.547 (Simulation time: 01 hr 13 min 06 sec)
Heartbeat CPU 0 instructions: 620000004 cycles: 235341716 heartbeat IPC: 3.388 cumulative IPC: 2.558 (Simulation time: 01 hr 14 min 16 sec)
Heartbeat CPU 0 instructions: 630000002 cycles: 238151213 heartbeat IPC: 3.559 cumulative IPC: 2.57 (Simulation time: 01 hr 15 min 31 sec)
Heartbeat CPU 0 instructions: 640000004 cycles: 241199832 heartbeat IPC: 3.28 cumulative IPC: 2.58 (Simulation time: 01 hr 16 min 39 sec)
Heartbeat CPU 0 instructions: 650000001 cycles: 243911759 heartbeat IPC: 3.687 cumulative IPC: 2.593 (Simulation time: 01 hr 17 min 48 sec)
Simulation finished CPU 0 instructions: 600000001 cycles: 231411698 cumulative IPC: 2.593 (Simulation time: 01 hr 17 min 48 sec)
Simulation complete CPU 0 instructions: 600000001 cycles: 231411698 cumulative IPC: 2.593 (Simulation time: 01 hr 17 min 48 sec)

ChampSim completed all CPUs

=== Simulation ===
CPU 0 runs traces/400.perlbench-50B.champsimtrace.xz
Region of Interest Statistics

CPU 0 cumulative IPC: 2.593 instructions: 600000001 cycles: 231411698
CPU 0 Branch Prediction Accuracy: 99.01% MPKI: 2.04 Average ROB Occupancy at Mispredict: 94.67
Branch type MPKI
BRANCH_DIRECT_JUMP: 0.0176
BRANCH_INDIRECT: 0.38
BRANCH_CONDITIONAL: 1.19
BRANCH_DIRECT_CALL: 0.0067
BRANCH_INDIRECT_CALL: 0.431
BRANCH_RETURN: 0.0161

LLC TOTAL        ACCESS:     835085 HIT:     598344 MISS:     236741
LLC LOAD         ACCESS:     575811 HIT:     398601 MISS:     177210
LLC RFO          ACCESS:      47084 HIT:      29749 MISS:      17335
LLC PREFETCH     ACCESS:      63800 HIT:      44123 MISS:      19677
LLC WRITE        ACCESS:     126466 HIT:     117137 MISS:       9329
LLC TRANSLATION  ACCESS:      21924 HIT:       8734 MISS:      13190
LLC PREFETCH REQUESTED:      63800 ISSUED:      63800 USEFUL:      11460 USELESS:       4356
LLC AVERAGE MISS LATENCY: 555.6 cycles
cpu0_DTLB TOTAL        ACCESS:  133206211 HIT:  131850273 MISS:    1355938
cpu0_DTLB LOAD         ACCESS:  133206211 HIT:  131850273 MISS:    1355938
cpu0_DTLB RFO          ACCESS:          0 HIT:          0 MISS:          0
cpu0_DTLB PREFETCH     ACCESS:          0 HIT:          0 MISS:          0
cpu0_DTLB WRITE        ACCESS:          0 HIT:          0 MISS:          0
cpu0_DTLB TRANSLATION  ACCESS:          0 HIT:          0 MISS:          0
cpu0_DTLB PREFETCH REQUESTED:          0 ISSUED:          0 USEFUL:          0 USELESS:          0
cpu0_DTLB AVERAGE MISS LATENCY: 11.71 cycles
cpu0_ITLB TOTAL        ACCESS:    8994285 HIT:    8784839 MISS:     209446
cpu0_ITLB LOAD         ACCESS:    8994285 HIT:    8784839 MISS:     209446
cpu0_ITLB RFO          ACCESS:          0 HIT:          0 MISS:          0
cpu0_ITLB PREFETCH     ACCESS:          0 HIT:          0 MISS:          0
cpu0_ITLB WRITE        ACCESS:          0 HIT:          0 MISS:          0
cpu0_ITLB TRANSLATION  ACCESS:          0 HIT:          0 MISS:          0
cpu0_ITLB PREFETCH REQUESTED:          0 ISSUED:          0 USEFUL:          0 USELESS:          0
cpu0_ITLB AVERAGE MISS LATENCY: 3.029 cycles
cpu0_L1D TOTAL        ACCESS:  178247617 HIT:  174479961 MISS:    3767656
cpu0_L1D LOAD         ACCESS:   92728186 HIT:   89636924 MISS:    3091262
cpu0_L1D RFO          ACCESS:          0 HIT:          0 MISS:          0
cpu0_L1D PREFETCH     ACCESS:          0 HIT:          0 MISS:          0
cpu0_L1D WRITE        ACCESS:   85490907 HIT:   84841633 MISS:     649274
cpu0_L1D TRANSLATION  ACCESS:      28524 HIT:       1404 MISS:      27120
cpu0_L1D PREFETCH REQUESTED:          0 ISSUED:          0 USEFUL:          0 USELESS:          0
cpu0_L1D AVERAGE MISS LATENCY: 36.15 cycles
cpu0_L1I TOTAL        ACCESS:   10514236 HIT:    8615921 MISS:    1898315
cpu0_L1I LOAD         ACCESS:   10514236 HIT:    8615921 MISS:    1898315
cpu0_L1I RFO          ACCESS:          0 HIT:          0 MISS:          0
cpu0_L1I PREFETCH     ACCESS:          0 HIT:          0 MISS:          0
cpu0_L1I WRITE        ACCESS:          0 HIT:          0 MISS:          0
cpu0_L1I TRANSLATION  ACCESS:          0 HIT:          0 MISS:          0
cpu0_L1I PREFETCH REQUESTED:          0 ISSUED:          0 USEFUL:          0 USELESS:          0
cpu0_L1I AVERAGE MISS LATENCY: 10.16 cycles
cpu0_L2C TOTAL        ACCESS:    3840310 HIT:    3192300 MISS:     648010
cpu0_L2C LOAD         ACCESS:    3103869 HIT:    2528056 MISS:     575813
cpu0_L2C RFO          ACCESS:     194880 HIT:     147796 MISS:      47084
cpu0_L2C PREFETCH     ACCESS:          0 HIT:          0 MISS:          0
cpu0_L2C WRITE        ACCESS:     514527 HIT:     511338 MISS:       3189
cpu0_L2C TRANSLATION  ACCESS:      27034 HIT:       5110 MISS:      21924
cpu0_L2C PREFETCH REQUESTED:          0 ISSUED:          0 USEFUL:          0 USELESS:          0
cpu0_L2C AVERAGE MISS LATENCY: 205.5 cycles
cpu0_STLB TOTAL        ACCESS:    1010090 HIT:     983402 MISS:      26688
cpu0_STLB LOAD         ACCESS:    1010090 HIT:     983402 MISS:      26688
cpu0_STLB RFO          ACCESS:          0 HIT:          0 MISS:          0
cpu0_STLB PREFETCH     ACCESS:          0 HIT:          0 MISS:          0
cpu0_STLB WRITE        ACCESS:          0 HIT:          0 MISS:          0
cpu0_STLB TRANSLATION  ACCESS:          0 HIT:          0 MISS:          0
cpu0_STLB PREFETCH REQUESTED:          0 ISSUED:          0 USEFUL:          0 USELESS:          0
cpu0_STLB AVERAGE MISS LATENCY: 392.8 cycles

DRAM Statistics

Channel 0 RQ ROW_BUFFER_HIT:      44957
  ROW_BUFFER_MISS:     178228
 AVG DBUS CONGESTED CYCLE: 3.828
WQ ROW_BUFFER_HIT: Channel 0 
  ROW_BUFFER_MISS:       5868
  FULL:      26012
