WARNING: physical memory size is smaller than virtual memory size.

*** ChampSim Multicore Out-of-Order Simulator ***
Warmup Instructions: 50000000
Simulation Instructions: 600000000
Number of CPUs: 1
Page size: 4096

CPU 0 Tage branch predictor
Off-chip DRAM Size: 4 GiB Channels: 1 Width: 64-bit Data Race: 3200 MT/s
Heartbeat CPU 0 instructions: 10000001 cycles: 2500318 heartbeat IPC: 3.999 cumulative IPC: 3.999 (Simulation time: 00 hr 02 min 52 sec)
Heartbeat CPU 0 instructions: 20000002 cycles: 5037133 heartbeat IPC: 3.942 cumulative IPC: 3.971 (Simulation time: 00 hr 06 min 50 sec)
Heartbeat CPU 0 instructions: 30000002 cycles: 7537133 heartbeat IPC: 4 cumulative IPC: 3.98 (Simulation time: 00 hr 11 min 10 sec)
Heartbeat CPU 0 instructions: 40000002 cycles: 10037133 heartbeat IPC: 4 cumulative IPC: 3.985 (Simulation time: 00 hr 15 min 26 sec)
Heartbeat CPU 0 instructions: 50000002 cycles: 12537133 heartbeat IPC: 4 cumulative IPC: 3.988 (Simulation time: 00 hr 19 min 42 sec)
Warmup finished CPU 0 instructions: 50000002 cycles: 12537134 cumulative IPC: 3.988 (Simulation time: 00 hr 19 min 42 sec)
Warmup complete CPU 0 instructions: 50000002 cycles: 12537134 cumulative IPC: 3.988 (Simulation time: 00 hr 19 min 42 sec)
Heartbeat CPU 0 instructions: 60000001 cycles: 15504645 heartbeat IPC: 3.37 cumulative IPC: 3.37 (Simulation time: 00 hr 24 min 44 sec)
Heartbeat CPU 0 instructions: 70000004 cycles: 18568251 heartbeat IPC: 3.264 cumulative IPC: 3.316 (Simulation time: 00 hr 29 min 52 sec)
Heartbeat CPU 0 instructions: 80000001 cycles: 21610866 heartbeat IPC: 3.287 cumulative IPC: 3.306 (Simulation time: 00 hr 34 min 58 sec)
Heartbeat CPU 0 instructions: 90000001 cycles: 24551329 heartbeat IPC: 3.401 cumulative IPC: 3.329 (Simulation time: 00 hr 39 min 53 sec)
Heartbeat CPU 0 instructions: 100000000 cycles: 27457585 heartbeat IPC: 3.441 cumulative IPC: 3.351 (Simulation time: 00 hr 44 min 54 sec)
Heartbeat CPU 0 instructions: 110000000 cycles: 30399339 heartbeat IPC: 3.399 cumulative IPC: 3.359 (Simulation time: 00 hr 49 min 56 sec)
Heartbeat CPU 0 instructions: 120000001 cycles: 33368738 heartbeat IPC: 3.368 cumulative IPC: 3.36 (Simulation time: 00 hr 54 min 57 sec)
Heartbeat CPU 0 instructions: 130000001 cycles: 36218660 heartbeat IPC: 3.509 cumulative IPC: 3.378 (Simulation time: 01 hr 00 min 01 sec)
Heartbeat CPU 0 instructions: 140000001 cycles: 39253793 heartbeat IPC: 3.295 cumulative IPC: 3.369 (Simulation time: 01 hr 05 min 05 sec)
Heartbeat CPU 0 instructions: 150000001 cycles: 42257524 heartbeat IPC: 3.329 cumulative IPC: 3.365 (Simulation time: 01 hr 10 min 08 sec)
Heartbeat CPU 0 instructions: 160000004 cycles: 45259763 heartbeat IPC: 3.331 cumulative IPC: 3.362 (Simulation time: 01 hr 15 min 07 sec)
Heartbeat CPU 0 instructions: 170000000 cycles: 51519407 heartbeat IPC: 1.598 cumulative IPC: 3.078 (Simulation time: 01 hr 22 min 29 sec)
Heartbeat CPU 0 instructions: 180000004 cycles: 58451106 heartbeat IPC: 1.443 cumulative IPC: 2.831 (Simulation time: 01 hr 30 min 20 sec)
Heartbeat CPU 0 instructions: 190000001 cycles: 64801292 heartbeat IPC: 1.575 cumulative IPC: 2.679 (Simulation time: 01 hr 37 min 54 sec)
Heartbeat CPU 0 instructions: 200000004 cycles: 67632044 heartbeat IPC: 3.533 cumulative IPC: 2.723 (Simulation time: 01 hr 42 min 46 sec)
Heartbeat CPU 0 instructions: 210000001 cycles: 70481063 heartbeat IPC: 3.51 cumulative IPC: 2.761 (Simulation time: 01 hr 47 min 44 sec)
Heartbeat CPU 0 instructions: 220000000 cycles: 73314455 heartbeat IPC: 3.529 cumulative IPC: 2.797 (Simulation time: 01 hr 52 min 33 sec)
Heartbeat CPU 0 instructions: 230000002 cycles: 76122767 heartbeat IPC: 3.561 cumulative IPC: 2.831 (Simulation time: 01 hr 57 min 28 sec)
Heartbeat CPU 0 instructions: 240000003 cycles: 79025940 heartbeat IPC: 3.445 cumulative IPC: 2.858 (Simulation time: 02 hr 02 min 25 sec)
Heartbeat CPU 0 instructions: 250000000 cycles: 81892074 heartbeat IPC: 3.489 cumulative IPC: 2.884 (Simulation time: 02 hr 07 min 21 sec)
Heartbeat CPU 0 instructions: 260000002 cycles: 84702579 heartbeat IPC: 3.558 cumulative IPC: 2.91 (Simulation time: 02 hr 12 min 14 sec)
Heartbeat CPU 0 instructions: 270000002 cycles: 87505790 heartbeat IPC: 3.567 cumulative IPC: 2.935 (Simulation time: 02 hr 17 min 06 sec)
Heartbeat CPU 0 instructions: 280000002 cycles: 90283531 heartbeat IPC: 3.6 cumulative IPC: 2.958 (Simulation time: 02 hr 21 min 58 sec)
Heartbeat CPU 0 instructions: 290000002 cycles: 93151829 heartbeat IPC: 3.486 cumulative IPC: 2.977 (Simulation time: 02 hr 27 min 08 sec)
Heartbeat CPU 0 instructions: 300000003 cycles: 95924993 heartbeat IPC: 3.606 cumulative IPC: 2.998 (Simulation time: 02 hr 32 min 06 sec)
Heartbeat CPU 0 instructions: 310000001 cycles: 98819730 heartbeat IPC: 3.455 cumulative IPC: 3.013 (Simulation time: 02 hr 37 min 07 sec)
Heartbeat CPU 0 instructions: 320000003 cycles: 101725595 heartbeat IPC: 3.441 cumulative IPC: 3.027 (Simulation time: 02 hr 42 min 00 sec)
Heartbeat CPU 0 instructions: 330000003 cycles: 104602832 heartbeat IPC: 3.476 cumulative IPC: 3.041 (Simulation time: 02 hr 47 min 00 sec)
Heartbeat CPU 0 instructions: 340000000 cycles: 110567908 heartbeat IPC: 1.676 cumulative IPC: 2.958 (Simulation time: 02 hr 54 min 10 sec)
Heartbeat CPU 0 instructions: 350000000 cycles: 117357243 heartbeat IPC: 1.473 cumulative IPC: 2.862 (Simulation time: 03 hr 01 min 58 sec)
Heartbeat CPU 0 instructions: 360000004 cycles: 123796192 heartbeat IPC: 1.553 cumulative IPC: 2.786 (Simulation time: 03 hr 09 min 29 sec)
Heartbeat CPU 0 instructions: 370000000 cycles: 126669429 heartbeat IPC: 3.48 cumulative IPC: 2.804 (Simulation time: 03 hr 14 min 25 sec)
Heartbeat CPU 0 instructions: 380000003 cycles: 129497029 heartbeat IPC: 3.537 cumulative IPC: 2.821 (Simulation time: 03 hr 19 min 23 sec)
Heartbeat CPU 0 instructions: 390000002 cycles: 132407302 heartbeat IPC: 3.436 cumulative IPC: 2.836 (Simulation time: 03 hr 24 min 24 sec)
Heartbeat CPU 0 instructions: 400000004 cycles: 135272827 heartbeat IPC: 3.49 cumulative IPC: 2.852 (Simulation time: 03 hr 29 min 22 sec)
Heartbeat CPU 0 instructions: 410000002 cycles: 138107588 heartbeat IPC: 3.528 cumulative IPC: 2.867 (Simulation time: 03 hr 34 min 16 sec)
Heartbeat CPU 0 instructions: 420000003 cycles: 141055487 heartbeat IPC: 3.392 cumulative IPC: 2.879 (Simulation time: 03 hr 39 min 19 sec)
Heartbeat CPU 0 instructions: 430000001 cycles: 143990407 heartbeat IPC: 3.407 cumulative IPC: 2.891 (Simulation time: 03 hr 44 min 19 sec)
Heartbeat CPU 0 instructions: 440000004 cycles: 147003650 heartbeat IPC: 3.319 cumulative IPC: 2.9 (Simulation time: 03 hr 49 min 21 sec)
Heartbeat CPU 0 instructions: 450000002 cycles: 149815096 heartbeat IPC: 3.557 cumulative IPC: 2.914 (Simulation time: 03 hr 54 min 16 sec)
Heartbeat CPU 0 instructions: 460000000 cycles: 152653068 heartbeat IPC: 3.524 cumulative IPC: 2.926 (Simulation time: 03 hr 59 min 11 sec)
Heartbeat CPU 0 instructions: 470000001 cycles: 155424368 heartbeat IPC: 3.608 cumulative IPC: 2.939 (Simulation time: 04 hr 04 min 05 sec)
Heartbeat CPU 0 instructions: 480000003 cycles: 158391068 heartbeat IPC: 3.371 cumulative IPC: 2.948 (Simulation time: 04 hr 09 min 05 sec)
Heartbeat CPU 0 instructions: 490000004 cycles: 161163117 heartbeat IPC: 3.607 cumulative IPC: 2.96 (Simulation time: 04 hr 13 min 55 sec)
Heartbeat CPU 0 instructions: 500000004 cycles: 164086615 heartbeat IPC: 3.421 cumulative IPC: 2.969 (Simulation time: 04 hr 18 min 52 sec)
Heartbeat CPU 0 instructions: 510000003 cycles: 167019292 heartbeat IPC: 3.41 cumulative IPC: 2.978 (Simulation time: 04 hr 23 min 54 sec)
Heartbeat CPU 0 instructions: 520000001 cycles: 169814792 heartbeat IPC: 3.577 cumulative IPC: 2.988 (Simulation time: 04 hr 28 min 54 sec)
Heartbeat CPU 0 instructions: 530000001 cycles: 172743824 heartbeat IPC: 3.414 cumulative IPC: 2.996 (Simulation time: 04 hr 33 min 51 sec)
Heartbeat CPU 0 instructions: 540000000 cycles: 175620371 heartbeat IPC: 3.476 cumulative IPC: 3.005 (Simulation time: 04 hr 38 min 48 sec)
Heartbeat CPU 0 instructions: 550000001 cycles: 178542423 heartbeat IPC: 3.422 cumulative IPC: 3.012 (Simulation time: 04 hr 43 min 46 sec)
Heartbeat CPU 0 instructions: 560000000 cycles: 181534856 heartbeat IPC: 3.342 cumulative IPC: 3.018 (Simulation time: 04 hr 48 min 52 sec)
Heartbeat CPU 0 instructions: 570000004 cycles: 185989399 heartbeat IPC: 2.245 cumulative IPC: 2.998 (Simulation time: 04 hr 54 min 57 sec)
Heartbeat CPU 0 instructions: 580000003 cycles: 193047829 heartbeat IPC: 1.417 cumulative IPC: 2.936 (Simulation time: 05 hr 03 min 01 sec)
Heartbeat CPU 0 instructions: 590000002 cycles: 200991127 heartbeat IPC: 1.259 cumulative IPC: 2.865 (Simulation time: 05 hr 11 min 37 sec)
Heartbeat CPU 0 instructions: 600000004 cycles: 203947573 heartbeat IPC: 3.382 cumulative IPC: 2.873 (Simulation time: 05 hr 16 min 34 sec)
Heartbeat CPU 0 instructions: 610000002 cycles: 206843778 heartbeat IPC: 3.453 cumulative IPC: 2.882 (Simulation time: 05 hr 21 min 42 sec)
Heartbeat CPU 0 instructions: 620000001 cycles: 209575042 heartbeat IPC: 3.661 cumulative IPC: 2.893 (Simulation time: 05 hr 26 min 33 sec)
Heartbeat CPU 0 instructions: 630000002 cycles: 212478179 heartbeat IPC: 3.445 cumulative IPC: 2.901 (Simulation time: 05 hr 31 min 41 sec)
Heartbeat CPU 0 instructions: 640000004 cycles: 215400036 heartbeat IPC: 3.422 cumulative IPC: 2.908 (Simulation time: 05 hr 36 min 52 sec)
Heartbeat CPU 0 instructions: 650000000 cycles: 218123978 heartbeat IPC: 3.671 cumulative IPC: 2.918 (Simulation time: 05 hr 41 min 52 sec)
Simulation finished CPU 0 instructions: 600000001 cycles: 205586846 cumulative IPC: 2.918 (Simulation time: 05 hr 41 min 52 sec)
Simulation complete CPU 0 instructions: 600000001 cycles: 205586846 cumulative IPC: 2.918 (Simulation time: 05 hr 41 min 52 sec)

ChampSim completed all CPUs

=== Simulation ===
CPU 0 runs traces/400.perlbench-41B.champsimtrace.xz
Region of Interest Statistics

CPU 0 cumulative IPC: 2.918 instructions: 600000001 cycles: 205586846
CPU 0 Branch Prediction Accuracy: 99.19% MPKI: 1.684 Average ROB Occupancy at Mispredict: 101.7
Branch type MPKI
BRANCH_DIRECT_JUMP: 0.0123
BRANCH_INDIRECT: 0.323
BRANCH_CONDITIONAL: 1.14
BRANCH_DIRECT_CALL: 0.0043
BRANCH_INDIRECT_CALL: 0.2
BRANCH_RETURN: 0.00828

LLC TOTAL        ACCESS:     540621 HIT:     398930 MISS:     141691
LLC LOAD         ACCESS:     403656 HIT:     283051 MISS:     120605
LLC RFO          ACCESS:      32514 HIT:      23168 MISS:       9346
LLC PREFETCH     ACCESS:          0 HIT:          0 MISS:          0
LLC WRITE        ACCESS:      85349 HIT:      82746 MISS:       2603
LLC TRANSLATION  ACCESS:      19102 HIT:       9965 MISS:       9137
LLC PREFETCH REQUESTED:          0 ISSUED:          0 USEFUL:          0 USELESS:          0
LLC AVERAGE MISS LATENCY: 545 cycles
cpu0_DTLB TOTAL        ACCESS:  129763346 HIT:  129059966 MISS:     703380
cpu0_DTLB LOAD         ACCESS:  129763346 HIT:  129059966 MISS:     703380
cpu0_DTLB RFO          ACCESS:          0 HIT:          0 MISS:          0
cpu0_DTLB PREFETCH     ACCESS:          0 HIT:          0 MISS:          0
cpu0_DTLB WRITE        ACCESS:          0 HIT:          0 MISS:          0
cpu0_DTLB TRANSLATION  ACCESS:          0 HIT:          0 MISS:          0
cpu0_DTLB PREFETCH REQUESTED:          0 ISSUED:          0 USEFUL:          0 USELESS:          0
cpu0_DTLB AVERAGE MISS LATENCY: 12.91 cycles
cpu0_ITLB TOTAL        ACCESS:    4867914 HIT:    4805810 MISS:      62104
cpu0_ITLB LOAD         ACCESS:    4867914 HIT:    4805810 MISS:      62104
cpu0_ITLB RFO          ACCESS:          0 HIT:          0 MISS:          0
cpu0_ITLB PREFETCH     ACCESS:          0 HIT:          0 MISS:          0
cpu0_ITLB WRITE        ACCESS:          0 HIT:          0 MISS:          0
cpu0_ITLB TRANSLATION  ACCESS:          0 HIT:          0 MISS:          0
cpu0_ITLB PREFETCH REQUESTED:          0 ISSUED:          0 USEFUL:          0 USELESS:          0
cpu0_ITLB AVERAGE MISS LATENCY: 5.348 cycles
cpu0_L1D TOTAL        ACCESS:  174368382 HIT:  172599008 MISS:    1769374
cpu0_L1D LOAD         ACCESS:   91344375 HIT:   89964181 MISS:    1380194
cpu0_L1D RFO          ACCESS:          0 HIT:          0 MISS:          0
cpu0_L1D PREFETCH     ACCESS:          0 HIT:          0 MISS:          0
cpu0_L1D WRITE        ACCESS:   82999550 HIT:   82633767 MISS:     365783
cpu0_L1D TRANSLATION  ACCESS:      24457 HIT:       1060 MISS:      23397
cpu0_L1D PREFETCH REQUESTED:          0 ISSUED:          0 USEFUL:          0 USELESS:          0
cpu0_L1D AVERAGE MISS LATENCY: 48.52 cycles
cpu0_L1I TOTAL        ACCESS:    5647653 HIT:    4843319 MISS:     804334
cpu0_L1I LOAD         ACCESS:    5647653 HIT:    4843319 MISS:     804334
cpu0_L1I RFO          ACCESS:          0 HIT:          0 MISS:          0
cpu0_L1I PREFETCH     ACCESS:          0 HIT:          0 MISS:          0
cpu0_L1I WRITE        ACCESS:          0 HIT:          0 MISS:          0
cpu0_L1I TRANSLATION  ACCESS:          0 HIT:          0 MISS:          0
cpu0_L1I PREFETCH REQUESTED:          0 ISSUED:          0 USEFUL:          0 USELESS:          0
cpu0_L1I AVERAGE MISS LATENCY: 9.063 cycles
cpu0_L2C TOTAL        ACCESS:    1668239 HIT:    1211136 MISS:     457103
cpu0_L2C LOAD         ACCESS:    1315341 HIT:     911684 MISS:     403657
cpu0_L2C RFO          ACCESS:      89577 HIT:      57062 MISS:      32515
cpu0_L2C PREFETCH     ACCESS:          0 HIT:          0 MISS:          0
cpu0_L2C WRITE        ACCESS:     240002 HIT:     238173 MISS:       1829
cpu0_L2C TRANSLATION  ACCESS:      23319 HIT:       4217 MISS:      19102
cpu0_L2C PREFETCH REQUESTED:          0 ISSUED:          0 USEFUL:          0 USELESS:          0
cpu0_L2C AVERAGE MISS LATENCY: 189.2 cycles
cpu0_STLB TOTAL        ACCESS:     508673 HIT:     485887 MISS:      22786
cpu0_STLB LOAD         ACCESS:     508673 HIT:     485887 MISS:      22786
cpu0_STLB RFO          ACCESS:          0 HIT:          0 MISS:          0
cpu0_STLB PREFETCH     ACCESS:          0 HIT:          0 MISS:          0
cpu0_STLB WRITE        ACCESS:          0 HIT:          0 MISS:          0
cpu0_STLB TRANSLATION  ACCESS:          0 HIT:          0 MISS:          0
cpu0_STLB PREFETCH REQUESTED:          0 ISSUED:          0 USEFUL:          0 USELESS:          0
cpu0_STLB AVERAGE MISS LATENCY: 281.9 cycles

DRAM Statistics

Channel 0 RQ ROW_BUFFER_HIT:      26400
  ROW_BUFFER_MISS:     112680
 AVG DBUS CONGESTED CYCLE: 3.784
WQ ROW_BUFFER_HIT: Channel 0 
  ROW_BUFFER_MISS:       5470
  FULL:      13425
