WARNING: physical memory size is smaller than virtual memory size.

*** ChampSim Multicore Out-of-Order Simulator ***
Warmup Instructions: 50000000
Simulation Instructions: 600000000
Number of CPUs: 1
Page size: 4096

Off-chip DRAM Size: 4 GiB Channels: 1 Width: 64-bit Data Race: 3200 MT/s
Heartbeat CPU 0 instructions: 10000000 cycles: 2500061 heartbeat IPC: 4 cumulative IPC: 4 (Simulation time: 00 hr 00 min 51 sec)
Heartbeat CPU 0 instructions: 20000000 cycles: 5000061 heartbeat IPC: 4 cumulative IPC: 4 (Simulation time: 00 hr 01 min 44 sec)
Heartbeat CPU 0 instructions: 30000000 cycles: 7500061 heartbeat IPC: 4 cumulative IPC: 4 (Simulation time: 00 hr 02 min 33 sec)
Heartbeat CPU 0 instructions: 40000000 cycles: 10000061 heartbeat IPC: 4 cumulative IPC: 4 (Simulation time: 00 hr 03 min 19 sec)
Heartbeat CPU 0 instructions: 50000000 cycles: 12500061 heartbeat IPC: 4 cumulative IPC: 4 (Simulation time: 00 hr 04 min 04 sec)
Warmup finished CPU 0 instructions: 50000000 cycles: 12500062 cumulative IPC: 4 (Simulation time: 00 hr 04 min 04 sec)
Warmup complete CPU 0 instructions: 50000000 cycles: 12500062 cumulative IPC: 4 (Simulation time: 00 hr 04 min 04 sec)
Heartbeat CPU 0 instructions: 60000002 cycles: 16896901 heartbeat IPC: 2.274 cumulative IPC: 2.274 (Simulation time: 00 hr 05 min 11 sec)
Heartbeat CPU 0 instructions: 70000003 cycles: 21873886 heartbeat IPC: 2.009 cumulative IPC: 2.134 (Simulation time: 00 hr 06 min 37 sec)
Heartbeat CPU 0 instructions: 80000001 cycles: 27216612 heartbeat IPC: 1.872 cumulative IPC: 2.039 (Simulation time: 00 hr 08 min 15 sec)
Heartbeat CPU 0 instructions: 90000000 cycles: 31511289 heartbeat IPC: 2.328 cumulative IPC: 2.104 (Simulation time: 00 hr 09 min 40 sec)
Heartbeat CPU 0 instructions: 100000003 cycles: 36359280 heartbeat IPC: 2.063 cumulative IPC: 2.096 (Simulation time: 00 hr 11 min 01 sec)
Heartbeat CPU 0 instructions: 110000002 cycles: 41221329 heartbeat IPC: 2.057 cumulative IPC: 2.089 (Simulation time: 00 hr 12 min 17 sec)
Heartbeat CPU 0 instructions: 120000001 cycles: 46213575 heartbeat IPC: 2.003 cumulative IPC: 2.076 (Simulation time: 00 hr 13 min 37 sec)
Heartbeat CPU 0 instructions: 130000003 cycles: 50771870 heartbeat IPC: 2.194 cumulative IPC: 2.09 (Simulation time: 00 hr 14 min 53 sec)
Heartbeat CPU 0 instructions: 140000002 cycles: 55654358 heartbeat IPC: 2.048 cumulative IPC: 2.086 (Simulation time: 00 hr 16 min 07 sec)
Heartbeat CPU 0 instructions: 150000001 cycles: 60312932 heartbeat IPC: 2.147 cumulative IPC: 2.091 (Simulation time: 00 hr 17 min 19 sec)
Heartbeat CPU 0 instructions: 160000000 cycles: 64941563 heartbeat IPC: 2.16 cumulative IPC: 2.098 (Simulation time: 00 hr 18 min 29 sec)
Heartbeat CPU 0 instructions: 170000000 cycles: 70266229 heartbeat IPC: 1.878 cumulative IPC: 2.077 (Simulation time: 00 hr 19 min 49 sec)
Heartbeat CPU 0 instructions: 180000001 cycles: 75980484 heartbeat IPC: 1.75 cumulative IPC: 2.048 (Simulation time: 00 hr 21 min 35 sec)
Heartbeat CPU 0 instructions: 190000002 cycles: 80441974 heartbeat IPC: 2.241 cumulative IPC: 2.061 (Simulation time: 00 hr 23 min 01 sec)
Heartbeat CPU 0 instructions: 200000002 cycles: 85331820 heartbeat IPC: 2.045 cumulative IPC: 2.06 (Simulation time: 00 hr 24 min 22 sec)
Heartbeat CPU 0 instructions: 210000000 cycles: 90330389 heartbeat IPC: 2.001 cumulative IPC: 2.056 (Simulation time: 00 hr 25 min 40 sec)
Heartbeat CPU 0 instructions: 220000001 cycles: 95251666 heartbeat IPC: 2.032 cumulative IPC: 2.054 (Simulation time: 00 hr 26 min 55 sec)
Heartbeat CPU 0 instructions: 230000002 cycles: 100489969 heartbeat IPC: 1.909 cumulative IPC: 2.046 (Simulation time: 00 hr 28 min 14 sec)
Heartbeat CPU 0 instructions: 240000001 cycles: 105446401 heartbeat IPC: 2.018 cumulative IPC: 2.044 (Simulation time: 00 hr 29 min 26 sec)
Heartbeat CPU 0 instructions: 250000003 cycles: 110618636 heartbeat IPC: 1.933 cumulative IPC: 2.038 (Simulation time: 00 hr 30 min 40 sec)
Heartbeat CPU 0 instructions: 260000001 cycles: 115482960 heartbeat IPC: 2.056 cumulative IPC: 2.039 (Simulation time: 00 hr 31 min 56 sec)
Heartbeat CPU 0 instructions: 270000000 cycles: 123360740 heartbeat IPC: 1.269 cumulative IPC: 1.984 (Simulation time: 00 hr 33 min 58 sec)
Heartbeat CPU 0 instructions: 280000000 cycles: 137978592 heartbeat IPC: 0.6841 cumulative IPC: 1.833 (Simulation time: 00 hr 36 min 40 sec)
Heartbeat CPU 0 instructions: 290000001 cycles: 154474746 heartbeat IPC: 0.6062 cumulative IPC: 1.69 (Simulation time: 00 hr 39 min 30 sec)
Heartbeat CPU 0 instructions: 300000003 cycles: 165066937 heartbeat IPC: 0.9441 cumulative IPC: 1.639 (Simulation time: 00 hr 41 min 29 sec)
Heartbeat CPU 0 instructions: 310000004 cycles: 180040734 heartbeat IPC: 0.6678 cumulative IPC: 1.552 (Simulation time: 00 hr 43 min 56 sec)
Heartbeat CPU 0 instructions: 320000004 cycles: 187262864 heartbeat IPC: 1.385 cumulative IPC: 1.545 (Simulation time: 00 hr 45 min 46 sec)
Heartbeat CPU 0 instructions: 330000000 cycles: 192537487 heartbeat IPC: 1.896 cumulative IPC: 1.555 (Simulation time: 00 hr 47 min 15 sec)
Heartbeat CPU 0 instructions: 340000001 cycles: 197624981 heartbeat IPC: 1.966 cumulative IPC: 1.567 (Simulation time: 00 hr 48 min 34 sec)
Heartbeat CPU 0 instructions: 350000000 cycles: 202719616 heartbeat IPC: 1.963 cumulative IPC: 1.577 (Simulation time: 00 hr 49 min 49 sec)
Heartbeat CPU 0 instructions: 360000003 cycles: 207555104 heartbeat IPC: 2.068 cumulative IPC: 1.589 (Simulation time: 00 hr 51 min 04 sec)
Heartbeat CPU 0 instructions: 370000001 cycles: 212232797 heartbeat IPC: 2.138 cumulative IPC: 1.602 (Simulation time: 00 hr 52 min 23 sec)
Heartbeat CPU 0 instructions: 380000004 cycles: 217211352 heartbeat IPC: 2.009 cumulative IPC: 1.612 (Simulation time: 00 hr 53 min 40 sec)
Heartbeat CPU 0 instructions: 390000002 cycles: 222340340 heartbeat IPC: 1.95 cumulative IPC: 1.62 (Simulation time: 00 hr 54 min 53 sec)
Heartbeat CPU 0 instructions: 400000000 cycles: 227639017 heartbeat IPC: 1.887 cumulative IPC: 1.627 (Simulation time: 00 hr 56 min 05 sec)
Heartbeat CPU 0 instructions: 410000000 cycles: 238007833 heartbeat IPC: 0.9644 cumulative IPC: 1.596 (Simulation time: 00 hr 58 min 12 sec)
Heartbeat CPU 0 instructions: 420000001 cycles: 253456897 heartbeat IPC: 0.6473 cumulative IPC: 1.536 (Simulation time: 01 hr 01 min 31 sec)
Heartbeat CPU 0 instructions: 430000000 cycles: 263825442 heartbeat IPC: 0.9645 cumulative IPC: 1.512 (Simulation time: 01 hr 03 min 46 sec)
Heartbeat CPU 0 instructions: 440000002 cycles: 274840601 heartbeat IPC: 0.9078 cumulative IPC: 1.487 (Simulation time: 01 hr 06 min 07 sec)
Heartbeat CPU 0 instructions: 450000000 cycles: 285812345 heartbeat IPC: 0.9114 cumulative IPC: 1.464 (Simulation time: 01 hr 08 min 18 sec)
Heartbeat CPU 0 instructions: 460000002 cycles: 304164766 heartbeat IPC: 0.5449 cumulative IPC: 1.406 (Simulation time: 01 hr 11 min 25 sec)
Heartbeat CPU 0 instructions: 470000000 cycles: 317111212 heartbeat IPC: 0.7724 cumulative IPC: 1.379 (Simulation time: 01 hr 14 min 24 sec)
Heartbeat CPU 0 instructions: 480000000 cycles: 322669297 heartbeat IPC: 1.799 cumulative IPC: 1.386 (Simulation time: 01 hr 15 min 52 sec)
Heartbeat CPU 0 instructions: 490000001 cycles: 327573665 heartbeat IPC: 2.039 cumulative IPC: 1.396 (Simulation time: 01 hr 17 min 07 sec)
Heartbeat CPU 0 instructions: 500000002 cycles: 332518211 heartbeat IPC: 2.022 cumulative IPC: 1.406 (Simulation time: 01 hr 18 min 28 sec)
Heartbeat CPU 0 instructions: 510000000 cycles: 337452846 heartbeat IPC: 2.026 cumulative IPC: 1.416 (Simulation time: 01 hr 19 min 50 sec)
Heartbeat CPU 0 instructions: 520000000 cycles: 342594369 heartbeat IPC: 1.945 cumulative IPC: 1.424 (Simulation time: 01 hr 21 min 05 sec)
Heartbeat CPU 0 instructions: 530000001 cycles: 358437398 heartbeat IPC: 0.6312 cumulative IPC: 1.388 (Simulation time: 01 hr 23 min 56 sec)
Heartbeat CPU 0 instructions: 540000000 cycles: 374721913 heartbeat IPC: 0.6141 cumulative IPC: 1.353 (Simulation time: 01 hr 27 min 38 sec)
Heartbeat CPU 0 instructions: 550000002 cycles: 393852232 heartbeat IPC: 0.5227 cumulative IPC: 1.311 (Simulation time: 01 hr 31 min 08 sec)
Heartbeat CPU 0 instructions: 560000004 cycles: 399233493 heartbeat IPC: 1.858 cumulative IPC: 1.319 (Simulation time: 01 hr 32 min 32 sec)
Heartbeat CPU 0 instructions: 570000001 cycles: 403651642 heartbeat IPC: 2.263 cumulative IPC: 1.329 (Simulation time: 01 hr 33 min 49 sec)
Heartbeat CPU 0 instructions: 580000003 cycles: 407894240 heartbeat IPC: 2.357 cumulative IPC: 1.34 (Simulation time: 01 hr 35 min 01 sec)
Heartbeat CPU 0 instructions: 590000001 cycles: 412803476 heartbeat IPC: 2.037 cumulative IPC: 1.349 (Simulation time: 01 hr 36 min 12 sec)
Heartbeat CPU 0 instructions: 600000003 cycles: 417445247 heartbeat IPC: 2.154 cumulative IPC: 1.358 (Simulation time: 01 hr 37 min 28 sec)
Heartbeat CPU 0 instructions: 610000001 cycles: 422312393 heartbeat IPC: 2.055 cumulative IPC: 1.366 (Simulation time: 01 hr 39 min 03 sec)
Heartbeat CPU 0 instructions: 620000000 cycles: 427380043 heartbeat IPC: 1.973 cumulative IPC: 1.374 (Simulation time: 01 hr 40 min 34 sec)
Heartbeat CPU 0 instructions: 630000002 cycles: 431625061 heartbeat IPC: 2.356 cumulative IPC: 1.384 (Simulation time: 01 hr 41 min 45 sec)
Heartbeat CPU 0 instructions: 640000004 cycles: 436929321 heartbeat IPC: 1.885 cumulative IPC: 1.39 (Simulation time: 01 hr 43 min 01 sec)
Heartbeat CPU 0 instructions: 650000001 cycles: 441684267 heartbeat IPC: 2.103 cumulative IPC: 1.398 (Simulation time: 01 hr 44 min 17 sec)
Simulation finished CPU 0 instructions: 600000001 cycles: 429184206 cumulative IPC: 1.398 (Simulation time: 01 hr 44 min 17 sec)
Simulation complete CPU 0 instructions: 600000001 cycles: 429184206 cumulative IPC: 1.398 (Simulation time: 01 hr 44 min 17 sec)

ChampSim completed all CPUs

=== Simulation ===
CPU 0 runs traces/400.perlbench-50B.champsimtrace.xz
Region of Interest Statistics

CPU 0 cumulative IPC: 1.398 instructions: 600000001 cycles: 429184206
CPU 0 Branch Prediction Accuracy: 93.83% MPKI: 12.71 Average ROB Occupancy at Mispredict: 29.79
Branch type MPKI
BRANCH_DIRECT_JUMP: 0.0176
BRANCH_INDIRECT: 0.38
BRANCH_CONDITIONAL: 11.9
BRANCH_DIRECT_CALL: 0.0067
BRANCH_INDIRECT_CALL: 0.431
BRANCH_RETURN: 0.0161

LLC TOTAL        ACCESS:    1356663 HIT:     452481 MISS:     904182
LLC LOAD         ACCESS:     579296 HIT:     214813 MISS:     364483
LLC RFO          ACCESS:      47185 HIT:      15724 MISS:      31461
LLC PREFETCH     ACCESS:     579296 HIT:     186954 MISS:     392342
LLC WRITE        ACCESS:     128909 HIT:      33620 MISS:      95289
LLC TRANSLATION  ACCESS:      21977 HIT:       1370 MISS:      20607
LLC PREFETCH REQUESTED:     579296 ISSUED:     579296 USEFUL:     112625 USELESS:     199972
LLC AVERAGE MISS LATENCY: 535 cycles
cpu0_DTLB TOTAL        ACCESS:  156744090 HIT:  155440775 MISS:    1303315
cpu0_DTLB LOAD         ACCESS:  156744090 HIT:  155440775 MISS:    1303315
cpu0_DTLB RFO          ACCESS:          0 HIT:          0 MISS:          0
cpu0_DTLB PREFETCH     ACCESS:          0 HIT:          0 MISS:          0
cpu0_DTLB WRITE        ACCESS:          0 HIT:          0 MISS:          0
cpu0_DTLB TRANSLATION  ACCESS:          0 HIT:          0 MISS:          0
cpu0_DTLB PREFETCH REQUESTED:          0 ISSUED:          0 USEFUL:          0 USELESS:          0
cpu0_DTLB AVERAGE MISS LATENCY: 18.04 cycles
cpu0_ITLB TOTAL        ACCESS:    8931391 HIT:    8732984 MISS:     198407
cpu0_ITLB LOAD         ACCESS:    8931391 HIT:    8732984 MISS:     198407
cpu0_ITLB RFO          ACCESS:          0 HIT:          0 MISS:          0
cpu0_ITLB PREFETCH     ACCESS:          0 HIT:          0 MISS:          0
cpu0_ITLB WRITE        ACCESS:          0 HIT:          0 MISS:          0
cpu0_ITLB TRANSLATION  ACCESS:          0 HIT:          0 MISS:          0
cpu0_ITLB PREFETCH REQUESTED:          0 ISSUED:          0 USEFUL:          0 USELESS:          0
cpu0_ITLB AVERAGE MISS LATENCY: 4.436 cycles
cpu0_L1D TOTAL        ACCESS:  203590654 HIT:  200677290 MISS:    2913364
cpu0_L1D LOAD         ACCESS:  117913287 HIT:  115519911 MISS:    2393376
cpu0_L1D RFO          ACCESS:          0 HIT:          0 MISS:          0
cpu0_L1D PREFETCH     ACCESS:          0 HIT:          0 MISS:          0
cpu0_L1D WRITE        ACCESS:   85648833 HIT:   85155398 MISS:     493435
cpu0_L1D TRANSLATION  ACCESS:      28534 HIT:       1981 MISS:      26553
cpu0_L1D PREFETCH REQUESTED:          0 ISSUED:          0 USEFUL:          0 USELESS:          0
cpu0_L1D AVERAGE MISS LATENCY: 83.33 cycles
cpu0_L1I TOTAL        ACCESS:   10370493 HIT:    8573237 MISS:    1797256
cpu0_L1I LOAD         ACCESS:   10370493 HIT:    8573237 MISS:    1797256
cpu0_L1I RFO          ACCESS:          0 HIT:          0 MISS:          0
cpu0_L1I PREFETCH     ACCESS:          0 HIT:          0 MISS:          0
cpu0_L1I WRITE        ACCESS:          0 HIT:          0 MISS:          0
cpu0_L1I TRANSLATION  ACCESS:          0 HIT:          0 MISS:          0
cpu0_L1I PREFETCH REQUESTED:          0 ISSUED:          0 USEFUL:          0 USELESS:          0
cpu0_L1I AVERAGE MISS LATENCY: 29.72 cycles
cpu0_L2C TOTAL        ACCESS:    3234941 HIT:    2580256 MISS:     654685
cpu0_L2C LOAD         ACCESS:    2711641 HIT:    2132345 MISS:     579296
cpu0_L2C RFO          ACCESS:     133627 HIT:      86442 MISS:      47185
cpu0_L2C PREFETCH     ACCESS:          0 HIT:          0 MISS:          0
cpu0_L2C WRITE        ACCESS:     363209 HIT:     356982 MISS:       6227
cpu0_L2C TRANSLATION  ACCESS:      26464 HIT:       4487 MISS:      21977
cpu0_L2C PREFETCH REQUESTED:          0 ISSUED:          0 USEFUL:          0 USELESS:          0
cpu0_L2C AVERAGE MISS LATENCY: 422.1 cycles
cpu0_STLB TOTAL        ACCESS:    1009290 HIT:     982601 MISS:      26689
cpu0_STLB LOAD         ACCESS:    1009290 HIT:     982601 MISS:      26689
cpu0_STLB RFO          ACCESS:          0 HIT:          0 MISS:          0
cpu0_STLB PREFETCH     ACCESS:          0 HIT:          0 MISS:          0
cpu0_STLB WRITE        ACCESS:          0 HIT:          0 MISS:          0
cpu0_STLB TRANSLATION  ACCESS:          0 HIT:          0 MISS:          0
cpu0_STLB PREFETCH REQUESTED:          0 ISSUED:          0 USEFUL:          0 USELESS:          0
cpu0_STLB AVERAGE MISS LATENCY: 682.4 cycles

DRAM Statistics

Channel 0 RQ ROW_BUFFER_HIT:     100207
  ROW_BUFFER_MISS:     610030
 AVG DBUS CONGESTED CYCLE: 3.895
WQ ROW_BUFFER_HIT: Channel 0 
  ROW_BUFFER_MISS:      11597
  FULL:      93540
