WARNING: physical memory size is smaller than virtual memory size.

*** ChampSim Multicore Out-of-Order Simulator ***
Warmup Instructions: 50000000
Simulation Instructions: 600000000
Number of CPUs: 1
Page size: 4096

Off-chip DRAM Size: 4 GiB Channels: 1 Width: 64-bit Data Race: 3200 MT/s
Heartbeat CPU 0 instructions: 10000000 cycles: 2500061 heartbeat IPC: 4 cumulative IPC: 4 (Simulation time: 00 hr 00 min 48 sec)
Heartbeat CPU 0 instructions: 20000000 cycles: 5000061 heartbeat IPC: 4 cumulative IPC: 4 (Simulation time: 00 hr 01 min 32 sec)
Heartbeat CPU 0 instructions: 30000000 cycles: 7500061 heartbeat IPC: 4 cumulative IPC: 4 (Simulation time: 00 hr 02 min 22 sec)
Heartbeat CPU 0 instructions: 40000000 cycles: 10000061 heartbeat IPC: 4 cumulative IPC: 4 (Simulation time: 00 hr 03 min 14 sec)
Heartbeat CPU 0 instructions: 50000000 cycles: 12500061 heartbeat IPC: 4 cumulative IPC: 4 (Simulation time: 00 hr 04 min 00 sec)
Warmup finished CPU 0 instructions: 50000000 cycles: 12500062 cumulative IPC: 4 (Simulation time: 00 hr 04 min 00 sec)
Warmup complete CPU 0 instructions: 50000000 cycles: 12500062 cumulative IPC: 4 (Simulation time: 00 hr 04 min 00 sec)
Heartbeat CPU 0 instructions: 60000002 cycles: 16444688 heartbeat IPC: 2.535 cumulative IPC: 2.535 (Simulation time: 00 hr 05 min 00 sec)
Heartbeat CPU 0 instructions: 70000003 cycles: 20760893 heartbeat IPC: 2.317 cumulative IPC: 2.421 (Simulation time: 00 hr 06 min 00 sec)
Heartbeat CPU 0 instructions: 80000003 cycles: 25229157 heartbeat IPC: 2.238 cumulative IPC: 2.357 (Simulation time: 00 hr 06 min 59 sec)
Heartbeat CPU 0 instructions: 90000000 cycles: 28920814 heartbeat IPC: 2.709 cumulative IPC: 2.436 (Simulation time: 00 hr 07 min 53 sec)
Heartbeat CPU 0 instructions: 100000003 cycles: 32818788 heartbeat IPC: 2.565 cumulative IPC: 2.461 (Simulation time: 00 hr 08 min 46 sec)
Heartbeat CPU 0 instructions: 110000002 cycles: 36920325 heartbeat IPC: 2.438 cumulative IPC: 2.457 (Simulation time: 00 hr 09 min 40 sec)
Heartbeat CPU 0 instructions: 120000001 cycles: 40635683 heartbeat IPC: 2.692 cumulative IPC: 2.488 (Simulation time: 00 hr 10 min 32 sec)
Heartbeat CPU 0 instructions: 130000003 cycles: 44404658 heartbeat IPC: 2.653 cumulative IPC: 2.507 (Simulation time: 00 hr 11 min 24 sec)
Heartbeat CPU 0 instructions: 140000002 cycles: 48538024 heartbeat IPC: 2.419 cumulative IPC: 2.497 (Simulation time: 00 hr 12 min 19 sec)
Heartbeat CPU 0 instructions: 150000001 cycles: 52589949 heartbeat IPC: 2.468 cumulative IPC: 2.494 (Simulation time: 00 hr 13 min 13 sec)
Heartbeat CPU 0 instructions: 160000000 cycles: 56247531 heartbeat IPC: 2.734 cumulative IPC: 2.514 (Simulation time: 00 hr 14 min 04 sec)
Heartbeat CPU 0 instructions: 170000001 cycles: 60421737 heartbeat IPC: 2.396 cumulative IPC: 2.504 (Simulation time: 00 hr 14 min 58 sec)
Heartbeat CPU 0 instructions: 180000001 cycles: 63882371 heartbeat IPC: 2.89 cumulative IPC: 2.53 (Simulation time: 00 hr 15 min 48 sec)
Heartbeat CPU 0 instructions: 190000002 cycles: 67465761 heartbeat IPC: 2.791 cumulative IPC: 2.547 (Simulation time: 00 hr 16 min 41 sec)
Heartbeat CPU 0 instructions: 200000002 cycles: 71249161 heartbeat IPC: 2.643 cumulative IPC: 2.553 (Simulation time: 00 hr 17 min 33 sec)
Heartbeat CPU 0 instructions: 210000000 cycles: 74888079 heartbeat IPC: 2.748 cumulative IPC: 2.565 (Simulation time: 00 hr 18 min 25 sec)
Heartbeat CPU 0 instructions: 220000001 cycles: 78754029 heartbeat IPC: 2.587 cumulative IPC: 2.566 (Simulation time: 00 hr 19 min 18 sec)
Heartbeat CPU 0 instructions: 230000002 cycles: 82594747 heartbeat IPC: 2.604 cumulative IPC: 2.568 (Simulation time: 00 hr 20 min 10 sec)
Heartbeat CPU 0 instructions: 240000001 cycles: 86801493 heartbeat IPC: 2.377 cumulative IPC: 2.557 (Simulation time: 00 hr 21 min 05 sec)
Heartbeat CPU 0 instructions: 250000003 cycles: 91366485 heartbeat IPC: 2.191 cumulative IPC: 2.536 (Simulation time: 00 hr 22 min 01 sec)
Heartbeat CPU 0 instructions: 260000000 cycles: 95158973 heartbeat IPC: 2.637 cumulative IPC: 2.541 (Simulation time: 00 hr 22 min 54 sec)
Heartbeat CPU 0 instructions: 270000003 cycles: 102228918 heartbeat IPC: 1.414 cumulative IPC: 2.452 (Simulation time: 00 hr 24 min 08 sec)
Heartbeat CPU 0 instructions: 280000000 cycles: 112838894 heartbeat IPC: 0.9425 cumulative IPC: 2.292 (Simulation time: 00 hr 25 min 48 sec)
Heartbeat CPU 0 instructions: 290000000 cycles: 122457502 heartbeat IPC: 1.04 cumulative IPC: 2.183 (Simulation time: 00 hr 27 min 23 sec)
Heartbeat CPU 0 instructions: 300000003 cycles: 129708611 heartbeat IPC: 1.379 cumulative IPC: 2.133 (Simulation time: 00 hr 28 min 45 sec)
Heartbeat CPU 0 instructions: 310000004 cycles: 139769004 heartbeat IPC: 0.994 cumulative IPC: 2.043 (Simulation time: 00 hr 30 min 25 sec)
Heartbeat CPU 0 instructions: 320000004 cycles: 144703596 heartbeat IPC: 2.027 cumulative IPC: 2.042 (Simulation time: 00 hr 31 min 28 sec)
Heartbeat CPU 0 instructions: 330000000 cycles: 148766256 heartbeat IPC: 2.461 cumulative IPC: 2.055 (Simulation time: 00 hr 32 min 24 sec)
Heartbeat CPU 0 instructions: 340000001 cycles: 153007756 heartbeat IPC: 2.358 cumulative IPC: 2.064 (Simulation time: 00 hr 33 min 20 sec)
Heartbeat CPU 0 instructions: 350000004 cycles: 157397093 heartbeat IPC: 2.278 cumulative IPC: 2.07 (Simulation time: 00 hr 34 min 18 sec)
Heartbeat CPU 0 instructions: 360000003 cycles: 161498259 heartbeat IPC: 2.438 cumulative IPC: 2.081 (Simulation time: 00 hr 35 min 13 sec)
Heartbeat CPU 0 instructions: 370000001 cycles: 165519641 heartbeat IPC: 2.487 cumulative IPC: 2.091 (Simulation time: 00 hr 36 min 08 sec)
Heartbeat CPU 0 instructions: 380000004 cycles: 169404840 heartbeat IPC: 2.574 cumulative IPC: 2.103 (Simulation time: 00 hr 37 min 03 sec)
Heartbeat CPU 0 instructions: 390000002 cycles: 173457111 heartbeat IPC: 2.468 cumulative IPC: 2.112 (Simulation time: 00 hr 37 min 58 sec)
Heartbeat CPU 0 instructions: 400000000 cycles: 177784893 heartbeat IPC: 2.311 cumulative IPC: 2.118 (Simulation time: 00 hr 38 min 55 sec)
Heartbeat CPU 0 instructions: 410000000 cycles: 185114602 heartbeat IPC: 1.364 cumulative IPC: 2.086 (Simulation time: 00 hr 40 min 13 sec)
Heartbeat CPU 0 instructions: 420000003 cycles: 195818136 heartbeat IPC: 0.9343 cumulative IPC: 2.018 (Simulation time: 00 hr 41 min 55 sec)
Heartbeat CPU 0 instructions: 430000000 cycles: 202803639 heartbeat IPC: 1.432 cumulative IPC: 1.997 (Simulation time: 00 hr 43 min 15 sec)
Heartbeat CPU 0 instructions: 440000004 cycles: 209334541 heartbeat IPC: 1.531 cumulative IPC: 1.981 (Simulation time: 00 hr 44 min 29 sec)
Heartbeat CPU 0 instructions: 450000001 cycles: 216215036 heartbeat IPC: 1.453 cumulative IPC: 1.964 (Simulation time: 00 hr 45 min 46 sec)
Heartbeat CPU 0 instructions: 460000002 cycles: 226425443 heartbeat IPC: 0.9794 cumulative IPC: 1.917 (Simulation time: 00 hr 47 min 26 sec)
Heartbeat CPU 0 instructions: 470000003 cycles: 234996969 heartbeat IPC: 1.167 cumulative IPC: 1.888 (Simulation time: 00 hr 48 min 55 sec)
Heartbeat CPU 0 instructions: 480000003 cycles: 239128201 heartbeat IPC: 2.421 cumulative IPC: 1.897 (Simulation time: 00 hr 49 min 51 sec)
Heartbeat CPU 0 instructions: 490000001 cycles: 243604264 heartbeat IPC: 2.234 cumulative IPC: 1.904 (Simulation time: 00 hr 50 min 49 sec)
Heartbeat CPU 0 instructions: 500000002 cycles: 247912664 heartbeat IPC: 2.321 cumulative IPC: 1.912 (Simulation time: 00 hr 51 min 47 sec)
Heartbeat CPU 0 instructions: 510000000 cycles: 252083319 heartbeat IPC: 2.398 cumulative IPC: 1.92 (Simulation time: 00 hr 52 min 43 sec)
Heartbeat CPU 0 instructions: 520000000 cycles: 256445642 heartbeat IPC: 2.292 cumulative IPC: 1.927 (Simulation time: 00 hr 53 min 41 sec)
Heartbeat CPU 0 instructions: 530000001 cycles: 267038022 heartbeat IPC: 0.9441 cumulative IPC: 1.886 (Simulation time: 00 hr 55 min 21 sec)
Heartbeat CPU 0 instructions: 540000000 cycles: 276945476 heartbeat IPC: 1.009 cumulative IPC: 1.853 (Simulation time: 00 hr 56 min 57 sec)
Heartbeat CPU 0 instructions: 550000004 cycles: 287631312 heartbeat IPC: 0.9358 cumulative IPC: 1.817 (Simulation time: 00 hr 58 min 37 sec)
Heartbeat CPU 0 instructions: 560000004 cycles: 291657646 heartbeat IPC: 2.484 cumulative IPC: 1.827 (Simulation time: 00 hr 59 min 30 sec)
Heartbeat CPU 0 instructions: 570000001 cycles: 294765077 heartbeat IPC: 3.218 cumulative IPC: 1.842 (Simulation time: 01 hr 00 min 18 sec)
Heartbeat CPU 0 instructions: 580000003 cycles: 298273818 heartbeat IPC: 2.85 cumulative IPC: 1.855 (Simulation time: 01 hr 01 min 07 sec)
Heartbeat CPU 0 instructions: 590000002 cycles: 301870302 heartbeat IPC: 2.78 cumulative IPC: 1.866 (Simulation time: 01 hr 01 min 53 sec)
Heartbeat CPU 0 instructions: 600000003 cycles: 304911294 heartbeat IPC: 3.288 cumulative IPC: 1.881 (Simulation time: 01 hr 02 min 38 sec)
Heartbeat CPU 0 instructions: 610000001 cycles: 308398261 heartbeat IPC: 2.868 cumulative IPC: 1.893 (Simulation time: 01 hr 03 min 21 sec)
Heartbeat CPU 0 instructions: 620000000 cycles: 312399610 heartbeat IPC: 2.499 cumulative IPC: 1.901 (Simulation time: 01 hr 04 min 04 sec)
Heartbeat CPU 0 instructions: 630000002 cycles: 315753559 heartbeat IPC: 2.982 cumulative IPC: 1.913 (Simulation time: 01 hr 04 min 44 sec)
Heartbeat CPU 0 instructions: 640000004 cycles: 319750847 heartbeat IPC: 2.502 cumulative IPC: 1.92 (Simulation time: 01 hr 05 min 19 sec)
Heartbeat CPU 0 instructions: 650000001 cycles: 323564945 heartbeat IPC: 2.622 cumulative IPC: 1.929 (Simulation time: 01 hr 05 min 48 sec)
Simulation finished CPU 0 instructions: 600000001 cycles: 311064884 cumulative IPC: 1.929 (Simulation time: 01 hr 05 min 48 sec)
Simulation complete CPU 0 instructions: 600000001 cycles: 311064884 cumulative IPC: 1.929 (Simulation time: 01 hr 05 min 48 sec)

ChampSim completed all CPUs

=== Simulation ===
CPU 0 runs traces/400.perlbench-50B.champsimtrace.xz
Region of Interest Statistics

CPU 0 cumulative IPC: 1.929 instructions: 600000001 cycles: 311064884
CPU 0 Branch Prediction Accuracy: 96.2% MPKI: 7.839 Average ROB Occupancy at Mispredict: 43.54
Branch type MPKI
BRANCH_DIRECT_JUMP: 0.0176
BRANCH_INDIRECT: 0.38
BRANCH_CONDITIONAL: 6.99
BRANCH_DIRECT_CALL: 0.0067
BRANCH_INDIRECT_CALL: 0.431
BRANCH_RETURN: 0.0161

LLC TOTAL        ACCESS:     838324 HIT:     573952 MISS:     264372
LLC LOAD         ACCESS:     577041 HIT:     368309 MISS:     208732
LLC RFO          ACCESS:      47507 HIT:      31633 MISS:      15874
LLC PREFETCH     ACCESS:      64422 HIT:      40207 MISS:      24215
LLC WRITE        ACCESS:     127261 HIT:     121851 MISS:       5410
LLC TRANSLATION  ACCESS:      22093 HIT:      11952 MISS:      10141
LLC PREFETCH REQUESTED:      64422 ISSUED:      64422 USEFUL:      15309 USELESS:       3798
LLC AVERAGE MISS LATENCY: 510.4 cycles
cpu0_DTLB TOTAL        ACCESS:  146517410 HIT:  145211179 MISS:    1306231
cpu0_DTLB LOAD         ACCESS:  146517410 HIT:  145211179 MISS:    1306231
cpu0_DTLB RFO          ACCESS:          0 HIT:          0 MISS:          0
cpu0_DTLB PREFETCH     ACCESS:          0 HIT:          0 MISS:          0
cpu0_DTLB WRITE        ACCESS:          0 HIT:          0 MISS:          0
cpu0_DTLB TRANSLATION  ACCESS:          0 HIT:          0 MISS:          0
cpu0_DTLB PREFETCH REQUESTED:          0 ISSUED:          0 USEFUL:          0 USELESS:          0
cpu0_DTLB AVERAGE MISS LATENCY: 10.71 cycles
cpu0_ITLB TOTAL        ACCESS:    8989835 HIT:    8805341 MISS:     184494
cpu0_ITLB LOAD         ACCESS:    8989835 HIT:    8805341 MISS:     184494
cpu0_ITLB RFO          ACCESS:          0 HIT:          0 MISS:          0
cpu0_ITLB PREFETCH     ACCESS:          0 HIT:          0 MISS:          0
cpu0_ITLB WRITE        ACCESS:          0 HIT:          0 MISS:          0
cpu0_ITLB TRANSLATION  ACCESS:          0 HIT:          0 MISS:          0
cpu0_ITLB PREFETCH REQUESTED:          0 ISSUED:          0 USEFUL:          0 USELESS:          0
cpu0_ITLB AVERAGE MISS LATENCY: 3.208 cycles
cpu0_L1D TOTAL        ACCESS:  193295655 HIT:  189641006 MISS:    3654649
cpu0_L1D LOAD         ACCESS:  107449246 HIT:  104441618 MISS:    3007628
cpu0_L1D RFO          ACCESS:          0 HIT:          0 MISS:          0
cpu0_L1D PREFETCH     ACCESS:          0 HIT:          0 MISS:          0
cpu0_L1D WRITE        ACCESS:   85817888 HIT:   85197961 MISS:     619927
cpu0_L1D TRANSLATION  ACCESS:      28521 HIT:       1427 MISS:      27094
cpu0_L1D PREFETCH REQUESTED:          0 ISSUED:          0 USEFUL:          0 USELESS:          0
cpu0_L1D AVERAGE MISS LATENCY: 39.03 cycles
cpu0_L1I TOTAL        ACCESS:   10424051 HIT:    8661670 MISS:    1762381
cpu0_L1I LOAD         ACCESS:   10424051 HIT:    8661670 MISS:    1762381
cpu0_L1I RFO          ACCESS:          0 HIT:          0 MISS:          0
cpu0_L1I PREFETCH     ACCESS:          0 HIT:          0 MISS:          0
cpu0_L1I WRITE        ACCESS:          0 HIT:          0 MISS:          0
cpu0_L1I TRANSLATION  ACCESS:          0 HIT:          0 MISS:          0
cpu0_L1I PREFETCH REQUESTED:          0 ISSUED:          0 USEFUL:          0 USELESS:          0
cpu0_L1I AVERAGE MISS LATENCY: 10.28 cycles
cpu0_L2C TOTAL        ACCESS:    3834746 HIT:    3184939 MISS:     649807
cpu0_L2C LOAD         ACCESS:    3104991 HIT:    2527950 MISS:     577041
cpu0_L2C RFO          ACCESS:     191561 HIT:     144053 MISS:      47508
cpu0_L2C PREFETCH     ACCESS:          0 HIT:          0 MISS:          0
cpu0_L2C WRITE        ACCESS:     511161 HIT:     507996 MISS:       3165
cpu0_L2C TRANSLATION  ACCESS:      27033 HIT:       4940 MISS:      22093
cpu0_L2C PREFETCH REQUESTED:          0 ISSUED:          0 USEFUL:          0 USELESS:          0
cpu0_L2C AVERAGE MISS LATENCY: 207 cycles
cpu0_STLB TOTAL        ACCESS:    1008420 HIT:     981727 MISS:      26693
cpu0_STLB LOAD         ACCESS:    1008420 HIT:     981727 MISS:      26693
cpu0_STLB RFO          ACCESS:          0 HIT:          0 MISS:          0
cpu0_STLB PREFETCH     ACCESS:          0 HIT:          0 MISS:          0
cpu0_STLB WRITE        ACCESS:          0 HIT:          0 MISS:          0
cpu0_STLB TRANSLATION  ACCESS:          0 HIT:          0 MISS:          0
cpu0_STLB PREFETCH REQUESTED:          0 ISSUED:          0 USEFUL:          0 USELESS:          0
cpu0_STLB AVERAGE MISS LATENCY: 301.6 cycles

DRAM Statistics

Channel 0 RQ ROW_BUFFER_HIT:      58358
  ROW_BUFFER_MISS:     196253
 AVG DBUS CONGESTED CYCLE: 3.784
WQ ROW_BUFFER_HIT: Channel 0 
  ROW_BUFFER_MISS:       7820
  FULL:      21809
