WARNING: physical memory size is smaller than virtual memory size.

*** ChampSim Multicore Out-of-Order Simulator ***
Warmup Instructions: 50000000
Simulation Instructions: 600000000
Number of CPUs: 1
Page size: 4096

Off-chip DRAM Size: 4 GiB Channels: 1 Width: 64-bit Data Race: 3200 MT/s
Heartbeat CPU 0 instructions: 10000000 cycles: 2500061 heartbeat IPC: 4 cumulative IPC: 4 (Simulation time: 00 hr 00 min 14 sec)
Heartbeat CPU 0 instructions: 20000000 cycles: 5000061 heartbeat IPC: 4 cumulative IPC: 4 (Simulation time: 00 hr 00 min 28 sec)
Heartbeat CPU 0 instructions: 30000000 cycles: 7500061 heartbeat IPC: 4 cumulative IPC: 4 (Simulation time: 00 hr 00 min 50 sec)
Heartbeat CPU 0 instructions: 40000000 cycles: 10000061 heartbeat IPC: 4 cumulative IPC: 4 (Simulation time: 00 hr 01 min 16 sec)
Heartbeat CPU 0 instructions: 50000000 cycles: 12500061 heartbeat IPC: 4 cumulative IPC: 4 (Simulation time: 00 hr 01 min 49 sec)
Warmup finished CPU 0 instructions: 50000000 cycles: 12500062 cumulative IPC: 4 (Simulation time: 00 hr 01 min 49 sec)
Warmup complete CPU 0 instructions: 50000000 cycles: 12500062 cumulative IPC: 4 (Simulation time: 00 hr 01 min 49 sec)
Heartbeat CPU 0 instructions: 60000002 cycles: 16896901 heartbeat IPC: 2.274 cumulative IPC: 2.274 (Simulation time: 00 hr 02 min 44 sec)
Heartbeat CPU 0 instructions: 70000003 cycles: 21873886 heartbeat IPC: 2.009 cumulative IPC: 2.134 (Simulation time: 00 hr 03 min 47 sec)
Heartbeat CPU 0 instructions: 80000001 cycles: 27216612 heartbeat IPC: 1.872 cumulative IPC: 2.039 (Simulation time: 00 hr 05 min 08 sec)
Heartbeat CPU 0 instructions: 90000000 cycles: 31511289 heartbeat IPC: 2.328 cumulative IPC: 2.104 (Simulation time: 00 hr 06 min 21 sec)
Heartbeat CPU 0 instructions: 100000003 cycles: 36359280 heartbeat IPC: 2.063 cumulative IPC: 2.096 (Simulation time: 00 hr 07 min 41 sec)
Heartbeat CPU 0 instructions: 110000002 cycles: 41221329 heartbeat IPC: 2.057 cumulative IPC: 2.089 (Simulation time: 00 hr 08 min 55 sec)
Heartbeat CPU 0 instructions: 120000001 cycles: 46213575 heartbeat IPC: 2.003 cumulative IPC: 2.076 (Simulation time: 00 hr 10 min 08 sec)
Heartbeat CPU 0 instructions: 130000003 cycles: 50771870 heartbeat IPC: 2.194 cumulative IPC: 2.09 (Simulation time: 00 hr 11 min 18 sec)
Heartbeat CPU 0 instructions: 140000002 cycles: 55654358 heartbeat IPC: 2.048 cumulative IPC: 2.086 (Simulation time: 00 hr 12 min 31 sec)
Heartbeat CPU 0 instructions: 150000001 cycles: 60312932 heartbeat IPC: 2.147 cumulative IPC: 2.091 (Simulation time: 00 hr 13 min 43 sec)
Heartbeat CPU 0 instructions: 160000000 cycles: 64941563 heartbeat IPC: 2.16 cumulative IPC: 2.098 (Simulation time: 00 hr 14 min 57 sec)
Heartbeat CPU 0 instructions: 170000000 cycles: 70266229 heartbeat IPC: 1.878 cumulative IPC: 2.077 (Simulation time: 00 hr 16 min 15 sec)
Heartbeat CPU 0 instructions: 180000001 cycles: 75980484 heartbeat IPC: 1.75 cumulative IPC: 2.048 (Simulation time: 00 hr 17 min 33 sec)
Heartbeat CPU 0 instructions: 190000002 cycles: 80441974 heartbeat IPC: 2.241 cumulative IPC: 2.061 (Simulation time: 00 hr 18 min 36 sec)
Heartbeat CPU 0 instructions: 200000002 cycles: 85331820 heartbeat IPC: 2.045 cumulative IPC: 2.06 (Simulation time: 00 hr 19 min 40 sec)
Heartbeat CPU 0 instructions: 210000000 cycles: 90331024 heartbeat IPC: 2 cumulative IPC: 2.056 (Simulation time: 00 hr 20 min 45 sec)
Heartbeat CPU 0 instructions: 220000001 cycles: 95252546 heartbeat IPC: 2.032 cumulative IPC: 2.054 (Simulation time: 00 hr 21 min 50 sec)
Heartbeat CPU 0 instructions: 230000002 cycles: 100492544 heartbeat IPC: 1.908 cumulative IPC: 2.046 (Simulation time: 00 hr 22 min 55 sec)
Heartbeat CPU 0 instructions: 240000001 cycles: 105449256 heartbeat IPC: 2.017 cumulative IPC: 2.044 (Simulation time: 00 hr 24 min 01 sec)
Heartbeat CPU 0 instructions: 250000003 cycles: 110623212 heartbeat IPC: 1.933 cumulative IPC: 2.038 (Simulation time: 00 hr 25 min 10 sec)
Heartbeat CPU 0 instructions: 260000001 cycles: 115492536 heartbeat IPC: 2.054 cumulative IPC: 2.039 (Simulation time: 00 hr 26 min 18 sec)
Heartbeat CPU 0 instructions: 270000000 cycles: 122957571 heartbeat IPC: 1.34 cumulative IPC: 1.992 (Simulation time: 00 hr 27 min 48 sec)
Heartbeat CPU 0 instructions: 280000000 cycles: 134234037 heartbeat IPC: 0.8868 cumulative IPC: 1.889 (Simulation time: 00 hr 29 min 53 sec)
Heartbeat CPU 0 instructions: 290000001 cycles: 143960922 heartbeat IPC: 1.028 cumulative IPC: 1.826 (Simulation time: 00 hr 31 min 43 sec)
Heartbeat CPU 0 instructions: 300000003 cycles: 151485939 heartbeat IPC: 1.329 cumulative IPC: 1.799 (Simulation time: 00 hr 33 min 19 sec)
Heartbeat CPU 0 instructions: 310000004 cycles: 162744076 heartbeat IPC: 0.8882 cumulative IPC: 1.731 (Simulation time: 00 hr 36 min 05 sec)
Heartbeat CPU 0 instructions: 320000004 cycles: 168474384 heartbeat IPC: 1.745 cumulative IPC: 1.731 (Simulation time: 00 hr 37 min 38 sec)
Heartbeat CPU 0 instructions: 330000000 cycles: 173763360 heartbeat IPC: 1.891 cumulative IPC: 1.736 (Simulation time: 00 hr 39 min 00 sec)
Heartbeat CPU 0 instructions: 340000001 cycles: 178963264 heartbeat IPC: 1.923 cumulative IPC: 1.742 (Simulation time: 00 hr 40 min 17 sec)
Heartbeat CPU 0 instructions: 350000000 cycles: 184354275 heartbeat IPC: 1.855 cumulative IPC: 1.746 (Simulation time: 00 hr 41 min 33 sec)
Heartbeat CPU 0 instructions: 360000003 cycles: 189524948 heartbeat IPC: 1.934 cumulative IPC: 1.751 (Simulation time: 00 hr 42 min 42 sec)
Heartbeat CPU 0 instructions: 370000001 cycles: 194600362 heartbeat IPC: 1.97 cumulative IPC: 1.757 (Simulation time: 00 hr 43 min 54 sec)
Heartbeat CPU 0 instructions: 380000004 cycles: 199960536 heartbeat IPC: 1.866 cumulative IPC: 1.76 (Simulation time: 00 hr 45 min 07 sec)
Heartbeat CPU 0 instructions: 390000002 cycles: 205375227 heartbeat IPC: 1.847 cumulative IPC: 1.763 (Simulation time: 00 hr 46 min 25 sec)
Heartbeat CPU 0 instructions: 400000000 cycles: 210865203 heartbeat IPC: 1.822 cumulative IPC: 1.764 (Simulation time: 00 hr 48 min 10 sec)
Heartbeat CPU 0 instructions: 410000000 cycles: 218911785 heartbeat IPC: 1.243 cumulative IPC: 1.744 (Simulation time: 00 hr 50 min 11 sec)
Heartbeat CPU 0 instructions: 420000001 cycles: 229937354 heartbeat IPC: 0.907 cumulative IPC: 1.702 (Simulation time: 00 hr 52 min 29 sec)
Heartbeat CPU 0 instructions: 430000000 cycles: 237634378 heartbeat IPC: 1.299 cumulative IPC: 1.688 (Simulation time: 00 hr 54 min 09 sec)
Heartbeat CPU 0 instructions: 440000002 cycles: 244761140 heartbeat IPC: 1.403 cumulative IPC: 1.679 (Simulation time: 00 hr 55 min 46 sec)
Heartbeat CPU 0 instructions: 450000000 cycles: 251496304 heartbeat IPC: 1.485 cumulative IPC: 1.674 (Simulation time: 00 hr 57 min 16 sec)
Heartbeat CPU 0 instructions: 460000002 cycles: 262510215 heartbeat IPC: 0.9079 cumulative IPC: 1.64 (Simulation time: 00 hr 59 min 20 sec)
Heartbeat CPU 0 instructions: 470000000 cycles: 272708272 heartbeat IPC: 0.9806 cumulative IPC: 1.614 (Simulation time: 01 hr 01 min 53 sec)
Heartbeat CPU 0 instructions: 480000000 cycles: 278185677 heartbeat IPC: 1.826 cumulative IPC: 1.618 (Simulation time: 01 hr 03 min 26 sec)
Heartbeat CPU 0 instructions: 490000001 cycles: 283904064 heartbeat IPC: 1.749 cumulative IPC: 1.621 (Simulation time: 01 hr 04 min 55 sec)
Heartbeat CPU 0 instructions: 500000002 cycles: 289509308 heartbeat IPC: 1.784 cumulative IPC: 1.624 (Simulation time: 01 hr 06 min 18 sec)
Heartbeat CPU 0 instructions: 510000000 cycles: 295187556 heartbeat IPC: 1.761 cumulative IPC: 1.627 (Simulation time: 01 hr 07 min 37 sec)
Heartbeat CPU 0 instructions: 520000000 cycles: 300945614 heartbeat IPC: 1.737 cumulative IPC: 1.629 (Simulation time: 01 hr 09 min 01 sec)
Heartbeat CPU 0 instructions: 530000001 cycles: 312117868 heartbeat IPC: 0.8951 cumulative IPC: 1.602 (Simulation time: 01 hr 11 min 07 sec)
Heartbeat CPU 0 instructions: 540000000 cycles: 323013256 heartbeat IPC: 0.9178 cumulative IPC: 1.578 (Simulation time: 01 hr 13 min 31 sec)
Heartbeat CPU 0 instructions: 550000002 cycles: 335639907 heartbeat IPC: 0.792 cumulative IPC: 1.547 (Simulation time: 01 hr 16 min 13 sec)
Heartbeat CPU 0 instructions: 560000004 cycles: 340624045 heartbeat IPC: 2.006 cumulative IPC: 1.554 (Simulation time: 01 hr 17 min 32 sec)
Heartbeat CPU 0 instructions: 570000001 cycles: 345034878 heartbeat IPC: 2.267 cumulative IPC: 1.564 (Simulation time: 01 hr 18 min 43 sec)
Heartbeat CPU 0 instructions: 580000003 cycles: 349273269 heartbeat IPC: 2.359 cumulative IPC: 1.574 (Simulation time: 01 hr 19 min 55 sec)
Heartbeat CPU 0 instructions: 590000001 cycles: 354178482 heartbeat IPC: 2.039 cumulative IPC: 1.58 (Simulation time: 01 hr 21 min 10 sec)
Heartbeat CPU 0 instructions: 600000003 cycles: 358820901 heartbeat IPC: 2.154 cumulative IPC: 1.588 (Simulation time: 01 hr 22 min 25 sec)
Heartbeat CPU 0 instructions: 610000001 cycles: 363685343 heartbeat IPC: 2.056 cumulative IPC: 1.595 (Simulation time: 01 hr 23 min 43 sec)
Heartbeat CPU 0 instructions: 620000000 cycles: 368752752 heartbeat IPC: 1.973 cumulative IPC: 1.6 (Simulation time: 01 hr 25 min 13 sec)
Heartbeat CPU 0 instructions: 630000002 cycles: 372995521 heartbeat IPC: 2.357 cumulative IPC: 1.609 (Simulation time: 01 hr 26 min 53 sec)
Heartbeat CPU 0 instructions: 640000004 cycles: 378317577 heartbeat IPC: 1.879 cumulative IPC: 1.613 (Simulation time: 01 hr 28 min 23 sec)
Heartbeat CPU 0 instructions: 650000001 cycles: 383078322 heartbeat IPC: 2.101 cumulative IPC: 1.619 (Simulation time: 01 hr 29 min 39 sec)
Simulation finished CPU 0 instructions: 600000001 cycles: 370578261 cumulative IPC: 1.619 (Simulation time: 01 hr 29 min 39 sec)
Simulation complete CPU 0 instructions: 600000001 cycles: 370578261 cumulative IPC: 1.619 (Simulation time: 01 hr 29 min 39 sec)

ChampSim completed all CPUs

=== Simulation ===
CPU 0 runs traces/400.perlbench-50B.champsimtrace.xz
Region of Interest Statistics

CPU 0 cumulative IPC: 1.619 instructions: 600000001 cycles: 370578261
CPU 0 Branch Prediction Accuracy: 93.83% MPKI: 12.71 Average ROB Occupancy at Mispredict: 29.29
Branch type MPKI
BRANCH_DIRECT_JUMP: 0.0176
BRANCH_INDIRECT: 0.38
BRANCH_CONDITIONAL: 11.9
BRANCH_DIRECT_CALL: 0.0067
BRANCH_INDIRECT_CALL: 0.431
BRANCH_RETURN: 0.0161

LLC TOTAL        ACCESS:    1383631 HIT:     897551 MISS:     486080
LLC LOAD         ACCESS:     591981 HIT:     373271 MISS:     218710
LLC RFO          ACCESS:      47356 HIT:      26925 MISS:      20431
LLC PREFETCH     ACCESS:     591981 HIT:     358575 MISS:     233406
LLC WRITE        ACCESS:     130453 HIT:     129681 MISS:        772
LLC TRANSLATION  ACCESS:      21860 HIT:       9099 MISS:      12761
LLC PREFETCH REQUESTED:     591981 ISSUED:     591981 USEFUL:      88763 USELESS:      83544
LLC AVERAGE MISS LATENCY: 556.5 cycles
cpu0_DTLB TOTAL        ACCESS:  156772393 HIT:  155472498 MISS:    1299895
cpu0_DTLB LOAD         ACCESS:  156772393 HIT:  155472498 MISS:    1299895
cpu0_DTLB RFO          ACCESS:          0 HIT:          0 MISS:          0
cpu0_DTLB PREFETCH     ACCESS:          0 HIT:          0 MISS:          0
cpu0_DTLB WRITE        ACCESS:          0 HIT:          0 MISS:          0
cpu0_DTLB TRANSLATION  ACCESS:          0 HIT:          0 MISS:          0
cpu0_DTLB PREFETCH REQUESTED:          0 ISSUED:          0 USEFUL:          0 USELESS:          0
cpu0_DTLB AVERAGE MISS LATENCY: 13.16 cycles
cpu0_ITLB TOTAL        ACCESS:    8931861 HIT:    8733222 MISS:     198639
cpu0_ITLB LOAD         ACCESS:    8931861 HIT:    8733222 MISS:     198639
cpu0_ITLB RFO          ACCESS:          0 HIT:          0 MISS:          0
cpu0_ITLB PREFETCH     ACCESS:          0 HIT:          0 MISS:          0
cpu0_ITLB WRITE        ACCESS:          0 HIT:          0 MISS:          0
cpu0_ITLB TRANSLATION  ACCESS:          0 HIT:          0 MISS:          0
cpu0_ITLB PREFETCH REQUESTED:          0 ISSUED:          0 USEFUL:          0 USELESS:          0
cpu0_ITLB AVERAGE MISS LATENCY: 3.576 cycles
cpu0_L1D TOTAL        ACCESS:  203642906 HIT:  200758881 MISS:    2884025
cpu0_L1D LOAD         ACCESS:  117965930 HIT:  115599409 MISS:    2366521
cpu0_L1D RFO          ACCESS:          0 HIT:          0 MISS:          0
cpu0_L1D PREFETCH     ACCESS:          0 HIT:          0 MISS:          0
cpu0_L1D WRITE        ACCESS:   85648441 HIT:   85157484 MISS:     490957
cpu0_L1D TRANSLATION  ACCESS:      28535 HIT:       1988 MISS:      26547
cpu0_L1D PREFETCH REQUESTED:          0 ISSUED:          0 USEFUL:          0 USELESS:          0
cpu0_L1D AVERAGE MISS LATENCY: 57.8 cycles
cpu0_L1I TOTAL        ACCESS:   10370606 HIT:    8573454 MISS:    1797152
cpu0_L1I LOAD         ACCESS:   10370606 HIT:    8573454 MISS:    1797152
cpu0_L1I RFO          ACCESS:          0 HIT:          0 MISS:          0
cpu0_L1I PREFETCH     ACCESS:          0 HIT:          0 MISS:          0
cpu0_L1I WRITE        ACCESS:          0 HIT:          0 MISS:          0
cpu0_L1I TRANSLATION  ACCESS:          0 HIT:          0 MISS:          0
cpu0_L1I PREFETCH REQUESTED:          0 ISSUED:          0 USEFUL:          0 USELESS:          0
cpu0_L1I AVERAGE MISS LATENCY: 11.33 cycles
cpu0_L2C TOTAL        ACCESS:    3235155 HIT:    2567358 MISS:     667797
cpu0_L2C LOAD         ACCESS:    2711638 HIT:    2119655 MISS:     591983
cpu0_L2C RFO          ACCESS:     133684 HIT:      86328 MISS:      47356
cpu0_L2C PREFETCH     ACCESS:          0 HIT:          0 MISS:          0
cpu0_L2C WRITE        ACCESS:     363372 HIT:     356774 MISS:       6598
cpu0_L2C TRANSLATION  ACCESS:      26461 HIT:       4601 MISS:      21860
cpu0_L2C PREFETCH REQUESTED:          0 ISSUED:          0 USEFUL:          0 USELESS:          0
cpu0_L2C AVERAGE MISS LATENCY: 246.9 cycles
cpu0_STLB TOTAL        ACCESS:    1009153 HIT:     982465 MISS:      26688
cpu0_STLB LOAD         ACCESS:    1009153 HIT:     982465 MISS:      26688
cpu0_STLB RFO          ACCESS:          0 HIT:          0 MISS:          0
cpu0_STLB PREFETCH     ACCESS:          0 HIT:          0 MISS:          0
cpu0_STLB WRITE        ACCESS:          0 HIT:          0 MISS:          0
cpu0_STLB TRANSLATION  ACCESS:          0 HIT:          0 MISS:          0
cpu0_STLB PREFETCH REQUESTED:          0 ISSUED:          0 USEFUL:          0 USELESS:          0
cpu0_STLB AVERAGE MISS LATENCY: 426.2 cycles

DRAM Statistics

Channel 0 RQ ROW_BUFFER_HIT:      79467
  ROW_BUFFER_MISS:     334962
 AVG DBUS CONGESTED CYCLE: 3.869
WQ ROW_BUFFER_HIT: Channel 0 
  ROW_BUFFER_MISS:       6673
  FULL:      47659
