WARNING: physical memory size is smaller than virtual memory size.

*** ChampSim Multicore Out-of-Order Simulator ***
Warmup Instructions: 50000000
Simulation Instructions: 600000000
Number of CPUs: 1
Page size: 4096

CPU 0 Tage branch predictor
Off-chip DRAM Size: 4 GiB Channels: 1 Width: 64-bit Data Race: 3200 MT/s
Heartbeat CPU 0 instructions: 10000000 cycles: 2500061 heartbeat IPC: 4 cumulative IPC: 4 (Simulation time: 00 hr 01 min 06 sec)
Heartbeat CPU 0 instructions: 20000000 cycles: 5000061 heartbeat IPC: 4 cumulative IPC: 4 (Simulation time: 00 hr 02 min 10 sec)
Heartbeat CPU 0 instructions: 30000000 cycles: 7500061 heartbeat IPC: 4 cumulative IPC: 4 (Simulation time: 00 hr 03 min 12 sec)
Heartbeat CPU 0 instructions: 40000000 cycles: 10000061 heartbeat IPC: 4 cumulative IPC: 4 (Simulation time: 00 hr 04 min 12 sec)
Heartbeat CPU 0 instructions: 50000000 cycles: 12500061 heartbeat IPC: 4 cumulative IPC: 4 (Simulation time: 00 hr 05 min 07 sec)
Warmup finished CPU 0 instructions: 50000000 cycles: 12500062 cumulative IPC: 4 (Simulation time: 00 hr 05 min 07 sec)
Warmup complete CPU 0 instructions: 50000000 cycles: 12500062 cumulative IPC: 4 (Simulation time: 00 hr 05 min 07 sec)
Heartbeat CPU 0 instructions: 60000004 cycles: 15504211 heartbeat IPC: 3.329 cumulative IPC: 3.329 (Simulation time: 00 hr 06 min 13 sec)
Heartbeat CPU 0 instructions: 70000003 cycles: 18370187 heartbeat IPC: 3.489 cumulative IPC: 3.407 (Simulation time: 00 hr 07 min 22 sec)
Heartbeat CPU 0 instructions: 80000002 cycles: 21381308 heartbeat IPC: 3.321 cumulative IPC: 3.378 (Simulation time: 00 hr 08 min 57 sec)
Heartbeat CPU 0 instructions: 90000000 cycles: 24099104 heartbeat IPC: 3.679 cumulative IPC: 3.449 (Simulation time: 00 hr 10 min 23 sec)
Heartbeat CPU 0 instructions: 100000003 cycles: 26855682 heartbeat IPC: 3.628 cumulative IPC: 3.483 (Simulation time: 00 hr 11 min 42 sec)
Heartbeat CPU 0 instructions: 110000001 cycles: 29753191 heartbeat IPC: 3.451 cumulative IPC: 3.478 (Simulation time: 00 hr 12 min 55 sec)
Heartbeat CPU 0 instructions: 120000001 cycles: 32469614 heartbeat IPC: 3.681 cumulative IPC: 3.505 (Simulation time: 00 hr 14 min 05 sec)
Heartbeat CPU 0 instructions: 130000003 cycles: 35368912 heartbeat IPC: 3.449 cumulative IPC: 3.498 (Simulation time: 00 hr 15 min 20 sec)
Heartbeat CPU 0 instructions: 140000002 cycles: 38202933 heartbeat IPC: 3.529 cumulative IPC: 3.502 (Simulation time: 00 hr 16 min 31 sec)
Heartbeat CPU 0 instructions: 150000001 cycles: 40973175 heartbeat IPC: 3.61 cumulative IPC: 3.512 (Simulation time: 00 hr 17 min 40 sec)
Heartbeat CPU 0 instructions: 160000000 cycles: 43890705 heartbeat IPC: 3.428 cumulative IPC: 3.504 (Simulation time: 00 hr 18 min 48 sec)
Heartbeat CPU 0 instructions: 170000001 cycles: 46818939 heartbeat IPC: 3.415 cumulative IPC: 3.497 (Simulation time: 00 hr 19 min 54 sec)
Heartbeat CPU 0 instructions: 180000000 cycles: 49609778 heartbeat IPC: 3.583 cumulative IPC: 3.503 (Simulation time: 00 hr 21 min 07 sec)
Heartbeat CPU 0 instructions: 190000002 cycles: 52317790 heartbeat IPC: 3.693 cumulative IPC: 3.516 (Simulation time: 00 hr 22 min 37 sec)
Heartbeat CPU 0 instructions: 200000002 cycles: 55138349 heartbeat IPC: 3.545 cumulative IPC: 3.518 (Simulation time: 00 hr 24 min 00 sec)
Heartbeat CPU 0 instructions: 210000000 cycles: 58030352 heartbeat IPC: 3.458 cumulative IPC: 3.514 (Simulation time: 00 hr 25 min 16 sec)
Heartbeat CPU 0 instructions: 220000001 cycles: 60782590 heartbeat IPC: 3.633 cumulative IPC: 3.521 (Simulation time: 00 hr 26 min 27 sec)
Heartbeat CPU 0 instructions: 230000002 cycles: 63672000 heartbeat IPC: 3.461 cumulative IPC: 3.518 (Simulation time: 00 hr 27 min 36 sec)
Heartbeat CPU 0 instructions: 240000004 cycles: 66622926 heartbeat IPC: 3.389 cumulative IPC: 3.511 (Simulation time: 00 hr 28 min 50 sec)
Heartbeat CPU 0 instructions: 250000003 cycles: 69513246 heartbeat IPC: 3.46 cumulative IPC: 3.508 (Simulation time: 00 hr 30 min 02 sec)
Heartbeat CPU 0 instructions: 260000001 cycles: 72297513 heartbeat IPC: 3.592 cumulative IPC: 3.512 (Simulation time: 00 hr 31 min 12 sec)
Heartbeat CPU 0 instructions: 270000002 cycles: 78243837 heartbeat IPC: 1.682 cumulative IPC: 3.346 (Simulation time: 00 hr 32 min 44 sec)
Heartbeat CPU 0 instructions: 280000000 cycles: 89052894 heartbeat IPC: 0.9251 cumulative IPC: 3.004 (Simulation time: 00 hr 35 min 26 sec)
Heartbeat CPU 0 instructions: 290000000 cycles: 100212454 heartbeat IPC: 0.8961 cumulative IPC: 2.736 (Simulation time: 00 hr 38 min 04 sec)
Heartbeat CPU 0 instructions: 300000003 cycles: 106651256 heartbeat IPC: 1.553 cumulative IPC: 2.655 (Simulation time: 00 hr 39 min 58 sec)
Heartbeat CPU 0 instructions: 310000001 cycles: 116054152 heartbeat IPC: 1.064 cumulative IPC: 2.511 (Simulation time: 00 hr 42 min 20 sec)
Heartbeat CPU 0 instructions: 320000004 cycles: 120254677 heartbeat IPC: 2.381 cumulative IPC: 2.506 (Simulation time: 00 hr 43 min 44 sec)
Heartbeat CPU 0 instructions: 330000000 cycles: 123410750 heartbeat IPC: 3.168 cumulative IPC: 2.525 (Simulation time: 00 hr 44 min 56 sec)
Heartbeat CPU 0 instructions: 340000001 cycles: 126646150 heartbeat IPC: 3.091 cumulative IPC: 2.541 (Simulation time: 00 hr 46 min 24 sec)
Heartbeat CPU 0 instructions: 350000000 cycles: 129977740 heartbeat IPC: 3.002 cumulative IPC: 2.554 (Simulation time: 00 hr 48 min 04 sec)
Heartbeat CPU 0 instructions: 360000004 cycles: 133020035 heartbeat IPC: 3.287 cumulative IPC: 2.572 (Simulation time: 00 hr 49 min 29 sec)
Heartbeat CPU 0 instructions: 370000001 cycles: 135916795 heartbeat IPC: 3.452 cumulative IPC: 2.593 (Simulation time: 00 hr 50 min 46 sec)
Heartbeat CPU 0 instructions: 380000004 cycles: 138802051 heartbeat IPC: 3.466 cumulative IPC: 2.613 (Simulation time: 00 hr 51 min 59 sec)
Heartbeat CPU 0 instructions: 390000002 cycles: 141782206 heartbeat IPC: 3.356 cumulative IPC: 2.63 (Simulation time: 00 hr 53 min 13 sec)
Heartbeat CPU 0 instructions: 400000000 cycles: 144792014 heartbeat IPC: 3.322 cumulative IPC: 2.646 (Simulation time: 00 hr 54 min 24 sec)
Heartbeat CPU 0 instructions: 410000000 cycles: 150830927 heartbeat IPC: 1.656 cumulative IPC: 2.602 (Simulation time: 00 hr 56 min 01 sec)
Heartbeat CPU 0 instructions: 420000003 cycles: 160299171 heartbeat IPC: 1.056 cumulative IPC: 2.503 (Simulation time: 00 hr 58 min 08 sec)
Heartbeat CPU 0 instructions: 430000004 cycles: 166170191 heartbeat IPC: 1.703 cumulative IPC: 2.473 (Simulation time: 01 hr 00 min 12 sec)
Heartbeat CPU 0 instructions: 440000004 cycles: 172307783 heartbeat IPC: 1.629 cumulative IPC: 2.44 (Simulation time: 01 hr 02 min 14 sec)
Heartbeat CPU 0 instructions: 450000000 cycles: 178455411 heartbeat IPC: 1.627 cumulative IPC: 2.41 (Simulation time: 01 hr 04 min 08 sec)
Heartbeat CPU 0 instructions: 460000002 cycles: 189043917 heartbeat IPC: 0.9444 cumulative IPC: 2.322 (Simulation time: 01 hr 06 min 36 sec)
Heartbeat CPU 0 instructions: 470000003 cycles: 197089657 heartbeat IPC: 1.243 cumulative IPC: 2.275 (Simulation time: 01 hr 08 min 33 sec)
Heartbeat CPU 0 instructions: 480000000 cycles: 200489331 heartbeat IPC: 2.941 cumulative IPC: 2.287 (Simulation time: 01 hr 09 min 43 sec)
Heartbeat CPU 0 instructions: 490000001 cycles: 203972120 heartbeat IPC: 2.871 cumulative IPC: 2.298 (Simulation time: 01 hr 10 min 53 sec)
Heartbeat CPU 0 instructions: 500000002 cycles: 207178295 heartbeat IPC: 3.119 cumulative IPC: 2.312 (Simulation time: 01 hr 12 min 01 sec)
Heartbeat CPU 0 instructions: 510000000 cycles: 210185543 heartbeat IPC: 3.325 cumulative IPC: 2.327 (Simulation time: 01 hr 13 min 25 sec)
Heartbeat CPU 0 instructions: 520000000 cycles: 213159113 heartbeat IPC: 3.363 cumulative IPC: 2.342 (Simulation time: 01 hr 14 min 49 sec)
Heartbeat CPU 0 instructions: 530000001 cycles: 221858942 heartbeat IPC: 1.149 cumulative IPC: 2.293 (Simulation time: 01 hr 16 min 58 sec)
Heartbeat CPU 0 instructions: 540000000 cycles: 231578567 heartbeat IPC: 1.029 cumulative IPC: 2.237 (Simulation time: 01 hr 19 min 07 sec)
Heartbeat CPU 0 instructions: 550000004 cycles: 243244718 heartbeat IPC: 0.8572 cumulative IPC: 2.167 (Simulation time: 01 hr 21 min 48 sec)
Heartbeat CPU 0 instructions: 560000004 cycles: 246958997 heartbeat IPC: 2.692 cumulative IPC: 2.175 (Simulation time: 01 hr 23 min 02 sec)
Heartbeat CPU 0 instructions: 570000002 cycles: 249783489 heartbeat IPC: 3.54 cumulative IPC: 2.191 (Simulation time: 01 hr 24 min 15 sec)
Heartbeat CPU 0 instructions: 580000000 cycles: 252709844 heartbeat IPC: 3.417 cumulative IPC: 2.206 (Simulation time: 01 hr 25 min 32 sec)
Heartbeat CPU 0 instructions: 590000001 cycles: 255638743 heartbeat IPC: 3.414 cumulative IPC: 2.221 (Simulation time: 01 hr 27 min 04 sec)
Heartbeat CPU 0 instructions: 600000003 cycles: 258333355 heartbeat IPC: 3.711 cumulative IPC: 2.237 (Simulation time: 01 hr 28 min 29 sec)
Heartbeat CPU 0 instructions: 610000001 cycles: 261200971 heartbeat IPC: 3.487 cumulative IPC: 2.252 (Simulation time: 01 hr 29 min 47 sec)
Heartbeat CPU 0 instructions: 620000004 cycles: 264152434 heartbeat IPC: 3.388 cumulative IPC: 2.265 (Simulation time: 01 hr 31 min 02 sec)
Heartbeat CPU 0 instructions: 630000002 cycles: 266963891 heartbeat IPC: 3.557 cumulative IPC: 2.279 (Simulation time: 01 hr 32 min 21 sec)
Heartbeat CPU 0 instructions: 640000004 cycles: 270012217 heartbeat IPC: 3.28 cumulative IPC: 2.291 (Simulation time: 01 hr 33 min 39 sec)
Heartbeat CPU 0 instructions: 650000001 cycles: 272723331 heartbeat IPC: 3.689 cumulative IPC: 2.306 (Simulation time: 01 hr 34 min 53 sec)
Simulation finished CPU 0 instructions: 600000001 cycles: 260223270 cumulative IPC: 2.306 (Simulation time: 01 hr 34 min 53 sec)
Simulation complete CPU 0 instructions: 600000001 cycles: 260223270 cumulative IPC: 2.306 (Simulation time: 01 hr 34 min 53 sec)

ChampSim completed all CPUs

=== Simulation ===
CPU 0 runs traces/400.perlbench-50B.champsimtrace.xz
Region of Interest Statistics

CPU 0 cumulative IPC: 2.306 instructions: 600000001 cycles: 260223270
CPU 0 Branch Prediction Accuracy: 99.01% MPKI: 2.04 Average ROB Occupancy at Mispredict: 95.6
Branch type MPKI
BRANCH_DIRECT_JUMP: 0.0176
BRANCH_INDIRECT: 0.38
BRANCH_CONDITIONAL: 1.19
BRANCH_DIRECT_CALL: 0.0067
BRANCH_INDIRECT_CALL: 0.431
BRANCH_RETURN: 0.0161

LLC TOTAL        ACCESS:     785146 HIT:     410227 MISS:     374919
LLC LOAD         ACCESS:     585330 HIT:     287472 MISS:     297858
LLC RFO          ACCESS:      47726 HIT:      25526 MISS:      22200
LLC PREFETCH     ACCESS:          0 HIT:          0 MISS:          0
LLC WRITE        ACCESS:     130119 HIT:      93250 MISS:      36869
LLC TRANSLATION  ACCESS:      21971 HIT:       3979 MISS:      17992
LLC PREFETCH REQUESTED:          0 ISSUED:          0 USEFUL:          0 USELESS:          0
LLC AVERAGE MISS LATENCY: 531.6 cycles
cpu0_DTLB TOTAL        ACCESS:  133177261 HIT:  131821810 MISS:    1355451
cpu0_DTLB LOAD         ACCESS:  133177261 HIT:  131821810 MISS:    1355451
cpu0_DTLB RFO          ACCESS:          0 HIT:          0 MISS:          0
cpu0_DTLB PREFETCH     ACCESS:          0 HIT:          0 MISS:          0
cpu0_DTLB WRITE        ACCESS:          0 HIT:          0 MISS:          0
cpu0_DTLB TRANSLATION  ACCESS:          0 HIT:          0 MISS:          0
cpu0_DTLB PREFETCH REQUESTED:          0 ISSUED:          0 USEFUL:          0 USELESS:          0
cpu0_DTLB AVERAGE MISS LATENCY: 14.53 cycles
cpu0_ITLB TOTAL        ACCESS:    8996059 HIT:    8786595 MISS:     209464
cpu0_ITLB LOAD         ACCESS:    8996059 HIT:    8786595 MISS:     209464
cpu0_ITLB RFO          ACCESS:          0 HIT:          0 MISS:          0
cpu0_ITLB PREFETCH     ACCESS:          0 HIT:          0 MISS:          0
cpu0_ITLB WRITE        ACCESS:          0 HIT:          0 MISS:          0
cpu0_ITLB TRANSLATION  ACCESS:          0 HIT:          0 MISS:          0
cpu0_ITLB PREFETCH REQUESTED:          0 ISSUED:          0 USEFUL:          0 USELESS:          0
cpu0_ITLB AVERAGE MISS LATENCY: 3.368 cycles
cpu0_L1D TOTAL        ACCESS:  178218265 HIT:  175201814 MISS:    3016451
cpu0_L1D LOAD         ACCESS:   92700333 HIT:   90216670 MISS:    2483663
cpu0_L1D RFO          ACCESS:          0 HIT:          0 MISS:          0
cpu0_L1D PREFETCH     ACCESS:          0 HIT:          0 MISS:          0
cpu0_L1D WRITE        ACCESS:   85489396 HIT:   84983149 MISS:     506247
cpu0_L1D TRANSLATION  ACCESS:      28536 HIT:       1995 MISS:      26541
cpu0_L1D PREFETCH REQUESTED:          0 ISSUED:          0 USEFUL:          0 USELESS:          0
cpu0_L1D AVERAGE MISS LATENCY: 66.26 cycles
cpu0_L1I TOTAL        ACCESS:   10515130 HIT:    8618366 MISS:    1896764
cpu0_L1I LOAD         ACCESS:   10515130 HIT:    8618366 MISS:    1896764
cpu0_L1I RFO          ACCESS:          0 HIT:          0 MISS:          0
cpu0_L1I PREFETCH     ACCESS:          0 HIT:          0 MISS:          0
cpu0_L1I WRITE        ACCESS:          0 HIT:          0 MISS:          0
cpu0_L1I TRANSLATION  ACCESS:          0 HIT:          0 MISS:          0
cpu0_L1I PREFETCH REQUESTED:          0 ISSUED:          0 USEFUL:          0 USELESS:          0
cpu0_L1I AVERAGE MISS LATENCY: 13.92 cycles
cpu0_L2C TOTAL        ACCESS:    3235889 HIT:    2574224 MISS:     661665
cpu0_L2C LOAD         ACCESS:    2709019 HIT:    2123689 MISS:     585330
cpu0_L2C RFO          ACCESS:     135550 HIT:      87824 MISS:      47726
cpu0_L2C PREFETCH     ACCESS:          0 HIT:          0 MISS:          0
cpu0_L2C WRITE        ACCESS:     364868 HIT:     358230 MISS:       6638
cpu0_L2C TRANSLATION  ACCESS:      26452 HIT:       4481 MISS:      21971
cpu0_L2C PREFETCH REQUESTED:          0 ISSUED:          0 USEFUL:          0 USELESS:          0
cpu0_L2C AVERAGE MISS LATENCY: 321.5 cycles
cpu0_STLB TOTAL        ACCESS:    1010073 HIT:     983383 MISS:      26690
cpu0_STLB LOAD         ACCESS:    1010073 HIT:     983383 MISS:      26690
cpu0_STLB RFO          ACCESS:          0 HIT:          0 MISS:          0
cpu0_STLB PREFETCH     ACCESS:          0 HIT:          0 MISS:          0
cpu0_STLB WRITE        ACCESS:          0 HIT:          0 MISS:          0
cpu0_STLB TRANSLATION  ACCESS:          0 HIT:          0 MISS:          0
cpu0_STLB PREFETCH REQUESTED:          0 ISSUED:          0 USEFUL:          0 USELESS:          0
cpu0_STLB AVERAGE MISS LATENCY: 548.1 cycles

DRAM Statistics

Channel 0 RQ ROW_BUFFER_HIT:      60797
  ROW_BUFFER_MISS:     276891
 AVG DBUS CONGESTED CYCLE: 3.828
WQ ROW_BUFFER_HIT: Channel 0 
  ROW_BUFFER_MISS:       8899
  FULL:      39423
