WARNING: physical memory size is smaller than virtual memory size.

*** ChampSim Multicore Out-of-Order Simulator ***
Warmup Instructions: 50000000
Simulation Instructions: 600000000
Number of CPUs: 1
Page size: 4096

Off-chip DRAM Size: 4 GiB Channels: 1 Width: 64-bit Data Race: 3200 MT/s
Heartbeat CPU 0 instructions: 10000000 cycles: 2500061 heartbeat IPC: 4 cumulative IPC: 4 (Simulation time: 00 hr 00 min 45 sec)
Heartbeat CPU 0 instructions: 20000000 cycles: 5000061 heartbeat IPC: 4 cumulative IPC: 4 (Simulation time: 00 hr 01 min 31 sec)
Heartbeat CPU 0 instructions: 30000000 cycles: 7500061 heartbeat IPC: 4 cumulative IPC: 4 (Simulation time: 00 hr 02 min 16 sec)
Heartbeat CPU 0 instructions: 40000000 cycles: 10000061 heartbeat IPC: 4 cumulative IPC: 4 (Simulation time: 00 hr 03 min 04 sec)
Heartbeat CPU 0 instructions: 50000000 cycles: 12500061 heartbeat IPC: 4 cumulative IPC: 4 (Simulation time: 00 hr 03 min 49 sec)
Warmup finished CPU 0 instructions: 50000000 cycles: 12500062 cumulative IPC: 4 (Simulation time: 00 hr 03 min 49 sec)
Warmup complete CPU 0 instructions: 50000000 cycles: 12500062 cumulative IPC: 4 (Simulation time: 00 hr 03 min 49 sec)
Heartbeat CPU 0 instructions: 60000002 cycles: 16435783 heartbeat IPC: 2.541 cumulative IPC: 2.541 (Simulation time: 00 hr 04 min 48 sec)
Heartbeat CPU 0 instructions: 70000003 cycles: 20749204 heartbeat IPC: 2.318 cumulative IPC: 2.424 (Simulation time: 00 hr 06 min 00 sec)
Heartbeat CPU 0 instructions: 80000003 cycles: 25212938 heartbeat IPC: 2.24 cumulative IPC: 2.36 (Simulation time: 00 hr 07 min 05 sec)
Heartbeat CPU 0 instructions: 90000000 cycles: 28902625 heartbeat IPC: 2.71 cumulative IPC: 2.439 (Simulation time: 00 hr 08 min 01 sec)
Heartbeat CPU 0 instructions: 100000003 cycles: 32797283 heartbeat IPC: 2.568 cumulative IPC: 2.463 (Simulation time: 00 hr 08 min 59 sec)
Heartbeat CPU 0 instructions: 110000002 cycles: 36888882 heartbeat IPC: 2.444 cumulative IPC: 2.46 (Simulation time: 00 hr 09 min 55 sec)
Heartbeat CPU 0 instructions: 120000001 cycles: 40602045 heartbeat IPC: 2.693 cumulative IPC: 2.491 (Simulation time: 00 hr 10 min 49 sec)
Heartbeat CPU 0 instructions: 130000003 cycles: 44366187 heartbeat IPC: 2.657 cumulative IPC: 2.511 (Simulation time: 00 hr 11 min 41 sec)
Heartbeat CPU 0 instructions: 140000002 cycles: 48491614 heartbeat IPC: 2.424 cumulative IPC: 2.501 (Simulation time: 00 hr 12 min 35 sec)
Heartbeat CPU 0 instructions: 150000001 cycles: 52535644 heartbeat IPC: 2.473 cumulative IPC: 2.498 (Simulation time: 00 hr 13 min 29 sec)
Heartbeat CPU 0 instructions: 160000000 cycles: 56184366 heartbeat IPC: 2.741 cumulative IPC: 2.518 (Simulation time: 00 hr 14 min 21 sec)
Heartbeat CPU 0 instructions: 170000001 cycles: 60350038 heartbeat IPC: 2.401 cumulative IPC: 2.508 (Simulation time: 00 hr 15 min 15 sec)
Heartbeat CPU 0 instructions: 180000001 cycles: 63805525 heartbeat IPC: 2.894 cumulative IPC: 2.534 (Simulation time: 00 hr 16 min 07 sec)
Heartbeat CPU 0 instructions: 190000002 cycles: 67382191 heartbeat IPC: 2.796 cumulative IPC: 2.551 (Simulation time: 00 hr 16 min 59 sec)
Heartbeat CPU 0 instructions: 200000002 cycles: 71153161 heartbeat IPC: 2.652 cumulative IPC: 2.557 (Simulation time: 00 hr 17 min 51 sec)
Heartbeat CPU 0 instructions: 210000000 cycles: 74788089 heartbeat IPC: 2.751 cumulative IPC: 2.569 (Simulation time: 00 hr 18 min 42 sec)
Heartbeat CPU 0 instructions: 220000001 cycles: 78655984 heartbeat IPC: 2.585 cumulative IPC: 2.57 (Simulation time: 00 hr 19 min 35 sec)
Heartbeat CPU 0 instructions: 230000002 cycles: 82491062 heartbeat IPC: 2.608 cumulative IPC: 2.572 (Simulation time: 00 hr 20 min 28 sec)
Heartbeat CPU 0 instructions: 240000001 cycles: 86693138 heartbeat IPC: 2.38 cumulative IPC: 2.561 (Simulation time: 00 hr 21 min 23 sec)
Heartbeat CPU 0 instructions: 250000003 cycles: 91251932 heartbeat IPC: 2.194 cumulative IPC: 2.54 (Simulation time: 00 hr 22 min 19 sec)
Heartbeat CPU 0 instructions: 260000000 cycles: 95043028 heartbeat IPC: 2.638 cumulative IPC: 2.544 (Simulation time: 00 hr 23 min 12 sec)
Heartbeat CPU 0 instructions: 270000003 cycles: 101666190 heartbeat IPC: 1.51 cumulative IPC: 2.467 (Simulation time: 00 hr 24 min 24 sec)
Heartbeat CPU 0 instructions: 280000000 cycles: 111632434 heartbeat IPC: 1.003 cumulative IPC: 2.32 (Simulation time: 00 hr 26 min 00 sec)
Heartbeat CPU 0 instructions: 290000000 cycles: 120649778 heartbeat IPC: 1.109 cumulative IPC: 2.219 (Simulation time: 00 hr 27 min 31 sec)
Heartbeat CPU 0 instructions: 300000003 cycles: 127803062 heartbeat IPC: 1.398 cumulative IPC: 2.168 (Simulation time: 00 hr 28 min 52 sec)
Heartbeat CPU 0 instructions: 310000004 cycles: 137778727 heartbeat IPC: 1.002 cumulative IPC: 2.075 (Simulation time: 00 hr 30 min 31 sec)
Heartbeat CPU 0 instructions: 320000004 cycles: 142687739 heartbeat IPC: 2.037 cumulative IPC: 2.074 (Simulation time: 00 hr 31 min 34 sec)
Heartbeat CPU 0 instructions: 330000000 cycles: 146751746 heartbeat IPC: 2.461 cumulative IPC: 2.086 (Simulation time: 00 hr 32 min 29 sec)
Heartbeat CPU 0 instructions: 340000001 cycles: 151039437 heartbeat IPC: 2.332 cumulative IPC: 2.093 (Simulation time: 00 hr 33 min 26 sec)
Heartbeat CPU 0 instructions: 350000004 cycles: 155466629 heartbeat IPC: 2.259 cumulative IPC: 2.098 (Simulation time: 00 hr 34 min 24 sec)
Heartbeat CPU 0 instructions: 360000003 cycles: 159596962 heartbeat IPC: 2.421 cumulative IPC: 2.107 (Simulation time: 00 hr 35 min 20 sec)
Heartbeat CPU 0 instructions: 370000001 cycles: 163624052 heartbeat IPC: 2.483 cumulative IPC: 2.117 (Simulation time: 00 hr 36 min 16 sec)
Heartbeat CPU 0 instructions: 380000004 cycles: 167525810 heartbeat IPC: 2.563 cumulative IPC: 2.129 (Simulation time: 00 hr 37 min 11 sec)
Heartbeat CPU 0 instructions: 390000002 cycles: 171591184 heartbeat IPC: 2.46 cumulative IPC: 2.137 (Simulation time: 00 hr 38 min 07 sec)
Heartbeat CPU 0 instructions: 400000000 cycles: 175955634 heartbeat IPC: 2.291 cumulative IPC: 2.141 (Simulation time: 00 hr 39 min 04 sec)
Heartbeat CPU 0 instructions: 410000000 cycles: 183255751 heartbeat IPC: 1.37 cumulative IPC: 2.108 (Simulation time: 00 hr 40 min 22 sec)
Heartbeat CPU 0 instructions: 420000003 cycles: 193757466 heartbeat IPC: 0.9522 cumulative IPC: 2.041 (Simulation time: 00 hr 42 min 02 sec)
Heartbeat CPU 0 instructions: 430000000 cycles: 201176905 heartbeat IPC: 1.348 cumulative IPC: 2.014 (Simulation time: 00 hr 43 min 24 sec)
Heartbeat CPU 0 instructions: 440000004 cycles: 207743500 heartbeat IPC: 1.523 cumulative IPC: 1.998 (Simulation time: 00 hr 44 min 41 sec)
Heartbeat CPU 0 instructions: 450000001 cycles: 214522880 heartbeat IPC: 1.475 cumulative IPC: 1.98 (Simulation time: 00 hr 45 min 56 sec)
Heartbeat CPU 0 instructions: 460000002 cycles: 224390263 heartbeat IPC: 1.013 cumulative IPC: 1.935 (Simulation time: 00 hr 47 min 33 sec)
Heartbeat CPU 0 instructions: 470000003 cycles: 233166209 heartbeat IPC: 1.139 cumulative IPC: 1.903 (Simulation time: 00 hr 49 min 03 sec)
Heartbeat CPU 0 instructions: 480000003 cycles: 237422682 heartbeat IPC: 2.349 cumulative IPC: 1.912 (Simulation time: 00 hr 50 min 00 sec)
Heartbeat CPU 0 instructions: 490000001 cycles: 242128564 heartbeat IPC: 2.125 cumulative IPC: 1.916 (Simulation time: 00 hr 51 min 00 sec)
Heartbeat CPU 0 instructions: 500000002 cycles: 246548849 heartbeat IPC: 2.262 cumulative IPC: 1.923 (Simulation time: 00 hr 51 min 58 sec)
Heartbeat CPU 0 instructions: 510000000 cycles: 250830059 heartbeat IPC: 2.336 cumulative IPC: 1.93 (Simulation time: 00 hr 52 min 55 sec)
Heartbeat CPU 0 instructions: 520000000 cycles: 255293795 heartbeat IPC: 2.24 cumulative IPC: 1.936 (Simulation time: 00 hr 53 min 53 sec)
Heartbeat CPU 0 instructions: 530000001 cycles: 266245530 heartbeat IPC: 0.9131 cumulative IPC: 1.892 (Simulation time: 00 hr 55 min 36 sec)
Heartbeat CPU 0 instructions: 540000000 cycles: 276583425 heartbeat IPC: 0.9673 cumulative IPC: 1.855 (Simulation time: 00 hr 57 min 17 sec)
Heartbeat CPU 0 instructions: 550000004 cycles: 288207237 heartbeat IPC: 0.8603 cumulative IPC: 1.814 (Simulation time: 00 hr 59 min 05 sec)
Heartbeat CPU 0 instructions: 560000004 cycles: 292340021 heartbeat IPC: 2.42 cumulative IPC: 1.822 (Simulation time: 01 hr 00 min 00 sec)
Heartbeat CPU 0 instructions: 570000001 cycles: 295467667 heartbeat IPC: 3.197 cumulative IPC: 1.838 (Simulation time: 01 hr 00 min 50 sec)
Heartbeat CPU 0 instructions: 580000003 cycles: 299005866 heartbeat IPC: 2.826 cumulative IPC: 1.85 (Simulation time: 01 hr 01 min 39 sec)
Heartbeat CPU 0 instructions: 590000002 cycles: 302636602 heartbeat IPC: 2.754 cumulative IPC: 1.861 (Simulation time: 01 hr 02 min 30 sec)
Heartbeat CPU 0 instructions: 600000003 cycles: 305699606 heartbeat IPC: 3.265 cumulative IPC: 1.876 (Simulation time: 01 hr 03 min 19 sec)
Heartbeat CPU 0 instructions: 610000001 cycles: 309206764 heartbeat IPC: 2.851 cumulative IPC: 1.887 (Simulation time: 01 hr 04 min 07 sec)
Heartbeat CPU 0 instructions: 620000000 cycles: 313221659 heartbeat IPC: 2.491 cumulative IPC: 1.895 (Simulation time: 01 hr 04 min 56 sec)
Heartbeat CPU 0 instructions: 630000002 cycles: 316586235 heartbeat IPC: 2.972 cumulative IPC: 1.907 (Simulation time: 01 hr 05 min 39 sec)
Heartbeat CPU 0 instructions: 640000004 cycles: 320597187 heartbeat IPC: 2.493 cumulative IPC: 1.915 (Simulation time: 01 hr 06 min 26 sec)
Heartbeat CPU 0 instructions: 650000001 cycles: 324418403 heartbeat IPC: 2.617 cumulative IPC: 1.924 (Simulation time: 01 hr 07 min 06 sec)
Simulation finished CPU 0 instructions: 600000001 cycles: 311918342 cumulative IPC: 1.924 (Simulation time: 01 hr 07 min 06 sec)
Simulation complete CPU 0 instructions: 600000001 cycles: 311918342 cumulative IPC: 1.924 (Simulation time: 01 hr 07 min 06 sec)

ChampSim completed all CPUs

=== Simulation ===
CPU 0 runs traces/400.perlbench-50B.champsimtrace.xz
Region of Interest Statistics

CPU 0 cumulative IPC: 1.924 instructions: 600000001 cycles: 311918342
CPU 0 Branch Prediction Accuracy: 96.2% MPKI: 7.839 Average ROB Occupancy at Mispredict: 43.41
Branch type MPKI
BRANCH_DIRECT_JUMP: 0.0176
BRANCH_INDIRECT: 0.38
BRANCH_CONDITIONAL: 6.99
BRANCH_DIRECT_CALL: 0.0067
BRANCH_INDIRECT_CALL: 0.431
BRANCH_RETURN: 0.0161

LLC TOTAL        ACCESS:    1353595 HIT:     913540 MISS:     440055
LLC LOAD         ACCESS:     578483 HIT:     379532 MISS:     198951
LLC RFO          ACCESS:      47395 HIT:      30300 MISS:      17095
LLC PREFETCH     ACCESS:     578483 HIT:     369301 MISS:     209182
LLC WRITE        ACCESS:     127143 HIT:     123200 MISS:       3943
LLC TRANSLATION  ACCESS:      22091 HIT:      11207 MISS:      10884
LLC PREFETCH REQUESTED:     578483 ISSUED:     578483 USEFUL:      73968 USELESS:      50170
LLC AVERAGE MISS LATENCY: 520.5 cycles
cpu0_DTLB TOTAL        ACCESS:  146519320 HIT:  145213416 MISS:    1305904
cpu0_DTLB LOAD         ACCESS:  146519320 HIT:  145213416 MISS:    1305904
cpu0_DTLB RFO          ACCESS:          0 HIT:          0 MISS:          0
cpu0_DTLB PREFETCH     ACCESS:          0 HIT:          0 MISS:          0
cpu0_DTLB WRITE        ACCESS:          0 HIT:          0 MISS:          0
cpu0_DTLB TRANSLATION  ACCESS:          0 HIT:          0 MISS:          0
cpu0_DTLB PREFETCH REQUESTED:          0 ISSUED:          0 USEFUL:          0 USELESS:          0
cpu0_DTLB AVERAGE MISS LATENCY: 11.53 cycles
cpu0_ITLB TOTAL        ACCESS:    8987345 HIT:    8802847 MISS:     184498
cpu0_ITLB LOAD         ACCESS:    8987345 HIT:    8802847 MISS:     184498
cpu0_ITLB RFO          ACCESS:          0 HIT:          0 MISS:          0
cpu0_ITLB PREFETCH     ACCESS:          0 HIT:          0 MISS:          0
cpu0_ITLB WRITE        ACCESS:          0 HIT:          0 MISS:          0
cpu0_ITLB TRANSLATION  ACCESS:          0 HIT:          0 MISS:          0
cpu0_ITLB PREFETCH REQUESTED:          0 ISSUED:          0 USEFUL:          0 USELESS:          0
cpu0_ITLB AVERAGE MISS LATENCY: 3.344 cycles
cpu0_L1D TOTAL        ACCESS:  193304282 HIT:  189643771 MISS:    3660511
cpu0_L1D LOAD         ACCESS:  107458180 HIT:  104448084 MISS:    3010096
cpu0_L1D RFO          ACCESS:          0 HIT:          0 MISS:          0
cpu0_L1D PREFETCH     ACCESS:          0 HIT:          0 MISS:          0
cpu0_L1D WRITE        ACCESS:   85817576 HIT:   85194254 MISS:     623322
cpu0_L1D TRANSLATION  ACCESS:      28526 HIT:       1433 MISS:      27093
cpu0_L1D PREFETCH REQUESTED:          0 ISSUED:          0 USEFUL:          0 USELESS:          0
cpu0_L1D AVERAGE MISS LATENCY: 41.45 cycles
cpu0_L1I TOTAL        ACCESS:   10422070 HIT:    8660161 MISS:    1761909
cpu0_L1I LOAD         ACCESS:   10422070 HIT:    8660161 MISS:    1761909
cpu0_L1I RFO          ACCESS:          0 HIT:          0 MISS:          0
cpu0_L1I PREFETCH     ACCESS:          0 HIT:          0 MISS:          0
cpu0_L1I WRITE        ACCESS:          0 HIT:          0 MISS:          0
cpu0_L1I TRANSLATION  ACCESS:          0 HIT:          0 MISS:          0
cpu0_L1I PREFETCH REQUESTED:          0 ISSUED:          0 USEFUL:          0 USELESS:          0
cpu0_L1I AVERAGE MISS LATENCY: 10.01 cycles
cpu0_L2C TOTAL        ACCESS:    3834594 HIT:    3183553 MISS:     651041
cpu0_L2C LOAD         ACCESS:    3104931 HIT:    2526448 MISS:     578483
cpu0_L2C RFO          ACCESS:     191553 HIT:     144157 MISS:      47396
cpu0_L2C PREFETCH     ACCESS:          0 HIT:          0 MISS:          0
cpu0_L2C WRITE        ACCESS:     511079 HIT:     508008 MISS:       3071
cpu0_L2C TRANSLATION  ACCESS:      27031 HIT:       4940 MISS:      22091
cpu0_L2C PREFETCH REQUESTED:          0 ISSUED:          0 USEFUL:          0 USELESS:          0
cpu0_L2C AVERAGE MISS LATENCY: 220.3 cycles
cpu0_STLB TOTAL        ACCESS:    1008466 HIT:     981772 MISS:      26694
cpu0_STLB LOAD         ACCESS:    1008466 HIT:     981772 MISS:      26694
cpu0_STLB RFO          ACCESS:          0 HIT:          0 MISS:          0
cpu0_STLB PREFETCH     ACCESS:          0 HIT:          0 MISS:          0
cpu0_STLB WRITE        ACCESS:          0 HIT:          0 MISS:          0
cpu0_STLB TRANSLATION  ACCESS:          0 HIT:          0 MISS:          0
cpu0_STLB PREFETCH REQUESTED:          0 ISSUED:          0 USEFUL:          0 USELESS:          0
cpu0_STLB AVERAGE MISS LATENCY: 342.8 cycles

DRAM Statistics

Channel 0 RQ ROW_BUFFER_HIT:      89761
  ROW_BUFFER_MISS:     282570
 AVG DBUS CONGESTED CYCLE: 3.851
WQ ROW_BUFFER_HIT: Channel 0 
  ROW_BUFFER_MISS:       6268
  FULL:      29844
