WARNING: physical memory size is smaller than virtual memory size.

*** ChampSim Multicore Out-of-Order Simulator ***
Warmup Instructions: 50000000
Simulation Instructions: 600000000
Number of CPUs: 1
Page size: 4096

Off-chip DRAM Size: 4 GiB Channels: 1 Width: 64-bit Data Race: 3200 MT/s
Heartbeat CPU 0 instructions: 10000001 cycles: 2881032 heartbeat IPC: 3.471 cumulative IPC: 3.471 (Simulation time: 00 hr 01 min 04 sec)
Heartbeat CPU 0 instructions: 20000001 cycles: 5381032 heartbeat IPC: 4 cumulative IPC: 3.717 (Simulation time: 00 hr 02 min 02 sec)
Heartbeat CPU 0 instructions: 30000001 cycles: 7881032 heartbeat IPC: 4 cumulative IPC: 3.807 (Simulation time: 00 hr 03 min 03 sec)
Heartbeat CPU 0 instructions: 40000001 cycles: 10381032 heartbeat IPC: 4 cumulative IPC: 3.853 (Simulation time: 00 hr 03 min 56 sec)
Heartbeat CPU 0 instructions: 50000001 cycles: 12881032 heartbeat IPC: 4 cumulative IPC: 3.882 (Simulation time: 00 hr 04 min 55 sec)
Warmup finished CPU 0 instructions: 50000001 cycles: 12881033 cumulative IPC: 3.882 (Simulation time: 00 hr 04 min 55 sec)
Warmup complete CPU 0 instructions: 50000001 cycles: 12881033 cumulative IPC: 3.882 (Simulation time: 00 hr 04 min 55 sec)
Heartbeat CPU 0 instructions: 60000000 cycles: 15383442 heartbeat IPC: 3.996 cumulative IPC: 3.996 (Simulation time: 00 hr 06 min 32 sec)
Heartbeat CPU 0 instructions: 70000001 cycles: 17886294 heartbeat IPC: 3.995 cumulative IPC: 3.996 (Simulation time: 00 hr 08 min 12 sec)
Heartbeat CPU 0 instructions: 80000000 cycles: 20388704 heartbeat IPC: 3.996 cumulative IPC: 3.996 (Simulation time: 00 hr 09 min 46 sec)
Heartbeat CPU 0 instructions: 90000000 cycles: 22891110 heartbeat IPC: 3.996 cumulative IPC: 3.996 (Simulation time: 00 hr 11 min 29 sec)
Heartbeat CPU 0 instructions: 100000000 cycles: 25393531 heartbeat IPC: 3.996 cumulative IPC: 3.996 (Simulation time: 00 hr 13 min 12 sec)
Heartbeat CPU 0 instructions: 110000001 cycles: 27895938 heartbeat IPC: 3.996 cumulative IPC: 3.996 (Simulation time: 00 hr 14 min 43 sec)
Heartbeat CPU 0 instructions: 120000000 cycles: 30398509 heartbeat IPC: 3.996 cumulative IPC: 3.996 (Simulation time: 00 hr 16 min 19 sec)
Heartbeat CPU 0 instructions: 130000003 cycles: 32900918 heartbeat IPC: 3.996 cumulative IPC: 3.996 (Simulation time: 00 hr 17 min 48 sec)
Heartbeat CPU 0 instructions: 140000003 cycles: 35403445 heartbeat IPC: 3.996 cumulative IPC: 3.996 (Simulation time: 00 hr 19 min 18 sec)
Heartbeat CPU 0 instructions: 150000001 cycles: 37905807 heartbeat IPC: 3.996 cumulative IPC: 3.996 (Simulation time: 00 hr 20 min 46 sec)
Heartbeat CPU 0 instructions: 160000003 cycles: 40408216 heartbeat IPC: 3.996 cumulative IPC: 3.996 (Simulation time: 00 hr 22 min 09 sec)
Heartbeat CPU 0 instructions: 170000003 cycles: 42911234 heartbeat IPC: 3.995 cumulative IPC: 3.996 (Simulation time: 00 hr 23 min 42 sec)
Heartbeat CPU 0 instructions: 180000002 cycles: 45413598 heartbeat IPC: 3.996 cumulative IPC: 3.996 (Simulation time: 00 hr 25 min 19 sec)
Heartbeat CPU 0 instructions: 190000003 cycles: 47915950 heartbeat IPC: 3.996 cumulative IPC: 3.996 (Simulation time: 00 hr 26 min 46 sec)
Heartbeat CPU 0 instructions: 200000000 cycles: 50418683 heartbeat IPC: 3.996 cumulative IPC: 3.996 (Simulation time: 00 hr 28 min 16 sec)
Heartbeat CPU 0 instructions: 210000001 cycles: 52921091 heartbeat IPC: 3.996 cumulative IPC: 3.996 (Simulation time: 00 hr 29 min 47 sec)
Heartbeat CPU 0 instructions: 220000004 cycles: 55423498 heartbeat IPC: 3.996 cumulative IPC: 3.996 (Simulation time: 00 hr 31 min 19 sec)
Heartbeat CPU 0 instructions: 230000000 cycles: 90393973 heartbeat IPC: 0.286 cumulative IPC: 2.322 (Simulation time: 00 hr 37 min 38 sec)
Heartbeat CPU 0 instructions: 240000000 cycles: 93773702 heartbeat IPC: 2.959 cumulative IPC: 2.349 (Simulation time: 00 hr 39 min 17 sec)
Heartbeat CPU 0 instructions: 250000000 cycles: 97180319 heartbeat IPC: 2.935 cumulative IPC: 2.372 (Simulation time: 00 hr 40 min 55 sec)
Heartbeat CPU 0 instructions: 260000004 cycles: 100557377 heartbeat IPC: 2.961 cumulative IPC: 2.395 (Simulation time: 00 hr 42 min 24 sec)
Heartbeat CPU 0 instructions: 270000000 cycles: 103963478 heartbeat IPC: 2.936 cumulative IPC: 2.415 (Simulation time: 00 hr 43 min 59 sec)
Heartbeat CPU 0 instructions: 280000000 cycles: 107439251 heartbeat IPC: 2.877 cumulative IPC: 2.432 (Simulation time: 00 hr 45 min 28 sec)
Heartbeat CPU 0 instructions: 290000002 cycles: 110856625 heartbeat IPC: 2.926 cumulative IPC: 2.45 (Simulation time: 00 hr 47 min 10 sec)
Heartbeat CPU 0 instructions: 300000003 cycles: 114275597 heartbeat IPC: 2.925 cumulative IPC: 2.466 (Simulation time: 00 hr 48 min 44 sec)
Heartbeat CPU 0 instructions: 310000000 cycles: 117712792 heartbeat IPC: 2.909 cumulative IPC: 2.48 (Simulation time: 00 hr 50 min 08 sec)
Heartbeat CPU 0 instructions: 320000000 cycles: 121149366 heartbeat IPC: 2.91 cumulative IPC: 2.494 (Simulation time: 00 hr 51 min 40 sec)
Heartbeat CPU 0 instructions: 330000002 cycles: 126532272 heartbeat IPC: 1.858 cumulative IPC: 2.464 (Simulation time: 00 hr 53 min 36 sec)
Heartbeat CPU 0 instructions: 340000002 cycles: 133096969 heartbeat IPC: 1.523 cumulative IPC: 2.412 (Simulation time: 00 hr 55 min 40 sec)
Heartbeat CPU 0 instructions: 350000000 cycles: 139694634 heartbeat IPC: 1.516 cumulative IPC: 2.366 (Simulation time: 00 hr 58 min 01 sec)
Heartbeat CPU 0 instructions: 360000002 cycles: 146233936 heartbeat IPC: 1.529 cumulative IPC: 2.325 (Simulation time: 01 hr 00 min 35 sec)
Heartbeat CPU 0 instructions: 370000000 cycles: 152869040 heartbeat IPC: 1.507 cumulative IPC: 2.286 (Simulation time: 01 hr 03 min 37 sec)
Heartbeat CPU 0 instructions: 380000000 cycles: 159539329 heartbeat IPC: 1.499 cumulative IPC: 2.25 (Simulation time: 01 hr 05 min 55 sec)
Heartbeat CPU 0 instructions: 390000000 cycles: 166199902 heartbeat IPC: 1.501 cumulative IPC: 2.218 (Simulation time: 01 hr 08 min 09 sec)
Heartbeat CPU 0 instructions: 400000000 cycles: 172903701 heartbeat IPC: 1.492 cumulative IPC: 2.187 (Simulation time: 01 hr 10 min 08 sec)
Heartbeat CPU 0 instructions: 410000002 cycles: 179517023 heartbeat IPC: 1.512 cumulative IPC: 2.16 (Simulation time: 01 hr 11 min 51 sec)
Heartbeat CPU 0 instructions: 420000004 cycles: 185991459 heartbeat IPC: 1.545 cumulative IPC: 2.137 (Simulation time: 01 hr 14 min 05 sec)
Heartbeat CPU 0 instructions: 430000000 cycles: 190775603 heartbeat IPC: 2.09 cumulative IPC: 2.136 (Simulation time: 01 hr 16 min 14 sec)
Heartbeat CPU 0 instructions: 440000001 cycles: 195882893 heartbeat IPC: 1.958 cumulative IPC: 2.131 (Simulation time: 01 hr 18 min 26 sec)
Heartbeat CPU 0 instructions: 450000002 cycles: 201291620 heartbeat IPC: 1.849 cumulative IPC: 2.123 (Simulation time: 01 hr 20 min 33 sec)
Heartbeat CPU 0 instructions: 460000002 cycles: 207238107 heartbeat IPC: 1.682 cumulative IPC: 2.11 (Simulation time: 01 hr 22 min 38 sec)
Heartbeat CPU 0 instructions: 470000001 cycles: 213775499 heartbeat IPC: 1.53 cumulative IPC: 2.091 (Simulation time: 01 hr 24 min 49 sec)
Heartbeat CPU 0 instructions: 480000000 cycles: 220431471 heartbeat IPC: 1.502 cumulative IPC: 2.072 (Simulation time: 01 hr 26 min 56 sec)
Heartbeat CPU 0 instructions: 490000003 cycles: 227086412 heartbeat IPC: 1.503 cumulative IPC: 2.054 (Simulation time: 01 hr 29 min 13 sec)
Heartbeat CPU 0 instructions: 500000001 cycles: 233762389 heartbeat IPC: 1.498 cumulative IPC: 2.037 (Simulation time: 01 hr 31 min 02 sec)
Heartbeat CPU 0 instructions: 510000001 cycles: 240431103 heartbeat IPC: 1.5 cumulative IPC: 2.022 (Simulation time: 01 hr 32 min 36 sec)
Heartbeat CPU 0 instructions: 520000002 cycles: 326067465 heartbeat IPC: 0.1168 cumulative IPC: 1.501 (Simulation time: 01 hr 49 min 31 sec)
Heartbeat CPU 0 instructions: 530000001 cycles: 464947858 heartbeat IPC: 0.072 cumulative IPC: 1.062 (Simulation time: 02 hr 17 min 04 sec)
Heartbeat CPU 0 instructions: 540000002 cycles: 490004330 heartbeat IPC: 0.3991 cumulative IPC: 1.027 (Simulation time: 02 hr 22 min 35 sec)
Heartbeat CPU 0 instructions: 550000003 cycles: 512708598 heartbeat IPC: 0.4404 cumulative IPC: 1 (Simulation time: 02 hr 26 min 57 sec)
Heartbeat CPU 0 instructions: 560000000 cycles: 538171755 heartbeat IPC: 0.3927 cumulative IPC: 0.9709 (Simulation time: 02 hr 32 min 02 sec)
Heartbeat CPU 0 instructions: 570000003 cycles: 563148418 heartbeat IPC: 0.4004 cumulative IPC: 0.945 (Simulation time: 02 hr 37 min 26 sec)
Heartbeat CPU 0 instructions: 580000004 cycles: 587321794 heartbeat IPC: 0.4137 cumulative IPC: 0.9226 (Simulation time: 02 hr 42 min 38 sec)
Heartbeat CPU 0 instructions: 590000000 cycles: 610969060 heartbeat IPC: 0.4229 cumulative IPC: 0.9029 (Simulation time: 02 hr 47 min 43 sec)
*** Reached end of trace: (0, "traces/bt.A.champsimtrace")
Heartbeat CPU 0 instructions: 600000003 cycles: 636068538 heartbeat IPC: 0.3984 cumulative IPC: 0.8826 (Simulation time: 02 hr 54 min 03 sec)
Heartbeat CPU 0 instructions: 610000002 cycles: 661672736 heartbeat IPC: 0.3906 cumulative IPC: 0.8631 (Simulation time: 02 hr 58 min 51 sec)
Heartbeat CPU 0 instructions: 620000001 cycles: 664175067 heartbeat IPC: 3.996 cumulative IPC: 0.8752 (Simulation time: 03 hr 00 min 26 sec)
Heartbeat CPU 0 instructions: 630000003 cycles: 666677385 heartbeat IPC: 3.996 cumulative IPC: 0.8871 (Simulation time: 03 hr 01 min 48 sec)
Heartbeat CPU 0 instructions: 640000000 cycles: 669179702 heartbeat IPC: 3.996 cumulative IPC: 0.899 (Simulation time: 03 hr 02 min 56 sec)
Heartbeat CPU 0 instructions: 650000001 cycles: 671682009 heartbeat IPC: 3.996 cumulative IPC: 0.9107 (Simulation time: 03 hr 04 min 16 sec)
Simulation finished CPU 0 instructions: 600000000 cycles: 658800977 cumulative IPC: 0.9107 (Simulation time: 03 hr 04 min 16 sec)
Simulation complete CPU 0 instructions: 600000000 cycles: 658800977 cumulative IPC: 0.9107 (Simulation time: 03 hr 04 min 16 sec)

ChampSim completed all CPUs

=== Simulation ===
CPU 0 runs traces/bt.A.champsimtrace
Region of Interest Statistics

CPU 0 cumulative IPC: 0.9107 instructions: 600000000 cycles: 658800977
CPU 0 Branch Prediction Accuracy: 99.28% MPKI: 0.1297 Average ROB Occupancy at Mispredict: 278.4
Branch type MPKI
BRANCH_DIRECT_JUMP: 5e-06
BRANCH_INDIRECT: 8.83e-05
BRANCH_CONDITIONAL: 0.13
BRANCH_DIRECT_CALL: 6.67e-06
BRANCH_INDIRECT_CALL: 3.5e-05
BRANCH_RETURN: 2.17e-05

LLC TOTAL        ACCESS:    7766309 HIT:    4702788 MISS:    3063521
LLC LOAD         ACCESS:    2240440 HIT:    1392466 MISS:     847974
LLC RFO          ACCESS:     889432 HIT:      51568 MISS:     837864
LLC PREFETCH     ACCESS:    2644288 HIT:    1517414 MISS:    1126874
LLC WRITE        ACCESS:    1988770 HIT:    1740201 MISS:     248569
LLC TRANSLATION  ACCESS:       3379 HIT:       1139 MISS:       2240
LLC PREFETCH REQUESTED:    2644288 ISSUED:    2644288 USEFUL:     938572 USELESS:      17040
LLC AVERAGE MISS LATENCY: 1372 cycles
cpu0_DTLB TOTAL        ACCESS:  126947987 HIT:  126220287 MISS:     727700
cpu0_DTLB LOAD         ACCESS:  126947987 HIT:  126220287 MISS:     727700
cpu0_DTLB RFO          ACCESS:          0 HIT:          0 MISS:          0
cpu0_DTLB PREFETCH     ACCESS:          0 HIT:          0 MISS:          0
cpu0_DTLB WRITE        ACCESS:          0 HIT:          0 MISS:          0
cpu0_DTLB TRANSLATION  ACCESS:          0 HIT:          0 MISS:          0
cpu0_DTLB PREFETCH REQUESTED:          0 ISSUED:          0 USEFUL:          0 USELESS:          0
cpu0_DTLB AVERAGE MISS LATENCY: 14.3 cycles
cpu0_ITLB TOTAL        ACCESS:     142068 HIT:     141825 MISS:        243
cpu0_ITLB LOAD         ACCESS:     142068 HIT:     141825 MISS:        243
cpu0_ITLB RFO          ACCESS:          0 HIT:          0 MISS:          0
cpu0_ITLB PREFETCH     ACCESS:          0 HIT:          0 MISS:          0
cpu0_ITLB WRITE        ACCESS:          0 HIT:          0 MISS:          0
cpu0_ITLB TRANSLATION  ACCESS:          0 HIT:          0 MISS:          0
cpu0_ITLB PREFETCH REQUESTED:          0 ISSUED:          0 USEFUL:          0 USELESS:          0
cpu0_ITLB AVERAGE MISS LATENCY: 339 cycles
cpu0_L1D TOTAL        ACCESS:  195048247 HIT:  182237876 MISS:   12810371
cpu0_L1D LOAD         ACCESS:  160366007 HIT:  151710384 MISS:    8655623
cpu0_L1D RFO          ACCESS:          0 HIT:          0 MISS:          0
cpu0_L1D PREFETCH     ACCESS:          0 HIT:          0 MISS:          0
cpu0_L1D WRITE        ACCESS:   34635470 HIT:   30497840 MISS:    4137630
cpu0_L1D TRANSLATION  ACCESS:      46770 HIT:      29652 MISS:      17118
cpu0_L1D PREFETCH REQUESTED:          0 ISSUED:          0 USEFUL:          0 USELESS:          0
cpu0_L1D AVERAGE MISS LATENCY: 169 cycles
cpu0_L1I TOTAL        ACCESS:     191588 HIT:     188814 MISS:       2774
cpu0_L1I LOAD         ACCESS:     191588 HIT:     188814 MISS:       2774
cpu0_L1I RFO          ACCESS:          0 HIT:          0 MISS:          0
cpu0_L1I PREFETCH     ACCESS:          0 HIT:          0 MISS:          0
cpu0_L1I WRITE        ACCESS:          0 HIT:          0 MISS:          0
cpu0_L1I TRANSLATION  ACCESS:          0 HIT:          0 MISS:          0
cpu0_L1I PREFETCH REQUESTED:          0 ISSUED:          0 USEFUL:          0 USELESS:          0
cpu0_L1I AVERAGE MISS LATENCY: 532.8 cycles
cpu0_L2C TOTAL        ACCESS:    5260096 HIT:    2126474 MISS:    3133622
cpu0_L2C LOAD         ACCESS:    2353636 HIT:     113168 MISS:    2240468
cpu0_L2C RFO          ACCESS:     889984 HIT:        552 MISS:     889432
cpu0_L2C PREFETCH     ACCESS:          0 HIT:          0 MISS:          0
cpu0_L2C WRITE        ACCESS:    1999360 HIT:    1999017 MISS:        343
cpu0_L2C TRANSLATION  ACCESS:      17116 HIT:      13737 MISS:       3379
cpu0_L2C PREFETCH REQUESTED:          0 ISSUED:          0 USEFUL:          0 USELESS:          0
cpu0_L2C AVERAGE MISS LATENCY: 856.2 cycles
cpu0_STLB TOTAL        ACCESS:     284877 HIT:     238132 MISS:      46745
cpu0_STLB LOAD         ACCESS:     284877 HIT:     238132 MISS:      46745
cpu0_STLB RFO          ACCESS:          0 HIT:          0 MISS:          0
cpu0_STLB PREFETCH     ACCESS:          0 HIT:          0 MISS:          0
cpu0_STLB WRITE        ACCESS:          0 HIT:          0 MISS:          0
cpu0_STLB TRANSLATION  ACCESS:          0 HIT:          0 MISS:          0
cpu0_STLB PREFETCH REQUESTED:          0 ISSUED:          0 USEFUL:          0 USELESS:          0
cpu0_STLB AVERAGE MISS LATENCY: 300.1 cycles

DRAM Statistics

Channel 0 RQ ROW_BUFFER_HIT:     882019
  ROW_BUFFER_MISS:    1708807
 AVG DBUS CONGESTED CYCLE: 3.97
WQ ROW_BUFFER_HIT: Channel 0 
  ROW_BUFFER_MISS:     237670
  FULL:    1451652
