WARNING: physical memory size is smaller than virtual memory size.

*** ChampSim Multicore Out-of-Order Simulator ***
Warmup Instructions: 50000000
Simulation Instructions: 600000000
Number of CPUs: 1
Page size: 4096

CPU 0 Tage branch predictor
Off-chip DRAM Size: 4 GiB Channels: 1 Width: 64-bit Data Race: 3200 MT/s
Heartbeat CPU 0 instructions: 10000003 cycles: 2881028 heartbeat IPC: 3.471 cumulative IPC: 3.471 (Simulation time: 00 hr 00 min 57 sec)
Heartbeat CPU 0 instructions: 20000003 cycles: 5381028 heartbeat IPC: 4 cumulative IPC: 3.717 (Simulation time: 00 hr 01 min 49 sec)
Heartbeat CPU 0 instructions: 30000003 cycles: 7881028 heartbeat IPC: 4 cumulative IPC: 3.807 (Simulation time: 00 hr 02 min 40 sec)
Heartbeat CPU 0 instructions: 40000003 cycles: 10381028 heartbeat IPC: 4 cumulative IPC: 3.853 (Simulation time: 00 hr 03 min 32 sec)
Heartbeat CPU 0 instructions: 50000003 cycles: 12881028 heartbeat IPC: 4 cumulative IPC: 3.882 (Simulation time: 00 hr 04 min 25 sec)
Warmup finished CPU 0 instructions: 50000003 cycles: 12881029 cumulative IPC: 3.882 (Simulation time: 00 hr 04 min 25 sec)
Warmup complete CPU 0 instructions: 50000003 cycles: 12881029 cumulative IPC: 3.882 (Simulation time: 00 hr 04 min 25 sec)
Heartbeat CPU 0 instructions: 60000004 cycles: 15381065 heartbeat IPC: 4 cumulative IPC: 4 (Simulation time: 00 hr 05 min 35 sec)
Heartbeat CPU 0 instructions: 70000002 cycles: 17881096 heartbeat IPC: 4 cumulative IPC: 4 (Simulation time: 00 hr 06 min 34 sec)
Heartbeat CPU 0 instructions: 80000002 cycles: 20381129 heartbeat IPC: 4 cumulative IPC: 4 (Simulation time: 00 hr 07 min 32 sec)
Heartbeat CPU 0 instructions: 90000004 cycles: 22881241 heartbeat IPC: 4 cumulative IPC: 4 (Simulation time: 00 hr 08 min 32 sec)
Heartbeat CPU 0 instructions: 100000004 cycles: 25381566 heartbeat IPC: 3.999 cumulative IPC: 4 (Simulation time: 00 hr 09 min 31 sec)
Heartbeat CPU 0 instructions: 110000000 cycles: 27881904 heartbeat IPC: 3.999 cumulative IPC: 4 (Simulation time: 00 hr 10 min 29 sec)
Heartbeat CPU 0 instructions: 120000003 cycles: 30383075 heartbeat IPC: 3.998 cumulative IPC: 4 (Simulation time: 00 hr 11 min 29 sec)
Heartbeat CPU 0 instructions: 130000000 cycles: 32883890 heartbeat IPC: 3.999 cumulative IPC: 3.999 (Simulation time: 00 hr 12 min 28 sec)
Heartbeat CPU 0 instructions: 140000001 cycles: 35384905 heartbeat IPC: 3.998 cumulative IPC: 3.999 (Simulation time: 00 hr 13 min 25 sec)
Heartbeat CPU 0 instructions: 150000000 cycles: 37885444 heartbeat IPC: 3.999 cumulative IPC: 3.999 (Simulation time: 00 hr 14 min 25 sec)
Heartbeat CPU 0 instructions: 160000001 cycles: 40386713 heartbeat IPC: 3.998 cumulative IPC: 3.999 (Simulation time: 00 hr 15 min 22 sec)
Heartbeat CPU 0 instructions: 170000002 cycles: 42888558 heartbeat IPC: 3.997 cumulative IPC: 3.999 (Simulation time: 00 hr 16 min 20 sec)
Heartbeat CPU 0 instructions: 180000001 cycles: 45388989 heartbeat IPC: 3.999 cumulative IPC: 3.999 (Simulation time: 00 hr 17 min 20 sec)
Heartbeat CPU 0 instructions: 190000004 cycles: 47889853 heartbeat IPC: 3.999 cumulative IPC: 3.999 (Simulation time: 00 hr 18 min 18 sec)
Heartbeat CPU 0 instructions: 200000000 cycles: 50391048 heartbeat IPC: 3.998 cumulative IPC: 3.999 (Simulation time: 00 hr 19 min 17 sec)
Heartbeat CPU 0 instructions: 210000000 cycles: 52891470 heartbeat IPC: 3.999 cumulative IPC: 3.999 (Simulation time: 00 hr 20 min 16 sec)
Heartbeat CPU 0 instructions: 220000000 cycles: 55393321 heartbeat IPC: 3.997 cumulative IPC: 3.999 (Simulation time: 00 hr 21 min 14 sec)
Heartbeat CPU 0 instructions: 230000004 cycles: 88500393 heartbeat IPC: 0.3021 cumulative IPC: 2.38 (Simulation time: 00 hr 26 min 41 sec)
Heartbeat CPU 0 instructions: 240000001 cycles: 91864473 heartbeat IPC: 2.973 cumulative IPC: 2.406 (Simulation time: 00 hr 27 min 51 sec)
Heartbeat CPU 0 instructions: 250000000 cycles: 95244253 heartbeat IPC: 2.959 cumulative IPC: 2.428 (Simulation time: 00 hr 29 min 01 sec)
Heartbeat CPU 0 instructions: 260000004 cycles: 98622940 heartbeat IPC: 2.96 cumulative IPC: 2.449 (Simulation time: 00 hr 30 min 11 sec)
Heartbeat CPU 0 instructions: 270000000 cycles: 102009689 heartbeat IPC: 2.953 cumulative IPC: 2.468 (Simulation time: 00 hr 31 min 22 sec)
Heartbeat CPU 0 instructions: 280000001 cycles: 105423187 heartbeat IPC: 2.93 cumulative IPC: 2.485 (Simulation time: 00 hr 32 min 33 sec)
Heartbeat CPU 0 instructions: 290000000 cycles: 108772194 heartbeat IPC: 2.986 cumulative IPC: 2.503 (Simulation time: 00 hr 33 min 42 sec)
Heartbeat CPU 0 instructions: 300000003 cycles: 112135241 heartbeat IPC: 2.973 cumulative IPC: 2.519 (Simulation time: 00 hr 34 min 53 sec)
Heartbeat CPU 0 instructions: 310000001 cycles: 115518046 heartbeat IPC: 2.956 cumulative IPC: 2.533 (Simulation time: 00 hr 36 min 03 sec)
Heartbeat CPU 0 instructions: 320000001 cycles: 118884524 heartbeat IPC: 2.97 cumulative IPC: 2.547 (Simulation time: 00 hr 37 min 13 sec)
Heartbeat CPU 0 instructions: 330000002 cycles: 124797792 heartbeat IPC: 1.691 cumulative IPC: 2.502 (Simulation time: 00 hr 38 min 52 sec)
Heartbeat CPU 0 instructions: 340000003 cycles: 131698319 heartbeat IPC: 1.449 cumulative IPC: 2.441 (Simulation time: 00 hr 40 min 41 sec)
Heartbeat CPU 0 instructions: 350000000 cycles: 138498260 heartbeat IPC: 1.471 cumulative IPC: 2.388 (Simulation time: 00 hr 42 min 31 sec)
Heartbeat CPU 0 instructions: 360000001 cycles: 145342937 heartbeat IPC: 1.461 cumulative IPC: 2.34 (Simulation time: 00 hr 44 min 20 sec)
Heartbeat CPU 0 instructions: 370000004 cycles: 152069139 heartbeat IPC: 1.487 cumulative IPC: 2.299 (Simulation time: 00 hr 46 min 07 sec)
Heartbeat CPU 0 instructions: 380000003 cycles: 158998984 heartbeat IPC: 1.443 cumulative IPC: 2.258 (Simulation time: 00 hr 47 min 56 sec)
Heartbeat CPU 0 instructions: 390000000 cycles: 165743089 heartbeat IPC: 1.483 cumulative IPC: 2.224 (Simulation time: 00 hr 49 min 45 sec)
Heartbeat CPU 0 instructions: 400000001 cycles: 172623715 heartbeat IPC: 1.453 cumulative IPC: 2.191 (Simulation time: 00 hr 51 min 33 sec)
Heartbeat CPU 0 instructions: 410000004 cycles: 179395862 heartbeat IPC: 1.477 cumulative IPC: 2.162 (Simulation time: 00 hr 53 min 21 sec)
Heartbeat CPU 0 instructions: 420000004 cycles: 186159607 heartbeat IPC: 1.478 cumulative IPC: 2.135 (Simulation time: 00 hr 55 min 10 sec)
Heartbeat CPU 0 instructions: 430000004 cycles: 193218056 heartbeat IPC: 1.417 cumulative IPC: 2.107 (Simulation time: 00 hr 57 min 01 sec)
Heartbeat CPU 0 instructions: 440000004 cycles: 200583951 heartbeat IPC: 1.358 cumulative IPC: 2.078 (Simulation time: 00 hr 58 min 58 sec)
Heartbeat CPU 0 instructions: 450000000 cycles: 207949224 heartbeat IPC: 1.358 cumulative IPC: 2.051 (Simulation time: 01 hr 00 min 52 sec)
Heartbeat CPU 0 instructions: 460000001 cycles: 215380838 heartbeat IPC: 1.346 cumulative IPC: 2.025 (Simulation time: 01 hr 02 min 46 sec)
Heartbeat CPU 0 instructions: 470000000 cycles: 222755076 heartbeat IPC: 1.356 cumulative IPC: 2.001 (Simulation time: 01 hr 04 min 38 sec)
Heartbeat CPU 0 instructions: 480000003 cycles: 230096719 heartbeat IPC: 1.362 cumulative IPC: 1.98 (Simulation time: 01 hr 06 min 32 sec)
Heartbeat CPU 0 instructions: 490000004 cycles: 237471136 heartbeat IPC: 1.356 cumulative IPC: 1.959 (Simulation time: 01 hr 08 min 26 sec)
Heartbeat CPU 0 instructions: 500000002 cycles: 244756656 heartbeat IPC: 1.373 cumulative IPC: 1.941 (Simulation time: 01 hr 10 min 20 sec)
Heartbeat CPU 0 instructions: 510000003 cycles: 251989507 heartbeat IPC: 1.383 cumulative IPC: 1.924 (Simulation time: 01 hr 12 min 12 sec)
Heartbeat CPU 0 instructions: 520000003 cycles: 318219952 heartbeat IPC: 0.151 cumulative IPC: 1.539 (Simulation time: 01 hr 24 min 45 sec)
Heartbeat CPU 0 instructions: 530000002 cycles: 442951206 heartbeat IPC: 0.08017 cumulative IPC: 1.116 (Simulation time: 01 hr 47 min 59 sec)
Heartbeat CPU 0 instructions: 540000003 cycles: 463969756 heartbeat IPC: 0.4758 cumulative IPC: 1.086 (Simulation time: 01 hr 52 min 23 sec)
Heartbeat CPU 0 instructions: 550000002 cycles: 492441834 heartbeat IPC: 0.3512 cumulative IPC: 1.043 (Simulation time: 01 hr 58 min 09 sec)
Heartbeat CPU 0 instructions: 560000000 cycles: 524211403 heartbeat IPC: 0.3148 cumulative IPC: 0.9974 (Simulation time: 02 hr 04 min 27 sec)
Heartbeat CPU 0 instructions: 570000002 cycles: 555715839 heartbeat IPC: 0.3174 cumulative IPC: 0.9579 (Simulation time: 02 hr 10 min 46 sec)
Heartbeat CPU 0 instructions: 580000001 cycles: 577981568 heartbeat IPC: 0.4491 cumulative IPC: 0.9379 (Simulation time: 02 hr 15 min 26 sec)
Heartbeat CPU 0 instructions: 590000001 cycles: 601381050 heartbeat IPC: 0.4274 cumulative IPC: 0.9176 (Simulation time: 02 hr 20 min 17 sec)
*** Reached end of trace: (0, "traces/bt.A.champsimtrace")
Heartbeat CPU 0 instructions: 600000001 cycles: 632283911 heartbeat IPC: 0.3236 cumulative IPC: 0.888 (Simulation time: 02 hr 26 min 31 sec)
Heartbeat CPU 0 instructions: 610000004 cycles: 651689653 heartbeat IPC: 0.5153 cumulative IPC: 0.8766 (Simulation time: 02 hr 29 min 53 sec)
Heartbeat CPU 0 instructions: 620000000 cycles: 654189653 heartbeat IPC: 4 cumulative IPC: 0.8888 (Simulation time: 02 hr 30 min 52 sec)
Heartbeat CPU 0 instructions: 630000002 cycles: 656689652 heartbeat IPC: 4 cumulative IPC: 0.9009 (Simulation time: 02 hr 31 min 51 sec)
Heartbeat CPU 0 instructions: 640000003 cycles: 659189653 heartbeat IPC: 4 cumulative IPC: 0.9129 (Simulation time: 02 hr 32 min 50 sec)
Heartbeat CPU 0 instructions: 650000003 cycles: 661689650 heartbeat IPC: 4 cumulative IPC: 0.9248 (Simulation time: 02 hr 33 min 48 sec)
Simulation finished CPU 0 instructions: 600000000 cycles: 648808622 cumulative IPC: 0.9248 (Simulation time: 02 hr 33 min 48 sec)
Simulation complete CPU 0 instructions: 600000000 cycles: 648808622 cumulative IPC: 0.9248 (Simulation time: 02 hr 33 min 48 sec)

ChampSim completed all CPUs

=== Simulation ===
CPU 0 runs traces/bt.A.champsimtrace
Region of Interest Statistics

CPU 0 cumulative IPC: 0.9248 instructions: 600000000 cycles: 648808622
CPU 0 Branch Prediction Accuracy: 99.98% MPKI: 0.004067 Average ROB Occupancy at Mispredict: 106.6
Branch type MPKI
BRANCH_DIRECT_JUMP: 5e-06
BRANCH_INDIRECT: 7.67e-05
BRANCH_CONDITIONAL: 0.00392
BRANCH_DIRECT_CALL: 6.67e-06
BRANCH_INDIRECT_CALL: 3.33e-05
BRANCH_RETURN: 2.33e-05

LLC TOTAL        ACCESS:    7769943 HIT:    3519010 MISS:    4250933
LLC LOAD         ACCESS:    2236362 HIT:    1328401 MISS:     907961
LLC RFO          ACCESS:     889407 HIT:     129460 MISS:     759947
LLC PREFETCH     ACCESS:    2656164 HIT:    1378483 MISS:    1277681
LLC WRITE        ACCESS:    1984651 HIT:     682420 MISS:    1302231
LLC TRANSLATION  ACCESS:       3359 HIT:        246 MISS:       3113
LLC PREFETCH REQUESTED:    2656164 ISSUED:    2656164 USEFUL:     914887 USELESS:      27016
LLC AVERAGE MISS LATENCY: 947.2 cycles
cpu0_DTLB TOTAL        ACCESS:  127146659 HIT:  126376124 MISS:     770535
cpu0_DTLB LOAD         ACCESS:  127146659 HIT:  126376124 MISS:     770535
cpu0_DTLB RFO          ACCESS:          0 HIT:          0 MISS:          0
cpu0_DTLB PREFETCH     ACCESS:          0 HIT:          0 MISS:          0
cpu0_DTLB WRITE        ACCESS:          0 HIT:          0 MISS:          0
cpu0_DTLB TRANSLATION  ACCESS:          0 HIT:          0 MISS:          0
cpu0_DTLB PREFETCH REQUESTED:          0 ISSUED:          0 USEFUL:          0 USELESS:          0
cpu0_DTLB AVERAGE MISS LATENCY: 14.33 cycles
cpu0_ITLB TOTAL        ACCESS:     173393 HIT:     173157 MISS:        236
cpu0_ITLB LOAD         ACCESS:     173393 HIT:     173157 MISS:        236
cpu0_ITLB RFO          ACCESS:          0 HIT:          0 MISS:          0
cpu0_ITLB PREFETCH     ACCESS:          0 HIT:          0 MISS:          0
cpu0_ITLB WRITE        ACCESS:          0 HIT:          0 MISS:          0
cpu0_ITLB TRANSLATION  ACCESS:          0 HIT:          0 MISS:          0
cpu0_ITLB PREFETCH REQUESTED:          0 ISSUED:          0 USEFUL:          0 USELESS:          0
cpu0_ITLB AVERAGE MISS LATENCY: 287.9 cycles
cpu0_L1D TOTAL        ACCESS:  195649834 HIT:  183195945 MISS:   12453889
cpu0_L1D LOAD         ACCESS:  160967539 HIT:  152631865 MISS:    8335674
cpu0_L1D RFO          ACCESS:          0 HIT:          0 MISS:          0
cpu0_L1D PREFETCH     ACCESS:          0 HIT:          0 MISS:          0
cpu0_L1D WRITE        ACCESS:   34635545 HIT:   30534386 MISS:    4101159
cpu0_L1D TRANSLATION  ACCESS:      46750 HIT:      29694 MISS:      17056
cpu0_L1D PREFETCH REQUESTED:          0 ISSUED:          0 USEFUL:          0 USELESS:          0
cpu0_L1D AVERAGE MISS LATENCY: 162.9 cycles
cpu0_L1I TOTAL        ACCESS:     206193 HIT:     203296 MISS:       2897
cpu0_L1I LOAD         ACCESS:     206193 HIT:     203296 MISS:       2897
cpu0_L1I RFO          ACCESS:          0 HIT:          0 MISS:          0
cpu0_L1I PREFETCH     ACCESS:          0 HIT:          0 MISS:          0
cpu0_L1I WRITE        ACCESS:          0 HIT:          0 MISS:          0
cpu0_L1I TRANSLATION  ACCESS:          0 HIT:          0 MISS:          0
cpu0_L1I PREFETCH REQUESTED:          0 ISSUED:          0 USEFUL:          0 USELESS:          0
cpu0_L1I AVERAGE MISS LATENCY: 427 cycles
cpu0_L2C TOTAL        ACCESS:    5261609 HIT:    2131945 MISS:    3129664
cpu0_L2C LOAD         ACCESS:    2354818 HIT:     118265 MISS:    2236553
cpu0_L2C RFO          ACCESS:     890358 HIT:        951 MISS:     889407
cpu0_L2C PREFETCH     ACCESS:          0 HIT:          0 MISS:          0
cpu0_L2C WRITE        ACCESS:    1999380 HIT:    1999035 MISS:        345
cpu0_L2C TRANSLATION  ACCESS:      17053 HIT:      13694 MISS:       3359
cpu0_L2C PREFETCH REQUESTED:          0 ISSUED:          0 USEFUL:          0 USELESS:          0
cpu0_L2C AVERAGE MISS LATENCY: 794.9 cycles
cpu0_STLB TOTAL        ACCESS:     297048 HIT:     250313 MISS:      46735
cpu0_STLB LOAD         ACCESS:     297048 HIT:     250313 MISS:      46735
cpu0_STLB RFO          ACCESS:          0 HIT:          0 MISS:          0
cpu0_STLB PREFETCH     ACCESS:          0 HIT:          0 MISS:          0
cpu0_STLB WRITE        ACCESS:          0 HIT:          0 MISS:          0
cpu0_STLB TRANSLATION  ACCESS:          0 HIT:          0 MISS:          0
cpu0_STLB PREFETCH REQUESTED:          0 ISSUED:          0 USEFUL:          0 USELESS:          0
cpu0_STLB AVERAGE MISS LATENCY: 331.6 cycles

DRAM Statistics

Channel 0 RQ ROW_BUFFER_HIT:     936507
  ROW_BUFFER_MISS:    1613848
 AVG DBUS CONGESTED CYCLE: 3.958
WQ ROW_BUFFER_HIT: Channel 0 
  ROW_BUFFER_MISS:     679404
  FULL:    1088882
