WARNING: physical memory size is smaller than virtual memory size.

*** ChampSim Multicore Out-of-Order Simulator ***
Warmup Instructions: 50000000
Simulation Instructions: 600000000
Number of CPUs: 1
Page size: 4096

CPU 0 Tage branch predictor
Off-chip DRAM Size: 4 GiB Channels: 1 Width: 64-bit Data Race: 3200 MT/s
Heartbeat CPU 0 instructions: 10000000 cycles: 2881042 heartbeat IPC: 3.471 cumulative IPC: 3.471 (Simulation time: 00 hr 00 min 18 sec)
Heartbeat CPU 0 instructions: 20000000 cycles: 5381042 heartbeat IPC: 4 cumulative IPC: 3.717 (Simulation time: 00 hr 00 min 43 sec)
Heartbeat CPU 0 instructions: 30000000 cycles: 7881042 heartbeat IPC: 4 cumulative IPC: 3.807 (Simulation time: 00 hr 01 min 19 sec)
Heartbeat CPU 0 instructions: 40000000 cycles: 10381042 heartbeat IPC: 4 cumulative IPC: 3.853 (Simulation time: 00 hr 02 min 01 sec)
Heartbeat CPU 0 instructions: 50000000 cycles: 12881042 heartbeat IPC: 4 cumulative IPC: 3.882 (Simulation time: 00 hr 02 min 42 sec)
Warmup finished CPU 0 instructions: 50000000 cycles: 12881043 cumulative IPC: 3.882 (Simulation time: 00 hr 02 min 42 sec)
Warmup complete CPU 0 instructions: 50000000 cycles: 12881043 cumulative IPC: 3.882 (Simulation time: 00 hr 02 min 42 sec)
Heartbeat CPU 0 instructions: 60000004 cycles: 15381167 heartbeat IPC: 4 cumulative IPC: 4 (Simulation time: 00 hr 03 min 33 sec)
Heartbeat CPU 0 instructions: 70000002 cycles: 17882767 heartbeat IPC: 3.997 cumulative IPC: 3.999 (Simulation time: 00 hr 04 min 24 sec)
Heartbeat CPU 0 instructions: 80000002 cycles: 20383201 heartbeat IPC: 3.999 cumulative IPC: 3.999 (Simulation time: 00 hr 05 min 14 sec)
Heartbeat CPU 0 instructions: 90000004 cycles: 22884614 heartbeat IPC: 3.998 cumulative IPC: 3.999 (Simulation time: 00 hr 06 min 05 sec)
Heartbeat CPU 0 instructions: 100000000 cycles: 25384908 heartbeat IPC: 4 cumulative IPC: 3.999 (Simulation time: 00 hr 06 min 57 sec)
Heartbeat CPU 0 instructions: 110000002 cycles: 27885259 heartbeat IPC: 3.999 cumulative IPC: 3.999 (Simulation time: 00 hr 07 min 49 sec)
Heartbeat CPU 0 instructions: 120000000 cycles: 30385371 heartbeat IPC: 4 cumulative IPC: 3.999 (Simulation time: 00 hr 08 min 39 sec)
Heartbeat CPU 0 instructions: 130000002 cycles: 32889853 heartbeat IPC: 3.993 cumulative IPC: 3.998 (Simulation time: 00 hr 09 min 27 sec)
Heartbeat CPU 0 instructions: 140000004 cycles: 35390491 heartbeat IPC: 3.999 cumulative IPC: 3.998 (Simulation time: 00 hr 10 min 18 sec)
Heartbeat CPU 0 instructions: 150000000 cycles: 37891297 heartbeat IPC: 3.999 cumulative IPC: 3.998 (Simulation time: 00 hr 11 min 05 sec)
Heartbeat CPU 0 instructions: 160000003 cycles: 40391838 heartbeat IPC: 3.999 cumulative IPC: 3.998 (Simulation time: 00 hr 11 min 53 sec)
Heartbeat CPU 0 instructions: 170000002 cycles: 42893799 heartbeat IPC: 3.997 cumulative IPC: 3.998 (Simulation time: 00 hr 12 min 39 sec)
Heartbeat CPU 0 instructions: 180000000 cycles: 45394308 heartbeat IPC: 3.999 cumulative IPC: 3.998 (Simulation time: 00 hr 13 min 24 sec)
Heartbeat CPU 0 instructions: 190000003 cycles: 47894762 heartbeat IPC: 3.999 cumulative IPC: 3.998 (Simulation time: 00 hr 14 min 09 sec)
Heartbeat CPU 0 instructions: 200000000 cycles: 50396377 heartbeat IPC: 3.997 cumulative IPC: 3.998 (Simulation time: 00 hr 14 min 52 sec)
Heartbeat CPU 0 instructions: 210000000 cycles: 52898147 heartbeat IPC: 3.997 cumulative IPC: 3.998 (Simulation time: 00 hr 15 min 35 sec)
Heartbeat CPU 0 instructions: 220000003 cycles: 55399016 heartbeat IPC: 3.999 cumulative IPC: 3.998 (Simulation time: 00 hr 16 min 20 sec)
Heartbeat CPU 0 instructions: 230000002 cycles: 89427573 heartbeat IPC: 0.2939 cumulative IPC: 2.352 (Simulation time: 00 hr 20 min 17 sec)
Heartbeat CPU 0 instructions: 240000002 cycles: 92878265 heartbeat IPC: 2.898 cumulative IPC: 2.375 (Simulation time: 00 hr 21 min 16 sec)
Heartbeat CPU 0 instructions: 250000000 cycles: 96266231 heartbeat IPC: 2.952 cumulative IPC: 2.399 (Simulation time: 00 hr 22 min 16 sec)
Heartbeat CPU 0 instructions: 260000002 cycles: 99671043 heartbeat IPC: 2.937 cumulative IPC: 2.42 (Simulation time: 00 hr 23 min 14 sec)
Heartbeat CPU 0 instructions: 270000003 cycles: 103096109 heartbeat IPC: 2.92 cumulative IPC: 2.439 (Simulation time: 00 hr 24 min 10 sec)
Heartbeat CPU 0 instructions: 280000003 cycles: 106532614 heartbeat IPC: 2.91 cumulative IPC: 2.456 (Simulation time: 00 hr 25 min 05 sec)
Heartbeat CPU 0 instructions: 290000002 cycles: 109937953 heartbeat IPC: 2.937 cumulative IPC: 2.473 (Simulation time: 00 hr 26 min 00 sec)
Heartbeat CPU 0 instructions: 300000003 cycles: 113320819 heartbeat IPC: 2.956 cumulative IPC: 2.489 (Simulation time: 00 hr 26 min 52 sec)
Heartbeat CPU 0 instructions: 310000001 cycles: 116733903 heartbeat IPC: 2.93 cumulative IPC: 2.504 (Simulation time: 00 hr 27 min 42 sec)
Heartbeat CPU 0 instructions: 320000004 cycles: 120167923 heartbeat IPC: 2.912 cumulative IPC: 2.517 (Simulation time: 00 hr 28 min 33 sec)
Heartbeat CPU 0 instructions: 330000000 cycles: 125355914 heartbeat IPC: 1.928 cumulative IPC: 2.489 (Simulation time: 00 hr 29 min 36 sec)
Heartbeat CPU 0 instructions: 340000002 cycles: 132165180 heartbeat IPC: 1.469 cumulative IPC: 2.431 (Simulation time: 00 hr 30 min 49 sec)
Heartbeat CPU 0 instructions: 350000002 cycles: 138896504 heartbeat IPC: 1.486 cumulative IPC: 2.381 (Simulation time: 00 hr 32 min 03 sec)
Heartbeat CPU 0 instructions: 360000000 cycles: 145707218 heartbeat IPC: 1.468 cumulative IPC: 2.334 (Simulation time: 00 hr 33 min 16 sec)
Heartbeat CPU 0 instructions: 370000001 cycles: 152393764 heartbeat IPC: 1.496 cumulative IPC: 2.294 (Simulation time: 00 hr 34 min 29 sec)
Heartbeat CPU 0 instructions: 380000003 cycles: 159164263 heartbeat IPC: 1.477 cumulative IPC: 2.256 (Simulation time: 00 hr 35 min 45 sec)
Heartbeat CPU 0 instructions: 390000004 cycles: 165885191 heartbeat IPC: 1.488 cumulative IPC: 2.222 (Simulation time: 00 hr 36 min 59 sec)
Heartbeat CPU 0 instructions: 400000000 cycles: 172732518 heartbeat IPC: 1.46 cumulative IPC: 2.19 (Simulation time: 00 hr 38 min 13 sec)
Heartbeat CPU 0 instructions: 410000003 cycles: 179420790 heartbeat IPC: 1.495 cumulative IPC: 2.162 (Simulation time: 00 hr 39 min 30 sec)
Heartbeat CPU 0 instructions: 420000000 cycles: 185563287 heartbeat IPC: 1.628 cumulative IPC: 2.143 (Simulation time: 00 hr 40 min 50 sec)
Heartbeat CPU 0 instructions: 430000002 cycles: 192266996 heartbeat IPC: 1.492 cumulative IPC: 2.118 (Simulation time: 00 hr 42 min 22 sec)
Heartbeat CPU 0 instructions: 440000002 cycles: 199294949 heartbeat IPC: 1.423 cumulative IPC: 2.092 (Simulation time: 00 hr 43 min 54 sec)
Heartbeat CPU 0 instructions: 450000000 cycles: 206279413 heartbeat IPC: 1.432 cumulative IPC: 2.068 (Simulation time: 00 hr 45 min 22 sec)
Heartbeat CPU 0 instructions: 460000003 cycles: 213269268 heartbeat IPC: 1.431 cumulative IPC: 2.046 (Simulation time: 00 hr 46 min 54 sec)
Heartbeat CPU 0 instructions: 470000004 cycles: 220271289 heartbeat IPC: 1.428 cumulative IPC: 2.025 (Simulation time: 00 hr 48 min 25 sec)
Heartbeat CPU 0 instructions: 480000000 cycles: 227288176 heartbeat IPC: 1.425 cumulative IPC: 2.006 (Simulation time: 00 hr 49 min 58 sec)
Heartbeat CPU 0 instructions: 490000001 cycles: 234178610 heartbeat IPC: 1.451 cumulative IPC: 1.988 (Simulation time: 00 hr 51 min 29 sec)
Heartbeat CPU 0 instructions: 500000001 cycles: 241210674 heartbeat IPC: 1.422 cumulative IPC: 1.971 (Simulation time: 00 hr 53 min 00 sec)
Heartbeat CPU 0 instructions: 510000002 cycles: 248286498 heartbeat IPC: 1.413 cumulative IPC: 1.954 (Simulation time: 00 hr 54 min 30 sec)
Heartbeat CPU 0 instructions: 520000003 cycles: 320381436 heartbeat IPC: 0.1387 cumulative IPC: 1.528 (Simulation time: 01 hr 05 min 52 sec)
Heartbeat CPU 0 instructions: 530000001 cycles: 447416929 heartbeat IPC: 0.07872 cumulative IPC: 1.105 (Simulation time: 01 hr 25 min 29 sec)
Heartbeat CPU 0 instructions: 540000002 cycles: 475963682 heartbeat IPC: 0.3503 cumulative IPC: 1.058 (Simulation time: 01 hr 30 min 08 sec)
Heartbeat CPU 0 instructions: 550000003 cycles: 508351136 heartbeat IPC: 0.3088 cumulative IPC: 1.009 (Simulation time: 01 hr 35 min 54 sec)
Heartbeat CPU 0 instructions: 560000002 cycles: 540561752 heartbeat IPC: 0.3105 cumulative IPC: 0.9665 (Simulation time: 01 hr 41 min 22 sec)
Heartbeat CPU 0 instructions: 570000001 cycles: 572903354 heartbeat IPC: 0.3092 cumulative IPC: 0.9285 (Simulation time: 01 hr 46 min 20 sec)
Heartbeat CPU 0 instructions: 580000003 cycles: 598837692 heartbeat IPC: 0.3856 cumulative IPC: 0.9045 (Simulation time: 01 hr 50 min 20 sec)
Heartbeat CPU 0 instructions: 590000000 cycles: 629416946 heartbeat IPC: 0.327 cumulative IPC: 0.8759 (Simulation time: 01 hr 54 min 43 sec)
*** Reached end of trace: (0, "traces/bt.A.champsimtrace")
Heartbeat CPU 0 instructions: 600000002 cycles: 659639415 heartbeat IPC: 0.3309 cumulative IPC: 0.8504 (Simulation time: 01 hr 58 min 59 sec)
Heartbeat CPU 0 instructions: 610000004 cycles: 684719363 heartbeat IPC: 0.3987 cumulative IPC: 0.8335 (Simulation time: 02 hr 01 min 43 sec)
Heartbeat CPU 0 instructions: 620000000 cycles: 687219393 heartbeat IPC: 4 cumulative IPC: 0.8453 (Simulation time: 02 hr 02 min 27 sec)
Heartbeat CPU 0 instructions: 630000002 cycles: 689719424 heartbeat IPC: 4 cumulative IPC: 0.8569 (Simulation time: 02 hr 03 min 12 sec)
Heartbeat CPU 0 instructions: 640000001 cycles: 692219455 heartbeat IPC: 4 cumulative IPC: 0.8685 (Simulation time: 02 hr 03 min 53 sec)
Heartbeat CPU 0 instructions: 650000002 cycles: 694719565 heartbeat IPC: 4 cumulative IPC: 0.88 (Simulation time: 02 hr 04 min 35 sec)
Simulation finished CPU 0 instructions: 600000002 cycles: 681838523 cumulative IPC: 0.88 (Simulation time: 02 hr 04 min 35 sec)
Simulation complete CPU 0 instructions: 600000002 cycles: 681838523 cumulative IPC: 0.88 (Simulation time: 02 hr 04 min 35 sec)

ChampSim completed all CPUs

=== Simulation ===
CPU 0 runs traces/bt.A.champsimtrace
Region of Interest Statistics

CPU 0 cumulative IPC: 0.88 instructions: 600000002 cycles: 681838523
CPU 0 Branch Prediction Accuracy: 99.98% MPKI: 0.004168 Average ROB Occupancy at Mispredict: 111.8
Branch type MPKI
BRANCH_DIRECT_JUMP: 5e-06
BRANCH_INDIRECT: 7.83e-05
BRANCH_CONDITIONAL: 0.00402
BRANCH_DIRECT_CALL: 6.67e-06
BRANCH_INDIRECT_CALL: 3.67e-05
BRANCH_RETURN: 2.33e-05

LLC TOTAL        ACCESS:    7792793 HIT:    2828760 MISS:    4964033
LLC LOAD         ACCESS:    2239967 HIT:    1220639 MISS:    1019328
LLC RFO          ACCESS:     889446 HIT:      59833 MISS:     829613
LLC PREFETCH     ACCESS:    2671532 HIT:    1344416 MISS:    1327116
LLC WRITE        ACCESS:    1988472 HIT:     203766 MISS:    1784706
LLC TRANSLATION  ACCESS:       3376 HIT:        106 MISS:       3270
LLC PREFETCH REQUESTED:    2671532 ISSUED:    2671532 USEFUL:    1004819 USELESS:      37346
LLC AVERAGE MISS LATENCY: 878 cycles
cpu0_DTLB TOTAL        ACCESS:  127262535 HIT:  126487078 MISS:     775457
cpu0_DTLB LOAD         ACCESS:  127262535 HIT:  126487078 MISS:     775457
cpu0_DTLB RFO          ACCESS:          0 HIT:          0 MISS:          0
cpu0_DTLB PREFETCH     ACCESS:          0 HIT:          0 MISS:          0
cpu0_DTLB WRITE        ACCESS:          0 HIT:          0 MISS:          0
cpu0_DTLB TRANSLATION  ACCESS:          0 HIT:          0 MISS:          0
cpu0_DTLB PREFETCH REQUESTED:          0 ISSUED:          0 USEFUL:          0 USELESS:          0
cpu0_DTLB AVERAGE MISS LATENCY: 15.28 cycles
cpu0_ITLB TOTAL        ACCESS:     172655 HIT:     172411 MISS:        244
cpu0_ITLB LOAD         ACCESS:     172655 HIT:     172411 MISS:        244
cpu0_ITLB RFO          ACCESS:          0 HIT:          0 MISS:          0
cpu0_ITLB PREFETCH     ACCESS:          0 HIT:          0 MISS:          0
cpu0_ITLB WRITE        ACCESS:          0 HIT:          0 MISS:          0
cpu0_ITLB TRANSLATION  ACCESS:          0 HIT:          0 MISS:          0
cpu0_ITLB PREFETCH REQUESTED:          0 ISSUED:          0 USEFUL:          0 USELESS:          0
cpu0_ITLB AVERAGE MISS LATENCY: 319.3 cycles
cpu0_L1D TOTAL        ACCESS:  195404882 HIT:  182717719 MISS:   12687163
cpu0_L1D LOAD         ACCESS:  160722663 HIT:  152227448 MISS:    8495215
cpu0_L1D RFO          ACCESS:          0 HIT:          0 MISS:          0
cpu0_L1D PREFETCH     ACCESS:          0 HIT:          0 MISS:          0
cpu0_L1D WRITE        ACCESS:   34635445 HIT:   30460569 MISS:    4174876
cpu0_L1D TRANSLATION  ACCESS:      46774 HIT:      29702 MISS:      17072
cpu0_L1D PREFETCH REQUESTED:          0 ISSUED:          0 USEFUL:          0 USELESS:          0
cpu0_L1D AVERAGE MISS LATENCY: 172.9 cycles
cpu0_L1I TOTAL        ACCESS:     205477 HIT:     202502 MISS:       2975
cpu0_L1I LOAD         ACCESS:     205477 HIT:     202502 MISS:       2975
cpu0_L1I RFO          ACCESS:          0 HIT:          0 MISS:          0
cpu0_L1I PREFETCH     ACCESS:          0 HIT:          0 MISS:          0
cpu0_L1I WRITE        ACCESS:          0 HIT:          0 MISS:          0
cpu0_L1I TRANSLATION  ACCESS:          0 HIT:          0 MISS:          0
cpu0_L1I PREFETCH REQUESTED:          0 ISSUED:          0 USEFUL:          0 USELESS:          0
cpu0_L1I AVERAGE MISS LATENCY: 504.7 cycles
cpu0_L2C TOTAL        ACCESS:    5259398 HIT:    2126146 MISS:    3133252
cpu0_L2C LOAD         ACCESS:    2353230 HIT:     113256 MISS:    2239974
cpu0_L2C RFO          ACCESS:     889975 HIT:        529 MISS:     889446
cpu0_L2C PREFETCH     ACCESS:          0 HIT:          0 MISS:          0
cpu0_L2C WRITE        ACCESS:    1999123 HIT:    1998667 MISS:        456
cpu0_L2C TRANSLATION  ACCESS:      17070 HIT:      13694 MISS:       3376
cpu0_L2C PREFETCH REQUESTED:          0 ISSUED:          0 USEFUL:          0 USELESS:          0
cpu0_L2C AVERAGE MISS LATENCY: 861.9 cycles
cpu0_STLB TOTAL        ACCESS:     314201 HIT:     267449 MISS:      46752
cpu0_STLB LOAD         ACCESS:     314201 HIT:     267449 MISS:      46752
cpu0_STLB RFO          ACCESS:          0 HIT:          0 MISS:          0
cpu0_STLB PREFETCH     ACCESS:          0 HIT:          0 MISS:          0
cpu0_STLB WRITE        ACCESS:          0 HIT:          0 MISS:          0
cpu0_STLB TRANSLATION  ACCESS:          0 HIT:          0 MISS:          0
cpu0_STLB PREFETCH REQUESTED:          0 ISSUED:          0 USEFUL:          0 USELESS:          0
cpu0_STLB AVERAGE MISS LATENCY: 353.2 cycles

DRAM Statistics

Channel 0 RQ ROW_BUFFER_HIT:     973432
  ROW_BUFFER_MISS:    1839630
 AVG DBUS CONGESTED CYCLE: 3.958
WQ ROW_BUFFER_HIT: Channel 0 
  ROW_BUFFER_MISS:     597918
  FULL:    1303041
