WARNING: physical memory size is smaller than virtual memory size.

*** ChampSim Multicore Out-of-Order Simulator ***
Warmup Instructions: 50000000
Simulation Instructions: 600000000
Number of CPUs: 1
Page size: 4096

Off-chip DRAM Size: 4 GiB Channels: 1 Width: 64-bit Data Race: 3200 MT/s
Heartbeat CPU 0 instructions: 10000003 cycles: 2881028 heartbeat IPC: 3.471 cumulative IPC: 3.471 (Simulation time: 00 hr 01 min 14 sec)
Heartbeat CPU 0 instructions: 20000003 cycles: 5381028 heartbeat IPC: 4 cumulative IPC: 3.717 (Simulation time: 00 hr 02 min 06 sec)
Heartbeat CPU 0 instructions: 30000003 cycles: 7881028 heartbeat IPC: 4 cumulative IPC: 3.807 (Simulation time: 00 hr 02 min 58 sec)
Heartbeat CPU 0 instructions: 40000003 cycles: 10381028 heartbeat IPC: 4 cumulative IPC: 3.853 (Simulation time: 00 hr 03 min 52 sec)
Heartbeat CPU 0 instructions: 50000003 cycles: 12881028 heartbeat IPC: 4 cumulative IPC: 3.882 (Simulation time: 00 hr 04 min 45 sec)
Warmup finished CPU 0 instructions: 50000003 cycles: 12881029 cumulative IPC: 3.882 (Simulation time: 00 hr 04 min 45 sec)
Warmup complete CPU 0 instructions: 50000003 cycles: 12881029 cumulative IPC: 3.882 (Simulation time: 00 hr 04 min 45 sec)
Heartbeat CPU 0 instructions: 60000004 cycles: 15383349 heartbeat IPC: 3.996 cumulative IPC: 3.996 (Simulation time: 00 hr 05 min 45 sec)
Heartbeat CPU 0 instructions: 70000000 cycles: 17885664 heartbeat IPC: 3.996 cumulative IPC: 3.996 (Simulation time: 00 hr 06 min 45 sec)
Heartbeat CPU 0 instructions: 80000002 cycles: 20387983 heartbeat IPC: 3.996 cumulative IPC: 3.996 (Simulation time: 00 hr 07 min 45 sec)
Heartbeat CPU 0 instructions: 90000004 cycles: 22890440 heartbeat IPC: 3.996 cumulative IPC: 3.996 (Simulation time: 00 hr 08 min 45 sec)
Heartbeat CPU 0 instructions: 100000004 cycles: 25392862 heartbeat IPC: 3.996 cumulative IPC: 3.996 (Simulation time: 00 hr 09 min 44 sec)
Heartbeat CPU 0 instructions: 110000000 cycles: 27895418 heartbeat IPC: 3.996 cumulative IPC: 3.996 (Simulation time: 00 hr 10 min 43 sec)
Heartbeat CPU 0 instructions: 120000003 cycles: 30400056 heartbeat IPC: 3.993 cumulative IPC: 3.996 (Simulation time: 00 hr 11 min 43 sec)
Heartbeat CPU 0 instructions: 130000000 cycles: 32903846 heartbeat IPC: 3.994 cumulative IPC: 3.995 (Simulation time: 00 hr 12 min 42 sec)
Heartbeat CPU 0 instructions: 140000001 cycles: 35406664 heartbeat IPC: 3.995 cumulative IPC: 3.995 (Simulation time: 00 hr 13 min 41 sec)
Heartbeat CPU 0 instructions: 150000000 cycles: 37909160 heartbeat IPC: 3.996 cumulative IPC: 3.996 (Simulation time: 00 hr 14 min 41 sec)
Heartbeat CPU 0 instructions: 160000001 cycles: 40413602 heartbeat IPC: 3.993 cumulative IPC: 3.995 (Simulation time: 00 hr 15 min 41 sec)
Heartbeat CPU 0 instructions: 170000002 cycles: 42917153 heartbeat IPC: 3.994 cumulative IPC: 3.995 (Simulation time: 00 hr 16 min 40 sec)
Heartbeat CPU 0 instructions: 180000001 cycles: 45420345 heartbeat IPC: 3.995 cumulative IPC: 3.995 (Simulation time: 00 hr 17 min 40 sec)
Heartbeat CPU 0 instructions: 190000004 cycles: 47922698 heartbeat IPC: 3.996 cumulative IPC: 3.995 (Simulation time: 00 hr 18 min 39 sec)
Heartbeat CPU 0 instructions: 200000000 cycles: 50426698 heartbeat IPC: 3.994 cumulative IPC: 3.995 (Simulation time: 00 hr 19 min 38 sec)
Heartbeat CPU 0 instructions: 210000000 cycles: 52929960 heartbeat IPC: 3.995 cumulative IPC: 3.995 (Simulation time: 00 hr 20 min 36 sec)
Heartbeat CPU 0 instructions: 220000000 cycles: 55433077 heartbeat IPC: 3.995 cumulative IPC: 3.995 (Simulation time: 00 hr 21 min 34 sec)
Heartbeat CPU 0 instructions: 230000004 cycles: 90606368 heartbeat IPC: 0.2843 cumulative IPC: 2.316 (Simulation time: 00 hr 27 min 56 sec)
Heartbeat CPU 0 instructions: 240000001 cycles: 94424358 heartbeat IPC: 2.619 cumulative IPC: 2.33 (Simulation time: 00 hr 29 min 15 sec)
Heartbeat CPU 0 instructions: 250000000 cycles: 98206885 heartbeat IPC: 2.644 cumulative IPC: 2.344 (Simulation time: 00 hr 30 min 33 sec)
Heartbeat CPU 0 instructions: 260000002 cycles: 102043293 heartbeat IPC: 2.607 cumulative IPC: 2.355 (Simulation time: 00 hr 31 min 53 sec)
Heartbeat CPU 0 instructions: 270000000 cycles: 106069914 heartbeat IPC: 2.483 cumulative IPC: 2.361 (Simulation time: 00 hr 33 min 15 sec)
Heartbeat CPU 0 instructions: 280000001 cycles: 110474689 heartbeat IPC: 2.27 cumulative IPC: 2.357 (Simulation time: 00 hr 34 min 41 sec)
Heartbeat CPU 0 instructions: 290000003 cycles: 114929111 heartbeat IPC: 2.245 cumulative IPC: 2.352 (Simulation time: 00 hr 36 min 08 sec)
Heartbeat CPU 0 instructions: 300000003 cycles: 119402419 heartbeat IPC: 2.235 cumulative IPC: 2.347 (Simulation time: 00 hr 37 min 34 sec)
Heartbeat CPU 0 instructions: 310000000 cycles: 123871797 heartbeat IPC: 2.237 cumulative IPC: 2.343 (Simulation time: 00 hr 39 min 01 sec)
Heartbeat CPU 0 instructions: 320000002 cycles: 128373237 heartbeat IPC: 2.222 cumulative IPC: 2.338 (Simulation time: 00 hr 40 min 29 sec)
Heartbeat CPU 0 instructions: 330000004 cycles: 131896909 heartbeat IPC: 2.838 cumulative IPC: 2.353 (Simulation time: 00 hr 41 min 44 sec)
Heartbeat CPU 0 instructions: 340000003 cycles: 134458017 heartbeat IPC: 3.905 cumulative IPC: 2.385 (Simulation time: 00 hr 42 min 45 sec)
Heartbeat CPU 0 instructions: 350000000 cycles: 137009212 heartbeat IPC: 3.92 cumulative IPC: 2.417 (Simulation time: 00 hr 43 min 46 sec)
Heartbeat CPU 0 instructions: 360000001 cycles: 139572679 heartbeat IPC: 3.901 cumulative IPC: 2.447 (Simulation time: 00 hr 44 min 48 sec)
Heartbeat CPU 0 instructions: 370000004 cycles: 142474776 heartbeat IPC: 3.446 cumulative IPC: 2.469 (Simulation time: 00 hr 45 min 55 sec)
Heartbeat CPU 0 instructions: 380000001 cycles: 146190240 heartbeat IPC: 2.691 cumulative IPC: 2.475 (Simulation time: 00 hr 47 min 11 sec)
Heartbeat CPU 0 instructions: 390000004 cycles: 149639804 heartbeat IPC: 2.899 cumulative IPC: 2.486 (Simulation time: 00 hr 48 min 25 sec)
Heartbeat CPU 0 instructions: 400000001 cycles: 153300387 heartbeat IPC: 2.732 cumulative IPC: 2.493 (Simulation time: 00 hr 49 min 41 sec)
Heartbeat CPU 0 instructions: 410000003 cycles: 156888091 heartbeat IPC: 2.787 cumulative IPC: 2.5 (Simulation time: 00 hr 50 min 56 sec)
Heartbeat CPU 0 instructions: 420000004 cycles: 160441486 heartbeat IPC: 2.814 cumulative IPC: 2.507 (Simulation time: 00 hr 52 min 11 sec)
Heartbeat CPU 0 instructions: 430000003 cycles: 163231341 heartbeat IPC: 3.584 cumulative IPC: 2.527 (Simulation time: 00 hr 53 min 17 sec)
Heartbeat CPU 0 instructions: 440000004 cycles: 166056133 heartbeat IPC: 3.54 cumulative IPC: 2.546 (Simulation time: 00 hr 54 min 23 sec)
Heartbeat CPU 0 instructions: 450000003 cycles: 169207025 heartbeat IPC: 3.174 cumulative IPC: 2.559 (Simulation time: 00 hr 55 min 33 sec)
Heartbeat CPU 0 instructions: 460000001 cycles: 172628524 heartbeat IPC: 2.923 cumulative IPC: 2.567 (Simulation time: 00 hr 56 min 46 sec)
Heartbeat CPU 0 instructions: 470000000 cycles: 176169548 heartbeat IPC: 2.824 cumulative IPC: 2.572 (Simulation time: 00 hr 58 min 01 sec)
Heartbeat CPU 0 instructions: 480000000 cycles: 179827698 heartbeat IPC: 2.734 cumulative IPC: 2.576 (Simulation time: 00 hr 59 min 17 sec)
Heartbeat CPU 0 instructions: 490000004 cycles: 183550993 heartbeat IPC: 2.686 cumulative IPC: 2.578 (Simulation time: 01 hr 00 min 35 sec)
Heartbeat CPU 0 instructions: 500000001 cycles: 187306290 heartbeat IPC: 2.663 cumulative IPC: 2.58 (Simulation time: 01 hr 01 min 53 sec)
Heartbeat CPU 0 instructions: 510000003 cycles: 190949615 heartbeat IPC: 2.745 cumulative IPC: 2.583 (Simulation time: 01 hr 03 min 09 sec)
Heartbeat CPU 0 instructions: 520000004 cycles: 261760132 heartbeat IPC: 0.1412 cumulative IPC: 1.888 (Simulation time: 01 hr 18 min 38 sec)
Heartbeat CPU 0 instructions: 530000002 cycles: 380858005 heartbeat IPC: 0.08396 cumulative IPC: 1.304 (Simulation time: 01 hr 44 min 10 sec)
Heartbeat CPU 0 instructions: 540000003 cycles: 409828236 heartbeat IPC: 0.3452 cumulative IPC: 1.234 (Simulation time: 01 hr 50 min 52 sec)
Heartbeat CPU 0 instructions: 550000002 cycles: 439898302 heartbeat IPC: 0.3326 cumulative IPC: 1.171 (Simulation time: 01 hr 57 min 47 sec)
Heartbeat CPU 0 instructions: 560000000 cycles: 469653464 heartbeat IPC: 0.3361 cumulative IPC: 1.117 (Simulation time: 02 hr 04 min 38 sec)
Heartbeat CPU 0 instructions: 570000002 cycles: 501091105 heartbeat IPC: 0.3181 cumulative IPC: 1.065 (Simulation time: 02 hr 11 min 47 sec)
Heartbeat CPU 0 instructions: 580000001 cycles: 533561006 heartbeat IPC: 0.308 cumulative IPC: 1.018 (Simulation time: 02 hr 19 min 13 sec)
Heartbeat CPU 0 instructions: 590000001 cycles: 563716990 heartbeat IPC: 0.3316 cumulative IPC: 0.9803 (Simulation time: 02 hr 26 min 11 sec)
*** Reached end of trace: (0, "traces/bt.A.champsimtrace")
Heartbeat CPU 0 instructions: 600000001 cycles: 595744886 heartbeat IPC: 0.3122 cumulative IPC: 0.9436 (Simulation time: 02 hr 33 min 39 sec)
Heartbeat CPU 0 instructions: 610000004 cycles: 619775447 heartbeat IPC: 0.4161 cumulative IPC: 0.9227 (Simulation time: 02 hr 38 min 20 sec)
Heartbeat CPU 0 instructions: 620000000 cycles: 622278030 heartbeat IPC: 3.996 cumulative IPC: 0.9354 (Simulation time: 02 hr 39 min 20 sec)
Heartbeat CPU 0 instructions: 630000003 cycles: 624780959 heartbeat IPC: 3.995 cumulative IPC: 0.9479 (Simulation time: 02 hr 40 min 19 sec)
Heartbeat CPU 0 instructions: 640000003 cycles: 627283989 heartbeat IPC: 3.995 cumulative IPC: 0.9603 (Simulation time: 02 hr 41 min 18 sec)
Heartbeat CPU 0 instructions: 650000003 cycles: 629786678 heartbeat IPC: 3.996 cumulative IPC: 0.9726 (Simulation time: 02 hr 42 min 18 sec)
Simulation finished CPU 0 instructions: 600000000 cycles: 616905650 cumulative IPC: 0.9726 (Simulation time: 02 hr 42 min 18 sec)
Simulation complete CPU 0 instructions: 600000000 cycles: 616905650 cumulative IPC: 0.9726 (Simulation time: 02 hr 42 min 18 sec)

ChampSim completed all CPUs

=== Simulation ===
CPU 0 runs traces/bt.A.champsimtrace
Region of Interest Statistics

CPU 0 cumulative IPC: 0.9726 instructions: 600000000 cycles: 616905650
CPU 0 Branch Prediction Accuracy: 99.29% MPKI: 0.1288 Average ROB Occupancy at Mispredict: 279.7
Branch type MPKI
BRANCH_DIRECT_JUMP: 5e-06
BRANCH_INDIRECT: 7.67e-05
BRANCH_CONDITIONAL: 0.129
BRANCH_DIRECT_CALL: 6.67e-06
BRANCH_INDIRECT_CALL: 3.33e-05
BRANCH_RETURN: 2.33e-05

LLC TOTAL        ACCESS:    7353708 HIT:    3095130 MISS:    4258578
LLC LOAD         ACCESS:    2238061 HIT:    1191653 MISS:    1046408
LLC RFO          ACCESS:     889408 HIT:      64992 MISS:     824416
LLC PREFETCH     ACCESS:    2238061 HIT:     626555 MISS:    1611506
LLC WRITE        ACCESS:    1984821 HIT:    1211689 MISS:     773132
LLC TRANSLATION  ACCESS:       3357 HIT:        241 MISS:       3116
LLC PREFETCH REQUESTED:    2238061 ISSUED:    2238061 USEFUL:    1357017 USELESS:      16863
LLC AVERAGE MISS LATENCY: 1011 cycles
cpu0_DTLB TOTAL        ACCESS:  128658725 HIT:  127908738 MISS:     749987
cpu0_DTLB LOAD         ACCESS:  128658725 HIT:  127908738 MISS:     749987
cpu0_DTLB RFO          ACCESS:          0 HIT:          0 MISS:          0
cpu0_DTLB PREFETCH     ACCESS:          0 HIT:          0 MISS:          0
cpu0_DTLB WRITE        ACCESS:          0 HIT:          0 MISS:          0
cpu0_DTLB TRANSLATION  ACCESS:          0 HIT:          0 MISS:          0
cpu0_DTLB PREFETCH REQUESTED:          0 ISSUED:          0 USEFUL:          0 USELESS:          0
cpu0_DTLB AVERAGE MISS LATENCY: 17.5 cycles
cpu0_ITLB TOTAL        ACCESS:     142715 HIT:     142463 MISS:        252
cpu0_ITLB LOAD         ACCESS:     142715 HIT:     142463 MISS:        252
cpu0_ITLB RFO          ACCESS:          0 HIT:          0 MISS:          0
cpu0_ITLB PREFETCH     ACCESS:          0 HIT:          0 MISS:          0
cpu0_ITLB WRITE        ACCESS:          0 HIT:          0 MISS:          0
cpu0_ITLB TRANSLATION  ACCESS:          0 HIT:          0 MISS:          0
cpu0_ITLB PREFETCH REQUESTED:          0 ISSUED:          0 USEFUL:          0 USELESS:          0
cpu0_ITLB AVERAGE MISS LATENCY: 359.3 cycles
cpu0_L1D TOTAL        ACCESS:  196948502 HIT:  183539400 MISS:   13409102
cpu0_L1D LOAD         ACCESS:  162266332 HIT:  152919296 MISS:    9347036
cpu0_L1D RFO          ACCESS:          0 HIT:          0 MISS:          0
cpu0_L1D PREFETCH     ACCESS:          0 HIT:          0 MISS:          0
cpu0_L1D WRITE        ACCESS:   34635419 HIT:   30590409 MISS:    4045010
cpu0_L1D TRANSLATION  ACCESS:      46751 HIT:      29695 MISS:      17056
cpu0_L1D PREFETCH REQUESTED:          0 ISSUED:          0 USEFUL:          0 USELESS:          0
cpu0_L1D AVERAGE MISS LATENCY: 161.3 cycles
cpu0_L1I TOTAL        ACCESS:     192227 HIT:     189420 MISS:       2807
cpu0_L1I LOAD         ACCESS:     192227 HIT:     189420 MISS:       2807
cpu0_L1I RFO          ACCESS:          0 HIT:          0 MISS:          0
cpu0_L1I PREFETCH     ACCESS:          0 HIT:          0 MISS:          0
cpu0_L1I WRITE        ACCESS:          0 HIT:          0 MISS:          0
cpu0_L1I TRANSLATION  ACCESS:          0 HIT:          0 MISS:          0
cpu0_L1I PREFETCH REQUESTED:          0 ISSUED:          0 USEFUL:          0 USELESS:          0
cpu0_L1I AVERAGE MISS LATENCY: 495.3 cycles
cpu0_L2C TOTAL        ACCESS:    5266172 HIT:    2134745 MISS:    3131427
cpu0_L2C LOAD         ACCESS:    2360167 HIT:     121843 MISS:    2238324
cpu0_L2C RFO          ACCESS:     890032 HIT:        624 MISS:     889408
cpu0_L2C PREFETCH     ACCESS:          0 HIT:          0 MISS:          0
cpu0_L2C WRITE        ACCESS:    1998919 HIT:    1998581 MISS:        338
cpu0_L2C TRANSLATION  ACCESS:      17054 HIT:      13697 MISS:       3357
cpu0_L2C PREFETCH REQUESTED:          0 ISSUED:          0 USEFUL:          0 USELESS:          0
cpu0_L2C AVERAGE MISS LATENCY: 906.5 cycles
cpu0_STLB TOTAL        ACCESS:     297287 HIT:     250551 MISS:      46736
cpu0_STLB LOAD         ACCESS:     297287 HIT:     250551 MISS:      46736
cpu0_STLB RFO          ACCESS:          0 HIT:          0 MISS:          0
cpu0_STLB PREFETCH     ACCESS:          0 HIT:          0 MISS:          0
cpu0_STLB WRITE        ACCESS:          0 HIT:          0 MISS:          0
cpu0_STLB TRANSLATION  ACCESS:          0 HIT:          0 MISS:          0
cpu0_STLB PREFETCH REQUESTED:          0 ISSUED:          0 USEFUL:          0 USELESS:          0
cpu0_STLB AVERAGE MISS LATENCY: 390.4 cycles

DRAM Statistics

Channel 0 RQ ROW_BUFFER_HIT:     687547
  ROW_BUFFER_MISS:    1779265
 AVG DBUS CONGESTED CYCLE: 3.978
WQ ROW_BUFFER_HIT: Channel 0 
  ROW_BUFFER_MISS:     389265
  FULL:    1192890
Final OPTGen Hits: 30813
Final OPTGen Access: 52287
Final OPTGEN Hit Rate: 58.9306
