WARNING: physical memory size is smaller than virtual memory size.

*** ChampSim Multicore Out-of-Order Simulator ***
Warmup Instructions: 50000000
Simulation Instructions: 600000000
Number of CPUs: 1
Page size: 4096

CPU 0 Tage branch predictor
Off-chip DRAM Size: 4 GiB Channels: 1 Width: 64-bit Data Race: 3200 MT/s
Heartbeat CPU 0 instructions: 10000003 cycles: 2881028 heartbeat IPC: 3.471 cumulative IPC: 3.471 (Simulation time: 00 hr 01 min 05 sec)
Heartbeat CPU 0 instructions: 20000003 cycles: 5381028 heartbeat IPC: 4 cumulative IPC: 3.717 (Simulation time: 00 hr 02 min 05 sec)
Heartbeat CPU 0 instructions: 30000003 cycles: 7881028 heartbeat IPC: 4 cumulative IPC: 3.807 (Simulation time: 00 hr 03 min 04 sec)
Heartbeat CPU 0 instructions: 40000003 cycles: 10381028 heartbeat IPC: 4 cumulative IPC: 3.853 (Simulation time: 00 hr 04 min 04 sec)
Heartbeat CPU 0 instructions: 50000003 cycles: 12881028 heartbeat IPC: 4 cumulative IPC: 3.882 (Simulation time: 00 hr 05 min 16 sec)
Warmup finished CPU 0 instructions: 50000003 cycles: 12881029 cumulative IPC: 3.882 (Simulation time: 00 hr 05 min 16 sec)
Warmup complete CPU 0 instructions: 50000003 cycles: 12881029 cumulative IPC: 3.882 (Simulation time: 00 hr 05 min 16 sec)
Heartbeat CPU 0 instructions: 60000004 cycles: 15381065 heartbeat IPC: 4 cumulative IPC: 4 (Simulation time: 00 hr 06 min 24 sec)
Heartbeat CPU 0 instructions: 70000002 cycles: 17881096 heartbeat IPC: 4 cumulative IPC: 4 (Simulation time: 00 hr 07 min 32 sec)
Heartbeat CPU 0 instructions: 80000002 cycles: 20381129 heartbeat IPC: 4 cumulative IPC: 4 (Simulation time: 00 hr 08 min 40 sec)
Heartbeat CPU 0 instructions: 90000004 cycles: 22881196 heartbeat IPC: 4 cumulative IPC: 4 (Simulation time: 00 hr 09 min 47 sec)
Heartbeat CPU 0 instructions: 100000004 cycles: 25382551 heartbeat IPC: 3.998 cumulative IPC: 4 (Simulation time: 00 hr 10 min 54 sec)
Heartbeat CPU 0 instructions: 110000000 cycles: 27882641 heartbeat IPC: 4 cumulative IPC: 4 (Simulation time: 00 hr 12 min 02 sec)
Heartbeat CPU 0 instructions: 120000003 cycles: 30382774 heartbeat IPC: 4 cumulative IPC: 4 (Simulation time: 00 hr 13 min 09 sec)
Heartbeat CPU 0 instructions: 130000000 cycles: 32883377 heartbeat IPC: 3.999 cumulative IPC: 4 (Simulation time: 00 hr 14 min 17 sec)
Heartbeat CPU 0 instructions: 140000001 cycles: 35384387 heartbeat IPC: 3.998 cumulative IPC: 3.999 (Simulation time: 00 hr 15 min 24 sec)
Heartbeat CPU 0 instructions: 150000000 cycles: 37884704 heartbeat IPC: 3.999 cumulative IPC: 3.999 (Simulation time: 00 hr 16 min 32 sec)
Heartbeat CPU 0 instructions: 160000001 cycles: 40386168 heartbeat IPC: 3.998 cumulative IPC: 3.999 (Simulation time: 00 hr 17 min 39 sec)
Heartbeat CPU 0 instructions: 170000002 cycles: 42887339 heartbeat IPC: 3.998 cumulative IPC: 3.999 (Simulation time: 00 hr 18 min 47 sec)
Heartbeat CPU 0 instructions: 180000001 cycles: 45387769 heartbeat IPC: 3.999 cumulative IPC: 3.999 (Simulation time: 00 hr 19 min 56 sec)
Heartbeat CPU 0 instructions: 190000004 cycles: 47888259 heartbeat IPC: 3.999 cumulative IPC: 3.999 (Simulation time: 00 hr 21 min 04 sec)
Heartbeat CPU 0 instructions: 200000000 cycles: 50390211 heartbeat IPC: 3.997 cumulative IPC: 3.999 (Simulation time: 00 hr 22 min 13 sec)
Heartbeat CPU 0 instructions: 210000000 cycles: 52890302 heartbeat IPC: 4 cumulative IPC: 3.999 (Simulation time: 00 hr 23 min 21 sec)
Heartbeat CPU 0 instructions: 220000000 cycles: 55390491 heartbeat IPC: 4 cumulative IPC: 3.999 (Simulation time: 00 hr 24 min 30 sec)
Heartbeat CPU 0 instructions: 230000004 cycles: 89315435 heartbeat IPC: 0.2948 cumulative IPC: 2.355 (Simulation time: 00 hr 30 min 56 sec)
Heartbeat CPU 0 instructions: 240000001 cycles: 92099318 heartbeat IPC: 3.592 cumulative IPC: 2.398 (Simulation time: 00 hr 32 min 09 sec)
Heartbeat CPU 0 instructions: 250000000 cycles: 94854316 heartbeat IPC: 3.63 cumulative IPC: 2.44 (Simulation time: 00 hr 33 min 23 sec)
Heartbeat CPU 0 instructions: 260000000 cycles: 97612860 heartbeat IPC: 3.625 cumulative IPC: 2.478 (Simulation time: 00 hr 34 min 36 sec)
Heartbeat CPU 0 instructions: 270000000 cycles: 100813887 heartbeat IPC: 3.124 cumulative IPC: 2.502 (Simulation time: 00 hr 35 min 55 sec)
Heartbeat CPU 0 instructions: 280000001 cycles: 104196802 heartbeat IPC: 2.956 cumulative IPC: 2.519 (Simulation time: 00 hr 37 min 18 sec)
Heartbeat CPU 0 instructions: 290000000 cycles: 107601849 heartbeat IPC: 2.937 cumulative IPC: 2.534 (Simulation time: 00 hr 38 min 41 sec)
Heartbeat CPU 0 instructions: 300000003 cycles: 111022681 heartbeat IPC: 2.923 cumulative IPC: 2.547 (Simulation time: 00 hr 40 min 05 sec)
Heartbeat CPU 0 instructions: 310000001 cycles: 114416276 heartbeat IPC: 2.947 cumulative IPC: 2.561 (Simulation time: 00 hr 41 min 29 sec)
Heartbeat CPU 0 instructions: 320000001 cycles: 117805359 heartbeat IPC: 2.951 cumulative IPC: 2.573 (Simulation time: 00 hr 42 min 52 sec)
Heartbeat CPU 0 instructions: 330000004 cycles: 121212477 heartbeat IPC: 2.935 cumulative IPC: 2.585 (Simulation time: 00 hr 44 min 14 sec)
Heartbeat CPU 0 instructions: 340000003 cycles: 124599397 heartbeat IPC: 2.953 cumulative IPC: 2.596 (Simulation time: 00 hr 45 min 36 sec)
Heartbeat CPU 0 instructions: 350000000 cycles: 128331810 heartbeat IPC: 2.679 cumulative IPC: 2.599 (Simulation time: 00 hr 47 min 02 sec)
Heartbeat CPU 0 instructions: 360000001 cycles: 132352987 heartbeat IPC: 2.487 cumulative IPC: 2.595 (Simulation time: 00 hr 48 min 32 sec)
Heartbeat CPU 0 instructions: 370000004 cycles: 137969123 heartbeat IPC: 1.781 cumulative IPC: 2.558 (Simulation time: 00 hr 50 min 23 sec)
Heartbeat CPU 0 instructions: 380000003 cycles: 144897689 heartbeat IPC: 1.443 cumulative IPC: 2.5 (Simulation time: 00 hr 52 min 31 sec)
Heartbeat CPU 0 instructions: 390000000 cycles: 151641794 heartbeat IPC: 1.483 cumulative IPC: 2.45 (Simulation time: 00 hr 54 min 36 sec)
Heartbeat CPU 0 instructions: 400000001 cycles: 158489465 heartbeat IPC: 1.46 cumulative IPC: 2.404 (Simulation time: 00 hr 56 min 45 sec)
Heartbeat CPU 0 instructions: 410000004 cycles: 165261612 heartbeat IPC: 1.477 cumulative IPC: 2.363 (Simulation time: 00 hr 58 min 51 sec)
Heartbeat CPU 0 instructions: 420000004 cycles: 171895721 heartbeat IPC: 1.507 cumulative IPC: 2.327 (Simulation time: 01 hr 00 min 56 sec)
Heartbeat CPU 0 instructions: 430000004 cycles: 176778286 heartbeat IPC: 2.048 cumulative IPC: 2.319 (Simulation time: 01 hr 02 min 39 sec)
Heartbeat CPU 0 instructions: 440000004 cycles: 181930416 heartbeat IPC: 1.941 cumulative IPC: 2.307 (Simulation time: 01 hr 04 min 25 sec)
Heartbeat CPU 0 instructions: 450000000 cycles: 187442988 heartbeat IPC: 1.814 cumulative IPC: 2.291 (Simulation time: 01 hr 06 min 14 sec)
Heartbeat CPU 0 instructions: 460000001 cycles: 193366065 heartbeat IPC: 1.688 cumulative IPC: 2.272 (Simulation time: 01 hr 08 min 09 sec)
Heartbeat CPU 0 instructions: 470000000 cycles: 199098823 heartbeat IPC: 1.744 cumulative IPC: 2.255 (Simulation time: 01 hr 10 min 03 sec)
Heartbeat CPU 0 instructions: 480000003 cycles: 204784764 heartbeat IPC: 1.759 cumulative IPC: 2.241 (Simulation time: 01 hr 11 min 57 sec)
Heartbeat CPU 0 instructions: 490000004 cycles: 210541101 heartbeat IPC: 1.737 cumulative IPC: 2.226 (Simulation time: 01 hr 13 min 51 sec)
Heartbeat CPU 0 instructions: 500000004 cycles: 216274290 heartbeat IPC: 1.744 cumulative IPC: 2.212 (Simulation time: 01 hr 15 min 44 sec)
Heartbeat CPU 0 instructions: 510000003 cycles: 221874842 heartbeat IPC: 1.786 cumulative IPC: 2.201 (Simulation time: 01 hr 17 min 36 sec)
Heartbeat CPU 0 instructions: 520000001 cycles: 302296376 heartbeat IPC: 0.1243 cumulative IPC: 1.624 (Simulation time: 01 hr 35 min 45 sec)
Heartbeat CPU 0 instructions: 530000002 cycles: 429932669 heartbeat IPC: 0.07835 cumulative IPC: 1.151 (Simulation time: 02 hr 03 min 35 sec)
Heartbeat CPU 0 instructions: 540000004 cycles: 454067525 heartbeat IPC: 0.4143 cumulative IPC: 1.111 (Simulation time: 02 hr 09 min 20 sec)
Heartbeat CPU 0 instructions: 550000002 cycles: 478233962 heartbeat IPC: 0.4138 cumulative IPC: 1.074 (Simulation time: 02 hr 15 min 11 sec)
Heartbeat CPU 0 instructions: 560000001 cycles: 502601174 heartbeat IPC: 0.4104 cumulative IPC: 1.041 (Simulation time: 02 hr 21 min 06 sec)
Heartbeat CPU 0 instructions: 570000002 cycles: 527487519 heartbeat IPC: 0.4018 cumulative IPC: 1.01 (Simulation time: 02 hr 27 min 11 sec)
Heartbeat CPU 0 instructions: 580000001 cycles: 555498327 heartbeat IPC: 0.357 cumulative IPC: 0.9767 (Simulation time: 02 hr 33 min 55 sec)
Heartbeat CPU 0 instructions: 590000001 cycles: 580109860 heartbeat IPC: 0.4063 cumulative IPC: 0.952 (Simulation time: 02 hr 39 min 50 sec)
*** Reached end of trace: (0, "traces/bt.A.champsimtrace")
Heartbeat CPU 0 instructions: 600000001 cycles: 605293829 heartbeat IPC: 0.3971 cumulative IPC: 0.9284 (Simulation time: 02 hr 45 min 52 sec)
Heartbeat CPU 0 instructions: 610000004 cycles: 631295709 heartbeat IPC: 0.3846 cumulative IPC: 0.9055 (Simulation time: 02 hr 50 min 56 sec)
Heartbeat CPU 0 instructions: 620000000 cycles: 633795799 heartbeat IPC: 4 cumulative IPC: 0.918 (Simulation time: 02 hr 52 min 07 sec)
Heartbeat CPU 0 instructions: 630000003 cycles: 636295888 heartbeat IPC: 4 cumulative IPC: 0.9304 (Simulation time: 02 hr 53 min 15 sec)
Heartbeat CPU 0 instructions: 640000003 cycles: 638795979 heartbeat IPC: 4 cumulative IPC: 0.9426 (Simulation time: 02 hr 54 min 25 sec)
Heartbeat CPU 0 instructions: 650000003 cycles: 641296066 heartbeat IPC: 4 cumulative IPC: 0.9548 (Simulation time: 02 hr 55 min 38 sec)
Simulation finished CPU 0 instructions: 600000000 cycles: 628415038 cumulative IPC: 0.9548 (Simulation time: 02 hr 55 min 38 sec)
Simulation complete CPU 0 instructions: 600000000 cycles: 628415038 cumulative IPC: 0.9548 (Simulation time: 02 hr 55 min 38 sec)

ChampSim completed all CPUs

=== Simulation ===
CPU 0 runs traces/bt.A.champsimtrace
Region of Interest Statistics

CPU 0 cumulative IPC: 0.9548 instructions: 600000000 cycles: 628415038
CPU 0 Branch Prediction Accuracy: 99.98% MPKI: 0.004067 Average ROB Occupancy at Mispredict: 106.7
Branch type MPKI
BRANCH_DIRECT_JUMP: 5e-06
BRANCH_INDIRECT: 7.67e-05
BRANCH_CONDITIONAL: 0.00392
BRANCH_DIRECT_CALL: 6.67e-06
BRANCH_INDIRECT_CALL: 3.33e-05
BRANCH_RETURN: 2.33e-05

LLC TOTAL        ACCESS:    7783363 HIT:    4332220 MISS:    3451143
LLC LOAD         ACCESS:    2236990 HIT:    1478267 MISS:     758723
LLC RFO          ACCESS:     889407 HIT:      69642 MISS:     819765
LLC PREFETCH     ACCESS:    2667269 HIT:    1570369 MISS:    1096900
LLC WRITE        ACCESS:    1986337 HIT:    1213735 MISS:     772602
LLC TRANSLATION  ACCESS:       3360 HIT:        207 MISS:       3153
LLC PREFETCH REQUESTED:    2667269 ISSUED:    2667269 USEFUL:     903946 USELESS:      11492
LLC AVERAGE MISS LATENCY: 1165 cycles
cpu0_DTLB TOTAL        ACCESS:  127956260 HIT:  127186346 MISS:     769914
cpu0_DTLB LOAD         ACCESS:  127956260 HIT:  127186346 MISS:     769914
cpu0_DTLB RFO          ACCESS:          0 HIT:          0 MISS:          0
cpu0_DTLB PREFETCH     ACCESS:          0 HIT:          0 MISS:          0
cpu0_DTLB WRITE        ACCESS:          0 HIT:          0 MISS:          0
cpu0_DTLB TRANSLATION  ACCESS:          0 HIT:          0 MISS:          0
cpu0_DTLB PREFETCH REQUESTED:          0 ISSUED:          0 USEFUL:          0 USELESS:          0
cpu0_DTLB AVERAGE MISS LATENCY: 14.33 cycles
cpu0_ITLB TOTAL        ACCESS:     174121 HIT:     173882 MISS:        239
cpu0_ITLB LOAD         ACCESS:     174121 HIT:     173882 MISS:        239
cpu0_ITLB RFO          ACCESS:          0 HIT:          0 MISS:          0
cpu0_ITLB PREFETCH     ACCESS:          0 HIT:          0 MISS:          0
cpu0_ITLB WRITE        ACCESS:          0 HIT:          0 MISS:          0
cpu0_ITLB TRANSLATION  ACCESS:          0 HIT:          0 MISS:          0
cpu0_ITLB PREFETCH REQUESTED:          0 ISSUED:          0 USEFUL:          0 USELESS:          0
cpu0_ITLB AVERAGE MISS LATENCY: 321.1 cycles
cpu0_L1D TOTAL        ACCESS:  196539456 HIT:  183842214 MISS:   12697242
cpu0_L1D LOAD         ACCESS:  161857164 HIT:  153287070 MISS:    8570094
cpu0_L1D RFO          ACCESS:          0 HIT:          0 MISS:          0
cpu0_L1D PREFETCH     ACCESS:          0 HIT:          0 MISS:          0
cpu0_L1D WRITE        ACCESS:   34635542 HIT:   30525446 MISS:    4110096
cpu0_L1D TRANSLATION  ACCESS:      46750 HIT:      29698 MISS:      17052
cpu0_L1D PREFETCH REQUESTED:          0 ISSUED:          0 USEFUL:          0 USELESS:          0
cpu0_L1D AVERAGE MISS LATENCY: 161.2 cycles
cpu0_L1I TOTAL        ACCESS:     206279 HIT:     203328 MISS:       2951
cpu0_L1I LOAD         ACCESS:     206279 HIT:     203328 MISS:       2951
cpu0_L1I RFO          ACCESS:          0 HIT:          0 MISS:          0
cpu0_L1I PREFETCH     ACCESS:          0 HIT:          0 MISS:          0
cpu0_L1I WRITE        ACCESS:          0 HIT:          0 MISS:          0
cpu0_L1I TRANSLATION  ACCESS:          0 HIT:          0 MISS:          0
cpu0_L1I PREFETCH REQUESTED:          0 ISSUED:          0 USEFUL:          0 USELESS:          0
cpu0_L1I AVERAGE MISS LATENCY: 515.9 cycles
cpu0_L2C TOTAL        ACCESS:    5262078 HIT:    2131641 MISS:    3130437
cpu0_L2C LOAD         ACCESS:    2355215 HIT:     117911 MISS:    2237304
cpu0_L2C RFO          ACCESS:     890356 HIT:        949 MISS:     889407
cpu0_L2C PREFETCH     ACCESS:          0 HIT:          0 MISS:          0
cpu0_L2C WRITE        ACCESS:    1999457 HIT:    1999091 MISS:        366
cpu0_L2C TRANSLATION  ACCESS:      17050 HIT:      13690 MISS:       3360
cpu0_L2C PREFETCH REQUESTED:          0 ISSUED:          0 USEFUL:          0 USELESS:          0
cpu0_L2C AVERAGE MISS LATENCY: 809.4 cycles
cpu0_STLB TOTAL        ACCESS:     297079 HIT:     250344 MISS:      46735
cpu0_STLB LOAD         ACCESS:     297079 HIT:     250344 MISS:      46735
cpu0_STLB RFO          ACCESS:          0 HIT:          0 MISS:          0
cpu0_STLB PREFETCH     ACCESS:          0 HIT:          0 MISS:          0
cpu0_STLB WRITE        ACCESS:          0 HIT:          0 MISS:          0
cpu0_STLB TRANSLATION  ACCESS:          0 HIT:          0 MISS:          0
cpu0_STLB PREFETCH REQUESTED:          0 ISSUED:          0 USEFUL:          0 USELESS:          0
cpu0_STLB AVERAGE MISS LATENCY: 327.7 cycles

DRAM Statistics

Channel 0 RQ ROW_BUFFER_HIT:     841846
  ROW_BUFFER_MISS:    1598969
 AVG DBUS CONGESTED CYCLE: 3.963
WQ ROW_BUFFER_HIT: Channel 0 
  ROW_BUFFER_MISS:     440060
  FULL:    1162385
Final OPTGen Hits: 49614
Final OPTGen Access: 52276
Final OPTGEN Hit Rate: 94.9078
