WARNING: physical memory size is smaller than virtual memory size.

*** ChampSim Multicore Out-of-Order Simulator ***
Warmup Instructions: 50000000
Simulation Instructions: 600000000
Number of CPUs: 1
Page size: 4096

CPU 0 Tage branch predictor
Off-chip DRAM Size: 4 GiB Channels: 1 Width: 64-bit Data Race: 3200 MT/s
Heartbeat CPU 0 instructions: 10000000 cycles: 2881042 heartbeat IPC: 3.471 cumulative IPC: 3.471 (Simulation time: 00 hr 00 min 43 sec)
Heartbeat CPU 0 instructions: 20000000 cycles: 5381042 heartbeat IPC: 4 cumulative IPC: 3.717 (Simulation time: 00 hr 01 min 26 sec)
Heartbeat CPU 0 instructions: 30000000 cycles: 7881042 heartbeat IPC: 4 cumulative IPC: 3.807 (Simulation time: 00 hr 02 min 08 sec)
Heartbeat CPU 0 instructions: 40000000 cycles: 10381042 heartbeat IPC: 4 cumulative IPC: 3.853 (Simulation time: 00 hr 02 min 49 sec)
Heartbeat CPU 0 instructions: 50000000 cycles: 12881042 heartbeat IPC: 4 cumulative IPC: 3.882 (Simulation time: 00 hr 03 min 26 sec)
Warmup finished CPU 0 instructions: 50000000 cycles: 12881043 cumulative IPC: 3.882 (Simulation time: 00 hr 03 min 26 sec)
Warmup complete CPU 0 instructions: 50000000 cycles: 12881043 cumulative IPC: 3.882 (Simulation time: 00 hr 03 min 26 sec)
Heartbeat CPU 0 instructions: 60000004 cycles: 15381363 heartbeat IPC: 3.999 cumulative IPC: 3.999 (Simulation time: 00 hr 04 min 11 sec)
Heartbeat CPU 0 instructions: 70000002 cycles: 17882672 heartbeat IPC: 3.998 cumulative IPC: 3.999 (Simulation time: 00 hr 04 min 54 sec)
Heartbeat CPU 0 instructions: 80000002 cycles: 20383049 heartbeat IPC: 3.999 cumulative IPC: 3.999 (Simulation time: 00 hr 05 min 39 sec)
Heartbeat CPU 0 instructions: 90000004 cycles: 22884239 heartbeat IPC: 3.998 cumulative IPC: 3.999 (Simulation time: 00 hr 06 min 23 sec)
Heartbeat CPU 0 instructions: 100000000 cycles: 25384358 heartbeat IPC: 4 cumulative IPC: 3.999 (Simulation time: 00 hr 07 min 07 sec)
Heartbeat CPU 0 instructions: 110000002 cycles: 27884477 heartbeat IPC: 4 cumulative IPC: 3.999 (Simulation time: 00 hr 07 min 50 sec)
Heartbeat CPU 0 instructions: 120000000 cycles: 30385399 heartbeat IPC: 3.999 cumulative IPC: 3.999 (Simulation time: 00 hr 08 min 33 sec)
Heartbeat CPU 0 instructions: 130000002 cycles: 32886153 heartbeat IPC: 3.999 cumulative IPC: 3.999 (Simulation time: 00 hr 09 min 16 sec)
Heartbeat CPU 0 instructions: 140000004 cycles: 35386276 heartbeat IPC: 4 cumulative IPC: 3.999 (Simulation time: 00 hr 09 min 56 sec)
Heartbeat CPU 0 instructions: 150000000 cycles: 37887067 heartbeat IPC: 3.999 cumulative IPC: 3.999 (Simulation time: 00 hr 10 min 37 sec)
Heartbeat CPU 0 instructions: 160000003 cycles: 40388926 heartbeat IPC: 3.997 cumulative IPC: 3.999 (Simulation time: 00 hr 11 min 22 sec)
Heartbeat CPU 0 instructions: 170000002 cycles: 42890343 heartbeat IPC: 3.998 cumulative IPC: 3.999 (Simulation time: 00 hr 12 min 03 sec)
Heartbeat CPU 0 instructions: 180000000 cycles: 45390763 heartbeat IPC: 3.999 cumulative IPC: 3.999 (Simulation time: 00 hr 12 min 43 sec)
Heartbeat CPU 0 instructions: 190000003 cycles: 47890953 heartbeat IPC: 4 cumulative IPC: 3.999 (Simulation time: 00 hr 13 min 24 sec)
Heartbeat CPU 0 instructions: 200000000 cycles: 50393027 heartbeat IPC: 3.997 cumulative IPC: 3.999 (Simulation time: 00 hr 14 min 05 sec)
Heartbeat CPU 0 instructions: 210000000 cycles: 52893377 heartbeat IPC: 3.999 cumulative IPC: 3.999 (Simulation time: 00 hr 14 min 46 sec)
Heartbeat CPU 0 instructions: 220000003 cycles: 55394388 heartbeat IPC: 3.998 cumulative IPC: 3.999 (Simulation time: 00 hr 15 min 26 sec)
Heartbeat CPU 0 instructions: 230000001 cycles: 89685900 heartbeat IPC: 0.2916 cumulative IPC: 2.344 (Simulation time: 00 hr 19 min 04 sec)
Heartbeat CPU 0 instructions: 240000002 cycles: 95510467 heartbeat IPC: 1.717 cumulative IPC: 2.299 (Simulation time: 00 hr 20 min 16 sec)
Heartbeat CPU 0 instructions: 250000000 cycles: 101451225 heartbeat IPC: 1.683 cumulative IPC: 2.258 (Simulation time: 00 hr 21 min 25 sec)
Heartbeat CPU 0 instructions: 260000004 cycles: 107389069 heartbeat IPC: 1.684 cumulative IPC: 2.222 (Simulation time: 00 hr 22 min 33 sec)
Heartbeat CPU 0 instructions: 270000003 cycles: 113312782 heartbeat IPC: 1.688 cumulative IPC: 2.191 (Simulation time: 00 hr 23 min 42 sec)
Heartbeat CPU 0 instructions: 280000003 cycles: 119270300 heartbeat IPC: 1.679 cumulative IPC: 2.162 (Simulation time: 00 hr 24 min 54 sec)
Heartbeat CPU 0 instructions: 290000000 cycles: 125203560 heartbeat IPC: 1.685 cumulative IPC: 2.137 (Simulation time: 00 hr 26 min 03 sec)
Heartbeat CPU 0 instructions: 300000003 cycles: 131175412 heartbeat IPC: 1.675 cumulative IPC: 2.113 (Simulation time: 00 hr 27 min 10 sec)
Heartbeat CPU 0 instructions: 310000001 cycles: 137091716 heartbeat IPC: 1.69 cumulative IPC: 2.093 (Simulation time: 00 hr 28 min 17 sec)
Heartbeat CPU 0 instructions: 320000002 cycles: 143042087 heartbeat IPC: 1.681 cumulative IPC: 2.074 (Simulation time: 00 hr 29 min 25 sec)
Heartbeat CPU 0 instructions: 330000004 cycles: 149582711 heartbeat IPC: 1.529 cumulative IPC: 2.048 (Simulation time: 00 hr 30 min 39 sec)
Heartbeat CPU 0 instructions: 340000002 cycles: 156452464 heartbeat IPC: 1.456 cumulative IPC: 2.02 (Simulation time: 00 hr 31 min 53 sec)
Heartbeat CPU 0 instructions: 350000002 cycles: 163172839 heartbeat IPC: 1.488 cumulative IPC: 1.996 (Simulation time: 00 hr 33 min 07 sec)
Heartbeat CPU 0 instructions: 360000000 cycles: 169951215 heartbeat IPC: 1.475 cumulative IPC: 1.974 (Simulation time: 00 hr 34 min 25 sec)
Heartbeat CPU 0 instructions: 370000001 cycles: 176644994 heartbeat IPC: 1.494 cumulative IPC: 1.954 (Simulation time: 00 hr 35 min 40 sec)
Heartbeat CPU 0 instructions: 380000003 cycles: 183418893 heartbeat IPC: 1.476 cumulative IPC: 1.935 (Simulation time: 00 hr 36 min 59 sec)
Heartbeat CPU 0 instructions: 390000004 cycles: 190150134 heartbeat IPC: 1.486 cumulative IPC: 1.918 (Simulation time: 00 hr 38 min 16 sec)
Heartbeat CPU 0 instructions: 400000000 cycles: 196961850 heartbeat IPC: 1.468 cumulative IPC: 1.901 (Simulation time: 00 hr 39 min 34 sec)
Heartbeat CPU 0 instructions: 410000003 cycles: 203734904 heartbeat IPC: 1.476 cumulative IPC: 1.886 (Simulation time: 00 hr 40 min 48 sec)
Heartbeat CPU 0 instructions: 420000000 cycles: 210456994 heartbeat IPC: 1.488 cumulative IPC: 1.873 (Simulation time: 00 hr 42 min 02 sec)
Heartbeat CPU 0 instructions: 430000002 cycles: 217522823 heartbeat IPC: 1.415 cumulative IPC: 1.857 (Simulation time: 00 hr 43 min 17 sec)
Heartbeat CPU 0 instructions: 440000002 cycles: 224701904 heartbeat IPC: 1.393 cumulative IPC: 1.841 (Simulation time: 00 hr 44 min 35 sec)
Heartbeat CPU 0 instructions: 450000000 cycles: 231905954 heartbeat IPC: 1.388 cumulative IPC: 1.826 (Simulation time: 00 hr 45 min 52 sec)
Heartbeat CPU 0 instructions: 460000003 cycles: 239160945 heartbeat IPC: 1.378 cumulative IPC: 1.812 (Simulation time: 00 hr 47 min 13 sec)
Heartbeat CPU 0 instructions: 470000004 cycles: 246411336 heartbeat IPC: 1.379 cumulative IPC: 1.798 (Simulation time: 00 hr 48 min 30 sec)
Heartbeat CPU 0 instructions: 480000000 cycles: 253703281 heartbeat IPC: 1.371 cumulative IPC: 1.786 (Simulation time: 00 hr 49 min 49 sec)
Heartbeat CPU 0 instructions: 490000001 cycles: 260896979 heartbeat IPC: 1.39 cumulative IPC: 1.774 (Simulation time: 00 hr 51 min 11 sec)
Heartbeat CPU 0 instructions: 500000001 cycles: 268147875 heartbeat IPC: 1.379 cumulative IPC: 1.763 (Simulation time: 00 hr 52 min 35 sec)
Heartbeat CPU 0 instructions: 510000002 cycles: 275434313 heartbeat IPC: 1.372 cumulative IPC: 1.752 (Simulation time: 00 hr 54 min 04 sec)
Heartbeat CPU 0 instructions: 520000004 cycles: 334427517 heartbeat IPC: 0.1695 cumulative IPC: 1.462 (Simulation time: 01 hr 02 min 02 sec)
Heartbeat CPU 0 instructions: 530000001 cycles: 440729792 heartbeat IPC: 0.09407 cumulative IPC: 1.122 (Simulation time: 01 hr 16 min 15 sec)
Heartbeat CPU 0 instructions: 540000002 cycles: 475268626 heartbeat IPC: 0.2895 cumulative IPC: 1.06 (Simulation time: 01 hr 21 min 13 sec)
Heartbeat CPU 0 instructions: 550000003 cycles: 513906044 heartbeat IPC: 0.2588 cumulative IPC: 0.998 (Simulation time: 01 hr 26 min 49 sec)
Heartbeat CPU 0 instructions: 560000001 cycles: 552322990 heartbeat IPC: 0.2603 cumulative IPC: 0.9454 (Simulation time: 01 hr 32 min 21 sec)
Heartbeat CPU 0 instructions: 570000000 cycles: 590896843 heartbeat IPC: 0.2592 cumulative IPC: 0.8996 (Simulation time: 01 hr 38 min 19 sec)
Heartbeat CPU 0 instructions: 580000004 cycles: 621743178 heartbeat IPC: 0.3242 cumulative IPC: 0.8705 (Simulation time: 01 hr 43 min 01 sec)
Heartbeat CPU 0 instructions: 590000000 cycles: 659916907 heartbeat IPC: 0.262 cumulative IPC: 0.8346 (Simulation time: 01 hr 48 min 27 sec)
*** Reached end of trace: (0, "traces/bt.A.champsimtrace")
Heartbeat CPU 0 instructions: 600000002 cycles: 697684155 heartbeat IPC: 0.2648 cumulative IPC: 0.8032 (Simulation time: 01 hr 53 min 59 sec)
Heartbeat CPU 0 instructions: 610000004 cycles: 722226665 heartbeat IPC: 0.4075 cumulative IPC: 0.7895 (Simulation time: 01 hr 57 min 24 sec)
Heartbeat CPU 0 instructions: 620000000 cycles: 724726695 heartbeat IPC: 4 cumulative IPC: 0.8007 (Simulation time: 01 hr 58 min 12 sec)
Heartbeat CPU 0 instructions: 630000002 cycles: 727226726 heartbeat IPC: 4 cumulative IPC: 0.8119 (Simulation time: 01 hr 59 min 03 sec)
Heartbeat CPU 0 instructions: 640000001 cycles: 729726757 heartbeat IPC: 4 cumulative IPC: 0.8231 (Simulation time: 01 hr 59 min 52 sec)
Heartbeat CPU 0 instructions: 650000002 cycles: 732226867 heartbeat IPC: 4 cumulative IPC: 0.8341 (Simulation time: 02 hr 00 min 46 sec)
Simulation finished CPU 0 instructions: 600000002 cycles: 719345825 cumulative IPC: 0.8341 (Simulation time: 02 hr 00 min 46 sec)
Simulation complete CPU 0 instructions: 600000002 cycles: 719345825 cumulative IPC: 0.8341 (Simulation time: 02 hr 00 min 46 sec)

ChampSim completed all CPUs

=== Simulation ===
CPU 0 runs traces/bt.A.champsimtrace
Region of Interest Statistics

CPU 0 cumulative IPC: 0.8341 instructions: 600000002 cycles: 719345825
CPU 0 Branch Prediction Accuracy: 99.98% MPKI: 0.004168 Average ROB Occupancy at Mispredict: 112.4
Branch type MPKI
BRANCH_DIRECT_JUMP: 5e-06
BRANCH_INDIRECT: 7.83e-05
BRANCH_CONDITIONAL: 0.00402
BRANCH_DIRECT_CALL: 6.67e-06
BRANCH_INDIRECT_CALL: 3.67e-05
BRANCH_RETURN: 2.33e-05

LLC TOTAL        ACCESS:    5120940 HIT:     467281 MISS:    4653659
LLC LOAD         ACCESS:    2239962 HIT:     306558 MISS:    1933404
LLC RFO          ACCESS:     889446 HIT:      63119 MISS:     826327
LLC PREFETCH     ACCESS:          0 HIT:          0 MISS:          0
LLC WRITE        ACCESS:    1988155 HIT:      97495 MISS:    1890660
LLC TRANSLATION  ACCESS:       3377 HIT:        109 MISS:       3268
LLC PREFETCH REQUESTED:          0 ISSUED:          0 USEFUL:          0 USELESS:          0
LLC AVERAGE MISS LATENCY: 706.5 cycles
cpu0_DTLB TOTAL        ACCESS:  126893377 HIT:  126113283 MISS:     780094
cpu0_DTLB LOAD         ACCESS:  126893377 HIT:  126113283 MISS:     780094
cpu0_DTLB RFO          ACCESS:          0 HIT:          0 MISS:          0
cpu0_DTLB PREFETCH     ACCESS:          0 HIT:          0 MISS:          0
cpu0_DTLB WRITE        ACCESS:          0 HIT:          0 MISS:          0
cpu0_DTLB TRANSLATION  ACCESS:          0 HIT:          0 MISS:          0
cpu0_DTLB PREFETCH REQUESTED:          0 ISSUED:          0 USEFUL:          0 USELESS:          0
cpu0_DTLB AVERAGE MISS LATENCY: 15.6 cycles
cpu0_ITLB TOTAL        ACCESS:     172498 HIT:     172253 MISS:        245
cpu0_ITLB LOAD         ACCESS:     172498 HIT:     172253 MISS:        245
cpu0_ITLB RFO          ACCESS:          0 HIT:          0 MISS:          0
cpu0_ITLB PREFETCH     ACCESS:          0 HIT:          0 MISS:          0
cpu0_ITLB WRITE        ACCESS:          0 HIT:          0 MISS:          0
cpu0_ITLB TRANSLATION  ACCESS:          0 HIT:          0 MISS:          0
cpu0_ITLB PREFETCH REQUESTED:          0 ISSUED:          0 USEFUL:          0 USELESS:          0
cpu0_ITLB AVERAGE MISS LATENCY: 288.3 cycles
cpu0_L1D TOTAL        ACCESS:  194251094 HIT:  180279135 MISS:   13971959
cpu0_L1D LOAD         ACCESS:  159568858 HIT:  149673979 MISS:    9894879
cpu0_L1D RFO          ACCESS:          0 HIT:          0 MISS:          0
cpu0_L1D PREFETCH     ACCESS:          0 HIT:          0 MISS:          0
cpu0_L1D WRITE        ACCESS:   34635461 HIT:   30575454 MISS:    4060007
cpu0_L1D TRANSLATION  ACCESS:      46775 HIT:      29702 MISS:      17073
cpu0_L1D PREFETCH REQUESTED:          0 ISSUED:          0 USEFUL:          0 USELESS:          0
cpu0_L1D AVERAGE MISS LATENCY: 175.1 cycles
cpu0_L1I TOTAL        ACCESS:     205688 HIT:     202718 MISS:       2970
cpu0_L1I LOAD         ACCESS:     205688 HIT:     202718 MISS:       2970
cpu0_L1I RFO          ACCESS:          0 HIT:          0 MISS:          0
cpu0_L1I PREFETCH     ACCESS:          0 HIT:          0 MISS:          0
cpu0_L1I WRITE        ACCESS:          0 HIT:          0 MISS:          0
cpu0_L1I TRANSLATION  ACCESS:          0 HIT:          0 MISS:          0
cpu0_L1I PREFETCH REQUESTED:          0 ISSUED:          0 USEFUL:          0 USELESS:          0
cpu0_L1I AVERAGE MISS LATENCY: 504 cycles
cpu0_L2C TOTAL        ACCESS:    5271511 HIT:    2138270 MISS:    3133241
cpu0_L2C LOAD         ACCESS:    2365342 HIT:     125380 MISS:    2239962
cpu0_L2C RFO          ACCESS:     889977 HIT:        531 MISS:     889446
cpu0_L2C PREFETCH     ACCESS:          0 HIT:          0 MISS:          0
cpu0_L2C WRITE        ACCESS:    1999122 HIT:    1998666 MISS:        456
cpu0_L2C TRANSLATION  ACCESS:      17070 HIT:      13693 MISS:       3377
cpu0_L2C PREFETCH REQUESTED:          0 ISSUED:          0 USEFUL:          0 USELESS:          0
cpu0_L2C AVERAGE MISS LATENCY: 1070 cycles
cpu0_STLB TOTAL        ACCESS:     314896 HIT:     268143 MISS:      46753
cpu0_STLB LOAD         ACCESS:     314896 HIT:     268143 MISS:      46753
cpu0_STLB RFO          ACCESS:          0 HIT:          0 MISS:          0
cpu0_STLB PREFETCH     ACCESS:          0 HIT:          0 MISS:          0
cpu0_STLB WRITE        ACCESS:          0 HIT:          0 MISS:          0
cpu0_STLB TRANSLATION  ACCESS:          0 HIT:          0 MISS:          0
cpu0_STLB PREFETCH REQUESTED:          0 ISSUED:          0 USEFUL:          0 USELESS:          0
cpu0_STLB AVERAGE MISS LATENCY: 362.8 cycles

DRAM Statistics

Channel 0 RQ ROW_BUFFER_HIT:     741853
  ROW_BUFFER_MISS:    2017115
 AVG DBUS CONGESTED CYCLE: 3.969
WQ ROW_BUFFER_HIT: Channel 0 
  ROW_BUFFER_MISS:     657622
  FULL:    1244318
