WARNING: physical memory size is smaller than virtual memory size.

*** ChampSim Multicore Out-of-Order Simulator ***
Warmup Instructions: 50000000
Simulation Instructions: 600000000
Number of CPUs: 1
Page size: 4096

CPU 0 Tage branch predictor
Off-chip DRAM Size: 4 GiB Channels: 1 Width: 64-bit Data Race: 3200 MT/s
Heartbeat CPU 0 instructions: 10000003 cycles: 2881028 heartbeat IPC: 3.471 cumulative IPC: 3.471 (Simulation time: 00 hr 00 min 56 sec)
Heartbeat CPU 0 instructions: 20000003 cycles: 5381028 heartbeat IPC: 4 cumulative IPC: 3.717 (Simulation time: 00 hr 01 min 48 sec)
Heartbeat CPU 0 instructions: 30000003 cycles: 7881028 heartbeat IPC: 4 cumulative IPC: 3.807 (Simulation time: 00 hr 02 min 40 sec)
Heartbeat CPU 0 instructions: 40000003 cycles: 10381028 heartbeat IPC: 4 cumulative IPC: 3.853 (Simulation time: 00 hr 03 min 31 sec)
Heartbeat CPU 0 instructions: 50000003 cycles: 12881028 heartbeat IPC: 4 cumulative IPC: 3.882 (Simulation time: 00 hr 04 min 23 sec)
Warmup finished CPU 0 instructions: 50000003 cycles: 12881029 cumulative IPC: 3.882 (Simulation time: 00 hr 04 min 23 sec)
Warmup complete CPU 0 instructions: 50000003 cycles: 12881029 cumulative IPC: 3.882 (Simulation time: 00 hr 04 min 23 sec)
Heartbeat CPU 0 instructions: 60000004 cycles: 15381065 heartbeat IPC: 4 cumulative IPC: 4 (Simulation time: 00 hr 05 min 22 sec)
Heartbeat CPU 0 instructions: 70000002 cycles: 17881096 heartbeat IPC: 4 cumulative IPC: 4 (Simulation time: 00 hr 06 min 21 sec)
Heartbeat CPU 0 instructions: 80000002 cycles: 20381129 heartbeat IPC: 4 cumulative IPC: 4 (Simulation time: 00 hr 07 min 19 sec)
Heartbeat CPU 0 instructions: 90000004 cycles: 22881241 heartbeat IPC: 4 cumulative IPC: 4 (Simulation time: 00 hr 08 min 19 sec)
Heartbeat CPU 0 instructions: 100000004 cycles: 25381979 heartbeat IPC: 3.999 cumulative IPC: 4 (Simulation time: 00 hr 09 min 16 sec)
Heartbeat CPU 0 instructions: 110000000 cycles: 27882987 heartbeat IPC: 3.998 cumulative IPC: 3.999 (Simulation time: 00 hr 10 min 14 sec)
Heartbeat CPU 0 instructions: 120000003 cycles: 30384141 heartbeat IPC: 3.998 cumulative IPC: 3.999 (Simulation time: 00 hr 11 min 12 sec)
Heartbeat CPU 0 instructions: 130000000 cycles: 32885743 heartbeat IPC: 3.997 cumulative IPC: 3.999 (Simulation time: 00 hr 12 min 09 sec)
Heartbeat CPU 0 instructions: 140000001 cycles: 35386899 heartbeat IPC: 3.998 cumulative IPC: 3.999 (Simulation time: 00 hr 13 min 07 sec)
Heartbeat CPU 0 instructions: 150000000 cycles: 37887953 heartbeat IPC: 3.998 cumulative IPC: 3.999 (Simulation time: 00 hr 14 min 04 sec)
Heartbeat CPU 0 instructions: 160000001 cycles: 40388087 heartbeat IPC: 4 cumulative IPC: 3.999 (Simulation time: 00 hr 15 min 03 sec)
Heartbeat CPU 0 instructions: 170000002 cycles: 42889008 heartbeat IPC: 3.999 cumulative IPC: 3.999 (Simulation time: 00 hr 16 min 12 sec)
Heartbeat CPU 0 instructions: 180000001 cycles: 45389464 heartbeat IPC: 3.999 cumulative IPC: 3.999 (Simulation time: 00 hr 17 min 10 sec)
Heartbeat CPU 0 instructions: 190000004 cycles: 47889969 heartbeat IPC: 3.999 cumulative IPC: 3.999 (Simulation time: 00 hr 18 min 07 sec)
Heartbeat CPU 0 instructions: 200000000 cycles: 50390141 heartbeat IPC: 4 cumulative IPC: 3.999 (Simulation time: 00 hr 19 min 05 sec)
Heartbeat CPU 0 instructions: 210000000 cycles: 52890368 heartbeat IPC: 4 cumulative IPC: 3.999 (Simulation time: 00 hr 20 min 04 sec)
Heartbeat CPU 0 instructions: 220000000 cycles: 55391500 heartbeat IPC: 3.998 cumulative IPC: 3.999 (Simulation time: 00 hr 21 min 01 sec)
Heartbeat CPU 0 instructions: 230000004 cycles: 88972038 heartbeat IPC: 0.2978 cumulative IPC: 2.366 (Simulation time: 00 hr 26 min 29 sec)
Heartbeat CPU 0 instructions: 240000001 cycles: 94775119 heartbeat IPC: 1.723 cumulative IPC: 2.32 (Simulation time: 00 hr 28 min 06 sec)
Heartbeat CPU 0 instructions: 250000000 cycles: 100675993 heartbeat IPC: 1.695 cumulative IPC: 2.278 (Simulation time: 00 hr 29 min 45 sec)
Heartbeat CPU 0 instructions: 260000002 cycles: 106613507 heartbeat IPC: 1.684 cumulative IPC: 2.24 (Simulation time: 00 hr 31 min 23 sec)
Heartbeat CPU 0 instructions: 270000000 cycles: 112540388 heartbeat IPC: 1.687 cumulative IPC: 2.208 (Simulation time: 00 hr 33 min 03 sec)
Heartbeat CPU 0 instructions: 280000001 cycles: 118467997 heartbeat IPC: 1.687 cumulative IPC: 2.178 (Simulation time: 00 hr 34 min 42 sec)
Heartbeat CPU 0 instructions: 290000003 cycles: 124395955 heartbeat IPC: 1.687 cumulative IPC: 2.152 (Simulation time: 00 hr 36 min 23 sec)
Heartbeat CPU 0 instructions: 300000003 cycles: 130327406 heartbeat IPC: 1.686 cumulative IPC: 2.129 (Simulation time: 00 hr 38 min 02 sec)
Heartbeat CPU 0 instructions: 310000000 cycles: 136255647 heartbeat IPC: 1.687 cumulative IPC: 2.107 (Simulation time: 00 hr 39 min 41 sec)
Heartbeat CPU 0 instructions: 320000002 cycles: 142195422 heartbeat IPC: 1.684 cumulative IPC: 2.088 (Simulation time: 00 hr 41 min 20 sec)
Heartbeat CPU 0 instructions: 330000002 cycles: 149107278 heartbeat IPC: 1.447 cumulative IPC: 2.055 (Simulation time: 00 hr 43 min 09 sec)
Heartbeat CPU 0 instructions: 340000003 cycles: 155985204 heartbeat IPC: 1.454 cumulative IPC: 2.026 (Simulation time: 00 hr 44 min 57 sec)
Heartbeat CPU 0 instructions: 350000000 cycles: 162788335 heartbeat IPC: 1.47 cumulative IPC: 2.001 (Simulation time: 00 hr 46 min 44 sec)
Heartbeat CPU 0 instructions: 360000001 cycles: 169622657 heartbeat IPC: 1.463 cumulative IPC: 1.978 (Simulation time: 00 hr 48 min 31 sec)
Heartbeat CPU 0 instructions: 370000004 cycles: 176339434 heartbeat IPC: 1.489 cumulative IPC: 1.958 (Simulation time: 00 hr 50 min 18 sec)
Heartbeat CPU 0 instructions: 380000003 cycles: 183273371 heartbeat IPC: 1.442 cumulative IPC: 1.937 (Simulation time: 00 hr 52 min 08 sec)
Heartbeat CPU 0 instructions: 390000000 cycles: 190033514 heartbeat IPC: 1.479 cumulative IPC: 1.919 (Simulation time: 00 hr 53 min 55 sec)
Heartbeat CPU 0 instructions: 400000001 cycles: 196920967 heartbeat IPC: 1.452 cumulative IPC: 1.902 (Simulation time: 00 hr 55 min 42 sec)
Heartbeat CPU 0 instructions: 410000004 cycles: 203717127 heartbeat IPC: 1.471 cumulative IPC: 1.886 (Simulation time: 00 hr 57 min 30 sec)
Heartbeat CPU 0 instructions: 420000004 cycles: 210506117 heartbeat IPC: 1.473 cumulative IPC: 1.872 (Simulation time: 00 hr 59 min 16 sec)
Heartbeat CPU 0 instructions: 430000004 cycles: 217564566 heartbeat IPC: 1.417 cumulative IPC: 1.857 (Simulation time: 01 hr 01 min 07 sec)
Heartbeat CPU 0 instructions: 440000004 cycles: 224930461 heartbeat IPC: 1.358 cumulative IPC: 1.839 (Simulation time: 01 hr 02 min 58 sec)
Heartbeat CPU 0 instructions: 450000000 cycles: 232295734 heartbeat IPC: 1.358 cumulative IPC: 1.823 (Simulation time: 01 hr 04 min 51 sec)
Heartbeat CPU 0 instructions: 460000001 cycles: 239727348 heartbeat IPC: 1.346 cumulative IPC: 1.807 (Simulation time: 01 hr 06 min 44 sec)
Heartbeat CPU 0 instructions: 470000000 cycles: 247101586 heartbeat IPC: 1.356 cumulative IPC: 1.793 (Simulation time: 01 hr 08 min 38 sec)
Heartbeat CPU 0 instructions: 480000003 cycles: 254443229 heartbeat IPC: 1.362 cumulative IPC: 1.78 (Simulation time: 01 hr 10 min 32 sec)
Heartbeat CPU 0 instructions: 490000004 cycles: 261817646 heartbeat IPC: 1.356 cumulative IPC: 1.768 (Simulation time: 01 hr 12 min 26 sec)
Heartbeat CPU 0 instructions: 500000002 cycles: 269103166 heartbeat IPC: 1.373 cumulative IPC: 1.756 (Simulation time: 01 hr 14 min 18 sec)
Heartbeat CPU 0 instructions: 510000003 cycles: 276336017 heartbeat IPC: 1.383 cumulative IPC: 1.746 (Simulation time: 01 hr 16 min 09 sec)
Heartbeat CPU 0 instructions: 520000003 cycles: 334380697 heartbeat IPC: 0.1723 cumulative IPC: 1.462 (Simulation time: 01 hr 27 min 10 sec)
Heartbeat CPU 0 instructions: 530000003 cycles: 445045846 heartbeat IPC: 0.09036 cumulative IPC: 1.111 (Simulation time: 01 hr 47 min 46 sec)
Heartbeat CPU 0 instructions: 540000003 cycles: 471032081 heartbeat IPC: 0.3848 cumulative IPC: 1.07 (Simulation time: 01 hr 53 min 12 sec)
Heartbeat CPU 0 instructions: 550000000 cycles: 505405371 heartbeat IPC: 0.2909 cumulative IPC: 1.015 (Simulation time: 02 hr 00 min 01 sec)
Heartbeat CPU 0 instructions: 560000000 cycles: 543703271 heartbeat IPC: 0.2611 cumulative IPC: 0.9608 (Simulation time: 02 hr 07 min 26 sec)
Heartbeat CPU 0 instructions: 570000002 cycles: 581479943 heartbeat IPC: 0.2647 cumulative IPC: 0.9145 (Simulation time: 02 hr 14 min 47 sec)
Heartbeat CPU 0 instructions: 580000002 cycles: 607927377 heartbeat IPC: 0.3781 cumulative IPC: 0.8907 (Simulation time: 02 hr 20 min 14 sec)
Heartbeat CPU 0 instructions: 590000001 cycles: 636079356 heartbeat IPC: 0.3552 cumulative IPC: 0.8665 (Simulation time: 02 hr 26 min 00 sec)
*** Reached end of trace: (0, "traces/bt.A.champsimtrace")
Heartbeat CPU 0 instructions: 600000001 cycles: 675509886 heartbeat IPC: 0.2536 cumulative IPC: 0.83 (Simulation time: 02 hr 33 min 44 sec)
Heartbeat CPU 0 instructions: 610000004 cycles: 694985463 heartbeat IPC: 0.5135 cumulative IPC: 0.821 (Simulation time: 02 hr 37 min 18 sec)
Heartbeat CPU 0 instructions: 620000000 cycles: 697485463 heartbeat IPC: 4 cumulative IPC: 0.8326 (Simulation time: 02 hr 38 min 15 sec)
Heartbeat CPU 0 instructions: 630000002 cycles: 699985462 heartbeat IPC: 4 cumulative IPC: 0.8441 (Simulation time: 02 hr 39 min 13 sec)
Heartbeat CPU 0 instructions: 640000003 cycles: 702485463 heartbeat IPC: 4 cumulative IPC: 0.8556 (Simulation time: 02 hr 40 min 11 sec)
Heartbeat CPU 0 instructions: 650000003 cycles: 704985460 heartbeat IPC: 4 cumulative IPC: 0.8669 (Simulation time: 02 hr 41 min 07 sec)
Simulation finished CPU 0 instructions: 600000000 cycles: 692104432 cumulative IPC: 0.8669 (Simulation time: 02 hr 41 min 07 sec)
Simulation complete CPU 0 instructions: 600000000 cycles: 692104432 cumulative IPC: 0.8669 (Simulation time: 02 hr 41 min 07 sec)

ChampSim completed all CPUs

=== Simulation ===
CPU 0 runs traces/bt.A.champsimtrace
Region of Interest Statistics

CPU 0 cumulative IPC: 0.8669 instructions: 600000000 cycles: 692104432
CPU 0 Branch Prediction Accuracy: 99.98% MPKI: 0.004067 Average ROB Occupancy at Mispredict: 105.9
Branch type MPKI
BRANCH_DIRECT_JUMP: 5e-06
BRANCH_INDIRECT: 7.67e-05
BRANCH_CONDITIONAL: 0.00392
BRANCH_DIRECT_CALL: 6.67e-06
BRANCH_INDIRECT_CALL: 3.33e-05
BRANCH_RETURN: 2.33e-05

LLC TOTAL        ACCESS:    5112521 HIT:    1323896 MISS:    3788625
LLC LOAD         ACCESS:    2236600 HIT:     508646 MISS:    1727954
LLC RFO          ACCESS:     889408 HIT:     129478 MISS:     759930
LLC PREFETCH     ACCESS:          0 HIT:          0 MISS:          0
LLC WRITE        ACCESS:    1983152 HIT:     685523 MISS:    1297629
LLC TRANSLATION  ACCESS:       3361 HIT:        249 MISS:       3112
LLC PREFETCH REQUESTED:          0 ISSUED:          0 USEFUL:          0 USELESS:          0
LLC AVERAGE MISS LATENCY: 804.9 cycles
cpu0_DTLB TOTAL        ACCESS:  126800574 HIT:  126028902 MISS:     771672
cpu0_DTLB LOAD         ACCESS:  126800574 HIT:  126028902 MISS:     771672
cpu0_DTLB RFO          ACCESS:          0 HIT:          0 MISS:          0
cpu0_DTLB PREFETCH     ACCESS:          0 HIT:          0 MISS:          0
cpu0_DTLB WRITE        ACCESS:          0 HIT:          0 MISS:          0
cpu0_DTLB TRANSLATION  ACCESS:          0 HIT:          0 MISS:          0
cpu0_DTLB PREFETCH REQUESTED:          0 ISSUED:          0 USEFUL:          0 USELESS:          0
cpu0_DTLB AVERAGE MISS LATENCY: 15.4 cycles
cpu0_ITLB TOTAL        ACCESS:     172984 HIT:     172746 MISS:        238
cpu0_ITLB LOAD         ACCESS:     172984 HIT:     172746 MISS:        238
cpu0_ITLB RFO          ACCESS:          0 HIT:          0 MISS:          0
cpu0_ITLB PREFETCH     ACCESS:          0 HIT:          0 MISS:          0
cpu0_ITLB WRITE        ACCESS:          0 HIT:          0 MISS:          0
cpu0_ITLB TRANSLATION  ACCESS:          0 HIT:          0 MISS:          0
cpu0_ITLB PREFETCH REQUESTED:          0 ISSUED:          0 USEFUL:          0 USELESS:          0
cpu0_ITLB AVERAGE MISS LATENCY: 258.9 cycles
cpu0_L1D TOTAL        ACCESS:  194573850 HIT:  181046207 MISS:   13527643
cpu0_L1D LOAD         ACCESS:  159891557 HIT:  150411552 MISS:    9480005
cpu0_L1D RFO          ACCESS:          0 HIT:          0 MISS:          0
cpu0_L1D PREFETCH     ACCESS:          0 HIT:          0 MISS:          0
cpu0_L1D WRITE        ACCESS:   34635543 HIT:   30604964 MISS:    4030579
cpu0_L1D TRANSLATION  ACCESS:      46750 HIT:      29691 MISS:      17059
cpu0_L1D PREFETCH REQUESTED:          0 ISSUED:          0 USEFUL:          0 USELESS:          0
cpu0_L1D AVERAGE MISS LATENCY: 172.7 cycles
cpu0_L1I TOTAL        ACCESS:     205907 HIT:     203013 MISS:       2894
cpu0_L1I LOAD         ACCESS:     205907 HIT:     203013 MISS:       2894
cpu0_L1I RFO          ACCESS:          0 HIT:          0 MISS:          0
cpu0_L1I PREFETCH     ACCESS:          0 HIT:          0 MISS:          0
cpu0_L1I WRITE        ACCESS:          0 HIT:          0 MISS:          0
cpu0_L1I TRANSLATION  ACCESS:          0 HIT:          0 MISS:          0
cpu0_L1I PREFETCH REQUESTED:          0 ISSUED:          0 USEFUL:          0 USELESS:          0
cpu0_L1I AVERAGE MISS LATENCY: 421.2 cycles
cpu0_L2C TOTAL        ACCESS:    5272416 HIT:    2142509 MISS:    3129907
cpu0_L2C LOAD         ACCESS:    2365722 HIT:     128917 MISS:    2236805
cpu0_L2C RFO          ACCESS:     890353 HIT:        945 MISS:     889408
cpu0_L2C PREFETCH     ACCESS:          0 HIT:          0 MISS:          0
cpu0_L2C WRITE        ACCESS:    1999285 HIT:    1998952 MISS:        333
cpu0_L2C TRANSLATION  ACCESS:      17056 HIT:      13695 MISS:       3361
cpu0_L2C PREFETCH REQUESTED:          0 ISSUED:          0 USEFUL:          0 USELESS:          0
cpu0_L2C AVERAGE MISS LATENCY: 995.1 cycles
cpu0_STLB TOTAL        ACCESS:     297147 HIT:     250412 MISS:      46735
cpu0_STLB LOAD         ACCESS:     297147 HIT:     250412 MISS:      46735
cpu0_STLB RFO          ACCESS:          0 HIT:          0 MISS:          0
cpu0_STLB PREFETCH     ACCESS:          0 HIT:          0 MISS:          0
cpu0_STLB WRITE        ACCESS:          0 HIT:          0 MISS:          0
cpu0_STLB TRANSLATION  ACCESS:          0 HIT:          0 MISS:          0
cpu0_STLB PREFETCH REQUESTED:          0 ISSUED:          0 USEFUL:          0 USELESS:          0
cpu0_STLB AVERAGE MISS LATENCY: 350 cycles

DRAM Statistics

Channel 0 RQ ROW_BUFFER_HIT:     729678
  ROW_BUFFER_MISS:    1760329
 AVG DBUS CONGESTED CYCLE: 3.969
WQ ROW_BUFFER_HIT: Channel 0 
  ROW_BUFFER_MISS:     665885
  FULL:    1099826
