WARNING: physical memory size is smaller than virtual memory size.

*** ChampSim Multicore Out-of-Order Simulator ***
Warmup Instructions: 50000000
Simulation Instructions: 600000000
Number of CPUs: 1
Page size: 4096

Off-chip DRAM Size: 4 GiB Channels: 1 Width: 64-bit Data Race: 3200 MT/s
Heartbeat CPU 0 instructions: 10000000 cycles: 2881042 heartbeat IPC: 3.471 cumulative IPC: 3.471 (Simulation time: 00 hr 00 min 25 sec)
Heartbeat CPU 0 instructions: 20000000 cycles: 5381042 heartbeat IPC: 4 cumulative IPC: 3.717 (Simulation time: 00 hr 00 min 54 sec)
Heartbeat CPU 0 instructions: 30000000 cycles: 7881042 heartbeat IPC: 4 cumulative IPC: 3.807 (Simulation time: 00 hr 01 min 26 sec)
Heartbeat CPU 0 instructions: 40000000 cycles: 10381042 heartbeat IPC: 4 cumulative IPC: 3.853 (Simulation time: 00 hr 01 min 56 sec)
Heartbeat CPU 0 instructions: 50000000 cycles: 12881042 heartbeat IPC: 4 cumulative IPC: 3.882 (Simulation time: 00 hr 02 min 27 sec)
Warmup finished CPU 0 instructions: 50000000 cycles: 12881043 cumulative IPC: 3.882 (Simulation time: 00 hr 02 min 27 sec)
Warmup complete CPU 0 instructions: 50000000 cycles: 12881043 cumulative IPC: 3.882 (Simulation time: 00 hr 02 min 27 sec)
Heartbeat CPU 0 instructions: 60000004 cycles: 15383651 heartbeat IPC: 3.996 cumulative IPC: 3.996 (Simulation time: 00 hr 03 min 07 sec)
Heartbeat CPU 0 instructions: 70000002 cycles: 17886014 heartbeat IPC: 3.996 cumulative IPC: 3.996 (Simulation time: 00 hr 03 min 47 sec)
Heartbeat CPU 0 instructions: 80000002 cycles: 20388734 heartbeat IPC: 3.996 cumulative IPC: 3.996 (Simulation time: 00 hr 04 min 27 sec)
Heartbeat CPU 0 instructions: 90000004 cycles: 22891157 heartbeat IPC: 3.996 cumulative IPC: 3.996 (Simulation time: 00 hr 05 min 06 sec)
Heartbeat CPU 0 instructions: 100000000 cycles: 25393562 heartbeat IPC: 3.996 cumulative IPC: 3.996 (Simulation time: 00 hr 05 min 46 sec)
Heartbeat CPU 0 instructions: 110000002 cycles: 27895968 heartbeat IPC: 3.996 cumulative IPC: 3.996 (Simulation time: 00 hr 06 min 23 sec)
Heartbeat CPU 0 instructions: 120000000 cycles: 30398365 heartbeat IPC: 3.996 cumulative IPC: 3.996 (Simulation time: 00 hr 07 min 01 sec)
Heartbeat CPU 0 instructions: 130000002 cycles: 32900816 heartbeat IPC: 3.996 cumulative IPC: 3.996 (Simulation time: 00 hr 07 min 38 sec)
Heartbeat CPU 0 instructions: 140000004 cycles: 35403225 heartbeat IPC: 3.996 cumulative IPC: 3.996 (Simulation time: 00 hr 08 min 14 sec)
Heartbeat CPU 0 instructions: 150000000 cycles: 37905587 heartbeat IPC: 3.996 cumulative IPC: 3.996 (Simulation time: 00 hr 08 min 50 sec)
Heartbeat CPU 0 instructions: 160000003 cycles: 40407994 heartbeat IPC: 3.996 cumulative IPC: 3.996 (Simulation time: 00 hr 09 min 26 sec)
Heartbeat CPU 0 instructions: 170000002 cycles: 42910458 heartbeat IPC: 3.996 cumulative IPC: 3.996 (Simulation time: 00 hr 10 min 03 sec)
Heartbeat CPU 0 instructions: 180000000 cycles: 45412821 heartbeat IPC: 3.996 cumulative IPC: 3.996 (Simulation time: 00 hr 10 min 39 sec)
Heartbeat CPU 0 instructions: 190000003 cycles: 47915175 heartbeat IPC: 3.996 cumulative IPC: 3.996 (Simulation time: 00 hr 11 min 15 sec)
Heartbeat CPU 0 instructions: 200000000 cycles: 50417627 heartbeat IPC: 3.996 cumulative IPC: 3.996 (Simulation time: 00 hr 11 min 51 sec)
Heartbeat CPU 0 instructions: 210000000 cycles: 52920032 heartbeat IPC: 3.996 cumulative IPC: 3.996 (Simulation time: 00 hr 12 min 27 sec)
Heartbeat CPU 0 instructions: 220000003 cycles: 55422486 heartbeat IPC: 3.996 cumulative IPC: 3.996 (Simulation time: 00 hr 13 min 03 sec)
Heartbeat CPU 0 instructions: 230000001 cycles: 89990890 heartbeat IPC: 0.2893 cumulative IPC: 2.334 (Simulation time: 00 hr 16 min 31 sec)
Heartbeat CPU 0 instructions: 240000002 cycles: 93361395 heartbeat IPC: 2.967 cumulative IPC: 2.361 (Simulation time: 00 hr 17 min 14 sec)
Heartbeat CPU 0 instructions: 250000000 cycles: 96750286 heartbeat IPC: 2.951 cumulative IPC: 2.385 (Simulation time: 00 hr 17 min 57 sec)
Heartbeat CPU 0 instructions: 260000002 cycles: 100129258 heartbeat IPC: 2.959 cumulative IPC: 2.407 (Simulation time: 00 hr 18 min 40 sec)
Heartbeat CPU 0 instructions: 270000003 cycles: 103528777 heartbeat IPC: 2.942 cumulative IPC: 2.427 (Simulation time: 00 hr 19 min 23 sec)
Heartbeat CPU 0 instructions: 280000001 cycles: 106925384 heartbeat IPC: 2.944 cumulative IPC: 2.446 (Simulation time: 00 hr 20 min 06 sec)
Heartbeat CPU 0 instructions: 290000002 cycles: 110307151 heartbeat IPC: 2.957 cumulative IPC: 2.463 (Simulation time: 00 hr 20 min 49 sec)
Heartbeat CPU 0 instructions: 300000003 cycles: 113663615 heartbeat IPC: 2.979 cumulative IPC: 2.481 (Simulation time: 00 hr 21 min 32 sec)
Heartbeat CPU 0 instructions: 310000002 cycles: 117051491 heartbeat IPC: 2.952 cumulative IPC: 2.496 (Simulation time: 00 hr 22 min 15 sec)
Heartbeat CPU 0 instructions: 320000002 cycles: 120436359 heartbeat IPC: 2.954 cumulative IPC: 2.51 (Simulation time: 00 hr 22 min 59 sec)
Heartbeat CPU 0 instructions: 330000004 cycles: 125688187 heartbeat IPC: 1.904 cumulative IPC: 2.482 (Simulation time: 00 hr 23 min 55 sec)
Heartbeat CPU 0 instructions: 340000002 cycles: 132085316 heartbeat IPC: 1.563 cumulative IPC: 2.433 (Simulation time: 00 hr 24 min 59 sec)
Heartbeat CPU 0 instructions: 350000002 cycles: 138487615 heartbeat IPC: 1.562 cumulative IPC: 2.388 (Simulation time: 00 hr 26 min 04 sec)
Heartbeat CPU 0 instructions: 360000000 cycles: 145022490 heartbeat IPC: 1.53 cumulative IPC: 2.346 (Simulation time: 00 hr 27 min 11 sec)
Heartbeat CPU 0 instructions: 370000001 cycles: 151420479 heartbeat IPC: 1.563 cumulative IPC: 2.31 (Simulation time: 00 hr 28 min 18 sec)
Heartbeat CPU 0 instructions: 380000003 cycles: 157939329 heartbeat IPC: 1.534 cumulative IPC: 2.275 (Simulation time: 00 hr 29 min 25 sec)
Heartbeat CPU 0 instructions: 390000004 cycles: 164372388 heartbeat IPC: 1.554 cumulative IPC: 2.244 (Simulation time: 00 hr 30 min 32 sec)
Heartbeat CPU 0 instructions: 400000000 cycles: 170914434 heartbeat IPC: 1.529 cumulative IPC: 2.215 (Simulation time: 00 hr 31 min 37 sec)
Heartbeat CPU 0 instructions: 410000003 cycles: 177355112 heartbeat IPC: 1.553 cumulative IPC: 2.189 (Simulation time: 00 hr 32 min 43 sec)
Heartbeat CPU 0 instructions: 420000000 cycles: 183860298 heartbeat IPC: 1.537 cumulative IPC: 2.164 (Simulation time: 00 hr 33 min 48 sec)
Heartbeat CPU 0 instructions: 430000001 cycles: 189465182 heartbeat IPC: 1.784 cumulative IPC: 2.152 (Simulation time: 00 hr 34 min 48 sec)
Heartbeat CPU 0 instructions: 440000002 cycles: 195513718 heartbeat IPC: 1.653 cumulative IPC: 2.135 (Simulation time: 00 hr 35 min 50 sec)
Heartbeat CPU 0 instructions: 450000000 cycles: 202127242 heartbeat IPC: 1.512 cumulative IPC: 2.114 (Simulation time: 00 hr 36 min 56 sec)
Heartbeat CPU 0 instructions: 460000003 cycles: 208757629 heartbeat IPC: 1.508 cumulative IPC: 2.093 (Simulation time: 00 hr 38 min 03 sec)
Heartbeat CPU 0 instructions: 470000004 cycles: 215413051 heartbeat IPC: 1.503 cumulative IPC: 2.074 (Simulation time: 00 hr 39 min 10 sec)
Heartbeat CPU 0 instructions: 480000000 cycles: 222082071 heartbeat IPC: 1.499 cumulative IPC: 2.055 (Simulation time: 00 hr 40 min 17 sec)
Heartbeat CPU 0 instructions: 490000001 cycles: 228704638 heartbeat IPC: 1.51 cumulative IPC: 2.039 (Simulation time: 00 hr 41 min 25 sec)
Heartbeat CPU 0 instructions: 500000001 cycles: 235335601 heartbeat IPC: 1.508 cumulative IPC: 2.023 (Simulation time: 00 hr 42 min 33 sec)
Heartbeat CPU 0 instructions: 510000002 cycles: 241911086 heartbeat IPC: 1.521 cumulative IPC: 2.008 (Simulation time: 00 hr 43 min 41 sec)
Heartbeat CPU 0 instructions: 520000001 cycles: 318967505 heartbeat IPC: 0.1298 cumulative IPC: 1.536 (Simulation time: 00 hr 53 min 34 sec)
Heartbeat CPU 0 instructions: 530000001 cycles: 442974063 heartbeat IPC: 0.08064 cumulative IPC: 1.116 (Simulation time: 01 hr 09 min 19 sec)
Heartbeat CPU 0 instructions: 540000002 cycles: 465637425 heartbeat IPC: 0.4412 cumulative IPC: 1.082 (Simulation time: 01 hr 12 min 27 sec)
Heartbeat CPU 0 instructions: 550000003 cycles: 488348355 heartbeat IPC: 0.4403 cumulative IPC: 1.052 (Simulation time: 01 hr 15 min 46 sec)
Heartbeat CPU 0 instructions: 560000001 cycles: 511088785 heartbeat IPC: 0.4397 cumulative IPC: 1.024 (Simulation time: 01 hr 19 min 09 sec)
Heartbeat CPU 0 instructions: 570000001 cycles: 533875918 heartbeat IPC: 0.4388 cumulative IPC: 0.9981 (Simulation time: 01 hr 22 min 26 sec)
Heartbeat CPU 0 instructions: 580000002 cycles: 556327600 heartbeat IPC: 0.4454 cumulative IPC: 0.9753 (Simulation time: 01 hr 25 min 39 sec)
Heartbeat CPU 0 instructions: 590000000 cycles: 578528943 heartbeat IPC: 0.4504 cumulative IPC: 0.9547 (Simulation time: 01 hr 28 min 52 sec)
*** Reached end of trace: (0, "traces/bt.A.champsimtrace")
Heartbeat CPU 0 instructions: 600000001 cycles: 600550391 heartbeat IPC: 0.4541 cumulative IPC: 0.9359 (Simulation time: 01 hr 31 min 56 sec)
Heartbeat CPU 0 instructions: 610000004 cycles: 628267501 heartbeat IPC: 0.3608 cumulative IPC: 0.91 (Simulation time: 01 hr 35 min 02 sec)
Heartbeat CPU 0 instructions: 620000000 cycles: 630769921 heartbeat IPC: 3.996 cumulative IPC: 0.9225 (Simulation time: 01 hr 35 min 46 sec)
Heartbeat CPU 0 instructions: 630000002 cycles: 633272329 heartbeat IPC: 3.996 cumulative IPC: 0.9349 (Simulation time: 01 hr 36 min 28 sec)
Heartbeat CPU 0 instructions: 640000000 cycles: 635774737 heartbeat IPC: 3.996 cumulative IPC: 0.9472 (Simulation time: 01 hr 37 min 10 sec)
Heartbeat CPU 0 instructions: 650000002 cycles: 638277134 heartbeat IPC: 3.996 cumulative IPC: 0.9594 (Simulation time: 01 hr 37 min 51 sec)
Simulation finished CPU 0 instructions: 600000002 cycles: 625396092 cumulative IPC: 0.9594 (Simulation time: 01 hr 37 min 51 sec)
Simulation complete CPU 0 instructions: 600000002 cycles: 625396092 cumulative IPC: 0.9594 (Simulation time: 01 hr 37 min 51 sec)

ChampSim completed all CPUs

=== Simulation ===
CPU 0 runs traces/bt.A.champsimtrace
Region of Interest Statistics

CPU 0 cumulative IPC: 0.9594 instructions: 600000002 cycles: 625396092
CPU 0 Branch Prediction Accuracy: 99.29% MPKI: 0.1288 Average ROB Occupancy at Mispredict: 279.1
Branch type MPKI
BRANCH_DIRECT_JUMP: 5e-06
BRANCH_INDIRECT: 7.83e-05
BRANCH_CONDITIONAL: 0.129
BRANCH_DIRECT_CALL: 6.67e-06
BRANCH_INDIRECT_CALL: 3.67e-05
BRANCH_RETURN: 2.33e-05

LLC TOTAL        ACCESS:    7755265 HIT:    4861597 MISS:    2893668
LLC LOAD         ACCESS:    2240193 HIT:    1368859 MISS:     871334
LLC RFO          ACCESS:     889447 HIT:       6955 MISS:     882492
LLC PREFETCH     ACCESS:    2633534 HIT:    1495597 MISS:    1137937
LLC WRITE        ACCESS:    1988724 HIT:    1988588 MISS:        136
LLC TRANSLATION  ACCESS:       3367 HIT:       1598 MISS:       1769
LLC PREFETCH REQUESTED:    2633534 ISSUED:    2633534 USEFUL:     945491 USELESS:      17237
LLC AVERAGE MISS LATENCY: 1342 cycles
cpu0_DTLB TOTAL        ACCESS:  126843427 HIT:  126081364 MISS:     762063
cpu0_DTLB LOAD         ACCESS:  126843427 HIT:  126081364 MISS:     762063
cpu0_DTLB RFO          ACCESS:          0 HIT:          0 MISS:          0
cpu0_DTLB PREFETCH     ACCESS:          0 HIT:          0 MISS:          0
cpu0_DTLB WRITE        ACCESS:          0 HIT:          0 MISS:          0
cpu0_DTLB TRANSLATION  ACCESS:          0 HIT:          0 MISS:          0
cpu0_DTLB PREFETCH REQUESTED:          0 ISSUED:          0 USEFUL:          0 USELESS:          0
cpu0_DTLB AVERAGE MISS LATENCY: 13.33 cycles
cpu0_ITLB TOTAL        ACCESS:     142185 HIT:     141927 MISS:        258
cpu0_ITLB LOAD         ACCESS:     142185 HIT:     141927 MISS:        258
cpu0_ITLB RFO          ACCESS:          0 HIT:          0 MISS:          0
cpu0_ITLB PREFETCH     ACCESS:          0 HIT:          0 MISS:          0
cpu0_ITLB WRITE        ACCESS:          0 HIT:          0 MISS:          0
cpu0_ITLB TRANSLATION  ACCESS:          0 HIT:          0 MISS:          0
cpu0_ITLB PREFETCH REQUESTED:          0 ISSUED:          0 USEFUL:          0 USELESS:          0
cpu0_ITLB AVERAGE MISS LATENCY: 270.4 cycles
cpu0_L1D TOTAL        ACCESS:  194904428 HIT:  182020846 MISS:   12883582
cpu0_L1D LOAD         ACCESS:  160222140 HIT:  151590276 MISS:    8631864
cpu0_L1D RFO          ACCESS:          0 HIT:          0 MISS:          0
cpu0_L1D PREFETCH     ACCESS:          0 HIT:          0 MISS:          0
cpu0_L1D WRITE        ACCESS:   34635513 HIT:   30400882 MISS:    4234631
cpu0_L1D TRANSLATION  ACCESS:      46775 HIT:      29688 MISS:      17087
cpu0_L1D PREFETCH REQUESTED:          0 ISSUED:          0 USEFUL:          0 USELESS:          0
cpu0_L1D AVERAGE MISS LATENCY: 158.9 cycles
cpu0_L1I TOTAL        ACCESS:     191862 HIT:     189098 MISS:       2764
cpu0_L1I LOAD         ACCESS:     191862 HIT:     189098 MISS:       2764
cpu0_L1I RFO          ACCESS:          0 HIT:          0 MISS:          0
cpu0_L1I PREFETCH     ACCESS:          0 HIT:          0 MISS:          0
cpu0_L1I WRITE        ACCESS:          0 HIT:          0 MISS:          0
cpu0_L1I TRANSLATION  ACCESS:          0 HIT:          0 MISS:          0
cpu0_L1I PREFETCH REQUESTED:          0 ISSUED:          0 USEFUL:          0 USELESS:          0
cpu0_L1I AVERAGE MISS LATENCY: 483.7 cycles
cpu0_L2C TOTAL        ACCESS:    5259151 HIT:    2125663 MISS:    3133488
cpu0_L2C LOAD         ACCESS:    2353026 HIT:     112808 MISS:    2240218
cpu0_L2C RFO          ACCESS:     889973 HIT:        526 MISS:     889447
cpu0_L2C PREFETCH     ACCESS:          0 HIT:          0 MISS:          0
cpu0_L2C WRITE        ACCESS:    1999069 HIT:    1998613 MISS:        456
cpu0_L2C TRANSLATION  ACCESS:      17083 HIT:      13716 MISS:       3367
cpu0_L2C PREFETCH REQUESTED:          0 ISSUED:          0 USEFUL:          0 USELESS:          0
cpu0_L2C AVERAGE MISS LATENCY: 806.6 cycles
cpu0_STLB TOTAL        ACCESS:     310603 HIT:     263851 MISS:      46752
cpu0_STLB LOAD         ACCESS:     310603 HIT:     263851 MISS:      46752
cpu0_STLB RFO          ACCESS:          0 HIT:          0 MISS:          0
cpu0_STLB PREFETCH     ACCESS:          0 HIT:          0 MISS:          0
cpu0_STLB WRITE        ACCESS:          0 HIT:          0 MISS:          0
cpu0_STLB TRANSLATION  ACCESS:          0 HIT:          0 MISS:          0
cpu0_STLB PREFETCH REQUESTED:          0 ISSUED:          0 USEFUL:          0 USELESS:          0
cpu0_STLB AVERAGE MISS LATENCY: 289.3 cycles

DRAM Statistics

Channel 0 RQ ROW_BUFFER_HIT:     874780
  ROW_BUFFER_MISS:    1788800
 AVG DBUS CONGESTED CYCLE: 3.965
WQ ROW_BUFFER_HIT: Channel 0 
  ROW_BUFFER_MISS:     457491
  FULL:    1273740
