WARNING: physical memory size is smaller than virtual memory size.

*** ChampSim Multicore Out-of-Order Simulator ***
Warmup Instructions: 50000000
Simulation Instructions: 600000000
Number of CPUs: 1
Page size: 4096

Off-chip DRAM Size: 4 GiB Channels: 1 Width: 64-bit Data Race: 3200 MT/s
Heartbeat CPU 0 instructions: 10000003 cycles: 2881028 heartbeat IPC: 3.471 cumulative IPC: 3.471 (Simulation time: 00 hr 00 min 59 sec)
Heartbeat CPU 0 instructions: 20000003 cycles: 5381028 heartbeat IPC: 4 cumulative IPC: 3.717 (Simulation time: 00 hr 01 min 51 sec)
Heartbeat CPU 0 instructions: 30000003 cycles: 7881028 heartbeat IPC: 4 cumulative IPC: 3.807 (Simulation time: 00 hr 02 min 41 sec)
Heartbeat CPU 0 instructions: 40000003 cycles: 10381028 heartbeat IPC: 4 cumulative IPC: 3.853 (Simulation time: 00 hr 03 min 28 sec)
Heartbeat CPU 0 instructions: 50000003 cycles: 12881028 heartbeat IPC: 4 cumulative IPC: 3.882 (Simulation time: 00 hr 04 min 13 sec)
Warmup finished CPU 0 instructions: 50000003 cycles: 12881029 cumulative IPC: 3.882 (Simulation time: 00 hr 04 min 13 sec)
Warmup complete CPU 0 instructions: 50000003 cycles: 12881029 cumulative IPC: 3.882 (Simulation time: 00 hr 04 min 13 sec)
Heartbeat CPU 0 instructions: 60000004 cycles: 15383349 heartbeat IPC: 3.996 cumulative IPC: 3.996 (Simulation time: 00 hr 05 min 03 sec)
Heartbeat CPU 0 instructions: 70000000 cycles: 17885664 heartbeat IPC: 3.996 cumulative IPC: 3.996 (Simulation time: 00 hr 05 min 51 sec)
Heartbeat CPU 0 instructions: 80000002 cycles: 20387983 heartbeat IPC: 3.996 cumulative IPC: 3.996 (Simulation time: 00 hr 06 min 39 sec)
Heartbeat CPU 0 instructions: 90000004 cycles: 22890390 heartbeat IPC: 3.996 cumulative IPC: 3.996 (Simulation time: 00 hr 07 min 27 sec)
Heartbeat CPU 0 instructions: 100000004 cycles: 25392812 heartbeat IPC: 3.996 cumulative IPC: 3.996 (Simulation time: 00 hr 08 min 15 sec)
Heartbeat CPU 0 instructions: 110000000 cycles: 27895288 heartbeat IPC: 3.996 cumulative IPC: 3.996 (Simulation time: 00 hr 09 min 02 sec)
Heartbeat CPU 0 instructions: 120000003 cycles: 30398436 heartbeat IPC: 3.995 cumulative IPC: 3.996 (Simulation time: 00 hr 09 min 50 sec)
Heartbeat CPU 0 instructions: 130000000 cycles: 32901633 heartbeat IPC: 3.995 cumulative IPC: 3.996 (Simulation time: 00 hr 10 min 37 sec)
Heartbeat CPU 0 instructions: 140000001 cycles: 35404461 heartbeat IPC: 3.995 cumulative IPC: 3.996 (Simulation time: 00 hr 11 min 25 sec)
Heartbeat CPU 0 instructions: 150000000 cycles: 37906920 heartbeat IPC: 3.996 cumulative IPC: 3.996 (Simulation time: 00 hr 12 min 12 sec)
Heartbeat CPU 0 instructions: 160000001 cycles: 40411718 heartbeat IPC: 3.992 cumulative IPC: 3.996 (Simulation time: 00 hr 13 min 01 sec)
Heartbeat CPU 0 instructions: 170000002 cycles: 42916155 heartbeat IPC: 3.993 cumulative IPC: 3.995 (Simulation time: 00 hr 13 min 49 sec)
Heartbeat CPU 0 instructions: 180000001 cycles: 45418518 heartbeat IPC: 3.996 cumulative IPC: 3.995 (Simulation time: 00 hr 14 min 38 sec)
Heartbeat CPU 0 instructions: 190000004 cycles: 47921104 heartbeat IPC: 3.996 cumulative IPC: 3.995 (Simulation time: 00 hr 15 min 27 sec)
Heartbeat CPU 0 instructions: 200000000 cycles: 50423556 heartbeat IPC: 3.996 cumulative IPC: 3.995 (Simulation time: 00 hr 16 min 17 sec)
Heartbeat CPU 0 instructions: 210000000 cycles: 52926706 heartbeat IPC: 3.995 cumulative IPC: 3.995 (Simulation time: 00 hr 17 min 07 sec)
Heartbeat CPU 0 instructions: 220000000 cycles: 55429112 heartbeat IPC: 3.996 cumulative IPC: 3.995 (Simulation time: 00 hr 17 min 57 sec)
Heartbeat CPU 0 instructions: 230000004 cycles: 88648213 heartbeat IPC: 0.301 cumulative IPC: 2.376 (Simulation time: 00 hr 23 min 06 sec)
Heartbeat CPU 0 instructions: 240000001 cycles: 92956865 heartbeat IPC: 2.321 cumulative IPC: 2.373 (Simulation time: 00 hr 24 min 18 sec)
Heartbeat CPU 0 instructions: 250000000 cycles: 97349655 heartbeat IPC: 2.276 cumulative IPC: 2.368 (Simulation time: 00 hr 25 min 32 sec)
Heartbeat CPU 0 instructions: 260000002 cycles: 101768706 heartbeat IPC: 2.263 cumulative IPC: 2.363 (Simulation time: 00 hr 26 min 45 sec)
Heartbeat CPU 0 instructions: 270000000 cycles: 106164914 heartbeat IPC: 2.275 cumulative IPC: 2.358 (Simulation time: 00 hr 27 min 58 sec)
Heartbeat CPU 0 instructions: 280000001 cycles: 110582564 heartbeat IPC: 2.264 cumulative IPC: 2.354 (Simulation time: 00 hr 29 min 13 sec)
Heartbeat CPU 0 instructions: 290000003 cycles: 114992936 heartbeat IPC: 2.267 cumulative IPC: 2.35 (Simulation time: 00 hr 30 min 26 sec)
Heartbeat CPU 0 instructions: 300000003 cycles: 119386185 heartbeat IPC: 2.276 cumulative IPC: 2.347 (Simulation time: 00 hr 31 min 39 sec)
Heartbeat CPU 0 instructions: 310000000 cycles: 123780347 heartbeat IPC: 2.276 cumulative IPC: 2.344 (Simulation time: 00 hr 32 min 52 sec)
Heartbeat CPU 0 instructions: 320000002 cycles: 128196302 heartbeat IPC: 2.265 cumulative IPC: 2.341 (Simulation time: 00 hr 34 min 06 sec)
Heartbeat CPU 0 instructions: 330000000 cycles: 132317952 heartbeat IPC: 2.426 cumulative IPC: 2.344 (Simulation time: 00 hr 35 min 17 sec)
Heartbeat CPU 0 instructions: 340000003 cycles: 135887936 heartbeat IPC: 2.801 cumulative IPC: 2.358 (Simulation time: 00 hr 36 min 21 sec)
Heartbeat CPU 0 instructions: 350000000 cycles: 139402749 heartbeat IPC: 2.845 cumulative IPC: 2.371 (Simulation time: 00 hr 37 min 24 sec)
Heartbeat CPU 0 instructions: 360000001 cycles: 142959142 heartbeat IPC: 2.812 cumulative IPC: 2.383 (Simulation time: 00 hr 38 min 28 sec)
Heartbeat CPU 0 instructions: 370000004 cycles: 146446233 heartbeat IPC: 2.868 cumulative IPC: 2.396 (Simulation time: 00 hr 39 min 32 sec)
Heartbeat CPU 0 instructions: 380000001 cycles: 150088358 heartbeat IPC: 2.746 cumulative IPC: 2.405 (Simulation time: 00 hr 40 min 37 sec)
Heartbeat CPU 0 instructions: 390000004 cycles: 153514242 heartbeat IPC: 2.919 cumulative IPC: 2.418 (Simulation time: 00 hr 41 min 41 sec)
Heartbeat CPU 0 instructions: 400000001 cycles: 157143323 heartbeat IPC: 2.756 cumulative IPC: 2.426 (Simulation time: 00 hr 42 min 48 sec)
Heartbeat CPU 0 instructions: 410000004 cycles: 160685829 heartbeat IPC: 2.823 cumulative IPC: 2.436 (Simulation time: 00 hr 43 min 52 sec)
Heartbeat CPU 0 instructions: 420000004 cycles: 164291363 heartbeat IPC: 2.774 cumulative IPC: 2.444 (Simulation time: 00 hr 44 min 56 sec)
Heartbeat CPU 0 instructions: 430000003 cycles: 167981511 heartbeat IPC: 2.71 cumulative IPC: 2.45 (Simulation time: 00 hr 46 min 01 sec)
Heartbeat CPU 0 instructions: 440000004 cycles: 171905545 heartbeat IPC: 2.548 cumulative IPC: 2.452 (Simulation time: 00 hr 47 min 08 sec)
Heartbeat CPU 0 instructions: 450000000 cycles: 175784774 heartbeat IPC: 2.578 cumulative IPC: 2.455 (Simulation time: 00 hr 48 min 16 sec)
Heartbeat CPU 0 instructions: 460000001 cycles: 179700439 heartbeat IPC: 2.554 cumulative IPC: 2.458 (Simulation time: 00 hr 49 min 23 sec)
Heartbeat CPU 0 instructions: 470000000 cycles: 183543752 heartbeat IPC: 2.602 cumulative IPC: 2.461 (Simulation time: 00 hr 50 min 29 sec)
Heartbeat CPU 0 instructions: 480000000 cycles: 187430965 heartbeat IPC: 2.573 cumulative IPC: 2.463 (Simulation time: 00 hr 51 min 36 sec)
Heartbeat CPU 0 instructions: 490000004 cycles: 191267708 heartbeat IPC: 2.606 cumulative IPC: 2.467 (Simulation time: 00 hr 52 min 42 sec)
Heartbeat CPU 0 instructions: 500000001 cycles: 195179931 heartbeat IPC: 2.556 cumulative IPC: 2.468 (Simulation time: 00 hr 53 min 51 sec)
Heartbeat CPU 0 instructions: 510000003 cycles: 199039353 heartbeat IPC: 2.591 cumulative IPC: 2.471 (Simulation time: 00 hr 54 min 58 sec)
Heartbeat CPU 0 instructions: 520000003 cycles: 256241895 heartbeat IPC: 0.1748 cumulative IPC: 1.931 (Simulation time: 01 hr 05 min 41 sec)
Heartbeat CPU 0 instructions: 530000001 cycles: 369728808 heartbeat IPC: 0.08812 cumulative IPC: 1.345 (Simulation time: 01 hr 26 min 39 sec)
Heartbeat CPU 0 instructions: 540000004 cycles: 393606934 heartbeat IPC: 0.4188 cumulative IPC: 1.287 (Simulation time: 01 hr 31 min 26 sec)
Heartbeat CPU 0 instructions: 550000002 cycles: 426296625 heartbeat IPC: 0.3059 cumulative IPC: 1.209 (Simulation time: 01 hr 37 min 46 sec)
Heartbeat CPU 0 instructions: 560000000 cycles: 462548139 heartbeat IPC: 0.2759 cumulative IPC: 1.134 (Simulation time: 01 hr 44 min 47 sec)
Heartbeat CPU 0 instructions: 570000002 cycles: 498397212 heartbeat IPC: 0.2789 cumulative IPC: 1.071 (Simulation time: 01 hr 51 min 45 sec)
Heartbeat CPU 0 instructions: 580000001 cycles: 522924914 heartbeat IPC: 0.4077 cumulative IPC: 1.039 (Simulation time: 01 hr 56 min 42 sec)
Heartbeat CPU 0 instructions: 590000001 cycles: 549505088 heartbeat IPC: 0.3762 cumulative IPC: 1.006 (Simulation time: 02 hr 02 min 02 sec)
*** Reached end of trace: (0, "traces/bt.A.champsimtrace")
Heartbeat CPU 0 instructions: 600000001 cycles: 587356744 heartbeat IPC: 0.2642 cumulative IPC: 0.9574 (Simulation time: 02 hr 09 min 21 sec)
Heartbeat CPU 0 instructions: 610000004 cycles: 606683889 heartbeat IPC: 0.5174 cumulative IPC: 0.9431 (Simulation time: 02 hr 12 min 36 sec)
Heartbeat CPU 0 instructions: 620000000 cycles: 609186219 heartbeat IPC: 3.996 cumulative IPC: 0.9559 (Simulation time: 02 hr 13 min 29 sec)
Heartbeat CPU 0 instructions: 630000003 cycles: 611688536 heartbeat IPC: 3.996 cumulative IPC: 0.9686 (Simulation time: 02 hr 14 min 21 sec)
Heartbeat CPU 0 instructions: 640000003 cycles: 614190854 heartbeat IPC: 3.996 cumulative IPC: 0.9812 (Simulation time: 02 hr 15 min 13 sec)
Heartbeat CPU 0 instructions: 650000003 cycles: 616693159 heartbeat IPC: 3.996 cumulative IPC: 0.9937 (Simulation time: 02 hr 16 min 04 sec)
Simulation finished CPU 0 instructions: 600000000 cycles: 603812131 cumulative IPC: 0.9937 (Simulation time: 02 hr 16 min 04 sec)
Simulation complete CPU 0 instructions: 600000000 cycles: 603812131 cumulative IPC: 0.9937 (Simulation time: 02 hr 16 min 04 sec)

ChampSim completed all CPUs

=== Simulation ===
CPU 0 runs traces/bt.A.champsimtrace
Region of Interest Statistics

CPU 0 cumulative IPC: 0.9937 instructions: 600000000 cycles: 603812131
CPU 0 Branch Prediction Accuracy: 99.29% MPKI: 0.1288 Average ROB Occupancy at Mispredict: 279.7
Branch type MPKI
BRANCH_DIRECT_JUMP: 5e-06
BRANCH_INDIRECT: 7.67e-05
BRANCH_CONDITIONAL: 0.129
BRANCH_DIRECT_CALL: 6.67e-06
BRANCH_INDIRECT_CALL: 3.33e-05
BRANCH_RETURN: 2.33e-05

LLC TOTAL        ACCESS:    7348408 HIT:    2474090 MISS:    4874318
LLC LOAD         ACCESS:    2236285 HIT:    1160401 MISS:    1075884
LLC RFO          ACCESS:     889410 HIT:     129060 MISS:     760350
LLC PREFETCH     ACCESS:    2236521 HIT:     507082 MISS:    1729439
LLC WRITE        ACCESS:    1982832 HIT:     677297 MISS:    1305535
LLC TRANSLATION  ACCESS:       3360 HIT:        250 MISS:       3110
LLC PREFETCH REQUESTED:    2239228 ISSUED:    2236521 USEFUL:    1366718 USELESS:      36241
LLC AVERAGE MISS LATENCY: 909.4 cycles
cpu0_DTLB TOTAL        ACCESS:  127927061 HIT:  127175964 MISS:     751097
cpu0_DTLB LOAD         ACCESS:  127927061 HIT:  127175964 MISS:     751097
cpu0_DTLB RFO          ACCESS:          0 HIT:          0 MISS:          0
cpu0_DTLB PREFETCH     ACCESS:          0 HIT:          0 MISS:          0
cpu0_DTLB WRITE        ACCESS:          0 HIT:          0 MISS:          0
cpu0_DTLB TRANSLATION  ACCESS:          0 HIT:          0 MISS:          0
cpu0_DTLB PREFETCH REQUESTED:          0 ISSUED:          0 USEFUL:          0 USELESS:          0
cpu0_DTLB AVERAGE MISS LATENCY: 16.81 cycles
cpu0_ITLB TOTAL        ACCESS:     142094 HIT:     141857 MISS:        237
cpu0_ITLB LOAD         ACCESS:     142094 HIT:     141857 MISS:        237
cpu0_ITLB RFO          ACCESS:          0 HIT:          0 MISS:          0
cpu0_ITLB PREFETCH     ACCESS:          0 HIT:          0 MISS:          0
cpu0_ITLB WRITE        ACCESS:          0 HIT:          0 MISS:          0
cpu0_ITLB TRANSLATION  ACCESS:          0 HIT:          0 MISS:          0
cpu0_ITLB PREFETCH REQUESTED:          0 ISSUED:          0 USEFUL:          0 USELESS:          0
cpu0_ITLB AVERAGE MISS LATENCY: 283.1 cycles
cpu0_L1D TOTAL        ACCESS:  196166636 HIT:  183088697 MISS:   13077939
cpu0_L1D LOAD         ACCESS:  161484323 HIT:  152459463 MISS:    9024860
cpu0_L1D RFO          ACCESS:          0 HIT:          0 MISS:          0
cpu0_L1D PREFETCH     ACCESS:          0 HIT:          0 MISS:          0
cpu0_L1D WRITE        ACCESS:   34635562 HIT:   30599541 MISS:    4036021
cpu0_L1D TRANSLATION  ACCESS:      46751 HIT:      29693 MISS:      17058
cpu0_L1D PREFETCH REQUESTED:          0 ISSUED:          0 USEFUL:          0 USELESS:          0
cpu0_L1D AVERAGE MISS LATENCY: 151.3 cycles
cpu0_L1I TOTAL        ACCESS:     191569 HIT:     188784 MISS:       2785
cpu0_L1I LOAD         ACCESS:     191569 HIT:     188784 MISS:       2785
cpu0_L1I RFO          ACCESS:          0 HIT:          0 MISS:          0
cpu0_L1I PREFETCH     ACCESS:          0 HIT:          0 MISS:          0
cpu0_L1I WRITE        ACCESS:          0 HIT:          0 MISS:          0
cpu0_L1I TRANSLATION  ACCESS:          0 HIT:          0 MISS:          0
cpu0_L1I PREFETCH REQUESTED:          0 ISSUED:          0 USEFUL:          0 USELESS:          0
cpu0_L1I AVERAGE MISS LATENCY: 382.5 cycles
cpu0_L2C TOTAL        ACCESS:    5264194 HIT:    2134659 MISS:    3129535
cpu0_L2C LOAD         ACCESS:    2358167 HIT:     121734 MISS:    2236433
cpu0_L2C RFO          ACCESS:     890033 HIT:        623 MISS:     889410
cpu0_L2C PREFETCH     ACCESS:          0 HIT:          0 MISS:          0
cpu0_L2C WRITE        ACCESS:    1998939 HIT:    1998607 MISS:        332
cpu0_L2C TRANSLATION  ACCESS:      17055 HIT:      13695 MISS:       3360
cpu0_L2C PREFETCH REQUESTED:          0 ISSUED:          0 USEFUL:          0 USELESS:          0
cpu0_L2C AVERAGE MISS LATENCY: 820.1 cycles
cpu0_STLB TOTAL        ACCESS:     297222 HIT:     250486 MISS:      46736
cpu0_STLB LOAD         ACCESS:     297222 HIT:     250486 MISS:      46736
cpu0_STLB RFO          ACCESS:          0 HIT:          0 MISS:          0
cpu0_STLB PREFETCH     ACCESS:          0 HIT:          0 MISS:          0
cpu0_STLB WRITE        ACCESS:          0 HIT:          0 MISS:          0
cpu0_STLB TRANSLATION  ACCESS:          0 HIT:          0 MISS:          0
cpu0_STLB PREFETCH REQUESTED:          0 ISSUED:          0 USEFUL:          0 USELESS:          0
cpu0_STLB AVERAGE MISS LATENCY: 376.6 cycles

DRAM Statistics

Channel 0 RQ ROW_BUFFER_HIT:     771652
  ROW_BUFFER_MISS:    1759133
 AVG DBUS CONGESTED CYCLE: 3.975
WQ ROW_BUFFER_HIT: Channel 0 
  ROW_BUFFER_MISS:     660032
  FULL:    1109323
