WARNING: physical memory size is smaller than virtual memory size.

*** ChampSim Multicore Out-of-Order Simulator ***
Warmup Instructions: 50000000
Simulation Instructions: 600000000
Number of CPUs: 1
Page size: 4096

CPU 0 Tage branch predictor
Off-chip DRAM Size: 4 GiB Channels: 1 Width: 64-bit Data Race: 3200 MT/s
Heartbeat CPU 0 instructions: 10000000 cycles: 2881042 heartbeat IPC: 3.471 cumulative IPC: 3.471 (Simulation time: 00 hr 00 min 40 sec)
Heartbeat CPU 0 instructions: 20000000 cycles: 5381042 heartbeat IPC: 4 cumulative IPC: 3.717 (Simulation time: 00 hr 01 min 16 sec)
Heartbeat CPU 0 instructions: 30000000 cycles: 7881042 heartbeat IPC: 4 cumulative IPC: 3.807 (Simulation time: 00 hr 01 min 52 sec)
Heartbeat CPU 0 instructions: 40000000 cycles: 10381042 heartbeat IPC: 4 cumulative IPC: 3.853 (Simulation time: 00 hr 02 min 28 sec)
Heartbeat CPU 0 instructions: 50000000 cycles: 12881042 heartbeat IPC: 4 cumulative IPC: 3.882 (Simulation time: 00 hr 03 min 05 sec)
Warmup finished CPU 0 instructions: 50000000 cycles: 12881043 cumulative IPC: 3.882 (Simulation time: 00 hr 03 min 05 sec)
Warmup complete CPU 0 instructions: 50000000 cycles: 12881043 cumulative IPC: 3.882 (Simulation time: 00 hr 03 min 05 sec)
Heartbeat CPU 0 instructions: 60000004 cycles: 15381474 heartbeat IPC: 3.999 cumulative IPC: 3.999 (Simulation time: 00 hr 03 min 45 sec)
Heartbeat CPU 0 instructions: 70000002 cycles: 17881550 heartbeat IPC: 4 cumulative IPC: 4 (Simulation time: 00 hr 04 min 26 sec)
Heartbeat CPU 0 instructions: 80000001 cycles: 20381668 heartbeat IPC: 4 cumulative IPC: 4 (Simulation time: 00 hr 05 min 07 sec)
Heartbeat CPU 0 instructions: 90000004 cycles: 22882197 heartbeat IPC: 3.999 cumulative IPC: 4 (Simulation time: 00 hr 05 min 50 sec)
Heartbeat CPU 0 instructions: 100000000 cycles: 25383275 heartbeat IPC: 3.998 cumulative IPC: 3.999 (Simulation time: 00 hr 06 min 34 sec)
Heartbeat CPU 0 instructions: 110000002 cycles: 27883396 heartbeat IPC: 4 cumulative IPC: 3.999 (Simulation time: 00 hr 07 min 16 sec)
Heartbeat CPU 0 instructions: 120000000 cycles: 30384444 heartbeat IPC: 3.998 cumulative IPC: 3.999 (Simulation time: 00 hr 07 min 59 sec)
Heartbeat CPU 0 instructions: 130000002 cycles: 32885276 heartbeat IPC: 3.999 cumulative IPC: 3.999 (Simulation time: 00 hr 08 min 42 sec)
Heartbeat CPU 0 instructions: 140000004 cycles: 35386347 heartbeat IPC: 3.998 cumulative IPC: 3.999 (Simulation time: 00 hr 09 min 25 sec)
Heartbeat CPU 0 instructions: 150000000 cycles: 37886425 heartbeat IPC: 4 cumulative IPC: 3.999 (Simulation time: 00 hr 10 min 09 sec)
Heartbeat CPU 0 instructions: 160000003 cycles: 40386733 heartbeat IPC: 4 cumulative IPC: 3.999 (Simulation time: 00 hr 10 min 53 sec)
Heartbeat CPU 0 instructions: 170000002 cycles: 42886961 heartbeat IPC: 4 cumulative IPC: 3.999 (Simulation time: 00 hr 11 min 35 sec)
Heartbeat CPU 0 instructions: 180000000 cycles: 45387598 heartbeat IPC: 3.999 cumulative IPC: 3.999 (Simulation time: 00 hr 12 min 17 sec)
Heartbeat CPU 0 instructions: 190000003 cycles: 47888614 heartbeat IPC: 3.998 cumulative IPC: 3.999 (Simulation time: 00 hr 12 min 58 sec)
Heartbeat CPU 0 instructions: 200000000 cycles: 50388778 heartbeat IPC: 4 cumulative IPC: 3.999 (Simulation time: 00 hr 13 min 39 sec)
Heartbeat CPU 0 instructions: 210000000 cycles: 52889330 heartbeat IPC: 3.999 cumulative IPC: 3.999 (Simulation time: 00 hr 14 min 20 sec)
Heartbeat CPU 0 instructions: 220000003 cycles: 55389498 heartbeat IPC: 4 cumulative IPC: 3.999 (Simulation time: 00 hr 15 min 02 sec)
Heartbeat CPU 0 instructions: 230000001 cycles: 94849971 heartbeat IPC: 0.2534 cumulative IPC: 2.196 (Simulation time: 00 hr 19 min 14 sec)
Heartbeat CPU 0 instructions: 240000002 cycles: 101578924 heartbeat IPC: 1.486 cumulative IPC: 2.142 (Simulation time: 00 hr 20 min 29 sec)
Heartbeat CPU 0 instructions: 250000000 cycles: 108290793 heartbeat IPC: 1.49 cumulative IPC: 2.096 (Simulation time: 00 hr 21 min 44 sec)
Heartbeat CPU 0 instructions: 260000004 cycles: 115004202 heartbeat IPC: 1.49 cumulative IPC: 2.056 (Simulation time: 00 hr 23 min 00 sec)
Heartbeat CPU 0 instructions: 270000003 cycles: 121727719 heartbeat IPC: 1.487 cumulative IPC: 2.021 (Simulation time: 00 hr 24 min 15 sec)
Heartbeat CPU 0 instructions: 280000003 cycles: 128440229 heartbeat IPC: 1.49 cumulative IPC: 1.99 (Simulation time: 00 hr 25 min 29 sec)
Heartbeat CPU 0 instructions: 290000000 cycles: 135131743 heartbeat IPC: 1.494 cumulative IPC: 1.963 (Simulation time: 00 hr 26 min 43 sec)
Heartbeat CPU 0 instructions: 300000003 cycles: 141821841 heartbeat IPC: 1.495 cumulative IPC: 1.939 (Simulation time: 00 hr 27 min 58 sec)
Heartbeat CPU 0 instructions: 310000002 cycles: 148559895 heartbeat IPC: 1.484 cumulative IPC: 1.916 (Simulation time: 00 hr 29 min 15 sec)
Heartbeat CPU 0 instructions: 320000002 cycles: 155303295 heartbeat IPC: 1.483 cumulative IPC: 1.896 (Simulation time: 00 hr 30 min 30 sec)
Heartbeat CPU 0 instructions: 330000004 cycles: 162139300 heartbeat IPC: 1.463 cumulative IPC: 1.876 (Simulation time: 00 hr 31 min 48 sec)
Heartbeat CPU 0 instructions: 340000002 cycles: 168976425 heartbeat IPC: 1.463 cumulative IPC: 1.858 (Simulation time: 00 hr 33 min 03 sec)
Heartbeat CPU 0 instructions: 350000002 cycles: 175886897 heartbeat IPC: 1.447 cumulative IPC: 1.84 (Simulation time: 00 hr 34 min 18 sec)
Heartbeat CPU 0 instructions: 360000000 cycles: 182772847 heartbeat IPC: 1.452 cumulative IPC: 1.825 (Simulation time: 00 hr 35 min 37 sec)
Heartbeat CPU 0 instructions: 370000001 cycles: 189604337 heartbeat IPC: 1.464 cumulative IPC: 1.811 (Simulation time: 00 hr 37 min 06 sec)
Heartbeat CPU 0 instructions: 380000003 cycles: 196468971 heartbeat IPC: 1.457 cumulative IPC: 1.798 (Simulation time: 00 hr 38 min 36 sec)
Heartbeat CPU 0 instructions: 390000004 cycles: 203300859 heartbeat IPC: 1.464 cumulative IPC: 1.786 (Simulation time: 00 hr 40 min 05 sec)
Heartbeat CPU 0 instructions: 400000000 cycles: 210191227 heartbeat IPC: 1.451 cumulative IPC: 1.774 (Simulation time: 00 hr 41 min 35 sec)
Heartbeat CPU 0 instructions: 410000000 cycles: 217110766 heartbeat IPC: 1.445 cumulative IPC: 1.763 (Simulation time: 00 hr 43 min 01 sec)
Heartbeat CPU 0 instructions: 420000000 cycles: 224016790 heartbeat IPC: 1.448 cumulative IPC: 1.752 (Simulation time: 00 hr 44 min 22 sec)
Heartbeat CPU 0 instructions: 430000002 cycles: 229919011 heartbeat IPC: 1.694 cumulative IPC: 1.751 (Simulation time: 00 hr 45 min 34 sec)
Heartbeat CPU 0 instructions: 440000002 cycles: 236317689 heartbeat IPC: 1.563 cumulative IPC: 1.745 (Simulation time: 00 hr 46 min 50 sec)
Heartbeat CPU 0 instructions: 450000000 cycles: 242989224 heartbeat IPC: 1.499 cumulative IPC: 1.738 (Simulation time: 00 hr 48 min 08 sec)
Heartbeat CPU 0 instructions: 460000003 cycles: 249798847 heartbeat IPC: 1.469 cumulative IPC: 1.731 (Simulation time: 00 hr 49 min 25 sec)
Heartbeat CPU 0 instructions: 470000004 cycles: 256697583 heartbeat IPC: 1.45 cumulative IPC: 1.723 (Simulation time: 00 hr 50 min 41 sec)
Heartbeat CPU 0 instructions: 480000000 cycles: 263639094 heartbeat IPC: 1.441 cumulative IPC: 1.715 (Simulation time: 00 hr 51 min 56 sec)
Heartbeat CPU 0 instructions: 490000001 cycles: 270594024 heartbeat IPC: 1.438 cumulative IPC: 1.707 (Simulation time: 00 hr 53 min 12 sec)
Heartbeat CPU 0 instructions: 500000001 cycles: 277573016 heartbeat IPC: 1.433 cumulative IPC: 1.7 (Simulation time: 00 hr 54 min 28 sec)
Heartbeat CPU 0 instructions: 510000002 cycles: 284538709 heartbeat IPC: 1.436 cumulative IPC: 1.693 (Simulation time: 00 hr 55 min 44 sec)
Heartbeat CPU 0 instructions: 520000000 cycles: 357440249 heartbeat IPC: 0.1372 cumulative IPC: 1.364 (Simulation time: 01 hr 05 min 18 sec)
Heartbeat CPU 0 instructions: 530000001 cycles: 488380518 heartbeat IPC: 0.07637 cumulative IPC: 1.009 (Simulation time: 01 hr 21 min 47 sec)
Heartbeat CPU 0 instructions: 540000001 cycles: 521189480 heartbeat IPC: 0.3048 cumulative IPC: 0.964 (Simulation time: 01 hr 26 min 17 sec)
Heartbeat CPU 0 instructions: 550000002 cycles: 553746347 heartbeat IPC: 0.3072 cumulative IPC: 0.9244 (Simulation time: 01 hr 30 min 45 sec)
Heartbeat CPU 0 instructions: 560000004 cycles: 586084721 heartbeat IPC: 0.3092 cumulative IPC: 0.8897 (Simulation time: 01 hr 35 min 10 sec)
Heartbeat CPU 0 instructions: 570000000 cycles: 618451569 heartbeat IPC: 0.309 cumulative IPC: 0.8587 (Simulation time: 01 hr 39 min 55 sec)
Heartbeat CPU 0 instructions: 580000002 cycles: 651520299 heartbeat IPC: 0.3024 cumulative IPC: 0.8299 (Simulation time: 01 hr 44 min 53 sec)
Heartbeat CPU 0 instructions: 590000001 cycles: 684556324 heartbeat IPC: 0.3027 cumulative IPC: 0.804 (Simulation time: 01 hr 49 min 49 sec)
*** Reached end of trace: (0, "traces/bt.A.champsimtrace")
Heartbeat CPU 0 instructions: 600000002 cycles: 717389914 heartbeat IPC: 0.3046 cumulative IPC: 0.7807 (Simulation time: 01 hr 54 min 44 sec)
Heartbeat CPU 0 instructions: 610000004 cycles: 748575931 heartbeat IPC: 0.3207 cumulative IPC: 0.7612 (Simulation time: 01 hr 58 min 17 sec)
Heartbeat CPU 0 instructions: 620000000 cycles: 751076478 heartbeat IPC: 3.999 cumulative IPC: 0.7722 (Simulation time: 01 hr 59 min 02 sec)
Heartbeat CPU 0 instructions: 630000002 cycles: 753577300 heartbeat IPC: 3.999 cumulative IPC: 0.783 (Simulation time: 01 hr 59 min 47 sec)
Heartbeat CPU 0 instructions: 640000001 cycles: 756077990 heartbeat IPC: 3.999 cumulative IPC: 0.7939 (Simulation time: 02 hr 00 min 33 sec)
Heartbeat CPU 0 instructions: 650000002 cycles: 758578664 heartbeat IPC: 3.999 cumulative IPC: 0.8046 (Simulation time: 02 hr 01 min 18 sec)
Simulation finished CPU 0 instructions: 600000002 cycles: 745697622 cumulative IPC: 0.8046 (Simulation time: 02 hr 01 min 18 sec)
Simulation complete CPU 0 instructions: 600000002 cycles: 745697622 cumulative IPC: 0.8046 (Simulation time: 02 hr 01 min 18 sec)

ChampSim completed all CPUs

=== Simulation ===
CPU 0 runs traces/bt.A.champsimtrace
Region of Interest Statistics

CPU 0 cumulative IPC: 0.8046 instructions: 600000002 cycles: 745697622
CPU 0 Branch Prediction Accuracy: 99.98% MPKI: 0.004168 Average ROB Occupancy at Mispredict: 109.5
Branch type MPKI
BRANCH_DIRECT_JUMP: 5e-06
BRANCH_INDIRECT: 7.83e-05
BRANCH_CONDITIONAL: 0.00402
BRANCH_DIRECT_CALL: 6.67e-06
BRANCH_INDIRECT_CALL: 3.67e-05
BRANCH_RETURN: 2.33e-05

LLC TOTAL        ACCESS:    5121723 HIT:    2227944 MISS:    2893779
LLC LOAD         ACCESS:    2240326 HIT:     467912 MISS:    1772414
LLC RFO          ACCESS:     889447 HIT:       6694 MISS:     882753
LLC PREFETCH     ACCESS:          0 HIT:          0 MISS:          0
LLC WRITE        ACCESS:    1988574 HIT:    1752079 MISS:     236495
LLC TRANSLATION  ACCESS:       3376 HIT:       1259 MISS:       2117
LLC PREFETCH REQUESTED:          0 ISSUED:          0 USEFUL:          0 USELESS:          0
LLC AVERAGE MISS LATENCY: 1232 cycles
cpu0_DTLB TOTAL        ACCESS:  127089970 HIT:  126309742 MISS:     780228
cpu0_DTLB LOAD         ACCESS:  127089970 HIT:  126309742 MISS:     780228
cpu0_DTLB RFO          ACCESS:          0 HIT:          0 MISS:          0
cpu0_DTLB PREFETCH     ACCESS:          0 HIT:          0 MISS:          0
cpu0_DTLB WRITE        ACCESS:          0 HIT:          0 MISS:          0
cpu0_DTLB TRANSLATION  ACCESS:          0 HIT:          0 MISS:          0
cpu0_DTLB PREFETCH REQUESTED:          0 ISSUED:          0 USEFUL:          0 USELESS:          0
cpu0_DTLB AVERAGE MISS LATENCY: 16.34 cycles
cpu0_ITLB TOTAL        ACCESS:     172172 HIT:     171920 MISS:        252
cpu0_ITLB LOAD         ACCESS:     172172 HIT:     171920 MISS:        252
cpu0_ITLB RFO          ACCESS:          0 HIT:          0 MISS:          0
cpu0_ITLB PREFETCH     ACCESS:          0 HIT:          0 MISS:          0
cpu0_ITLB WRITE        ACCESS:          0 HIT:          0 MISS:          0
cpu0_ITLB TRANSLATION  ACCESS:          0 HIT:          0 MISS:          0
cpu0_ITLB PREFETCH REQUESTED:          0 ISSUED:          0 USEFUL:          0 USELESS:          0
cpu0_ITLB AVERAGE MISS LATENCY: 190.7 cycles
cpu0_L1D TOTAL        ACCESS:  194455995 HIT:  180516076 MISS:   13939919
cpu0_L1D LOAD         ACCESS:  159773731 HIT:  149952638 MISS:    9821093
cpu0_L1D RFO          ACCESS:          0 HIT:          0 MISS:          0
cpu0_L1D PREFETCH     ACCESS:          0 HIT:          0 MISS:          0
cpu0_L1D WRITE        ACCESS:   34635490 HIT:   30533763 MISS:    4101727
cpu0_L1D TRANSLATION  ACCESS:      46774 HIT:      29675 MISS:      17099
cpu0_L1D PREFETCH REQUESTED:          0 ISSUED:          0 USEFUL:          0 USELESS:          0
cpu0_L1D AVERAGE MISS LATENCY: 194.2 cycles
cpu0_L1I TOTAL        ACCESS:     205627 HIT:     202724 MISS:       2903
cpu0_L1I LOAD         ACCESS:     205627 HIT:     202724 MISS:       2903
cpu0_L1I RFO          ACCESS:          0 HIT:          0 MISS:          0
cpu0_L1I PREFETCH     ACCESS:          0 HIT:          0 MISS:          0
cpu0_L1I WRITE        ACCESS:          0 HIT:          0 MISS:          0
cpu0_L1I TRANSLATION  ACCESS:          0 HIT:          0 MISS:          0
cpu0_L1I PREFETCH REQUESTED:          0 ISSUED:          0 USEFUL:          0 USELESS:          0
cpu0_L1I AVERAGE MISS LATENCY: 391.1 cycles
cpu0_L2C TOTAL        ACCESS:    5272447 HIT:    2138793 MISS:    3133654
cpu0_L2C LOAD         ACCESS:    2366322 HIT:     125947 MISS:    2240375
cpu0_L2C RFO          ACCESS:     889977 HIT:        530 MISS:     889447
cpu0_L2C PREFETCH     ACCESS:          0 HIT:          0 MISS:          0
cpu0_L2C WRITE        ACCESS:    1999051 HIT:    1998595 MISS:        456
cpu0_L2C TRANSLATION  ACCESS:      17097 HIT:      13721 MISS:       3376
cpu0_L2C PREFETCH REQUESTED:          0 ISSUED:          0 USEFUL:          0 USELESS:          0
cpu0_L2C AVERAGE MISS LATENCY: 1159 cycles
cpu0_STLB TOTAL        ACCESS:     315021 HIT:     268269 MISS:      46752
cpu0_STLB LOAD         ACCESS:     315021 HIT:     268269 MISS:      46752
cpu0_STLB RFO          ACCESS:          0 HIT:          0 MISS:          0
cpu0_STLB PREFETCH     ACCESS:          0 HIT:          0 MISS:          0
cpu0_STLB WRITE        ACCESS:          0 HIT:          0 MISS:          0
cpu0_STLB TRANSLATION  ACCESS:          0 HIT:          0 MISS:          0
cpu0_STLB PREFETCH REQUESTED:          0 ISSUED:          0 USEFUL:          0 USELESS:          0
cpu0_STLB AVERAGE MISS LATENCY: 357.7 cycles

DRAM Statistics

Channel 0 RQ ROW_BUFFER_HIT:     698744
  ROW_BUFFER_MISS:    1958362
 AVG DBUS CONGESTED CYCLE: 3.987
WQ ROW_BUFFER_HIT: Channel 0 
  ROW_BUFFER_MISS:      38197
  FULL:    1709861
