WARNING: physical memory size is smaller than virtual memory size.

*** ChampSim Multicore Out-of-Order Simulator ***
Warmup Instructions: 50000000
Simulation Instructions: 600000000
Number of CPUs: 1
Page size: 4096

Off-chip DRAM Size: 4 GiB Channels: 1 Width: 64-bit Data Race: 3200 MT/s
Heartbeat CPU 0 instructions: 10000000 cycles: 2881042 heartbeat IPC: 3.471 cumulative IPC: 3.471 (Simulation time: 00 hr 00 min 42 sec)
Heartbeat CPU 0 instructions: 20000000 cycles: 5381042 heartbeat IPC: 4 cumulative IPC: 3.717 (Simulation time: 00 hr 01 min 25 sec)
Heartbeat CPU 0 instructions: 30000000 cycles: 7881042 heartbeat IPC: 4 cumulative IPC: 3.807 (Simulation time: 00 hr 02 min 19 sec)
Heartbeat CPU 0 instructions: 40000000 cycles: 10381042 heartbeat IPC: 4 cumulative IPC: 3.853 (Simulation time: 00 hr 03 min 09 sec)
Heartbeat CPU 0 instructions: 50000000 cycles: 12881042 heartbeat IPC: 4 cumulative IPC: 3.882 (Simulation time: 00 hr 03 min 57 sec)
Warmup finished CPU 0 instructions: 50000000 cycles: 12881043 cumulative IPC: 3.882 (Simulation time: 00 hr 03 min 57 sec)
Warmup complete CPU 0 instructions: 50000000 cycles: 12881043 cumulative IPC: 3.882 (Simulation time: 00 hr 03 min 57 sec)
Heartbeat CPU 0 instructions: 60000004 cycles: 15383651 heartbeat IPC: 3.996 cumulative IPC: 3.996 (Simulation time: 00 hr 05 min 06 sec)
Heartbeat CPU 0 instructions: 70000002 cycles: 17886014 heartbeat IPC: 3.996 cumulative IPC: 3.996 (Simulation time: 00 hr 06 min 14 sec)
Heartbeat CPU 0 instructions: 80000002 cycles: 20388734 heartbeat IPC: 3.996 cumulative IPC: 3.996 (Simulation time: 00 hr 07 min 18 sec)
Heartbeat CPU 0 instructions: 90000004 cycles: 22891157 heartbeat IPC: 3.996 cumulative IPC: 3.996 (Simulation time: 00 hr 08 min 19 sec)
Heartbeat CPU 0 instructions: 100000000 cycles: 25393562 heartbeat IPC: 3.996 cumulative IPC: 3.996 (Simulation time: 00 hr 09 min 23 sec)
Heartbeat CPU 0 instructions: 110000002 cycles: 27895968 heartbeat IPC: 3.996 cumulative IPC: 3.996 (Simulation time: 00 hr 10 min 27 sec)
Heartbeat CPU 0 instructions: 120000000 cycles: 30398365 heartbeat IPC: 3.996 cumulative IPC: 3.996 (Simulation time: 00 hr 11 min 28 sec)
Heartbeat CPU 0 instructions: 130000002 cycles: 32900816 heartbeat IPC: 3.996 cumulative IPC: 3.996 (Simulation time: 00 hr 12 min 27 sec)
Heartbeat CPU 0 instructions: 140000004 cycles: 35403225 heartbeat IPC: 3.996 cumulative IPC: 3.996 (Simulation time: 00 hr 13 min 24 sec)
Heartbeat CPU 0 instructions: 150000000 cycles: 37905587 heartbeat IPC: 3.996 cumulative IPC: 3.996 (Simulation time: 00 hr 14 min 19 sec)
Heartbeat CPU 0 instructions: 160000003 cycles: 40407994 heartbeat IPC: 3.996 cumulative IPC: 3.996 (Simulation time: 00 hr 15 min 15 sec)
Heartbeat CPU 0 instructions: 170000002 cycles: 42910458 heartbeat IPC: 3.996 cumulative IPC: 3.996 (Simulation time: 00 hr 16 min 10 sec)
Heartbeat CPU 0 instructions: 180000000 cycles: 45412821 heartbeat IPC: 3.996 cumulative IPC: 3.996 (Simulation time: 00 hr 17 min 06 sec)
Heartbeat CPU 0 instructions: 190000003 cycles: 47915175 heartbeat IPC: 3.996 cumulative IPC: 3.996 (Simulation time: 00 hr 18 min 03 sec)
Heartbeat CPU 0 instructions: 200000000 cycles: 50417627 heartbeat IPC: 3.996 cumulative IPC: 3.996 (Simulation time: 00 hr 19 min 01 sec)
Heartbeat CPU 0 instructions: 210000000 cycles: 52920032 heartbeat IPC: 3.996 cumulative IPC: 3.996 (Simulation time: 00 hr 19 min 58 sec)
Heartbeat CPU 0 instructions: 220000003 cycles: 55422486 heartbeat IPC: 3.996 cumulative IPC: 3.996 (Simulation time: 00 hr 20 min 53 sec)
Heartbeat CPU 0 instructions: 230000001 cycles: 90408966 heartbeat IPC: 0.2858 cumulative IPC: 2.322 (Simulation time: 00 hr 26 min 17 sec)
Heartbeat CPU 0 instructions: 240000002 cycles: 94768547 heartbeat IPC: 2.294 cumulative IPC: 2.32 (Simulation time: 00 hr 27 min 36 sec)
Heartbeat CPU 0 instructions: 250000000 cycles: 99146654 heartbeat IPC: 2.284 cumulative IPC: 2.318 (Simulation time: 00 hr 28 min 56 sec)
Heartbeat CPU 0 instructions: 260000004 cycles: 103578667 heartbeat IPC: 2.256 cumulative IPC: 2.315 (Simulation time: 00 hr 30 min 17 sec)
Heartbeat CPU 0 instructions: 270000003 cycles: 108005012 heartbeat IPC: 2.259 cumulative IPC: 2.313 (Simulation time: 00 hr 31 min 36 sec)
Heartbeat CPU 0 instructions: 280000001 cycles: 112435564 heartbeat IPC: 2.257 cumulative IPC: 2.31 (Simulation time: 00 hr 32 min 56 sec)
Heartbeat CPU 0 instructions: 290000000 cycles: 116865368 heartbeat IPC: 2.257 cumulative IPC: 2.308 (Simulation time: 00 hr 34 min 16 sec)
Heartbeat CPU 0 instructions: 300000003 cycles: 121300698 heartbeat IPC: 2.255 cumulative IPC: 2.306 (Simulation time: 00 hr 35 min 37 sec)
Heartbeat CPU 0 instructions: 310000002 cycles: 125725356 heartbeat IPC: 2.26 cumulative IPC: 2.304 (Simulation time: 00 hr 36 min 57 sec)
Heartbeat CPU 0 instructions: 320000002 cycles: 130132270 heartbeat IPC: 2.269 cumulative IPC: 2.303 (Simulation time: 00 hr 38 min 16 sec)
Heartbeat CPU 0 instructions: 330000002 cycles: 133927037 heartbeat IPC: 2.635 cumulative IPC: 2.313 (Simulation time: 00 hr 39 min 28 sec)
Heartbeat CPU 0 instructions: 340000002 cycles: 137422872 heartbeat IPC: 2.861 cumulative IPC: 2.329 (Simulation time: 00 hr 40 min 37 sec)
Heartbeat CPU 0 instructions: 350000002 cycles: 140723167 heartbeat IPC: 3.03 cumulative IPC: 2.347 (Simulation time: 00 hr 41 min 44 sec)
Heartbeat CPU 0 instructions: 360000000 cycles: 144082066 heartbeat IPC: 2.977 cumulative IPC: 2.363 (Simulation time: 00 hr 42 min 52 sec)
Heartbeat CPU 0 instructions: 370000001 cycles: 147556136 heartbeat IPC: 2.878 cumulative IPC: 2.376 (Simulation time: 00 hr 44 min 04 sec)
Heartbeat CPU 0 instructions: 380000003 cycles: 151001324 heartbeat IPC: 2.903 cumulative IPC: 2.389 (Simulation time: 00 hr 45 min 12 sec)
Heartbeat CPU 0 instructions: 390000002 cycles: 154439199 heartbeat IPC: 2.909 cumulative IPC: 2.402 (Simulation time: 00 hr 46 min 20 sec)
Heartbeat CPU 0 instructions: 400000000 cycles: 157691978 heartbeat IPC: 3.074 cumulative IPC: 2.417 (Simulation time: 00 hr 47 min 27 sec)
Heartbeat CPU 0 instructions: 410000002 cycles: 160902449 heartbeat IPC: 3.115 cumulative IPC: 2.432 (Simulation time: 00 hr 48 min 34 sec)
Heartbeat CPU 0 instructions: 420000000 cycles: 164310235 heartbeat IPC: 2.934 cumulative IPC: 2.443 (Simulation time: 00 hr 49 min 42 sec)
Heartbeat CPU 0 instructions: 430000002 cycles: 167195656 heartbeat IPC: 3.466 cumulative IPC: 2.463 (Simulation time: 00 hr 50 min 44 sec)
Heartbeat CPU 0 instructions: 440000002 cycles: 170357928 heartbeat IPC: 3.162 cumulative IPC: 2.477 (Simulation time: 00 hr 51 min 49 sec)
Heartbeat CPU 0 instructions: 450000000 cycles: 173594567 heartbeat IPC: 3.09 cumulative IPC: 2.489 (Simulation time: 00 hr 52 min 56 sec)
Heartbeat CPU 0 instructions: 460000003 cycles: 177147879 heartbeat IPC: 2.814 cumulative IPC: 2.496 (Simulation time: 00 hr 54 min 05 sec)
Heartbeat CPU 0 instructions: 470000004 cycles: 180767509 heartbeat IPC: 2.763 cumulative IPC: 2.502 (Simulation time: 00 hr 55 min 16 sec)
Heartbeat CPU 0 instructions: 480000000 cycles: 184348060 heartbeat IPC: 2.793 cumulative IPC: 2.508 (Simulation time: 00 hr 56 min 26 sec)
Heartbeat CPU 0 instructions: 490000001 cycles: 187733967 heartbeat IPC: 2.953 cumulative IPC: 2.516 (Simulation time: 00 hr 57 min 34 sec)
Heartbeat CPU 0 instructions: 500000000 cycles: 191114730 heartbeat IPC: 2.958 cumulative IPC: 2.525 (Simulation time: 00 hr 58 min 42 sec)
Heartbeat CPU 0 instructions: 510000002 cycles: 194801393 heartbeat IPC: 2.712 cumulative IPC: 2.529 (Simulation time: 00 hr 59 min 55 sec)
Heartbeat CPU 0 instructions: 520000000 cycles: 259869470 heartbeat IPC: 0.1537 cumulative IPC: 1.903 (Simulation time: 01 hr 12 min 30 sec)
Heartbeat CPU 0 instructions: 530000001 cycles: 376256633 heartbeat IPC: 0.08592 cumulative IPC: 1.321 (Simulation time: 01 hr 34 min 21 sec)
Heartbeat CPU 0 instructions: 540000001 cycles: 405053879 heartbeat IPC: 0.3473 cumulative IPC: 1.249 (Simulation time: 01 hr 40 min 08 sec)
Heartbeat CPU 0 instructions: 550000003 cycles: 434131315 heartbeat IPC: 0.3439 cumulative IPC: 1.187 (Simulation time: 01 hr 46 min 00 sec)
Heartbeat CPU 0 instructions: 560000001 cycles: 463170023 heartbeat IPC: 0.3444 cumulative IPC: 1.133 (Simulation time: 01 hr 51 min 50 sec)
Heartbeat CPU 0 instructions: 570000001 cycles: 492187282 heartbeat IPC: 0.3446 cumulative IPC: 1.085 (Simulation time: 01 hr 57 min 37 sec)
Heartbeat CPU 0 instructions: 580000002 cycles: 522300337 heartbeat IPC: 0.3321 cumulative IPC: 1.04 (Simulation time: 02 hr 03 min 36 sec)
Heartbeat CPU 0 instructions: 590000001 cycles: 552629305 heartbeat IPC: 0.3297 cumulative IPC: 1 (Simulation time: 02 hr 09 min 40 sec)
*** Reached end of trace: (0, "traces/bt.A.champsimtrace")
Heartbeat CPU 0 instructions: 600000001 cycles: 582612919 heartbeat IPC: 0.3335 cumulative IPC: 0.9654 (Simulation time: 02 hr 15 min 45 sec)
Heartbeat CPU 0 instructions: 610000004 cycles: 610447036 heartbeat IPC: 0.3593 cumulative IPC: 0.9371 (Simulation time: 02 hr 20 min 12 sec)
Heartbeat CPU 0 instructions: 620000000 cycles: 612949456 heartbeat IPC: 3.996 cumulative IPC: 0.9499 (Simulation time: 02 hr 21 min 09 sec)
Heartbeat CPU 0 instructions: 630000002 cycles: 615451864 heartbeat IPC: 3.996 cumulative IPC: 0.9625 (Simulation time: 02 hr 22 min 05 sec)
Heartbeat CPU 0 instructions: 640000000 cycles: 617954272 heartbeat IPC: 3.996 cumulative IPC: 0.9751 (Simulation time: 02 hr 23 min 00 sec)
Heartbeat CPU 0 instructions: 650000002 cycles: 620456669 heartbeat IPC: 3.996 cumulative IPC: 0.9875 (Simulation time: 02 hr 23 min 56 sec)
Simulation finished CPU 0 instructions: 600000002 cycles: 607575627 cumulative IPC: 0.9875 (Simulation time: 02 hr 23 min 56 sec)
Simulation complete CPU 0 instructions: 600000002 cycles: 607575627 cumulative IPC: 0.9875 (Simulation time: 02 hr 23 min 56 sec)

ChampSim completed all CPUs

=== Simulation ===
CPU 0 runs traces/bt.A.champsimtrace
Region of Interest Statistics

CPU 0 cumulative IPC: 0.9875 instructions: 600000002 cycles: 607575627
CPU 0 Branch Prediction Accuracy: 99.29% MPKI: 0.1296 Average ROB Occupancy at Mispredict: 279.5
Branch type MPKI
BRANCH_DIRECT_JUMP: 5e-06
BRANCH_INDIRECT: 7.83e-05
BRANCH_CONDITIONAL: 0.129
BRANCH_DIRECT_CALL: 6.67e-06
BRANCH_INDIRECT_CALL: 3.67e-05
BRANCH_RETURN: 2.33e-05

LLC TOTAL        ACCESS:    7362139 HIT:    3632045 MISS:    3730094
LLC LOAD         ACCESS:    2240358 HIT:    1138133 MISS:    1102225
LLC RFO          ACCESS:     889447 HIT:       6965 MISS:     882482
LLC PREFETCH     ACCESS:    2240358 HIT:     496980 MISS:    1743378
LLC WRITE        ACCESS:    1988605 HIT:    1988403 MISS:        202
LLC TRANSLATION  ACCESS:       3371 HIT:       1564 MISS:       1807
LLC PREFETCH REQUESTED:    2240358 ISSUED:    2240358 USEFUL:    1466779 USELESS:      25224
LLC AVERAGE MISS LATENCY: 1145 cycles
cpu0_DTLB TOTAL        ACCESS:  128671345 HIT:  127913662 MISS:     757683
cpu0_DTLB LOAD         ACCESS:  128671345 HIT:  127913662 MISS:     757683
cpu0_DTLB RFO          ACCESS:          0 HIT:          0 MISS:          0
cpu0_DTLB PREFETCH     ACCESS:          0 HIT:          0 MISS:          0
cpu0_DTLB WRITE        ACCESS:          0 HIT:          0 MISS:          0
cpu0_DTLB TRANSLATION  ACCESS:          0 HIT:          0 MISS:          0
cpu0_DTLB PREFETCH REQUESTED:          0 ISSUED:          0 USEFUL:          0 USELESS:          0
cpu0_DTLB AVERAGE MISS LATENCY: 14.32 cycles
cpu0_ITLB TOTAL        ACCESS:     141225 HIT:     140976 MISS:        249
cpu0_ITLB LOAD         ACCESS:     141225 HIT:     140976 MISS:        249
cpu0_ITLB RFO          ACCESS:          0 HIT:          0 MISS:          0
cpu0_ITLB PREFETCH     ACCESS:          0 HIT:          0 MISS:          0
cpu0_ITLB WRITE        ACCESS:          0 HIT:          0 MISS:          0
cpu0_ITLB TRANSLATION  ACCESS:          0 HIT:          0 MISS:          0
cpu0_ITLB PREFETCH REQUESTED:          0 ISSUED:          0 USEFUL:          0 USELESS:          0
cpu0_ITLB AVERAGE MISS LATENCY: 309.7 cycles
cpu0_L1D TOTAL        ACCESS:  196923813 HIT:  183378082 MISS:   13545731
cpu0_L1D LOAD         ACCESS:  162241516 HIT:  152835621 MISS:    9405895
cpu0_L1D RFO          ACCESS:          0 HIT:          0 MISS:          0
cpu0_L1D PREFETCH     ACCESS:          0 HIT:          0 MISS:          0
cpu0_L1D WRITE        ACCESS:   34635522 HIT:   30512797 MISS:    4122725
cpu0_L1D TRANSLATION  ACCESS:      46775 HIT:      29664 MISS:      17111
cpu0_L1D PREFETCH REQUESTED:          0 ISSUED:          0 USEFUL:          0 USELESS:          0
cpu0_L1D AVERAGE MISS LATENCY: 158.1 cycles
cpu0_L1I TOTAL        ACCESS:     190542 HIT:     187786 MISS:       2756
cpu0_L1I LOAD         ACCESS:     190542 HIT:     187786 MISS:       2756
cpu0_L1I RFO          ACCESS:          0 HIT:          0 MISS:          0
cpu0_L1I PREFETCH     ACCESS:          0 HIT:          0 MISS:          0
cpu0_L1I WRITE        ACCESS:          0 HIT:          0 MISS:          0
cpu0_L1I TRANSLATION  ACCESS:          0 HIT:          0 MISS:          0
cpu0_L1I PREFETCH REQUESTED:          0 ISSUED:          0 USEFUL:          0 USELESS:          0
cpu0_L1I AVERAGE MISS LATENCY: 462.6 cycles
cpu0_L2C TOTAL        ACCESS:    5265914 HIT:    2132243 MISS:    3133671
cpu0_L2C LOAD         ACCESS:    2359797 HIT:     119398 MISS:    2240399
cpu0_L2C RFO          ACCESS:     889977 HIT:        530 MISS:     889447
cpu0_L2C PREFETCH     ACCESS:          0 HIT:          0 MISS:          0
cpu0_L2C WRITE        ACCESS:    1999034 HIT:    1998580 MISS:        454
cpu0_L2C TRANSLATION  ACCESS:      17106 HIT:      13735 MISS:       3371
cpu0_L2C PREFETCH REQUESTED:          0 ISSUED:          0 USEFUL:          0 USELESS:          0
cpu0_L2C AVERAGE MISS LATENCY: 895.1 cycles
cpu0_STLB TOTAL        ACCESS:     311355 HIT:     264603 MISS:      46752
cpu0_STLB LOAD         ACCESS:     311355 HIT:     264603 MISS:      46752
cpu0_STLB RFO          ACCESS:          0 HIT:          0 MISS:          0
cpu0_STLB PREFETCH     ACCESS:          0 HIT:          0 MISS:          0
cpu0_STLB WRITE        ACCESS:          0 HIT:          0 MISS:          0
cpu0_STLB TRANSLATION  ACCESS:          0 HIT:          0 MISS:          0
cpu0_STLB PREFETCH REQUESTED:          0 ISSUED:          0 USEFUL:          0 USELESS:          0
cpu0_STLB AVERAGE MISS LATENCY: 306 cycles

DRAM Statistics

Channel 0 RQ ROW_BUFFER_HIT:     717151
  ROW_BUFFER_MISS:    1941823
 AVG DBUS CONGESTED CYCLE: 3.979
WQ ROW_BUFFER_HIT: Channel 0 
  ROW_BUFFER_MISS:     405167
  FULL:    1325840
