WARNING: physical memory size is smaller than virtual memory size.

*** ChampSim Multicore Out-of-Order Simulator ***
Warmup Instructions: 50000000
Simulation Instructions: 600000000
Number of CPUs: 1
Page size: 4096

CPU 0 Tage branch predictor
Off-chip DRAM Size: 4 GiB Channels: 1 Width: 64-bit Data Race: 3200 MT/s
Heartbeat CPU 0 instructions: 10000000 cycles: 2881042 heartbeat IPC: 3.471 cumulative IPC: 3.471 (Simulation time: 00 hr 00 min 52 sec)
Heartbeat CPU 0 instructions: 20000000 cycles: 5381042 heartbeat IPC: 4 cumulative IPC: 3.717 (Simulation time: 00 hr 01 min 48 sec)
Heartbeat CPU 0 instructions: 30000000 cycles: 7881042 heartbeat IPC: 4 cumulative IPC: 3.807 (Simulation time: 00 hr 02 min 46 sec)
Heartbeat CPU 0 instructions: 40000000 cycles: 10381042 heartbeat IPC: 4 cumulative IPC: 3.853 (Simulation time: 00 hr 03 min 44 sec)
Heartbeat CPU 0 instructions: 50000000 cycles: 12881042 heartbeat IPC: 4 cumulative IPC: 3.882 (Simulation time: 00 hr 04 min 49 sec)
Warmup finished CPU 0 instructions: 50000000 cycles: 12881043 cumulative IPC: 3.882 (Simulation time: 00 hr 04 min 49 sec)
Warmup complete CPU 0 instructions: 50000000 cycles: 12881043 cumulative IPC: 3.882 (Simulation time: 00 hr 04 min 49 sec)
Heartbeat CPU 0 instructions: 60000004 cycles: 15381377 heartbeat IPC: 3.999 cumulative IPC: 3.999 (Simulation time: 00 hr 06 min 02 sec)
Heartbeat CPU 0 instructions: 70000002 cycles: 17881455 heartbeat IPC: 4 cumulative IPC: 4 (Simulation time: 00 hr 07 min 12 sec)
Heartbeat CPU 0 instructions: 80000001 cycles: 20381902 heartbeat IPC: 3.999 cumulative IPC: 4 (Simulation time: 00 hr 08 min 20 sec)
Heartbeat CPU 0 instructions: 90000004 cycles: 22882024 heartbeat IPC: 4 cumulative IPC: 4 (Simulation time: 00 hr 09 min 32 sec)
Heartbeat CPU 0 instructions: 100000000 cycles: 25382143 heartbeat IPC: 4 cumulative IPC: 4 (Simulation time: 00 hr 10 min 42 sec)
Heartbeat CPU 0 instructions: 110000002 cycles: 27882262 heartbeat IPC: 4 cumulative IPC: 4 (Simulation time: 00 hr 11 min 50 sec)
Heartbeat CPU 0 instructions: 120000000 cycles: 30382372 heartbeat IPC: 4 cumulative IPC: 4 (Simulation time: 00 hr 12 min 55 sec)
Heartbeat CPU 0 instructions: 130000002 cycles: 32882537 heartbeat IPC: 4 cumulative IPC: 4 (Simulation time: 00 hr 13 min 58 sec)
Heartbeat CPU 0 instructions: 140000004 cycles: 35382658 heartbeat IPC: 4 cumulative IPC: 4 (Simulation time: 00 hr 15 min 00 sec)
Heartbeat CPU 0 instructions: 150000000 cycles: 37882735 heartbeat IPC: 4 cumulative IPC: 4 (Simulation time: 00 hr 16 min 02 sec)
Heartbeat CPU 0 instructions: 160000003 cycles: 40382856 heartbeat IPC: 4 cumulative IPC: 4 (Simulation time: 00 hr 17 min 04 sec)
Heartbeat CPU 0 instructions: 170000002 cycles: 42883023 heartbeat IPC: 4 cumulative IPC: 4 (Simulation time: 00 hr 18 min 10 sec)
Heartbeat CPU 0 instructions: 180000000 cycles: 45383098 heartbeat IPC: 4 cumulative IPC: 4 (Simulation time: 00 hr 19 min 15 sec)
Heartbeat CPU 0 instructions: 190000003 cycles: 47883165 heartbeat IPC: 4 cumulative IPC: 4 (Simulation time: 00 hr 20 min 18 sec)
Heartbeat CPU 0 instructions: 200000000 cycles: 50383336 heartbeat IPC: 4 cumulative IPC: 4 (Simulation time: 00 hr 21 min 21 sec)
Heartbeat CPU 0 instructions: 210000000 cycles: 52883456 heartbeat IPC: 4 cumulative IPC: 4 (Simulation time: 00 hr 22 min 24 sec)
Heartbeat CPU 0 instructions: 220000003 cycles: 55383623 heartbeat IPC: 4 cumulative IPC: 4 (Simulation time: 00 hr 23 min 25 sec)
Heartbeat CPU 0 instructions: 230000001 cycles: 90324921 heartbeat IPC: 0.2862 cumulative IPC: 2.324 (Simulation time: 00 hr 29 min 02 sec)
Heartbeat CPU 0 instructions: 240000002 cycles: 94642703 heartbeat IPC: 2.316 cumulative IPC: 2.324 (Simulation time: 00 hr 30 min 30 sec)
Heartbeat CPU 0 instructions: 250000000 cycles: 98974646 heartbeat IPC: 2.308 cumulative IPC: 2.323 (Simulation time: 00 hr 31 min 57 sec)
Heartbeat CPU 0 instructions: 260000004 cycles: 103359492 heartbeat IPC: 2.281 cumulative IPC: 2.321 (Simulation time: 00 hr 33 min 25 sec)
Heartbeat CPU 0 instructions: 270000003 cycles: 107717406 heartbeat IPC: 2.295 cumulative IPC: 2.32 (Simulation time: 00 hr 34 min 53 sec)
Heartbeat CPU 0 instructions: 280000003 cycles: 112098468 heartbeat IPC: 2.283 cumulative IPC: 2.318 (Simulation time: 00 hr 36 min 21 sec)
Heartbeat CPU 0 instructions: 290000000 cycles: 116467953 heartbeat IPC: 2.289 cumulative IPC: 2.317 (Simulation time: 00 hr 37 min 49 sec)
Heartbeat CPU 0 instructions: 300000003 cycles: 120844225 heartbeat IPC: 2.285 cumulative IPC: 2.316 (Simulation time: 00 hr 39 min 17 sec)
Heartbeat CPU 0 instructions: 310000002 cycles: 125215357 heartbeat IPC: 2.288 cumulative IPC: 2.315 (Simulation time: 00 hr 40 min 45 sec)
Heartbeat CPU 0 instructions: 320000004 cycles: 129566886 heartbeat IPC: 2.298 cumulative IPC: 2.314 (Simulation time: 00 hr 42 min 13 sec)
Heartbeat CPU 0 instructions: 330000004 cycles: 133435878 heartbeat IPC: 2.585 cumulative IPC: 2.323 (Simulation time: 00 hr 43 min 36 sec)
Heartbeat CPU 0 instructions: 340000002 cycles: 136888484 heartbeat IPC: 2.896 cumulative IPC: 2.339 (Simulation time: 00 hr 44 min 52 sec)
Heartbeat CPU 0 instructions: 350000002 cycles: 140340444 heartbeat IPC: 2.897 cumulative IPC: 2.354 (Simulation time: 00 hr 46 min 08 sec)
Heartbeat CPU 0 instructions: 360000000 cycles: 143906415 heartbeat IPC: 2.804 cumulative IPC: 2.366 (Simulation time: 00 hr 47 min 25 sec)
Heartbeat CPU 0 instructions: 370000001 cycles: 147425496 heartbeat IPC: 2.842 cumulative IPC: 2.378 (Simulation time: 00 hr 48 min 42 sec)
Heartbeat CPU 0 instructions: 380000003 cycles: 150975851 heartbeat IPC: 2.817 cumulative IPC: 2.39 (Simulation time: 00 hr 49 min 59 sec)
Heartbeat CPU 0 instructions: 390000002 cycles: 154333871 heartbeat IPC: 2.978 cumulative IPC: 2.404 (Simulation time: 00 hr 51 min 15 sec)
Heartbeat CPU 0 instructions: 400000000 cycles: 157833102 heartbeat IPC: 2.858 cumulative IPC: 2.415 (Simulation time: 00 hr 52 min 35 sec)
Heartbeat CPU 0 instructions: 410000002 cycles: 161156655 heartbeat IPC: 3.009 cumulative IPC: 2.428 (Simulation time: 00 hr 53 min 49 sec)
Heartbeat CPU 0 instructions: 420000000 cycles: 164623330 heartbeat IPC: 2.885 cumulative IPC: 2.438 (Simulation time: 00 hr 55 min 05 sec)
Heartbeat CPU 0 instructions: 430000002 cycles: 167547731 heartbeat IPC: 3.42 cumulative IPC: 2.457 (Simulation time: 00 hr 56 min 14 sec)
Heartbeat CPU 0 instructions: 440000002 cycles: 170707356 heartbeat IPC: 3.165 cumulative IPC: 2.471 (Simulation time: 00 hr 57 min 27 sec)
Heartbeat CPU 0 instructions: 450000000 cycles: 174274117 heartbeat IPC: 2.804 cumulative IPC: 2.478 (Simulation time: 00 hr 58 min 45 sec)
Heartbeat CPU 0 instructions: 460000003 cycles: 177960019 heartbeat IPC: 2.713 cumulative IPC: 2.484 (Simulation time: 01 hr 00 min 04 sec)
Heartbeat CPU 0 instructions: 470000004 cycles: 181549513 heartbeat IPC: 2.786 cumulative IPC: 2.49 (Simulation time: 01 hr 01 min 22 sec)
Heartbeat CPU 0 instructions: 480000000 cycles: 185102773 heartbeat IPC: 2.814 cumulative IPC: 2.497 (Simulation time: 01 hr 02 min 40 sec)
Heartbeat CPU 0 instructions: 490000001 cycles: 188556808 heartbeat IPC: 2.895 cumulative IPC: 2.505 (Simulation time: 01 hr 03 min 59 sec)
Heartbeat CPU 0 instructions: 500000000 cycles: 192168762 heartbeat IPC: 2.769 cumulative IPC: 2.51 (Simulation time: 01 hr 05 min 19 sec)
Heartbeat CPU 0 instructions: 510000002 cycles: 195722299 heartbeat IPC: 2.814 cumulative IPC: 2.516 (Simulation time: 01 hr 06 min 38 sec)
Heartbeat CPU 0 instructions: 520000000 cycles: 260981763 heartbeat IPC: 0.1532 cumulative IPC: 1.894 (Simulation time: 01 hr 19 min 42 sec)
Heartbeat CPU 0 instructions: 530000001 cycles: 377363284 heartbeat IPC: 0.08592 cumulative IPC: 1.317 (Simulation time: 01 hr 42 min 26 sec)
Heartbeat CPU 0 instructions: 540000001 cycles: 406033760 heartbeat IPC: 0.3488 cumulative IPC: 1.246 (Simulation time: 01 hr 48 min 36 sec)
Heartbeat CPU 0 instructions: 550000003 cycles: 434949075 heartbeat IPC: 0.3458 cumulative IPC: 1.185 (Simulation time: 01 hr 54 min 44 sec)
Heartbeat CPU 0 instructions: 560000001 cycles: 463798891 heartbeat IPC: 0.3466 cumulative IPC: 1.131 (Simulation time: 02 hr 00 min 55 sec)
Heartbeat CPU 0 instructions: 570000001 cycles: 492683642 heartbeat IPC: 0.3462 cumulative IPC: 1.084 (Simulation time: 02 hr 07 min 02 sec)
Heartbeat CPU 0 instructions: 580000002 cycles: 522658122 heartbeat IPC: 0.3336 cumulative IPC: 1.04 (Simulation time: 02 hr 13 min 25 sec)
Heartbeat CPU 0 instructions: 590000001 cycles: 552776879 heartbeat IPC: 0.332 cumulative IPC: 1 (Simulation time: 02 hr 19 min 58 sec)
*** Reached end of trace: (0, "traces/bt.A.champsimtrace")
Heartbeat CPU 0 instructions: 600000002 cycles: 582576279 heartbeat IPC: 0.3356 cumulative IPC: 0.9654 (Simulation time: 02 hr 26 min 15 sec)
Heartbeat CPU 0 instructions: 610000004 cycles: 610320501 heartbeat IPC: 0.3604 cumulative IPC: 0.9373 (Simulation time: 02 hr 30 min 50 sec)
Heartbeat CPU 0 instructions: 620000000 cycles: 612820621 heartbeat IPC: 4 cumulative IPC: 0.9501 (Simulation time: 02 hr 31 min 52 sec)
Heartbeat CPU 0 instructions: 630000002 cycles: 615320743 heartbeat IPC: 4 cumulative IPC: 0.9628 (Simulation time: 02 hr 32 min 56 sec)
Heartbeat CPU 0 instructions: 640000001 cycles: 617820864 heartbeat IPC: 4 cumulative IPC: 0.9753 (Simulation time: 02 hr 34 min 02 sec)
Heartbeat CPU 0 instructions: 650000002 cycles: 620320972 heartbeat IPC: 4 cumulative IPC: 0.9878 (Simulation time: 02 hr 35 min 07 sec)
Simulation finished CPU 0 instructions: 600000002 cycles: 607439930 cumulative IPC: 0.9878 (Simulation time: 02 hr 35 min 07 sec)
Simulation complete CPU 0 instructions: 600000002 cycles: 607439930 cumulative IPC: 0.9878 (Simulation time: 02 hr 35 min 07 sec)

ChampSim completed all CPUs

=== Simulation ===
CPU 0 runs traces/bt.A.champsimtrace
Region of Interest Statistics

CPU 0 cumulative IPC: 0.9878 instructions: 600000002 cycles: 607439930
CPU 0 Branch Prediction Accuracy: 99.98% MPKI: 0.004168 Average ROB Occupancy at Mispredict: 110.7
Branch type MPKI
BRANCH_DIRECT_JUMP: 5e-06
BRANCH_INDIRECT: 7.83e-05
BRANCH_CONDITIONAL: 0.00402
BRANCH_DIRECT_CALL: 6.67e-06
BRANCH_INDIRECT_CALL: 3.67e-05
BRANCH_RETURN: 2.33e-05

LLC TOTAL        ACCESS:    7362527 HIT:    3629324 MISS:    3733203
LLC LOAD         ACCESS:    2240474 HIT:    1135020 MISS:    1105454
LLC RFO          ACCESS:     889446 HIT:       6967 MISS:     882479
LLC PREFETCH     ACCESS:    2240474 HIT:     497203 MISS:    1743271
LLC WRITE        ACCESS:    1988757 HIT:    1988556 MISS:        201
LLC TRANSLATION  ACCESS:       3376 HIT:       1578 MISS:       1798
LLC PREFETCH REQUESTED:    2240474 ISSUED:    2240474 USEFUL:    1467737 USELESS:      25225
LLC AVERAGE MISS LATENCY: 1170 cycles
cpu0_DTLB TOTAL        ACCESS:  130016995 HIT:  129253243 MISS:     763752
cpu0_DTLB LOAD         ACCESS:  130016995 HIT:  129253243 MISS:     763752
cpu0_DTLB RFO          ACCESS:          0 HIT:          0 MISS:          0
cpu0_DTLB PREFETCH     ACCESS:          0 HIT:          0 MISS:          0
cpu0_DTLB WRITE        ACCESS:          0 HIT:          0 MISS:          0
cpu0_DTLB TRANSLATION  ACCESS:          0 HIT:          0 MISS:          0
cpu0_DTLB PREFETCH REQUESTED:          0 ISSUED:          0 USEFUL:          0 USELESS:          0
cpu0_DTLB AVERAGE MISS LATENCY: 14.2 cycles
cpu0_ITLB TOTAL        ACCESS:     173284 HIT:     173041 MISS:        243
cpu0_ITLB LOAD         ACCESS:     173284 HIT:     173041 MISS:        243
cpu0_ITLB RFO          ACCESS:          0 HIT:          0 MISS:          0
cpu0_ITLB PREFETCH     ACCESS:          0 HIT:          0 MISS:          0
cpu0_ITLB WRITE        ACCESS:          0 HIT:          0 MISS:          0
cpu0_ITLB TRANSLATION  ACCESS:          0 HIT:          0 MISS:          0
cpu0_ITLB PREFETCH REQUESTED:          0 ISSUED:          0 USEFUL:          0 USELESS:          0
cpu0_ITLB AVERAGE MISS LATENCY: 350.3 cycles
cpu0_L1D TOTAL        ACCESS:  198544163 HIT:  184994977 MISS:   13549186
cpu0_L1D LOAD         ACCESS:  163861871 HIT:  154455858 MISS:    9406013
cpu0_L1D RFO          ACCESS:          0 HIT:          0 MISS:          0
cpu0_L1D PREFETCH     ACCESS:          0 HIT:          0 MISS:          0
cpu0_L1D WRITE        ACCESS:   34635518 HIT:   30509452 MISS:    4126066
cpu0_L1D TRANSLATION  ACCESS:      46774 HIT:      29667 MISS:      17107
cpu0_L1D PREFETCH REQUESTED:          0 ISSUED:          0 USEFUL:          0 USELESS:          0
cpu0_L1D AVERAGE MISS LATENCY: 158.3 cycles
cpu0_L1I TOTAL        ACCESS:     204684 HIT:     201732 MISS:       2952
cpu0_L1I LOAD         ACCESS:     204684 HIT:     201732 MISS:       2952
cpu0_L1I RFO          ACCESS:          0 HIT:          0 MISS:          0
cpu0_L1I PREFETCH     ACCESS:          0 HIT:          0 MISS:          0
cpu0_L1I WRITE        ACCESS:          0 HIT:          0 MISS:          0
cpu0_L1I TRANSLATION  ACCESS:          0 HIT:          0 MISS:          0
cpu0_L1I PREFETCH REQUESTED:          0 ISSUED:          0 USEFUL:          0 USELESS:          0
cpu0_L1I AVERAGE MISS LATENCY: 431 cycles
cpu0_L2C TOTAL        ACCESS:    5266154 HIT:    2132341 MISS:    3133813
cpu0_L2C LOAD         ACCESS:    2360038 HIT:     119503 MISS:    2240535
cpu0_L2C RFO          ACCESS:     889975 HIT:        529 MISS:     889446
cpu0_L2C PREFETCH     ACCESS:          0 HIT:          0 MISS:          0
cpu0_L2C WRITE        ACCESS:    1999036 HIT:    1998580 MISS:        456
cpu0_L2C TRANSLATION  ACCESS:      17105 HIT:      13729 MISS:       3376
cpu0_L2C PREFETCH REQUESTED:          0 ISSUED:          0 USEFUL:          0 USELESS:          0
cpu0_L2C AVERAGE MISS LATENCY: 894.7 cycles
cpu0_STLB TOTAL        ACCESS:     314987 HIT:     268235 MISS:      46752
cpu0_STLB LOAD         ACCESS:     314987 HIT:     268235 MISS:      46752
cpu0_STLB RFO          ACCESS:          0 HIT:          0 MISS:          0
cpu0_STLB PREFETCH     ACCESS:          0 HIT:          0 MISS:          0
cpu0_STLB WRITE        ACCESS:          0 HIT:          0 MISS:          0
cpu0_STLB TRANSLATION  ACCESS:          0 HIT:          0 MISS:          0
cpu0_STLB PREFETCH REQUESTED:          0 ISSUED:          0 USEFUL:          0 USELESS:          0
cpu0_STLB AVERAGE MISS LATENCY: 312.4 cycles

DRAM Statistics

Channel 0 RQ ROW_BUFFER_HIT:     713932
  ROW_BUFFER_MISS:    1945025
 AVG DBUS CONGESTED CYCLE: 3.979
WQ ROW_BUFFER_HIT: Channel 0 
  ROW_BUFFER_MISS:     405943
  FULL:    1325065
