WARNING: physical memory size is smaller than virtual memory size.

*** ChampSim Multicore Out-of-Order Simulator ***
Warmup Instructions: 50000000
Simulation Instructions: 600000000
Number of CPUs: 1
Page size: 4096

Off-chip DRAM Size: 4 GiB Channels: 1 Width: 64-bit Data Race: 3200 MT/s
Heartbeat CPU 0 instructions: 10000000 cycles: 2881042 heartbeat IPC: 3.471 cumulative IPC: 3.471 (Simulation time: 00 hr 00 min 19 sec)
Heartbeat CPU 0 instructions: 20000000 cycles: 5381042 heartbeat IPC: 4 cumulative IPC: 3.717 (Simulation time: 00 hr 00 min 43 sec)
Heartbeat CPU 0 instructions: 30000000 cycles: 7881042 heartbeat IPC: 4 cumulative IPC: 3.807 (Simulation time: 00 hr 01 min 12 sec)
Heartbeat CPU 0 instructions: 40000000 cycles: 10381042 heartbeat IPC: 4 cumulative IPC: 3.853 (Simulation time: 00 hr 01 min 44 sec)
Heartbeat CPU 0 instructions: 50000000 cycles: 12881042 heartbeat IPC: 4 cumulative IPC: 3.882 (Simulation time: 00 hr 02 min 14 sec)
Warmup finished CPU 0 instructions: 50000000 cycles: 12881043 cumulative IPC: 3.882 (Simulation time: 00 hr 02 min 14 sec)
Warmup complete CPU 0 instructions: 50000000 cycles: 12881043 cumulative IPC: 3.882 (Simulation time: 00 hr 02 min 14 sec)
Heartbeat CPU 0 instructions: 60000004 cycles: 15383651 heartbeat IPC: 3.996 cumulative IPC: 3.996 (Simulation time: 00 hr 02 min 51 sec)
Heartbeat CPU 0 instructions: 70000002 cycles: 17886014 heartbeat IPC: 3.996 cumulative IPC: 3.996 (Simulation time: 00 hr 03 min 28 sec)
Heartbeat CPU 0 instructions: 80000002 cycles: 20388734 heartbeat IPC: 3.996 cumulative IPC: 3.996 (Simulation time: 00 hr 04 min 06 sec)
Heartbeat CPU 0 instructions: 90000004 cycles: 22891157 heartbeat IPC: 3.996 cumulative IPC: 3.996 (Simulation time: 00 hr 04 min 44 sec)
Heartbeat CPU 0 instructions: 100000000 cycles: 25393562 heartbeat IPC: 3.996 cumulative IPC: 3.996 (Simulation time: 00 hr 05 min 22 sec)
Heartbeat CPU 0 instructions: 110000002 cycles: 27895968 heartbeat IPC: 3.996 cumulative IPC: 3.996 (Simulation time: 00 hr 05 min 59 sec)
Heartbeat CPU 0 instructions: 120000000 cycles: 30398365 heartbeat IPC: 3.996 cumulative IPC: 3.996 (Simulation time: 00 hr 06 min 35 sec)
Heartbeat CPU 0 instructions: 130000002 cycles: 32900816 heartbeat IPC: 3.996 cumulative IPC: 3.996 (Simulation time: 00 hr 07 min 12 sec)
Heartbeat CPU 0 instructions: 140000004 cycles: 35403225 heartbeat IPC: 3.996 cumulative IPC: 3.996 (Simulation time: 00 hr 07 min 47 sec)
Heartbeat CPU 0 instructions: 150000000 cycles: 37905587 heartbeat IPC: 3.996 cumulative IPC: 3.996 (Simulation time: 00 hr 08 min 23 sec)
Heartbeat CPU 0 instructions: 160000003 cycles: 40407994 heartbeat IPC: 3.996 cumulative IPC: 3.996 (Simulation time: 00 hr 08 min 58 sec)
Heartbeat CPU 0 instructions: 170000002 cycles: 42910458 heartbeat IPC: 3.996 cumulative IPC: 3.996 (Simulation time: 00 hr 09 min 33 sec)
Heartbeat CPU 0 instructions: 180000000 cycles: 45412821 heartbeat IPC: 3.996 cumulative IPC: 3.996 (Simulation time: 00 hr 10 min 08 sec)
Heartbeat CPU 0 instructions: 190000003 cycles: 47915175 heartbeat IPC: 3.996 cumulative IPC: 3.996 (Simulation time: 00 hr 10 min 43 sec)
Heartbeat CPU 0 instructions: 200000000 cycles: 50417627 heartbeat IPC: 3.996 cumulative IPC: 3.996 (Simulation time: 00 hr 11 min 18 sec)
Heartbeat CPU 0 instructions: 210000000 cycles: 52920032 heartbeat IPC: 3.996 cumulative IPC: 3.996 (Simulation time: 00 hr 11 min 53 sec)
Heartbeat CPU 0 instructions: 220000003 cycles: 55422486 heartbeat IPC: 3.996 cumulative IPC: 3.996 (Simulation time: 00 hr 12 min 28 sec)
Heartbeat CPU 0 instructions: 230000001 cycles: 90200511 heartbeat IPC: 0.2875 cumulative IPC: 2.328 (Simulation time: 00 hr 15 min 56 sec)
Heartbeat CPU 0 instructions: 240000002 cycles: 94560092 heartbeat IPC: 2.294 cumulative IPC: 2.326 (Simulation time: 00 hr 16 min 48 sec)
Heartbeat CPU 0 instructions: 250000000 cycles: 98937224 heartbeat IPC: 2.285 cumulative IPC: 2.324 (Simulation time: 00 hr 17 min 40 sec)
Heartbeat CPU 0 instructions: 260000004 cycles: 103368849 heartbeat IPC: 2.257 cumulative IPC: 2.321 (Simulation time: 00 hr 18 min 32 sec)
Heartbeat CPU 0 instructions: 270000003 cycles: 107798397 heartbeat IPC: 2.258 cumulative IPC: 2.318 (Simulation time: 00 hr 19 min 25 sec)
Heartbeat CPU 0 instructions: 280000001 cycles: 112233499 heartbeat IPC: 2.255 cumulative IPC: 2.315 (Simulation time: 00 hr 20 min 17 sec)
Heartbeat CPU 0 instructions: 290000000 cycles: 116666238 heartbeat IPC: 2.256 cumulative IPC: 2.312 (Simulation time: 00 hr 21 min 09 sec)
Heartbeat CPU 0 instructions: 300000003 cycles: 121111818 heartbeat IPC: 2.249 cumulative IPC: 2.31 (Simulation time: 00 hr 22 min 01 sec)
Heartbeat CPU 0 instructions: 310000002 cycles: 125543546 heartbeat IPC: 2.256 cumulative IPC: 2.308 (Simulation time: 00 hr 22 min 52 sec)
Heartbeat CPU 0 instructions: 320000002 cycles: 129954440 heartbeat IPC: 2.267 cumulative IPC: 2.306 (Simulation time: 00 hr 23 min 43 sec)
Heartbeat CPU 0 instructions: 330000002 cycles: 133823147 heartbeat IPC: 2.585 cumulative IPC: 2.315 (Simulation time: 00 hr 24 min 29 sec)
Heartbeat CPU 0 instructions: 340000002 cycles: 137321913 heartbeat IPC: 2.858 cumulative IPC: 2.33 (Simulation time: 00 hr 25 min 13 sec)
Heartbeat CPU 0 instructions: 350000002 cycles: 140598266 heartbeat IPC: 3.052 cumulative IPC: 2.349 (Simulation time: 00 hr 25 min 55 sec)
Heartbeat CPU 0 instructions: 360000000 cycles: 144043829 heartbeat IPC: 2.902 cumulative IPC: 2.363 (Simulation time: 00 hr 26 min 40 sec)
Heartbeat CPU 0 instructions: 370000001 cycles: 147278912 heartbeat IPC: 3.091 cumulative IPC: 2.381 (Simulation time: 00 hr 27 min 22 sec)
Heartbeat CPU 0 instructions: 380000003 cycles: 150767906 heartbeat IPC: 2.866 cumulative IPC: 2.393 (Simulation time: 00 hr 28 min 05 sec)
Heartbeat CPU 0 instructions: 390000002 cycles: 154114031 heartbeat IPC: 2.989 cumulative IPC: 2.407 (Simulation time: 00 hr 28 min 48 sec)
Heartbeat CPU 0 instructions: 400000000 cycles: 157428606 heartbeat IPC: 3.017 cumulative IPC: 2.421 (Simulation time: 00 hr 29 min 30 sec)
Heartbeat CPU 0 instructions: 410000002 cycles: 160756623 heartbeat IPC: 3.005 cumulative IPC: 2.434 (Simulation time: 00 hr 30 min 13 sec)
Heartbeat CPU 0 instructions: 420000000 cycles: 164117394 heartbeat IPC: 2.976 cumulative IPC: 2.447 (Simulation time: 00 hr 30 min 55 sec)
Heartbeat CPU 0 instructions: 430000002 cycles: 167129755 heartbeat IPC: 3.32 cumulative IPC: 2.464 (Simulation time: 00 hr 31 min 35 sec)
Heartbeat CPU 0 instructions: 440000002 cycles: 170312539 heartbeat IPC: 3.142 cumulative IPC: 2.477 (Simulation time: 00 hr 32 min 17 sec)
Heartbeat CPU 0 instructions: 450000000 cycles: 173827270 heartbeat IPC: 2.845 cumulative IPC: 2.485 (Simulation time: 00 hr 33 min 01 sec)
Heartbeat CPU 0 instructions: 460000003 cycles: 177344522 heartbeat IPC: 2.843 cumulative IPC: 2.493 (Simulation time: 00 hr 33 min 46 sec)
Heartbeat CPU 0 instructions: 470000004 cycles: 180857789 heartbeat IPC: 2.846 cumulative IPC: 2.5 (Simulation time: 00 hr 34 min 30 sec)
Heartbeat CPU 0 instructions: 480000000 cycles: 184324067 heartbeat IPC: 2.885 cumulative IPC: 2.508 (Simulation time: 00 hr 35 min 14 sec)
Heartbeat CPU 0 instructions: 490000001 cycles: 187987911 heartbeat IPC: 2.729 cumulative IPC: 2.513 (Simulation time: 00 hr 36 min 00 sec)
Heartbeat CPU 0 instructions: 500000000 cycles: 191438867 heartbeat IPC: 2.898 cumulative IPC: 2.52 (Simulation time: 00 hr 36 min 43 sec)
Heartbeat CPU 0 instructions: 510000002 cycles: 195108554 heartbeat IPC: 2.725 cumulative IPC: 2.524 (Simulation time: 00 hr 37 min 28 sec)
Heartbeat CPU 0 instructions: 520000003 cycles: 259661980 heartbeat IPC: 0.1549 cumulative IPC: 1.905 (Simulation time: 00 hr 45 min 37 sec)
Heartbeat CPU 0 instructions: 530000001 cycles: 374571832 heartbeat IPC: 0.08702 cumulative IPC: 1.327 (Simulation time: 01 hr 00 min 11 sec)
Heartbeat CPU 0 instructions: 540000000 cycles: 402648414 heartbeat IPC: 0.3562 cumulative IPC: 1.257 (Simulation time: 01 hr 04 min 04 sec)
Heartbeat CPU 0 instructions: 550000003 cycles: 430887719 heartbeat IPC: 0.3541 cumulative IPC: 1.196 (Simulation time: 01 hr 07 min 57 sec)
Heartbeat CPU 0 instructions: 560000001 cycles: 459126142 heartbeat IPC: 0.3541 cumulative IPC: 1.143 (Simulation time: 01 hr 11 min 56 sec)
Heartbeat CPU 0 instructions: 570000001 cycles: 487342084 heartbeat IPC: 0.3544 cumulative IPC: 1.096 (Simulation time: 01 hr 15 min 58 sec)
Heartbeat CPU 0 instructions: 580000002 cycles: 516754102 heartbeat IPC: 0.34 cumulative IPC: 1.052 (Simulation time: 01 hr 20 min 04 sec)
Heartbeat CPU 0 instructions: 590000001 cycles: 546023144 heartbeat IPC: 0.3417 cumulative IPC: 1.013 (Simulation time: 01 hr 24 min 14 sec)
*** Reached end of trace: (0, "traces/bt.A.champsimtrace")
Heartbeat CPU 0 instructions: 600000001 cycles: 575116018 heartbeat IPC: 0.3437 cumulative IPC: 0.9782 (Simulation time: 01 hr 28 min 18 sec)
Heartbeat CPU 0 instructions: 610000004 cycles: 602564641 heartbeat IPC: 0.3643 cumulative IPC: 0.9497 (Simulation time: 01 hr 31 min 08 sec)
Heartbeat CPU 0 instructions: 620000000 cycles: 605067061 heartbeat IPC: 3.996 cumulative IPC: 0.9625 (Simulation time: 01 hr 31 min 46 sec)
Heartbeat CPU 0 instructions: 630000002 cycles: 607569469 heartbeat IPC: 3.996 cumulative IPC: 0.9753 (Simulation time: 01 hr 32 min 26 sec)
Heartbeat CPU 0 instructions: 640000000 cycles: 610071877 heartbeat IPC: 3.996 cumulative IPC: 0.988 (Simulation time: 01 hr 33 min 10 sec)
Heartbeat CPU 0 instructions: 650000002 cycles: 612574274 heartbeat IPC: 3.996 cumulative IPC: 1.001 (Simulation time: 01 hr 33 min 52 sec)
Simulation finished CPU 0 instructions: 600000002 cycles: 599693232 cumulative IPC: 1.001 (Simulation time: 01 hr 33 min 52 sec)
Simulation complete CPU 0 instructions: 600000002 cycles: 599693232 cumulative IPC: 1.001 (Simulation time: 01 hr 33 min 52 sec)

ChampSim completed all CPUs

=== Simulation ===
CPU 0 runs traces/bt.A.champsimtrace
Region of Interest Statistics

CPU 0 cumulative IPC: 1.001 instructions: 600000002 cycles: 599693232
CPU 0 Branch Prediction Accuracy: 99.29% MPKI: 0.1296 Average ROB Occupancy at Mispredict: 279.5
Branch type MPKI
BRANCH_DIRECT_JUMP: 5e-06
BRANCH_INDIRECT: 7.83e-05
BRANCH_CONDITIONAL: 0.129
BRANCH_DIRECT_CALL: 6.67e-06
BRANCH_INDIRECT_CALL: 3.67e-05
BRANCH_RETURN: 2.33e-05

LLC TOTAL        ACCESS:    7362133 HIT:    3631728 MISS:    3730405
LLC LOAD         ACCESS:    2240358 HIT:    1138224 MISS:    1102134
LLC RFO          ACCESS:     889447 HIT:       6965 MISS:     882482
LLC PREFETCH     ACCESS:    2240358 HIT:     496462 MISS:    1743896
LLC WRITE        ACCESS:    1988599 HIT:    1988471 MISS:        128
LLC TRANSLATION  ACCESS:       3371 HIT:       1606 MISS:       1765
LLC PREFETCH REQUESTED:    2240358 ISSUED:    2240358 USEFUL:    1467043 USELESS:      25203
LLC AVERAGE MISS LATENCY: 1138 cycles
cpu0_DTLB TOTAL        ACCESS:  128644260 HIT:  127886442 MISS:     757818
cpu0_DTLB LOAD         ACCESS:  128644260 HIT:  127886442 MISS:     757818
cpu0_DTLB RFO          ACCESS:          0 HIT:          0 MISS:          0
cpu0_DTLB PREFETCH     ACCESS:          0 HIT:          0 MISS:          0
cpu0_DTLB WRITE        ACCESS:          0 HIT:          0 MISS:          0
cpu0_DTLB TRANSLATION  ACCESS:          0 HIT:          0 MISS:          0
cpu0_DTLB PREFETCH REQUESTED:          0 ISSUED:          0 USEFUL:          0 USELESS:          0
cpu0_DTLB AVERAGE MISS LATENCY: 14 cycles
cpu0_ITLB TOTAL        ACCESS:     141235 HIT:     140989 MISS:        246
cpu0_ITLB LOAD         ACCESS:     141235 HIT:     140989 MISS:        246
cpu0_ITLB RFO          ACCESS:          0 HIT:          0 MISS:          0
cpu0_ITLB PREFETCH     ACCESS:          0 HIT:          0 MISS:          0
cpu0_ITLB WRITE        ACCESS:          0 HIT:          0 MISS:          0
cpu0_ITLB TRANSLATION  ACCESS:          0 HIT:          0 MISS:          0
cpu0_ITLB PREFETCH REQUESTED:          0 ISSUED:          0 USEFUL:          0 USELESS:          0
cpu0_ITLB AVERAGE MISS LATENCY: 322.8 cycles
cpu0_L1D TOTAL        ACCESS:  196898824 HIT:  183358880 MISS:   13539944
cpu0_L1D LOAD         ACCESS:  162216530 HIT:  152816607 MISS:    9399923
cpu0_L1D RFO          ACCESS:          0 HIT:          0 MISS:          0
cpu0_L1D PREFETCH     ACCESS:          0 HIT:          0 MISS:          0
cpu0_L1D WRITE        ACCESS:   34635519 HIT:   30512609 MISS:    4122910
cpu0_L1D TRANSLATION  ACCESS:      46775 HIT:      29664 MISS:      17111
cpu0_L1D PREFETCH REQUESTED:          0 ISSUED:          0 USEFUL:          0 USELESS:          0
cpu0_L1D AVERAGE MISS LATENCY: 155.9 cycles
cpu0_L1I TOTAL        ACCESS:     190560 HIT:     187818 MISS:       2742
cpu0_L1I LOAD         ACCESS:     190560 HIT:     187818 MISS:       2742
cpu0_L1I RFO          ACCESS:          0 HIT:          0 MISS:          0
cpu0_L1I PREFETCH     ACCESS:          0 HIT:          0 MISS:          0
cpu0_L1I WRITE        ACCESS:          0 HIT:          0 MISS:          0
cpu0_L1I TRANSLATION  ACCESS:          0 HIT:          0 MISS:          0
cpu0_L1I PREFETCH REQUESTED:          0 ISSUED:          0 USEFUL:          0 USELESS:          0
cpu0_L1I AVERAGE MISS LATENCY: 437.1 cycles
cpu0_L2C TOTAL        ACCESS:    5265703 HIT:    2132029 MISS:    3133674
cpu0_L2C LOAD         ACCESS:    2359594 HIT:     119192 MISS:    2240402
cpu0_L2C RFO          ACCESS:     889977 HIT:        530 MISS:     889447
cpu0_L2C PREFETCH     ACCESS:          0 HIT:          0 MISS:          0
cpu0_L2C WRITE        ACCESS:    1999026 HIT:    1998572 MISS:        454
cpu0_L2C TRANSLATION  ACCESS:      17106 HIT:      13735 MISS:       3371
cpu0_L2C PREFETCH REQUESTED:          0 ISSUED:          0 USEFUL:          0 USELESS:          0
cpu0_L2C AVERAGE MISS LATENCY: 880.7 cycles
cpu0_STLB TOTAL        ACCESS:     311356 HIT:     264604 MISS:      46752
cpu0_STLB LOAD         ACCESS:     311356 HIT:     264604 MISS:      46752
cpu0_STLB RFO          ACCESS:          0 HIT:          0 MISS:          0
cpu0_STLB PREFETCH     ACCESS:          0 HIT:          0 MISS:          0
cpu0_STLB WRITE        ACCESS:          0 HIT:          0 MISS:          0
cpu0_STLB TRANSLATION  ACCESS:          0 HIT:          0 MISS:          0
cpu0_STLB PREFETCH REQUESTED:          0 ISSUED:          0 USEFUL:          0 USELESS:          0
cpu0_STLB AVERAGE MISS LATENCY: 300.4 cycles

DRAM Statistics

Channel 0 RQ ROW_BUFFER_HIT:     716717
  ROW_BUFFER_MISS:    1942770
 AVG DBUS CONGESTED CYCLE: 3.979
WQ ROW_BUFFER_HIT: Channel 0 
  ROW_BUFFER_MISS:     456916
  FULL:    1274594
