WARNING: physical memory size is smaller than virtual memory size.

*** ChampSim Multicore Out-of-Order Simulator ***
Warmup Instructions: 50000000
Simulation Instructions: 600000000
Number of CPUs: 1
Page size: 4096

Off-chip DRAM Size: 4 GiB Channels: 1 Width: 64-bit Data Race: 3200 MT/s
Heartbeat CPU 0 instructions: 10000000 cycles: 2881042 heartbeat IPC: 3.471 cumulative IPC: 3.471 (Simulation time: 00 hr 00 min 58 sec)
Heartbeat CPU 0 instructions: 20000000 cycles: 5381042 heartbeat IPC: 4 cumulative IPC: 3.717 (Simulation time: 00 hr 01 min 47 sec)
Heartbeat CPU 0 instructions: 30000000 cycles: 7881042 heartbeat IPC: 4 cumulative IPC: 3.807 (Simulation time: 00 hr 02 min 38 sec)
Heartbeat CPU 0 instructions: 40000000 cycles: 10381042 heartbeat IPC: 4 cumulative IPC: 3.853 (Simulation time: 00 hr 03 min 35 sec)
Heartbeat CPU 0 instructions: 50000000 cycles: 12881042 heartbeat IPC: 4 cumulative IPC: 3.882 (Simulation time: 00 hr 04 min 30 sec)
Warmup finished CPU 0 instructions: 50000000 cycles: 12881043 cumulative IPC: 3.882 (Simulation time: 00 hr 04 min 30 sec)
Warmup complete CPU 0 instructions: 50000000 cycles: 12881043 cumulative IPC: 3.882 (Simulation time: 00 hr 04 min 30 sec)
Heartbeat CPU 0 instructions: 60000004 cycles: 15383651 heartbeat IPC: 3.996 cumulative IPC: 3.996 (Simulation time: 00 hr 05 min 33 sec)
Heartbeat CPU 0 instructions: 70000002 cycles: 17886014 heartbeat IPC: 3.996 cumulative IPC: 3.996 (Simulation time: 00 hr 06 min 33 sec)
Heartbeat CPU 0 instructions: 80000002 cycles: 20388734 heartbeat IPC: 3.996 cumulative IPC: 3.996 (Simulation time: 00 hr 07 min 36 sec)
Heartbeat CPU 0 instructions: 90000004 cycles: 22891157 heartbeat IPC: 3.996 cumulative IPC: 3.996 (Simulation time: 00 hr 08 min 37 sec)
Heartbeat CPU 0 instructions: 100000000 cycles: 25393562 heartbeat IPC: 3.996 cumulative IPC: 3.996 (Simulation time: 00 hr 09 min 37 sec)
Heartbeat CPU 0 instructions: 110000002 cycles: 27895968 heartbeat IPC: 3.996 cumulative IPC: 3.996 (Simulation time: 00 hr 10 min 36 sec)
Heartbeat CPU 0 instructions: 120000000 cycles: 30398365 heartbeat IPC: 3.996 cumulative IPC: 3.996 (Simulation time: 00 hr 11 min 31 sec)
Heartbeat CPU 0 instructions: 130000002 cycles: 32900816 heartbeat IPC: 3.996 cumulative IPC: 3.996 (Simulation time: 00 hr 12 min 25 sec)
Heartbeat CPU 0 instructions: 140000004 cycles: 35403225 heartbeat IPC: 3.996 cumulative IPC: 3.996 (Simulation time: 00 hr 13 min 20 sec)
Heartbeat CPU 0 instructions: 150000000 cycles: 37905587 heartbeat IPC: 3.996 cumulative IPC: 3.996 (Simulation time: 00 hr 14 min 14 sec)
Heartbeat CPU 0 instructions: 160000003 cycles: 40407994 heartbeat IPC: 3.996 cumulative IPC: 3.996 (Simulation time: 00 hr 15 min 09 sec)
Heartbeat CPU 0 instructions: 170000002 cycles: 42910458 heartbeat IPC: 3.996 cumulative IPC: 3.996 (Simulation time: 00 hr 16 min 05 sec)
Heartbeat CPU 0 instructions: 180000000 cycles: 45412821 heartbeat IPC: 3.996 cumulative IPC: 3.996 (Simulation time: 00 hr 17 min 03 sec)
Heartbeat CPU 0 instructions: 190000003 cycles: 47915175 heartbeat IPC: 3.996 cumulative IPC: 3.996 (Simulation time: 00 hr 17 min 59 sec)
Heartbeat CPU 0 instructions: 200000000 cycles: 50417627 heartbeat IPC: 3.996 cumulative IPC: 3.996 (Simulation time: 00 hr 18 min 55 sec)
Heartbeat CPU 0 instructions: 210000000 cycles: 52920032 heartbeat IPC: 3.996 cumulative IPC: 3.996 (Simulation time: 00 hr 19 min 50 sec)
Heartbeat CPU 0 instructions: 220000003 cycles: 55422486 heartbeat IPC: 3.996 cumulative IPC: 3.996 (Simulation time: 00 hr 20 min 44 sec)
Heartbeat CPU 0 instructions: 230000001 cycles: 90643890 heartbeat IPC: 0.2839 cumulative IPC: 2.315 (Simulation time: 00 hr 26 min 09 sec)
Heartbeat CPU 0 instructions: 240000002 cycles: 96661271 heartbeat IPC: 1.662 cumulative IPC: 2.268 (Simulation time: 00 hr 27 min 47 sec)
Heartbeat CPU 0 instructions: 250000000 cycles: 102676553 heartbeat IPC: 1.662 cumulative IPC: 2.227 (Simulation time: 00 hr 29 min 25 sec)
Heartbeat CPU 0 instructions: 260000004 cycles: 108721588 heartbeat IPC: 1.654 cumulative IPC: 2.191 (Simulation time: 00 hr 31 min 04 sec)
Heartbeat CPU 0 instructions: 270000003 cycles: 114768796 heartbeat IPC: 1.654 cumulative IPC: 2.159 (Simulation time: 00 hr 32 min 42 sec)
Heartbeat CPU 0 instructions: 280000001 cycles: 120816745 heartbeat IPC: 1.653 cumulative IPC: 2.131 (Simulation time: 00 hr 34 min 21 sec)
Heartbeat CPU 0 instructions: 290000000 cycles: 126858453 heartbeat IPC: 1.655 cumulative IPC: 2.106 (Simulation time: 00 hr 35 min 59 sec)
Heartbeat CPU 0 instructions: 300000003 cycles: 132901524 heartbeat IPC: 1.655 cumulative IPC: 2.083 (Simulation time: 00 hr 37 min 37 sec)
Heartbeat CPU 0 instructions: 310000001 cycles: 138952926 heartbeat IPC: 1.653 cumulative IPC: 2.062 (Simulation time: 00 hr 39 min 15 sec)
Heartbeat CPU 0 instructions: 320000002 cycles: 145000855 heartbeat IPC: 1.653 cumulative IPC: 2.044 (Simulation time: 00 hr 40 min 52 sec)
Heartbeat CPU 0 instructions: 330000004 cycles: 151460578 heartbeat IPC: 1.548 cumulative IPC: 2.021 (Simulation time: 00 hr 42 min 38 sec)
Heartbeat CPU 0 instructions: 340000002 cycles: 157968461 heartbeat IPC: 1.537 cumulative IPC: 1.999 (Simulation time: 00 hr 44 min 20 sec)
Heartbeat CPU 0 instructions: 350000002 cycles: 164395067 heartbeat IPC: 1.556 cumulative IPC: 1.98 (Simulation time: 00 hr 46 min 01 sec)
Heartbeat CPU 0 instructions: 360000000 cycles: 170932405 heartbeat IPC: 1.53 cumulative IPC: 1.961 (Simulation time: 00 hr 47 min 43 sec)
Heartbeat CPU 0 instructions: 370000001 cycles: 177416692 heartbeat IPC: 1.542 cumulative IPC: 1.945 (Simulation time: 00 hr 49 min 28 sec)
Heartbeat CPU 0 instructions: 380000003 cycles: 183975244 heartbeat IPC: 1.525 cumulative IPC: 1.929 (Simulation time: 00 hr 51 min 12 sec)
Heartbeat CPU 0 instructions: 390000004 cycles: 190431829 heartbeat IPC: 1.549 cumulative IPC: 1.915 (Simulation time: 00 hr 52 min 53 sec)
Heartbeat CPU 0 instructions: 400000000 cycles: 197004649 heartbeat IPC: 1.521 cumulative IPC: 1.901 (Simulation time: 00 hr 54 min 36 sec)
Heartbeat CPU 0 instructions: 410000003 cycles: 203428220 heartbeat IPC: 1.557 cumulative IPC: 1.889 (Simulation time: 00 hr 56 min 19 sec)
Heartbeat CPU 0 instructions: 420000000 cycles: 210007378 heartbeat IPC: 1.52 cumulative IPC: 1.877 (Simulation time: 00 hr 58 min 02 sec)
Heartbeat CPU 0 instructions: 430000001 cycles: 215612262 heartbeat IPC: 1.784 cumulative IPC: 1.874 (Simulation time: 00 hr 59 min 36 sec)
Heartbeat CPU 0 instructions: 440000002 cycles: 221651483 heartbeat IPC: 1.656 cumulative IPC: 1.868 (Simulation time: 01 hr 01 min 13 sec)
Heartbeat CPU 0 instructions: 450000000 cycles: 228225797 heartbeat IPC: 1.521 cumulative IPC: 1.857 (Simulation time: 01 hr 02 min 59 sec)
Heartbeat CPU 0 instructions: 460000003 cycles: 234866336 heartbeat IPC: 1.506 cumulative IPC: 1.847 (Simulation time: 01 hr 04 min 45 sec)
Heartbeat CPU 0 instructions: 470000004 cycles: 241494845 heartbeat IPC: 1.509 cumulative IPC: 1.837 (Simulation time: 01 hr 06 min 30 sec)
Heartbeat CPU 0 instructions: 480000000 cycles: 248165081 heartbeat IPC: 1.499 cumulative IPC: 1.828 (Simulation time: 01 hr 08 min 15 sec)
Heartbeat CPU 0 instructions: 490000001 cycles: 254787648 heartbeat IPC: 1.51 cumulative IPC: 1.819 (Simulation time: 01 hr 09 min 59 sec)
Heartbeat CPU 0 instructions: 500000001 cycles: 261393246 heartbeat IPC: 1.514 cumulative IPC: 1.811 (Simulation time: 01 hr 11 min 43 sec)
Heartbeat CPU 0 instructions: 510000002 cycles: 267968731 heartbeat IPC: 1.521 cumulative IPC: 1.803 (Simulation time: 01 hr 13 min 28 sec)
Heartbeat CPU 0 instructions: 520000002 cycles: 333538423 heartbeat IPC: 0.1525 cumulative IPC: 1.466 (Simulation time: 01 hr 26 min 11 sec)
Heartbeat CPU 0 instructions: 530000001 cycles: 446392472 heartbeat IPC: 0.08861 cumulative IPC: 1.107 (Simulation time: 01 hr 47 min 28 sec)
Heartbeat CPU 0 instructions: 540000002 cycles: 476293726 heartbeat IPC: 0.3344 cumulative IPC: 1.057 (Simulation time: 01 hr 53 min 33 sec)
Heartbeat CPU 0 instructions: 550000003 cycles: 506674630 heartbeat IPC: 0.3292 cumulative IPC: 1.013 (Simulation time: 01 hr 59 min 45 sec)
Heartbeat CPU 0 instructions: 560000001 cycles: 536972296 heartbeat IPC: 0.3301 cumulative IPC: 0.9731 (Simulation time: 02 hr 05 min 54 sec)
Heartbeat CPU 0 instructions: 570000000 cycles: 567438445 heartbeat IPC: 0.3282 cumulative IPC: 0.9377 (Simulation time: 02 hr 12 min 01 sec)
Heartbeat CPU 0 instructions: 580000002 cycles: 598107163 heartbeat IPC: 0.3261 cumulative IPC: 0.9056 (Simulation time: 02 hr 18 min 21 sec)
Heartbeat CPU 0 instructions: 590000001 cycles: 629056532 heartbeat IPC: 0.3231 cumulative IPC: 0.8764 (Simulation time: 02 hr 24 min 38 sec)
*** Reached end of trace: (0, "traces/bt.A.champsimtrace")
Heartbeat CPU 0 instructions: 600000002 cycles: 659572340 heartbeat IPC: 0.3277 cumulative IPC: 0.8505 (Simulation time: 02 hr 31 min 01 sec)
Heartbeat CPU 0 instructions: 610000004 cycles: 687836031 heartbeat IPC: 0.3538 cumulative IPC: 0.8297 (Simulation time: 02 hr 35 min 31 sec)
Heartbeat CPU 0 instructions: 620000000 cycles: 690338451 heartbeat IPC: 3.996 cumulative IPC: 0.8414 (Simulation time: 02 hr 36 min 29 sec)
Heartbeat CPU 0 instructions: 630000002 cycles: 692840859 heartbeat IPC: 3.996 cumulative IPC: 0.853 (Simulation time: 02 hr 37 min 28 sec)
Heartbeat CPU 0 instructions: 640000000 cycles: 695343267 heartbeat IPC: 3.996 cumulative IPC: 0.8645 (Simulation time: 02 hr 38 min 28 sec)
Heartbeat CPU 0 instructions: 650000002 cycles: 697845664 heartbeat IPC: 3.996 cumulative IPC: 0.876 (Simulation time: 02 hr 39 min 29 sec)
Simulation finished CPU 0 instructions: 600000002 cycles: 684964622 cumulative IPC: 0.876 (Simulation time: 02 hr 39 min 29 sec)
Simulation complete CPU 0 instructions: 600000002 cycles: 684964622 cumulative IPC: 0.876 (Simulation time: 02 hr 39 min 29 sec)

ChampSim completed all CPUs

=== Simulation ===
CPU 0 runs traces/bt.A.champsimtrace
Region of Interest Statistics

CPU 0 cumulative IPC: 0.876 instructions: 600000002 cycles: 684964622
CPU 0 Branch Prediction Accuracy: 99.29% MPKI: 0.1288 Average ROB Occupancy at Mispredict: 280.2
Branch type MPKI
BRANCH_DIRECT_JUMP: 5e-06
BRANCH_INDIRECT: 7.83e-05
BRANCH_CONDITIONAL: 0.129
BRANCH_DIRECT_CALL: 6.67e-06
BRANCH_INDIRECT_CALL: 3.67e-05
BRANCH_RETURN: 2.33e-05

LLC TOTAL        ACCESS:    5121803 HIT:    2487707 MISS:    2634096
LLC LOAD         ACCESS:    2240374 HIT:     490808 MISS:    1749566
LLC RFO          ACCESS:     889447 HIT:       6944 MISS:     882503
LLC PREFETCH     ACCESS:          0 HIT:          0 MISS:          0
LLC WRITE        ACCESS:    1988608 HIT:    1988377 MISS:        231
LLC TRANSLATION  ACCESS:       3374 HIT:       1578 MISS:       1796
LLC PREFETCH REQUESTED:          0 ISSUED:          0 USEFUL:          0 USELESS:          0
LLC AVERAGE MISS LATENCY: 1219 cycles
cpu0_DTLB TOTAL        ACCESS:  126766627 HIT:  126001549 MISS:     765078
cpu0_DTLB LOAD         ACCESS:  126766627 HIT:  126001549 MISS:     765078
cpu0_DTLB RFO          ACCESS:          0 HIT:          0 MISS:          0
cpu0_DTLB PREFETCH     ACCESS:          0 HIT:          0 MISS:          0
cpu0_DTLB WRITE        ACCESS:          0 HIT:          0 MISS:          0
cpu0_DTLB TRANSLATION  ACCESS:          0 HIT:          0 MISS:          0
cpu0_DTLB PREFETCH REQUESTED:          0 ISSUED:          0 USEFUL:          0 USELESS:          0
cpu0_DTLB AVERAGE MISS LATENCY: 14.53 cycles
cpu0_ITLB TOTAL        ACCESS:     145041 HIT:     144790 MISS:        251
cpu0_ITLB LOAD         ACCESS:     145041 HIT:     144790 MISS:        251
cpu0_ITLB RFO          ACCESS:          0 HIT:          0 MISS:          0
cpu0_ITLB PREFETCH     ACCESS:          0 HIT:          0 MISS:          0
cpu0_ITLB WRITE        ACCESS:          0 HIT:          0 MISS:          0
cpu0_ITLB TRANSLATION  ACCESS:          0 HIT:          0 MISS:          0
cpu0_ITLB PREFETCH REQUESTED:          0 ISSUED:          0 USEFUL:          0 USELESS:          0
cpu0_ITLB AVERAGE MISS LATENCY: 313.2 cycles
cpu0_L1D TOTAL        ACCESS:  194063449 HIT:  180010422 MISS:   14053027
cpu0_L1D LOAD         ACCESS:  159381155 HIT:  149447587 MISS:    9933568
cpu0_L1D RFO          ACCESS:          0 HIT:          0 MISS:          0
cpu0_L1D PREFETCH     ACCESS:          0 HIT:          0 MISS:          0
cpu0_L1D WRITE        ACCESS:   34635519 HIT:   30533172 MISS:    4102347
cpu0_L1D TRANSLATION  ACCESS:      46775 HIT:      29663 MISS:      17112
cpu0_L1D PREFETCH REQUESTED:          0 ISSUED:          0 USEFUL:          0 USELESS:          0
cpu0_L1D AVERAGE MISS LATENCY: 171.1 cycles
cpu0_L1I TOTAL        ACCESS:     194725 HIT:     191964 MISS:       2761
cpu0_L1I LOAD         ACCESS:     194725 HIT:     191964 MISS:       2761
cpu0_L1I RFO          ACCESS:          0 HIT:          0 MISS:          0
cpu0_L1I PREFETCH     ACCESS:          0 HIT:          0 MISS:          0
cpu0_L1I WRITE        ACCESS:          0 HIT:          0 MISS:          0
cpu0_L1I TRANSLATION  ACCESS:          0 HIT:          0 MISS:          0
cpu0_L1I PREFETCH REQUESTED:          0 ISSUED:          0 USEFUL:          0 USELESS:          0
cpu0_L1I AVERAGE MISS LATENCY: 517.2 cycles
cpu0_L2C TOTAL        ACCESS:    5272185 HIT:    2138492 MISS:    3133693
cpu0_L2C LOAD         ACCESS:    2366065 HIT:     125649 MISS:    2240416
cpu0_L2C RFO          ACCESS:     889973 HIT:        526 MISS:     889447
cpu0_L2C PREFETCH     ACCESS:          0 HIT:          0 MISS:          0
cpu0_L2C WRITE        ACCESS:    1999039 HIT:    1998583 MISS:        456
cpu0_L2C TRANSLATION  ACCESS:      17108 HIT:      13734 MISS:       3374
cpu0_L2C PREFETCH REQUESTED:          0 ISSUED:          0 USEFUL:          0 USELESS:          0
cpu0_L2C AVERAGE MISS LATENCY: 1046 cycles
cpu0_STLB TOTAL        ACCESS:     311388 HIT:     264636 MISS:      46752
cpu0_STLB LOAD         ACCESS:     311388 HIT:     264636 MISS:      46752
cpu0_STLB RFO          ACCESS:          0 HIT:          0 MISS:          0
cpu0_STLB PREFETCH     ACCESS:          0 HIT:          0 MISS:          0
cpu0_STLB WRITE        ACCESS:          0 HIT:          0 MISS:          0
cpu0_STLB TRANSLATION  ACCESS:          0 HIT:          0 MISS:          0
cpu0_STLB PREFETCH REQUESTED:          0 ISSUED:          0 USEFUL:          0 USELESS:          0
cpu0_STLB AVERAGE MISS LATENCY: 311.8 cycles

DRAM Statistics

Channel 0 RQ ROW_BUFFER_HIT:     673989
  ROW_BUFFER_MISS:    1959873
 AVG DBUS CONGESTED CYCLE: 3.974
WQ ROW_BUFFER_HIT: Channel 0 
  ROW_BUFFER_MISS:     378734
  FULL:    1352441
