WARNING: physical memory size is smaller than virtual memory size.

*** ChampSim Multicore Out-of-Order Simulator ***
Warmup Instructions: 50000000
Simulation Instructions: 600000000
Number of CPUs: 1
Page size: 4096

CPU 0 Tage branch predictor
Off-chip DRAM Size: 4 GiB Channels: 1 Width: 64-bit Data Race: 3200 MT/s
Heartbeat CPU 0 instructions: 10000003 cycles: 2881028 heartbeat IPC: 3.471 cumulative IPC: 3.471 (Simulation time: 00 hr 00 min 57 sec)
Heartbeat CPU 0 instructions: 20000003 cycles: 5381028 heartbeat IPC: 4 cumulative IPC: 3.717 (Simulation time: 00 hr 01 min 59 sec)
Heartbeat CPU 0 instructions: 30000003 cycles: 7881028 heartbeat IPC: 4 cumulative IPC: 3.807 (Simulation time: 00 hr 02 min 59 sec)
Heartbeat CPU 0 instructions: 40000003 cycles: 10381028 heartbeat IPC: 4 cumulative IPC: 3.853 (Simulation time: 00 hr 03 min 53 sec)
Heartbeat CPU 0 instructions: 50000003 cycles: 12881028 heartbeat IPC: 4 cumulative IPC: 3.882 (Simulation time: 00 hr 04 min 44 sec)
Warmup finished CPU 0 instructions: 50000003 cycles: 12881029 cumulative IPC: 3.882 (Simulation time: 00 hr 04 min 44 sec)
Warmup complete CPU 0 instructions: 50000003 cycles: 12881029 cumulative IPC: 3.882 (Simulation time: 00 hr 04 min 44 sec)
Heartbeat CPU 0 instructions: 60000004 cycles: 15381065 heartbeat IPC: 4 cumulative IPC: 4 (Simulation time: 00 hr 05 min 40 sec)
Heartbeat CPU 0 instructions: 70000002 cycles: 17881096 heartbeat IPC: 4 cumulative IPC: 4 (Simulation time: 00 hr 06 min 36 sec)
Heartbeat CPU 0 instructions: 80000002 cycles: 20381129 heartbeat IPC: 4 cumulative IPC: 4 (Simulation time: 00 hr 07 min 30 sec)
Heartbeat CPU 0 instructions: 90000004 cycles: 22881196 heartbeat IPC: 4 cumulative IPC: 4 (Simulation time: 00 hr 08 min 26 sec)
Heartbeat CPU 0 instructions: 100000004 cycles: 25383687 heartbeat IPC: 3.996 cumulative IPC: 3.999 (Simulation time: 00 hr 09 min 20 sec)
Heartbeat CPU 0 instructions: 110000000 cycles: 27883776 heartbeat IPC: 4 cumulative IPC: 3.999 (Simulation time: 00 hr 10 min 16 sec)
Heartbeat CPU 0 instructions: 120000003 cycles: 30384116 heartbeat IPC: 3.999 cumulative IPC: 3.999 (Simulation time: 00 hr 11 min 13 sec)
Heartbeat CPU 0 instructions: 130000000 cycles: 32884206 heartbeat IPC: 4 cumulative IPC: 3.999 (Simulation time: 00 hr 12 min 10 sec)
Heartbeat CPU 0 instructions: 140000001 cycles: 35384443 heartbeat IPC: 4 cumulative IPC: 3.999 (Simulation time: 00 hr 13 min 08 sec)
Heartbeat CPU 0 instructions: 150000000 cycles: 37885674 heartbeat IPC: 3.998 cumulative IPC: 3.999 (Simulation time: 00 hr 14 min 05 sec)
Heartbeat CPU 0 instructions: 160000001 cycles: 40386377 heartbeat IPC: 3.999 cumulative IPC: 3.999 (Simulation time: 00 hr 15 min 04 sec)
Heartbeat CPU 0 instructions: 170000002 cycles: 42887298 heartbeat IPC: 3.999 cumulative IPC: 3.999 (Simulation time: 00 hr 16 min 03 sec)
Heartbeat CPU 0 instructions: 180000001 cycles: 45387833 heartbeat IPC: 3.999 cumulative IPC: 3.999 (Simulation time: 00 hr 17 min 02 sec)
Heartbeat CPU 0 instructions: 190000004 cycles: 47887886 heartbeat IPC: 4 cumulative IPC: 3.999 (Simulation time: 00 hr 18 min 02 sec)
Heartbeat CPU 0 instructions: 200000000 cycles: 50389038 heartbeat IPC: 3.998 cumulative IPC: 3.999 (Simulation time: 00 hr 19 min 01 sec)
Heartbeat CPU 0 instructions: 210000000 cycles: 52889130 heartbeat IPC: 4 cumulative IPC: 3.999 (Simulation time: 00 hr 19 min 59 sec)
Heartbeat CPU 0 instructions: 220000000 cycles: 55390113 heartbeat IPC: 3.998 cumulative IPC: 3.999 (Simulation time: 00 hr 20 min 57 sec)
Heartbeat CPU 0 instructions: 230000004 cycles: 89597196 heartbeat IPC: 0.2923 cumulative IPC: 2.346 (Simulation time: 00 hr 26 min 30 sec)
Heartbeat CPU 0 instructions: 240000001 cycles: 93459796 heartbeat IPC: 2.589 cumulative IPC: 2.358 (Simulation time: 00 hr 27 min 46 sec)
Heartbeat CPU 0 instructions: 250000000 cycles: 97242123 heartbeat IPC: 2.644 cumulative IPC: 2.371 (Simulation time: 00 hr 29 min 02 sec)
Heartbeat CPU 0 instructions: 260000002 cycles: 101050734 heartbeat IPC: 2.626 cumulative IPC: 2.382 (Simulation time: 00 hr 30 min 18 sec)
Heartbeat CPU 0 instructions: 270000000 cycles: 105909713 heartbeat IPC: 2.058 cumulative IPC: 2.365 (Simulation time: 00 hr 31 min 45 sec)
Heartbeat CPU 0 instructions: 280000001 cycles: 111827508 heartbeat IPC: 1.69 cumulative IPC: 2.324 (Simulation time: 00 hr 33 min 25 sec)
Heartbeat CPU 0 instructions: 290000003 cycles: 117755090 heartbeat IPC: 1.687 cumulative IPC: 2.288 (Simulation time: 00 hr 35 min 06 sec)
Heartbeat CPU 0 instructions: 300000003 cycles: 123794011 heartbeat IPC: 1.656 cumulative IPC: 2.254 (Simulation time: 00 hr 36 min 46 sec)
Heartbeat CPU 0 instructions: 310000000 cycles: 129706907 heartbeat IPC: 1.691 cumulative IPC: 2.226 (Simulation time: 00 hr 38 min 23 sec)
Heartbeat CPU 0 instructions: 320000002 cycles: 135649262 heartbeat IPC: 1.683 cumulative IPC: 2.199 (Simulation time: 00 hr 40 min 01 sec)
Heartbeat CPU 0 instructions: 330000004 cycles: 139952297 heartbeat IPC: 2.324 cumulative IPC: 2.203 (Simulation time: 00 hr 41 min 20 sec)
Heartbeat CPU 0 instructions: 340000003 cycles: 143225629 heartbeat IPC: 3.055 cumulative IPC: 2.225 (Simulation time: 00 hr 42 min 27 sec)
Heartbeat CPU 0 instructions: 350000000 cycles: 146867323 heartbeat IPC: 2.746 cumulative IPC: 2.239 (Simulation time: 00 hr 43 min 38 sec)
Heartbeat CPU 0 instructions: 360000000 cycles: 150879476 heartbeat IPC: 2.492 cumulative IPC: 2.246 (Simulation time: 00 hr 44 min 55 sec)
Heartbeat CPU 0 instructions: 370000004 cycles: 156333820 heartbeat IPC: 1.833 cumulative IPC: 2.231 (Simulation time: 00 hr 46 min 28 sec)
Heartbeat CPU 0 instructions: 380000003 cycles: 163109565 heartbeat IPC: 1.476 cumulative IPC: 2.197 (Simulation time: 00 hr 48 min 17 sec)
Heartbeat CPU 0 instructions: 390000000 cycles: 169877644 heartbeat IPC: 1.478 cumulative IPC: 2.166 (Simulation time: 00 hr 50 min 04 sec)
Heartbeat CPU 0 instructions: 400000001 cycles: 176677610 heartbeat IPC: 1.471 cumulative IPC: 2.137 (Simulation time: 00 hr 51 min 51 sec)
Heartbeat CPU 0 instructions: 410000004 cycles: 183429687 heartbeat IPC: 1.481 cumulative IPC: 2.111 (Simulation time: 00 hr 53 min 38 sec)
Heartbeat CPU 0 instructions: 420000004 cycles: 190043461 heartbeat IPC: 1.512 cumulative IPC: 2.088 (Simulation time: 00 hr 55 min 23 sec)
Heartbeat CPU 0 instructions: 430000004 cycles: 194885933 heartbeat IPC: 2.065 cumulative IPC: 2.088 (Simulation time: 00 hr 56 min 49 sec)
Heartbeat CPU 0 instructions: 440000004 cycles: 200023802 heartbeat IPC: 1.946 cumulative IPC: 2.084 (Simulation time: 00 hr 58 min 18 sec)
Heartbeat CPU 0 instructions: 450000000 cycles: 205636335 heartbeat IPC: 1.782 cumulative IPC: 2.075 (Simulation time: 00 hr 59 min 53 sec)
Heartbeat CPU 0 instructions: 460000001 cycles: 212045889 heartbeat IPC: 1.56 cumulative IPC: 2.059 (Simulation time: 01 hr 01 min 37 sec)
Heartbeat CPU 0 instructions: 470000000 cycles: 218665062 heartbeat IPC: 1.511 cumulative IPC: 2.041 (Simulation time: 01 hr 03 min 23 sec)
Heartbeat CPU 0 instructions: 480000003 cycles: 225942144 heartbeat IPC: 1.374 cumulative IPC: 2.018 (Simulation time: 01 hr 05 min 16 sec)
Heartbeat CPU 0 instructions: 490000004 cycles: 233167630 heartbeat IPC: 1.384 cumulative IPC: 1.997 (Simulation time: 01 hr 07 min 10 sec)
Heartbeat CPU 0 instructions: 500000004 cycles: 240298760 heartbeat IPC: 1.402 cumulative IPC: 1.979 (Simulation time: 01 hr 09 min 02 sec)
Heartbeat CPU 0 instructions: 510000003 cycles: 247472516 heartbeat IPC: 1.394 cumulative IPC: 1.961 (Simulation time: 01 hr 10 min 56 sec)
Heartbeat CPU 0 instructions: 520000003 cycles: 319852821 heartbeat IPC: 0.1382 cumulative IPC: 1.531 (Simulation time: 01 hr 24 min 58 sec)
Heartbeat CPU 0 instructions: 530000000 cycles: 436052474 heartbeat IPC: 0.08606 cumulative IPC: 1.134 (Simulation time: 01 hr 46 min 31 sec)
Heartbeat CPU 0 instructions: 540000003 cycles: 469734424 heartbeat IPC: 0.2969 cumulative IPC: 1.073 (Simulation time: 01 hr 53 min 14 sec)
Heartbeat CPU 0 instructions: 550000000 cycles: 502465511 heartbeat IPC: 0.3055 cumulative IPC: 1.021 (Simulation time: 01 hr 59 min 41 sec)
Heartbeat CPU 0 instructions: 560000000 cycles: 535530434 heartbeat IPC: 0.3024 cumulative IPC: 0.9758 (Simulation time: 02 hr 06 min 12 sec)
Heartbeat CPU 0 instructions: 570000002 cycles: 568338090 heartbeat IPC: 0.3048 cumulative IPC: 0.9362 (Simulation time: 02 hr 12 min 43 sec)
Heartbeat CPU 0 instructions: 580000001 cycles: 599542657 heartbeat IPC: 0.3205 cumulative IPC: 0.9034 (Simulation time: 02 hr 19 min 09 sec)
Heartbeat CPU 0 instructions: 590000001 cycles: 632413801 heartbeat IPC: 0.3042 cumulative IPC: 0.8716 (Simulation time: 02 hr 25 min 43 sec)
*** Reached end of trace: (0, "traces/bt.A.champsimtrace")
Heartbeat CPU 0 instructions: 600000001 cycles: 666367429 heartbeat IPC: 0.2945 cumulative IPC: 0.8416 (Simulation time: 02 hr 32 min 23 sec)
Heartbeat CPU 0 instructions: 610000004 cycles: 692657306 heartbeat IPC: 0.3804 cumulative IPC: 0.8238 (Simulation time: 02 hr 36 min 45 sec)
Heartbeat CPU 0 instructions: 620000000 cycles: 695157306 heartbeat IPC: 4 cumulative IPC: 0.8354 (Simulation time: 02 hr 37 min 45 sec)
Heartbeat CPU 0 instructions: 630000002 cycles: 697657305 heartbeat IPC: 4 cumulative IPC: 0.847 (Simulation time: 02 hr 38 min 46 sec)
Heartbeat CPU 0 instructions: 640000003 cycles: 700157554 heartbeat IPC: 4 cumulative IPC: 0.8585 (Simulation time: 02 hr 39 min 45 sec)
Heartbeat CPU 0 instructions: 650000003 cycles: 702657555 heartbeat IPC: 4 cumulative IPC: 0.8698 (Simulation time: 02 hr 40 min 45 sec)
Simulation finished CPU 0 instructions: 600000000 cycles: 689776527 cumulative IPC: 0.8698 (Simulation time: 02 hr 40 min 45 sec)
Simulation complete CPU 0 instructions: 600000000 cycles: 689776527 cumulative IPC: 0.8698 (Simulation time: 02 hr 40 min 45 sec)

ChampSim completed all CPUs

=== Simulation ===
CPU 0 runs traces/bt.A.champsimtrace
Region of Interest Statistics

CPU 0 cumulative IPC: 0.8698 instructions: 600000000 cycles: 689776527
CPU 0 Branch Prediction Accuracy: 99.98% MPKI: 0.004067 Average ROB Occupancy at Mispredict: 105.6
Branch type MPKI
BRANCH_DIRECT_JUMP: 5e-06
BRANCH_INDIRECT: 7.67e-05
BRANCH_CONDITIONAL: 0.00392
BRANCH_DIRECT_CALL: 6.67e-06
BRANCH_INDIRECT_CALL: 3.33e-05
BRANCH_RETURN: 2.33e-05

LLC TOTAL        ACCESS:    5117564 HIT:    1890538 MISS:    3227026
LLC LOAD         ACCESS:    2238922 HIT:     624122 MISS:    1614800
LLC RFO          ACCESS:     889407 HIT:      66446 MISS:     822961
LLC PREFETCH     ACCESS:          0 HIT:          0 MISS:          0
LLC WRITE        ACCESS:    1985874 HIT:    1198363 MISS:     787511
LLC TRANSLATION  ACCESS:       3361 HIT:       1607 MISS:       1754
LLC PREFETCH REQUESTED:          0 ISSUED:          0 USEFUL:          0 USELESS:          0
LLC AVERAGE MISS LATENCY: 1021 cycles
cpu0_DTLB TOTAL        ACCESS:  127394995 HIT:  126624552 MISS:     770443
cpu0_DTLB LOAD         ACCESS:  127394995 HIT:  126624552 MISS:     770443
cpu0_DTLB RFO          ACCESS:          0 HIT:          0 MISS:          0
cpu0_DTLB PREFETCH     ACCESS:          0 HIT:          0 MISS:          0
cpu0_DTLB WRITE        ACCESS:          0 HIT:          0 MISS:          0
cpu0_DTLB TRANSLATION  ACCESS:          0 HIT:          0 MISS:          0
cpu0_DTLB PREFETCH REQUESTED:          0 ISSUED:          0 USEFUL:          0 USELESS:          0
cpu0_DTLB AVERAGE MISS LATENCY: 14.28 cycles
cpu0_ITLB TOTAL        ACCESS:     171942 HIT:     171704 MISS:        238
cpu0_ITLB LOAD         ACCESS:     171942 HIT:     171704 MISS:        238
cpu0_ITLB RFO          ACCESS:          0 HIT:          0 MISS:          0
cpu0_ITLB PREFETCH     ACCESS:          0 HIT:          0 MISS:          0
cpu0_ITLB WRITE        ACCESS:          0 HIT:          0 MISS:          0
cpu0_ITLB TRANSLATION  ACCESS:          0 HIT:          0 MISS:          0
cpu0_ITLB PREFETCH REQUESTED:          0 ISSUED:          0 USEFUL:          0 USELESS:          0
cpu0_ITLB AVERAGE MISS LATENCY: 315.4 cycles
cpu0_L1D TOTAL        ACCESS:  195168812 HIT:  181420182 MISS:   13748630
cpu0_L1D LOAD         ACCESS:  160486479 HIT:  150748777 MISS:    9737702
cpu0_L1D RFO          ACCESS:          0 HIT:          0 MISS:          0
cpu0_L1D PREFETCH     ACCESS:          0 HIT:          0 MISS:          0
cpu0_L1D WRITE        ACCESS:   34635583 HIT:   30641746 MISS:    3993837
cpu0_L1D TRANSLATION  ACCESS:      46750 HIT:      29659 MISS:      17091
cpu0_L1D PREFETCH REQUESTED:          0 ISSUED:          0 USEFUL:          0 USELESS:          0
cpu0_L1D AVERAGE MISS LATENCY: 181.3 cycles
cpu0_L1I TOTAL        ACCESS:     205692 HIT:     202723 MISS:       2969
cpu0_L1I LOAD         ACCESS:     205692 HIT:     202723 MISS:       2969
cpu0_L1I RFO          ACCESS:          0 HIT:          0 MISS:          0
cpu0_L1I PREFETCH     ACCESS:          0 HIT:          0 MISS:          0
cpu0_L1I WRITE        ACCESS:          0 HIT:          0 MISS:          0
cpu0_L1I TRANSLATION  ACCESS:          0 HIT:          0 MISS:          0
cpu0_L1I PREFETCH REQUESTED:          0 ISSUED:          0 USEFUL:          0 USELESS:          0
cpu0_L1I AVERAGE MISS LATENCY: 502.2 cycles
cpu0_L2C TOTAL        ACCESS:    5273270 HIT:    2140735 MISS:    3132535
cpu0_L2C LOAD         ACCESS:    2366585 HIT:     127154 MISS:    2239431
cpu0_L2C RFO          ACCESS:     890351 HIT:        944 MISS:     889407
cpu0_L2C PREFETCH     ACCESS:          0 HIT:          0 MISS:          0
cpu0_L2C WRITE        ACCESS:    1999245 HIT:    1998909 MISS:        336
cpu0_L2C TRANSLATION  ACCESS:      17089 HIT:      13728 MISS:       3361
cpu0_L2C PREFETCH REQUESTED:          0 ISSUED:          0 USEFUL:          0 USELESS:          0
cpu0_L2C AVERAGE MISS LATENCY: 1072 cycles
cpu0_STLB TOTAL        ACCESS:     297097 HIT:     250362 MISS:      46735
cpu0_STLB LOAD         ACCESS:     297097 HIT:     250362 MISS:      46735
cpu0_STLB RFO          ACCESS:          0 HIT:          0 MISS:          0
cpu0_STLB PREFETCH     ACCESS:          0 HIT:          0 MISS:          0
cpu0_STLB WRITE        ACCESS:          0 HIT:          0 MISS:          0
cpu0_STLB TRANSLATION  ACCESS:          0 HIT:          0 MISS:          0
cpu0_STLB PREFETCH REQUESTED:          0 ISSUED:          0 USEFUL:          0 USELESS:          0
cpu0_STLB AVERAGE MISS LATENCY: 309.2 cycles

DRAM Statistics

Channel 0 RQ ROW_BUFFER_HIT:     685251
  ROW_BUFFER_MISS:    1754256
 AVG DBUS CONGESTED CYCLE: 3.972
WQ ROW_BUFFER_HIT: Channel 0 
  ROW_BUFFER_MISS:     451060
  FULL:    1179538
Final OPTGen Hits: 14093
Final OPTGen Access: 52304
Final OPTGEN Hit Rate: 26.9445
