WARNING: physical memory size is smaller than virtual memory size.

*** ChampSim Multicore Out-of-Order Simulator ***
Warmup Instructions: 50000000
Simulation Instructions: 600000000
Number of CPUs: 1
Page size: 4096

Off-chip DRAM Size: 4 GiB Channels: 1 Width: 64-bit Data Race: 3200 MT/s
Heartbeat CPU 0 instructions: 10000000 cycles: 2881042 heartbeat IPC: 3.471 cumulative IPC: 3.471 (Simulation time: 00 hr 00 min 15 sec)
Heartbeat CPU 0 instructions: 20000000 cycles: 5381042 heartbeat IPC: 4 cumulative IPC: 3.717 (Simulation time: 00 hr 00 min 36 sec)
Heartbeat CPU 0 instructions: 30000000 cycles: 7881042 heartbeat IPC: 4 cumulative IPC: 3.807 (Simulation time: 00 hr 01 min 03 sec)
Heartbeat CPU 0 instructions: 40000000 cycles: 10381042 heartbeat IPC: 4 cumulative IPC: 3.853 (Simulation time: 00 hr 01 min 34 sec)
Heartbeat CPU 0 instructions: 50000000 cycles: 12881042 heartbeat IPC: 4 cumulative IPC: 3.882 (Simulation time: 00 hr 02 min 04 sec)
Warmup finished CPU 0 instructions: 50000000 cycles: 12881043 cumulative IPC: 3.882 (Simulation time: 00 hr 02 min 04 sec)
Warmup complete CPU 0 instructions: 50000000 cycles: 12881043 cumulative IPC: 3.882 (Simulation time: 00 hr 02 min 04 sec)
Heartbeat CPU 0 instructions: 60000004 cycles: 15383651 heartbeat IPC: 3.996 cumulative IPC: 3.996 (Simulation time: 00 hr 02 min 41 sec)
Heartbeat CPU 0 instructions: 70000002 cycles: 17886014 heartbeat IPC: 3.996 cumulative IPC: 3.996 (Simulation time: 00 hr 03 min 18 sec)
Heartbeat CPU 0 instructions: 80000002 cycles: 20388734 heartbeat IPC: 3.996 cumulative IPC: 3.996 (Simulation time: 00 hr 03 min 57 sec)
Heartbeat CPU 0 instructions: 90000004 cycles: 22891157 heartbeat IPC: 3.996 cumulative IPC: 3.996 (Simulation time: 00 hr 04 min 36 sec)
Heartbeat CPU 0 instructions: 100000000 cycles: 25393562 heartbeat IPC: 3.996 cumulative IPC: 3.996 (Simulation time: 00 hr 05 min 14 sec)
Heartbeat CPU 0 instructions: 110000002 cycles: 27895968 heartbeat IPC: 3.996 cumulative IPC: 3.996 (Simulation time: 00 hr 05 min 52 sec)
Heartbeat CPU 0 instructions: 120000000 cycles: 30398365 heartbeat IPC: 3.996 cumulative IPC: 3.996 (Simulation time: 00 hr 06 min 29 sec)
Heartbeat CPU 0 instructions: 130000002 cycles: 32900816 heartbeat IPC: 3.996 cumulative IPC: 3.996 (Simulation time: 00 hr 07 min 05 sec)
Heartbeat CPU 0 instructions: 140000004 cycles: 35403225 heartbeat IPC: 3.996 cumulative IPC: 3.996 (Simulation time: 00 hr 07 min 42 sec)
Heartbeat CPU 0 instructions: 150000000 cycles: 37905587 heartbeat IPC: 3.996 cumulative IPC: 3.996 (Simulation time: 00 hr 08 min 17 sec)
Heartbeat CPU 0 instructions: 160000003 cycles: 40407994 heartbeat IPC: 3.996 cumulative IPC: 3.996 (Simulation time: 00 hr 08 min 53 sec)
Heartbeat CPU 0 instructions: 170000002 cycles: 42910458 heartbeat IPC: 3.996 cumulative IPC: 3.996 (Simulation time: 00 hr 09 min 29 sec)
Heartbeat CPU 0 instructions: 180000000 cycles: 45412821 heartbeat IPC: 3.996 cumulative IPC: 3.996 (Simulation time: 00 hr 10 min 04 sec)
Heartbeat CPU 0 instructions: 190000003 cycles: 47915175 heartbeat IPC: 3.996 cumulative IPC: 3.996 (Simulation time: 00 hr 10 min 40 sec)
Heartbeat CPU 0 instructions: 200000000 cycles: 50417627 heartbeat IPC: 3.996 cumulative IPC: 3.996 (Simulation time: 00 hr 11 min 16 sec)
Heartbeat CPU 0 instructions: 210000000 cycles: 52920032 heartbeat IPC: 3.996 cumulative IPC: 3.996 (Simulation time: 00 hr 11 min 52 sec)
Heartbeat CPU 0 instructions: 220000003 cycles: 55422486 heartbeat IPC: 3.996 cumulative IPC: 3.996 (Simulation time: 00 hr 12 min 27 sec)
Heartbeat CPU 0 instructions: 230000001 cycles: 90149106 heartbeat IPC: 0.288 cumulative IPC: 2.33 (Simulation time: 00 hr 15 min 54 sec)
Heartbeat CPU 0 instructions: 240000002 cycles: 94508687 heartbeat IPC: 2.294 cumulative IPC: 2.328 (Simulation time: 00 hr 16 min 45 sec)
Heartbeat CPU 0 instructions: 250000000 cycles: 98885819 heartbeat IPC: 2.285 cumulative IPC: 2.325 (Simulation time: 00 hr 17 min 36 sec)
Heartbeat CPU 0 instructions: 260000004 cycles: 103317444 heartbeat IPC: 2.257 cumulative IPC: 2.322 (Simulation time: 00 hr 18 min 27 sec)
Heartbeat CPU 0 instructions: 270000003 cycles: 107746992 heartbeat IPC: 2.258 cumulative IPC: 2.319 (Simulation time: 00 hr 19 min 20 sec)
Heartbeat CPU 0 instructions: 280000001 cycles: 112182094 heartbeat IPC: 2.255 cumulative IPC: 2.316 (Simulation time: 00 hr 20 min 12 sec)
Heartbeat CPU 0 instructions: 290000000 cycles: 116614833 heartbeat IPC: 2.256 cumulative IPC: 2.314 (Simulation time: 00 hr 21 min 05 sec)
Heartbeat CPU 0 instructions: 300000003 cycles: 121060413 heartbeat IPC: 2.249 cumulative IPC: 2.311 (Simulation time: 00 hr 21 min 57 sec)
Heartbeat CPU 0 instructions: 310000002 cycles: 125492141 heartbeat IPC: 2.256 cumulative IPC: 2.309 (Simulation time: 00 hr 22 min 49 sec)
Heartbeat CPU 0 instructions: 320000002 cycles: 129903035 heartbeat IPC: 2.267 cumulative IPC: 2.307 (Simulation time: 00 hr 23 min 40 sec)
Heartbeat CPU 0 instructions: 330000002 cycles: 133635865 heartbeat IPC: 2.679 cumulative IPC: 2.319 (Simulation time: 00 hr 24 min 26 sec)
Heartbeat CPU 0 instructions: 340000002 cycles: 136993448 heartbeat IPC: 2.978 cumulative IPC: 2.337 (Simulation time: 00 hr 25 min 09 sec)
Heartbeat CPU 0 instructions: 350000002 cycles: 140269801 heartbeat IPC: 3.052 cumulative IPC: 2.355 (Simulation time: 00 hr 25 min 51 sec)
Heartbeat CPU 0 instructions: 360000000 cycles: 143715364 heartbeat IPC: 2.902 cumulative IPC: 2.369 (Simulation time: 00 hr 26 min 35 sec)
Heartbeat CPU 0 instructions: 370000001 cycles: 146950447 heartbeat IPC: 3.091 cumulative IPC: 2.387 (Simulation time: 00 hr 27 min 17 sec)
Heartbeat CPU 0 instructions: 380000003 cycles: 150439441 heartbeat IPC: 2.866 cumulative IPC: 2.399 (Simulation time: 00 hr 28 min 00 sec)
Heartbeat CPU 0 instructions: 390000002 cycles: 153785566 heartbeat IPC: 2.989 cumulative IPC: 2.413 (Simulation time: 00 hr 28 min 43 sec)
Heartbeat CPU 0 instructions: 400000000 cycles: 157100141 heartbeat IPC: 3.017 cumulative IPC: 2.427 (Simulation time: 00 hr 29 min 27 sec)
Heartbeat CPU 0 instructions: 410000002 cycles: 160428158 heartbeat IPC: 3.005 cumulative IPC: 2.44 (Simulation time: 00 hr 30 min 09 sec)
Heartbeat CPU 0 instructions: 420000000 cycles: 163788409 heartbeat IPC: 2.976 cumulative IPC: 2.452 (Simulation time: 00 hr 30 min 52 sec)
Heartbeat CPU 0 instructions: 430000002 cycles: 166800745 heartbeat IPC: 3.32 cumulative IPC: 2.469 (Simulation time: 00 hr 31 min 33 sec)
Heartbeat CPU 0 instructions: 440000002 cycles: 169983529 heartbeat IPC: 3.142 cumulative IPC: 2.482 (Simulation time: 00 hr 32 min 15 sec)
Heartbeat CPU 0 instructions: 450000000 cycles: 173498260 heartbeat IPC: 2.845 cumulative IPC: 2.49 (Simulation time: 00 hr 32 min 59 sec)
Heartbeat CPU 0 instructions: 460000003 cycles: 177015512 heartbeat IPC: 2.843 cumulative IPC: 2.498 (Simulation time: 00 hr 33 min 43 sec)
Heartbeat CPU 0 instructions: 470000004 cycles: 180528779 heartbeat IPC: 2.846 cumulative IPC: 2.505 (Simulation time: 00 hr 34 min 27 sec)
Heartbeat CPU 0 instructions: 480000000 cycles: 183995057 heartbeat IPC: 2.885 cumulative IPC: 2.513 (Simulation time: 00 hr 35 min 10 sec)
Heartbeat CPU 0 instructions: 490000001 cycles: 187658901 heartbeat IPC: 2.729 cumulative IPC: 2.517 (Simulation time: 00 hr 35 min 55 sec)
Heartbeat CPU 0 instructions: 500000000 cycles: 191109857 heartbeat IPC: 2.898 cumulative IPC: 2.525 (Simulation time: 00 hr 36 min 39 sec)
Heartbeat CPU 0 instructions: 510000002 cycles: 194779544 heartbeat IPC: 2.725 cumulative IPC: 2.529 (Simulation time: 00 hr 37 min 25 sec)
Heartbeat CPU 0 instructions: 520000000 cycles: 259378692 heartbeat IPC: 0.1548 cumulative IPC: 1.907 (Simulation time: 00 hr 45 min 29 sec)
Heartbeat CPU 0 instructions: 530000001 cycles: 374382102 heartbeat IPC: 0.08695 cumulative IPC: 1.328 (Simulation time: 00 hr 59 min 58 sec)
Heartbeat CPU 0 instructions: 540000000 cycles: 402417159 heartbeat IPC: 0.3567 cumulative IPC: 1.258 (Simulation time: 01 hr 03 min 48 sec)
Heartbeat CPU 0 instructions: 550000003 cycles: 430656464 heartbeat IPC: 0.3541 cumulative IPC: 1.197 (Simulation time: 01 hr 07 min 38 sec)
Heartbeat CPU 0 instructions: 560000001 cycles: 458894887 heartbeat IPC: 0.3541 cumulative IPC: 1.143 (Simulation time: 01 hr 11 min 27 sec)
Heartbeat CPU 0 instructions: 570000001 cycles: 487095884 heartbeat IPC: 0.3546 cumulative IPC: 1.097 (Simulation time: 01 hr 15 min 20 sec)
Heartbeat CPU 0 instructions: 580000002 cycles: 516480195 heartbeat IPC: 0.3403 cumulative IPC: 1.052 (Simulation time: 01 hr 19 min 31 sec)
Heartbeat CPU 0 instructions: 590000001 cycles: 545708359 heartbeat IPC: 0.3421 cumulative IPC: 1.013 (Simulation time: 01 hr 23 min 33 sec)
*** Reached end of trace: (0, "traces/bt.A.champsimtrace")
Heartbeat CPU 0 instructions: 600000001 cycles: 574788198 heartbeat IPC: 0.3439 cumulative IPC: 0.9788 (Simulation time: 01 hr 27 min 35 sec)
Heartbeat CPU 0 instructions: 610000004 cycles: 602244971 heartbeat IPC: 0.3642 cumulative IPC: 0.9502 (Simulation time: 01 hr 30 min 22 sec)
Heartbeat CPU 0 instructions: 620000000 cycles: 604747391 heartbeat IPC: 3.996 cumulative IPC: 0.9631 (Simulation time: 01 hr 30 min 59 sec)
Heartbeat CPU 0 instructions: 630000002 cycles: 607249799 heartbeat IPC: 3.996 cumulative IPC: 0.9758 (Simulation time: 01 hr 31 min 35 sec)
Heartbeat CPU 0 instructions: 640000000 cycles: 609752207 heartbeat IPC: 3.996 cumulative IPC: 0.9885 (Simulation time: 01 hr 32 min 15 sec)
Heartbeat CPU 0 instructions: 650000002 cycles: 612254604 heartbeat IPC: 3.996 cumulative IPC: 1.001 (Simulation time: 01 hr 32 min 55 sec)
Simulation finished CPU 0 instructions: 600000002 cycles: 599373562 cumulative IPC: 1.001 (Simulation time: 01 hr 32 min 55 sec)
Simulation complete CPU 0 instructions: 600000002 cycles: 599373562 cumulative IPC: 1.001 (Simulation time: 01 hr 32 min 55 sec)

ChampSim completed all CPUs

=== Simulation ===
CPU 0 runs traces/bt.A.champsimtrace
Region of Interest Statistics

CPU 0 cumulative IPC: 1.001 instructions: 600000002 cycles: 599373562
CPU 0 Branch Prediction Accuracy: 99.29% MPKI: 0.1288 Average ROB Occupancy at Mispredict: 279.9
Branch type MPKI
BRANCH_DIRECT_JUMP: 5e-06
BRANCH_INDIRECT: 7.83e-05
BRANCH_CONDITIONAL: 0.129
BRANCH_DIRECT_CALL: 6.67e-06
BRANCH_INDIRECT_CALL: 3.67e-05
BRANCH_RETURN: 2.33e-05

LLC TOTAL        ACCESS:    7362128 HIT:    3631860 MISS:    3730268
LLC LOAD         ACCESS:    2240351 HIT:    1138285 MISS:    1102066
LLC RFO          ACCESS:     889446 HIT:       6968 MISS:     882478
LLC PREFETCH     ACCESS:    2240351 HIT:     496521 MISS:    1743830
LLC WRITE        ACCESS:    1988608 HIT:    1988480 MISS:        128
LLC TRANSLATION  ACCESS:       3372 HIT:       1606 MISS:       1766
LLC PREFETCH REQUESTED:    2240351 ISSUED:    2240351 USEFUL:    1467039 USELESS:      25203
LLC AVERAGE MISS LATENCY: 1133 cycles
cpu0_DTLB TOTAL        ACCESS:  128653949 HIT:  127895949 MISS:     758000
cpu0_DTLB LOAD         ACCESS:  128653949 HIT:  127895949 MISS:     758000
cpu0_DTLB RFO          ACCESS:          0 HIT:          0 MISS:          0
cpu0_DTLB PREFETCH     ACCESS:          0 HIT:          0 MISS:          0
cpu0_DTLB WRITE        ACCESS:          0 HIT:          0 MISS:          0
cpu0_DTLB TRANSLATION  ACCESS:          0 HIT:          0 MISS:          0
cpu0_DTLB PREFETCH REQUESTED:          0 ISSUED:          0 USEFUL:          0 USELESS:          0
cpu0_DTLB AVERAGE MISS LATENCY: 14.02 cycles
cpu0_ITLB TOTAL        ACCESS:     141171 HIT:     140919 MISS:        252
cpu0_ITLB LOAD         ACCESS:     141171 HIT:     140919 MISS:        252
cpu0_ITLB RFO          ACCESS:          0 HIT:          0 MISS:          0
cpu0_ITLB PREFETCH     ACCESS:          0 HIT:          0 MISS:          0
cpu0_ITLB WRITE        ACCESS:          0 HIT:          0 MISS:          0
cpu0_ITLB TRANSLATION  ACCESS:          0 HIT:          0 MISS:          0
cpu0_ITLB PREFETCH REQUESTED:          0 ISSUED:          0 USEFUL:          0 USELESS:          0
cpu0_ITLB AVERAGE MISS LATENCY: 282.5 cycles
cpu0_L1D TOTAL        ACCESS:  196909814 HIT:  183370927 MISS:   13538887
cpu0_L1D LOAD         ACCESS:  162227527 HIT:  152828394 MISS:    9399133
cpu0_L1D RFO          ACCESS:          0 HIT:          0 MISS:          0
cpu0_L1D PREFETCH     ACCESS:          0 HIT:          0 MISS:          0
cpu0_L1D WRITE        ACCESS:   34635512 HIT:   30512868 MISS:    4122644
cpu0_L1D TRANSLATION  ACCESS:      46775 HIT:      29665 MISS:      17110
cpu0_L1D PREFETCH REQUESTED:          0 ISSUED:          0 USEFUL:          0 USELESS:          0
cpu0_L1D AVERAGE MISS LATENCY: 156.1 cycles
cpu0_L1I TOTAL        ACCESS:     190500 HIT:     187766 MISS:       2734
cpu0_L1I LOAD         ACCESS:     190500 HIT:     187766 MISS:       2734
cpu0_L1I RFO          ACCESS:          0 HIT:          0 MISS:          0
cpu0_L1I PREFETCH     ACCESS:          0 HIT:          0 MISS:          0
cpu0_L1I WRITE        ACCESS:          0 HIT:          0 MISS:          0
cpu0_L1I TRANSLATION  ACCESS:          0 HIT:          0 MISS:          0
cpu0_L1I PREFETCH REQUESTED:          0 ISSUED:          0 USEFUL:          0 USELESS:          0
cpu0_L1I AVERAGE MISS LATENCY: 454.3 cycles
cpu0_L2C TOTAL        ACCESS:    5265691 HIT:    2132022 MISS:    3133669
cpu0_L2C LOAD         ACCESS:    2359577 HIT:     119182 MISS:    2240395
cpu0_L2C RFO          ACCESS:     889973 HIT:        527 MISS:     889446
cpu0_L2C PREFETCH     ACCESS:          0 HIT:          0 MISS:          0
cpu0_L2C WRITE        ACCESS:    1999035 HIT:    1998579 MISS:        456
cpu0_L2C TRANSLATION  ACCESS:      17106 HIT:      13734 MISS:       3372
cpu0_L2C PREFETCH REQUESTED:          0 ISSUED:          0 USEFUL:          0 USELESS:          0
cpu0_L2C AVERAGE MISS LATENCY: 880.9 cycles
cpu0_STLB TOTAL        ACCESS:     311353 HIT:     264601 MISS:      46752
cpu0_STLB LOAD         ACCESS:     311353 HIT:     264601 MISS:      46752
cpu0_STLB RFO          ACCESS:          0 HIT:          0 MISS:          0
cpu0_STLB PREFETCH     ACCESS:          0 HIT:          0 MISS:          0
cpu0_STLB WRITE        ACCESS:          0 HIT:          0 MISS:          0
cpu0_STLB TRANSLATION  ACCESS:          0 HIT:          0 MISS:          0
cpu0_STLB PREFETCH REQUESTED:          0 ISSUED:          0 USEFUL:          0 USELESS:          0
cpu0_STLB AVERAGE MISS LATENCY: 305.1 cycles

DRAM Statistics

Channel 0 RQ ROW_BUFFER_HIT:     717956
  ROW_BUFFER_MISS:    1941533
 AVG DBUS CONGESTED CYCLE: 3.978
WQ ROW_BUFFER_HIT: Channel 0 
  ROW_BUFFER_MISS:     458031
  FULL:    1273477
