WARNING: physical memory size is smaller than virtual memory size.

*** ChampSim Multicore Out-of-Order Simulator ***
Warmup Instructions: 50000000
Simulation Instructions: 600000000
Number of CPUs: 1
Page size: 4096

Off-chip DRAM Size: 4 GiB Channels: 1 Width: 64-bit Data Race: 3200 MT/s
Heartbeat CPU 0 instructions: 10000000 cycles: 2881040 heartbeat IPC: 3.471 cumulative IPC: 3.471 (Simulation time: 00 hr 00 min 37 sec)
Heartbeat CPU 0 instructions: 20000000 cycles: 5381040 heartbeat IPC: 4 cumulative IPC: 3.717 (Simulation time: 00 hr 01 min 09 sec)
Heartbeat CPU 0 instructions: 30000000 cycles: 7881040 heartbeat IPC: 4 cumulative IPC: 3.807 (Simulation time: 00 hr 01 min 42 sec)
Heartbeat CPU 0 instructions: 40000000 cycles: 10381040 heartbeat IPC: 4 cumulative IPC: 3.853 (Simulation time: 00 hr 02 min 14 sec)
Heartbeat CPU 0 instructions: 50000000 cycles: 12881040 heartbeat IPC: 4 cumulative IPC: 3.882 (Simulation time: 00 hr 02 min 45 sec)
Warmup finished CPU 0 instructions: 50000000 cycles: 12881041 cumulative IPC: 3.882 (Simulation time: 00 hr 02 min 45 sec)
Warmup complete CPU 0 instructions: 50000000 cycles: 12881041 cumulative IPC: 3.882 (Simulation time: 00 hr 02 min 45 sec)
Heartbeat CPU 0 instructions: 60000004 cycles: 15383452 heartbeat IPC: 3.996 cumulative IPC: 3.996 (Simulation time: 00 hr 03 min 23 sec)
Heartbeat CPU 0 instructions: 70000002 cycles: 17887213 heartbeat IPC: 3.994 cumulative IPC: 3.995 (Simulation time: 00 hr 04 min 00 sec)
Heartbeat CPU 0 instructions: 80000002 cycles: 20390195 heartbeat IPC: 3.995 cumulative IPC: 3.995 (Simulation time: 00 hr 04 min 37 sec)
Heartbeat CPU 0 instructions: 90000004 cycles: 22892618 heartbeat IPC: 3.996 cumulative IPC: 3.995 (Simulation time: 00 hr 05 min 14 sec)
Heartbeat CPU 0 instructions: 100000000 cycles: 25395319 heartbeat IPC: 3.996 cumulative IPC: 3.995 (Simulation time: 00 hr 05 min 51 sec)
Heartbeat CPU 0 instructions: 110000002 cycles: 27897725 heartbeat IPC: 3.996 cumulative IPC: 3.996 (Simulation time: 00 hr 06 min 29 sec)
Heartbeat CPU 0 instructions: 120000000 cycles: 30400452 heartbeat IPC: 3.996 cumulative IPC: 3.996 (Simulation time: 00 hr 07 min 08 sec)
Heartbeat CPU 0 instructions: 130000002 cycles: 32904670 heartbeat IPC: 3.993 cumulative IPC: 3.995 (Simulation time: 00 hr 07 min 45 sec)
Heartbeat CPU 0 instructions: 140000004 cycles: 35407587 heartbeat IPC: 3.995 cumulative IPC: 3.995 (Simulation time: 00 hr 08 min 23 sec)
Heartbeat CPU 0 instructions: 150000000 cycles: 37909949 heartbeat IPC: 3.996 cumulative IPC: 3.995 (Simulation time: 00 hr 09 min 01 sec)
Heartbeat CPU 0 instructions: 160000003 cycles: 40413675 heartbeat IPC: 3.994 cumulative IPC: 3.995 (Simulation time: 00 hr 09 min 39 sec)
Heartbeat CPU 0 instructions: 170000002 cycles: 42917106 heartbeat IPC: 3.995 cumulative IPC: 3.995 (Simulation time: 00 hr 10 min 17 sec)
Heartbeat CPU 0 instructions: 180000000 cycles: 45419469 heartbeat IPC: 3.996 cumulative IPC: 3.995 (Simulation time: 00 hr 10 min 54 sec)
Heartbeat CPU 0 instructions: 190000003 cycles: 47921823 heartbeat IPC: 3.996 cumulative IPC: 3.995 (Simulation time: 00 hr 11 min 33 sec)
Heartbeat CPU 0 instructions: 200000000 cycles: 50424407 heartbeat IPC: 3.996 cumulative IPC: 3.995 (Simulation time: 00 hr 12 min 12 sec)
Heartbeat CPU 0 instructions: 210000000 cycles: 52926981 heartbeat IPC: 3.996 cumulative IPC: 3.995 (Simulation time: 00 hr 12 min 49 sec)
Heartbeat CPU 0 instructions: 220000003 cycles: 55429435 heartbeat IPC: 3.996 cumulative IPC: 3.995 (Simulation time: 00 hr 13 min 27 sec)
Heartbeat CPU 0 instructions: 230000001 cycles: 89715739 heartbeat IPC: 0.2917 cumulative IPC: 2.343 (Simulation time: 00 hr 17 min 11 sec)
Heartbeat CPU 0 instructions: 240000002 cycles: 94127292 heartbeat IPC: 2.267 cumulative IPC: 2.339 (Simulation time: 00 hr 18 min 06 sec)
Heartbeat CPU 0 instructions: 250000000 cycles: 98602752 heartbeat IPC: 2.234 cumulative IPC: 2.333 (Simulation time: 00 hr 19 min 04 sec)
Heartbeat CPU 0 instructions: 260000004 cycles: 103105213 heartbeat IPC: 2.221 cumulative IPC: 2.328 (Simulation time: 00 hr 20 min 00 sec)
Heartbeat CPU 0 instructions: 270000003 cycles: 107599474 heartbeat IPC: 2.225 cumulative IPC: 2.323 (Simulation time: 00 hr 21 min 00 sec)
Heartbeat CPU 0 instructions: 280000001 cycles: 112149889 heartbeat IPC: 2.198 cumulative IPC: 2.317 (Simulation time: 00 hr 21 min 55 sec)
Heartbeat CPU 0 instructions: 290000000 cycles: 116657733 heartbeat IPC: 2.218 cumulative IPC: 2.313 (Simulation time: 00 hr 22 min 50 sec)
Heartbeat CPU 0 instructions: 300000003 cycles: 121217503 heartbeat IPC: 2.193 cumulative IPC: 2.308 (Simulation time: 00 hr 23 min 45 sec)
Heartbeat CPU 0 instructions: 310000002 cycles: 125741213 heartbeat IPC: 2.211 cumulative IPC: 2.304 (Simulation time: 00 hr 24 min 39 sec)
Heartbeat CPU 0 instructions: 320000002 cycles: 130304390 heartbeat IPC: 2.191 cumulative IPC: 2.299 (Simulation time: 00 hr 25 min 37 sec)
Heartbeat CPU 0 instructions: 330000002 cycles: 134229949 heartbeat IPC: 2.547 cumulative IPC: 2.307 (Simulation time: 00 hr 26 min 27 sec)
Heartbeat CPU 0 instructions: 340000002 cycles: 137613677 heartbeat IPC: 2.955 cumulative IPC: 2.325 (Simulation time: 00 hr 27 min 15 sec)
Heartbeat CPU 0 instructions: 350000002 cycles: 140978868 heartbeat IPC: 2.972 cumulative IPC: 2.342 (Simulation time: 00 hr 28 min 02 sec)
Heartbeat CPU 0 instructions: 360000000 cycles: 144429468 heartbeat IPC: 2.898 cumulative IPC: 2.357 (Simulation time: 00 hr 28 min 49 sec)
Heartbeat CPU 0 instructions: 370000001 cycles: 147854945 heartbeat IPC: 2.919 cumulative IPC: 2.371 (Simulation time: 00 hr 29 min 38 sec)
Heartbeat CPU 0 instructions: 380000003 cycles: 151305154 heartbeat IPC: 2.898 cumulative IPC: 2.384 (Simulation time: 00 hr 30 min 24 sec)
Heartbeat CPU 0 instructions: 390000002 cycles: 154710275 heartbeat IPC: 2.937 cumulative IPC: 2.397 (Simulation time: 00 hr 31 min 11 sec)
Heartbeat CPU 0 instructions: 400000000 cycles: 158188926 heartbeat IPC: 2.875 cumulative IPC: 2.409 (Simulation time: 00 hr 31 min 57 sec)
Heartbeat CPU 0 instructions: 410000000 cycles: 161588291 heartbeat IPC: 2.942 cumulative IPC: 2.421 (Simulation time: 00 hr 32 min 42 sec)
Heartbeat CPU 0 instructions: 420000000 cycles: 165089135 heartbeat IPC: 2.856 cumulative IPC: 2.431 (Simulation time: 00 hr 33 min 27 sec)
Heartbeat CPU 0 instructions: 430000001 cycles: 168673934 heartbeat IPC: 2.79 cumulative IPC: 2.439 (Simulation time: 00 hr 34 min 13 sec)
Heartbeat CPU 0 instructions: 440000002 cycles: 172288814 heartbeat IPC: 2.766 cumulative IPC: 2.447 (Simulation time: 00 hr 35 min 01 sec)
Heartbeat CPU 0 instructions: 450000000 cycles: 175910295 heartbeat IPC: 2.761 cumulative IPC: 2.454 (Simulation time: 00 hr 35 min 52 sec)
Heartbeat CPU 0 instructions: 460000003 cycles: 179602520 heartbeat IPC: 2.708 cumulative IPC: 2.459 (Simulation time: 00 hr 36 min 40 sec)
Heartbeat CPU 0 instructions: 470000004 cycles: 183215042 heartbeat IPC: 2.768 cumulative IPC: 2.466 (Simulation time: 00 hr 37 min 35 sec)
Heartbeat CPU 0 instructions: 480000000 cycles: 186900654 heartbeat IPC: 2.713 cumulative IPC: 2.471 (Simulation time: 00 hr 38 min 33 sec)
Heartbeat CPU 0 instructions: 490000001 cycles: 190543732 heartbeat IPC: 2.745 cumulative IPC: 2.477 (Simulation time: 00 hr 39 min 26 sec)
Heartbeat CPU 0 instructions: 500000000 cycles: 194235327 heartbeat IPC: 2.709 cumulative IPC: 2.481 (Simulation time: 00 hr 40 min 20 sec)
Heartbeat CPU 0 instructions: 510000002 cycles: 197930664 heartbeat IPC: 2.706 cumulative IPC: 2.486 (Simulation time: 00 hr 41 min 12 sec)
Heartbeat CPU 0 instructions: 520000000 cycles: 255954630 heartbeat IPC: 0.1723 cumulative IPC: 1.934 (Simulation time: 00 hr 49 min 39 sec)
Heartbeat CPU 0 instructions: 530000000 cycles: 366271415 heartbeat IPC: 0.09065 cumulative IPC: 1.358 (Simulation time: 01 hr 04 min 30 sec)
Heartbeat CPU 0 instructions: 540000001 cycles: 398738809 heartbeat IPC: 0.308 cumulative IPC: 1.27 (Simulation time: 01 hr 09 min 08 sec)
Heartbeat CPU 0 instructions: 550000003 cycles: 435693318 heartbeat IPC: 0.2706 cumulative IPC: 1.183 (Simulation time: 01 hr 14 min 10 sec)
Heartbeat CPU 0 instructions: 560000001 cycles: 472306475 heartbeat IPC: 0.2731 cumulative IPC: 1.11 (Simulation time: 01 hr 19 min 16 sec)
Heartbeat CPU 0 instructions: 570000001 cycles: 509149117 heartbeat IPC: 0.2714 cumulative IPC: 1.048 (Simulation time: 01 hr 24 min 39 sec)
Heartbeat CPU 0 instructions: 580000003 cycles: 537859792 heartbeat IPC: 0.3483 cumulative IPC: 1.01 (Simulation time: 01 hr 29 min 14 sec)
Heartbeat CPU 0 instructions: 590000001 cycles: 574969226 heartbeat IPC: 0.2695 cumulative IPC: 0.9607 (Simulation time: 01 hr 34 min 50 sec)
*** Reached end of trace: (0, "traces/bt.A.champsimtrace")
Heartbeat CPU 0 instructions: 600000002 cycles: 611786764 heartbeat IPC: 0.2716 cumulative IPC: 0.9183 (Simulation time: 01 hr 40 min 02 sec)
Heartbeat CPU 0 instructions: 610000004 cycles: 636441382 heartbeat IPC: 0.4056 cumulative IPC: 0.8981 (Simulation time: 01 hr 42 min 51 sec)
Heartbeat CPU 0 instructions: 620000000 cycles: 638943712 heartbeat IPC: 3.996 cumulative IPC: 0.9105 (Simulation time: 01 hr 43 min 34 sec)
Heartbeat CPU 0 instructions: 630000002 cycles: 641446030 heartbeat IPC: 3.996 cumulative IPC: 0.9227 (Simulation time: 01 hr 44 min 13 sec)
Heartbeat CPU 0 instructions: 640000000 cycles: 643948348 heartbeat IPC: 3.996 cumulative IPC: 0.9349 (Simulation time: 01 hr 44 min 50 sec)
Heartbeat CPU 0 instructions: 650000002 cycles: 646450744 heartbeat IPC: 3.996 cumulative IPC: 0.947 (Simulation time: 01 hr 45 min 27 sec)
Simulation finished CPU 0 instructions: 600000002 cycles: 633569704 cumulative IPC: 0.947 (Simulation time: 01 hr 45 min 27 sec)
Simulation complete CPU 0 instructions: 600000002 cycles: 633569704 cumulative IPC: 0.947 (Simulation time: 01 hr 45 min 27 sec)

ChampSim completed all CPUs

=== Simulation ===
CPU 0 runs traces/bt.A.champsimtrace
Region of Interest Statistics

CPU 0 cumulative IPC: 0.947 instructions: 600000002 cycles: 633569704
CPU 0 Branch Prediction Accuracy: 99.29% MPKI: 0.1288 Average ROB Occupancy at Mispredict: 280
Branch type MPKI
BRANCH_DIRECT_JUMP: 5e-06
BRANCH_INDIRECT: 7.83e-05
BRANCH_CONDITIONAL: 0.129
BRANCH_DIRECT_CALL: 6.67e-06
BRANCH_INDIRECT_CALL: 3.67e-05
BRANCH_RETURN: 2.33e-05

LLC TOTAL        ACCESS:    7360973 HIT:    1436573 MISS:    5924400
LLC LOAD         ACCESS:    2239934 HIT:     969006 MISS:    1270928
LLC RFO          ACCESS:     889447 HIT:      59781 MISS:     829666
LLC PREFETCH     ACCESS:    2240053 HIT:     309367 MISS:    1930686
LLC WRITE        ACCESS:    1988167 HIT:      98328 MISS:    1889839
LLC TRANSLATION  ACCESS:       3372 HIT:         91 MISS:       3281
LLC PREFETCH REQUESTED:    2242528 ISSUED:    2240053 USEFUL:    1518936 USELESS:      44964
LLC AVERAGE MISS LATENCY: 781.5 cycles
cpu0_DTLB TOTAL        ACCESS:  128041307 HIT:  127285248 MISS:     756059
cpu0_DTLB LOAD         ACCESS:  128041307 HIT:  127285248 MISS:     756059
cpu0_DTLB RFO          ACCESS:          0 HIT:          0 MISS:          0
cpu0_DTLB PREFETCH     ACCESS:          0 HIT:          0 MISS:          0
cpu0_DTLB WRITE        ACCESS:          0 HIT:          0 MISS:          0
cpu0_DTLB TRANSLATION  ACCESS:          0 HIT:          0 MISS:          0
cpu0_DTLB PREFETCH REQUESTED:          0 ISSUED:          0 USEFUL:          0 USELESS:          0
cpu0_DTLB AVERAGE MISS LATENCY: 17.5 cycles
cpu0_ITLB TOTAL        ACCESS:     142173 HIT:     141932 MISS:        241
cpu0_ITLB LOAD         ACCESS:     142173 HIT:     141932 MISS:        241
cpu0_ITLB RFO          ACCESS:          0 HIT:          0 MISS:          0
cpu0_ITLB PREFETCH     ACCESS:          0 HIT:          0 MISS:          0
cpu0_ITLB WRITE        ACCESS:          0 HIT:          0 MISS:          0
cpu0_ITLB TRANSLATION  ACCESS:          0 HIT:          0 MISS:          0
cpu0_ITLB PREFETCH REQUESTED:          0 ISSUED:          0 USEFUL:          0 USELESS:          0
cpu0_ITLB AVERAGE MISS LATENCY: 360.3 cycles
cpu0_L1D TOTAL        ACCESS:  196118093 HIT:  182655935 MISS:   13462158
cpu0_L1D LOAD         ACCESS:  161435845 HIT:  152079649 MISS:    9356196
cpu0_L1D RFO          ACCESS:          0 HIT:          0 MISS:          0
cpu0_L1D PREFETCH     ACCESS:          0 HIT:          0 MISS:          0
cpu0_L1D WRITE        ACCESS:   34635473 HIT:   30546583 MISS:    4088890
cpu0_L1D TRANSLATION  ACCESS:      46775 HIT:      29703 MISS:      17072
cpu0_L1D PREFETCH REQUESTED:          0 ISSUED:          0 USEFUL:          0 USELESS:          0
cpu0_L1D AVERAGE MISS LATENCY: 160.4 cycles
cpu0_L1I TOTAL        ACCESS:     191652 HIT:     188894 MISS:       2758
cpu0_L1I LOAD         ACCESS:     191652 HIT:     188894 MISS:       2758
cpu0_L1I RFO          ACCESS:          0 HIT:          0 MISS:          0
cpu0_L1I PREFETCH     ACCESS:          0 HIT:          0 MISS:          0
cpu0_L1I WRITE        ACCESS:          0 HIT:          0 MISS:          0
cpu0_L1I TRANSLATION  ACCESS:          0 HIT:          0 MISS:          0
cpu0_L1I PREFETCH REQUESTED:          0 ISSUED:          0 USEFUL:          0 USELESS:          0
cpu0_L1I AVERAGE MISS LATENCY: 504.2 cycles
cpu0_L2C TOTAL        ACCESS:    5264862 HIT:    2131641 MISS:    3133221
cpu0_L2C LOAD         ACCESS:    2358709 HIT:     118763 MISS:    2239946
cpu0_L2C RFO          ACCESS:     889976 HIT:        529 MISS:     889447
cpu0_L2C PREFETCH     ACCESS:          0 HIT:          0 MISS:          0
cpu0_L2C WRITE        ACCESS:    1999108 HIT:    1998652 MISS:        456
cpu0_L2C TRANSLATION  ACCESS:      17069 HIT:      13697 MISS:       3372
cpu0_L2C PREFETCH REQUESTED:          0 ISSUED:          0 USEFUL:          0 USELESS:          0
cpu0_L2C AVERAGE MISS LATENCY: 902.8 cycles
cpu0_STLB TOTAL        ACCESS:     311216 HIT:     264464 MISS:      46752
cpu0_STLB LOAD         ACCESS:     311216 HIT:     264464 MISS:      46752
cpu0_STLB RFO          ACCESS:          0 HIT:          0 MISS:          0
cpu0_STLB PREFETCH     ACCESS:          0 HIT:          0 MISS:          0
cpu0_STLB WRITE        ACCESS:          0 HIT:          0 MISS:          0
cpu0_STLB TRANSLATION  ACCESS:          0 HIT:          0 MISS:          0
cpu0_STLB PREFETCH REQUESTED:          0 ISSUED:          0 USEFUL:          0 USELESS:          0
cpu0_STLB AVERAGE MISS LATENCY: 391.1 cycles

DRAM Statistics

Channel 0 RQ ROW_BUFFER_HIT:     780534
  ROW_BUFFER_MISS:    2024504
 AVG DBUS CONGESTED CYCLE: 3.974
WQ ROW_BUFFER_HIT: Channel 0 
  ROW_BUFFER_MISS:     645433
  FULL:    1255969
