WARNING: physical memory size is smaller than virtual memory size.

*** ChampSim Multicore Out-of-Order Simulator ***
Warmup Instructions: 50000000
Simulation Instructions: 600000000
Number of CPUs: 1
Page size: 4096

Off-chip DRAM Size: 4 GiB Channels: 1 Width: 64-bit Data Race: 3200 MT/s
Heartbeat CPU 0 instructions: 10000003 cycles: 2881028 heartbeat IPC: 3.471 cumulative IPC: 3.471 (Simulation time: 00 hr 00 min 57 sec)
Heartbeat CPU 0 instructions: 20000003 cycles: 5381028 heartbeat IPC: 4 cumulative IPC: 3.717 (Simulation time: 00 hr 01 min 50 sec)
Heartbeat CPU 0 instructions: 30000003 cycles: 7881028 heartbeat IPC: 4 cumulative IPC: 3.807 (Simulation time: 00 hr 03 min 01 sec)
Heartbeat CPU 0 instructions: 40000003 cycles: 10381028 heartbeat IPC: 4 cumulative IPC: 3.853 (Simulation time: 00 hr 03 min 54 sec)
Heartbeat CPU 0 instructions: 50000003 cycles: 12881028 heartbeat IPC: 4 cumulative IPC: 3.882 (Simulation time: 00 hr 04 min 47 sec)
Warmup finished CPU 0 instructions: 50000003 cycles: 12881029 cumulative IPC: 3.882 (Simulation time: 00 hr 04 min 47 sec)
Warmup complete CPU 0 instructions: 50000003 cycles: 12881029 cumulative IPC: 3.882 (Simulation time: 00 hr 04 min 47 sec)
Heartbeat CPU 0 instructions: 60000004 cycles: 15383349 heartbeat IPC: 3.996 cumulative IPC: 3.996 (Simulation time: 00 hr 05 min 48 sec)
Heartbeat CPU 0 instructions: 70000000 cycles: 17885664 heartbeat IPC: 3.996 cumulative IPC: 3.996 (Simulation time: 00 hr 06 min 53 sec)
Heartbeat CPU 0 instructions: 80000002 cycles: 20387983 heartbeat IPC: 3.996 cumulative IPC: 3.996 (Simulation time: 00 hr 07 min 51 sec)
Heartbeat CPU 0 instructions: 90000004 cycles: 22890345 heartbeat IPC: 3.996 cumulative IPC: 3.996 (Simulation time: 00 hr 08 min 50 sec)
Heartbeat CPU 0 instructions: 100000004 cycles: 25393525 heartbeat IPC: 3.995 cumulative IPC: 3.996 (Simulation time: 00 hr 09 min 49 sec)
Heartbeat CPU 0 instructions: 110000000 cycles: 27896403 heartbeat IPC: 3.995 cumulative IPC: 3.996 (Simulation time: 00 hr 10 min 48 sec)
Heartbeat CPU 0 instructions: 120000003 cycles: 30399876 heartbeat IPC: 3.994 cumulative IPC: 3.996 (Simulation time: 00 hr 11 min 48 sec)
Heartbeat CPU 0 instructions: 130000000 cycles: 32903624 heartbeat IPC: 3.994 cumulative IPC: 3.995 (Simulation time: 00 hr 12 min 47 sec)
Heartbeat CPU 0 instructions: 140000001 cycles: 35407533 heartbeat IPC: 3.994 cumulative IPC: 3.995 (Simulation time: 00 hr 13 min 47 sec)
Heartbeat CPU 0 instructions: 150000000 cycles: 37909988 heartbeat IPC: 3.996 cumulative IPC: 3.995 (Simulation time: 00 hr 14 min 46 sec)
Heartbeat CPU 0 instructions: 160000001 cycles: 40413734 heartbeat IPC: 3.994 cumulative IPC: 3.995 (Simulation time: 00 hr 15 min 45 sec)
Heartbeat CPU 0 instructions: 170000002 cycles: 42916242 heartbeat IPC: 3.996 cumulative IPC: 3.995 (Simulation time: 00 hr 16 min 45 sec)
Heartbeat CPU 0 instructions: 180000001 cycles: 45419142 heartbeat IPC: 3.995 cumulative IPC: 3.995 (Simulation time: 00 hr 17 min 44 sec)
Heartbeat CPU 0 instructions: 190000004 cycles: 47921622 heartbeat IPC: 3.996 cumulative IPC: 3.995 (Simulation time: 00 hr 18 min 43 sec)
Heartbeat CPU 0 instructions: 200000000 cycles: 50424334 heartbeat IPC: 3.996 cumulative IPC: 3.995 (Simulation time: 00 hr 19 min 42 sec)
Heartbeat CPU 0 instructions: 210000000 cycles: 52927048 heartbeat IPC: 3.996 cumulative IPC: 3.995 (Simulation time: 00 hr 20 min 41 sec)
Heartbeat CPU 0 instructions: 220000000 cycles: 55429454 heartbeat IPC: 3.996 cumulative IPC: 3.995 (Simulation time: 00 hr 21 min 41 sec)
Heartbeat CPU 0 instructions: 230000004 cycles: 89643328 heartbeat IPC: 0.2923 cumulative IPC: 2.345 (Simulation time: 00 hr 28 min 00 sec)
Heartbeat CPU 0 instructions: 240000001 cycles: 93539565 heartbeat IPC: 2.567 cumulative IPC: 2.356 (Simulation time: 00 hr 29 min 19 sec)
Heartbeat CPU 0 instructions: 250000000 cycles: 97356807 heartbeat IPC: 2.62 cumulative IPC: 2.368 (Simulation time: 00 hr 30 min 39 sec)
Heartbeat CPU 0 instructions: 260000002 cycles: 101200289 heartbeat IPC: 2.602 cumulative IPC: 2.378 (Simulation time: 00 hr 32 min 04 sec)
Heartbeat CPU 0 instructions: 270000000 cycles: 106080101 heartbeat IPC: 2.049 cumulative IPC: 2.361 (Simulation time: 00 hr 33 min 36 sec)
Heartbeat CPU 0 instructions: 280000001 cycles: 112010482 heartbeat IPC: 1.686 cumulative IPC: 2.32 (Simulation time: 00 hr 35 min 22 sec)
Heartbeat CPU 0 instructions: 290000003 cycles: 118042771 heartbeat IPC: 1.658 cumulative IPC: 2.282 (Simulation time: 00 hr 37 min 09 sec)
Heartbeat CPU 0 instructions: 300000003 cycles: 124145646 heartbeat IPC: 1.639 cumulative IPC: 2.247 (Simulation time: 00 hr 38 min 57 sec)
Heartbeat CPU 0 instructions: 310000000 cycles: 130164756 heartbeat IPC: 1.661 cumulative IPC: 2.217 (Simulation time: 00 hr 40 min 44 sec)
Heartbeat CPU 0 instructions: 320000002 cycles: 136210190 heartbeat IPC: 1.654 cumulative IPC: 2.189 (Simulation time: 00 hr 42 min 33 sec)
Heartbeat CPU 0 instructions: 330000004 cycles: 140564895 heartbeat IPC: 2.296 cumulative IPC: 2.193 (Simulation time: 00 hr 43 min 59 sec)
Heartbeat CPU 0 instructions: 340000003 cycles: 143854660 heartbeat IPC: 3.04 cumulative IPC: 2.214 (Simulation time: 00 hr 45 min 12 sec)
Heartbeat CPU 0 instructions: 350000000 cycles: 147520309 heartbeat IPC: 2.728 cumulative IPC: 2.228 (Simulation time: 00 hr 46 min 32 sec)
Heartbeat CPU 0 instructions: 360000000 cycles: 151554216 heartbeat IPC: 2.479 cumulative IPC: 2.235 (Simulation time: 00 hr 47 min 54 sec)
Heartbeat CPU 0 instructions: 370000004 cycles: 157018814 heartbeat IPC: 1.83 cumulative IPC: 2.22 (Simulation time: 00 hr 49 min 36 sec)
Heartbeat CPU 0 instructions: 380000003 cycles: 163895704 heartbeat IPC: 1.454 cumulative IPC: 2.185 (Simulation time: 00 hr 51 min 35 sec)
Heartbeat CPU 0 instructions: 390000000 cycles: 170695208 heartbeat IPC: 1.471 cumulative IPC: 2.154 (Simulation time: 00 hr 53 min 34 sec)
Heartbeat CPU 0 instructions: 400000001 cycles: 177485940 heartbeat IPC: 1.473 cumulative IPC: 2.126 (Simulation time: 00 hr 55 min 32 sec)
Heartbeat CPU 0 instructions: 410000004 cycles: 184325563 heartbeat IPC: 1.462 cumulative IPC: 2.1 (Simulation time: 00 hr 57 min 32 sec)
Heartbeat CPU 0 instructions: 420000004 cycles: 190995042 heartbeat IPC: 1.499 cumulative IPC: 2.077 (Simulation time: 00 hr 59 min 27 sec)
Heartbeat CPU 0 instructions: 430000004 cycles: 195860481 heartbeat IPC: 2.055 cumulative IPC: 2.077 (Simulation time: 01 hr 01 min 00 sec)
Heartbeat CPU 0 instructions: 440000004 cycles: 201027349 heartbeat IPC: 1.935 cumulative IPC: 2.073 (Simulation time: 01 hr 02 min 37 sec)
Heartbeat CPU 0 instructions: 450000000 cycles: 206646286 heartbeat IPC: 1.78 cumulative IPC: 2.064 (Simulation time: 01 hr 04 min 18 sec)
Heartbeat CPU 0 instructions: 460000001 cycles: 212979461 heartbeat IPC: 1.579 cumulative IPC: 2.049 (Simulation time: 01 hr 06 min 09 sec)
Heartbeat CPU 0 instructions: 470000000 cycles: 219554661 heartbeat IPC: 1.521 cumulative IPC: 2.032 (Simulation time: 01 hr 08 min 04 sec)
Heartbeat CPU 0 instructions: 480000003 cycles: 226730937 heartbeat IPC: 1.393 cumulative IPC: 2.011 (Simulation time: 01 hr 10 min 07 sec)
Heartbeat CPU 0 instructions: 490000004 cycles: 233884199 heartbeat IPC: 1.398 cumulative IPC: 1.991 (Simulation time: 01 hr 12 min 10 sec)
Heartbeat CPU 0 instructions: 500000004 cycles: 240975455 heartbeat IPC: 1.41 cumulative IPC: 1.973 (Simulation time: 01 hr 14 min 09 sec)
Heartbeat CPU 0 instructions: 510000003 cycles: 248062651 heartbeat IPC: 1.411 cumulative IPC: 1.956 (Simulation time: 01 hr 16 min 08 sec)
Heartbeat CPU 0 instructions: 520000003 cycles: 320370005 heartbeat IPC: 0.1383 cumulative IPC: 1.529 (Simulation time: 01 hr 32 min 00 sec)
Heartbeat CPU 0 instructions: 530000002 cycles: 436340235 heartbeat IPC: 0.08623 cumulative IPC: 1.134 (Simulation time: 01 hr 56 min 33 sec)
Heartbeat CPU 0 instructions: 540000003 cycles: 470521373 heartbeat IPC: 0.2926 cumulative IPC: 1.071 (Simulation time: 02 hr 04 min 20 sec)
Heartbeat CPU 0 instructions: 550000000 cycles: 503284463 heartbeat IPC: 0.3052 cumulative IPC: 1.02 (Simulation time: 02 hr 11 min 47 sec)
Heartbeat CPU 0 instructions: 560000000 cycles: 536262632 heartbeat IPC: 0.3032 cumulative IPC: 0.9744 (Simulation time: 02 hr 19 min 16 sec)
Heartbeat CPU 0 instructions: 570000002 cycles: 569109523 heartbeat IPC: 0.3044 cumulative IPC: 0.9349 (Simulation time: 02 hr 26 min 37 sec)
Heartbeat CPU 0 instructions: 580000001 cycles: 600509932 heartbeat IPC: 0.3185 cumulative IPC: 0.9019 (Simulation time: 02 hr 33 min 46 sec)
Heartbeat CPU 0 instructions: 590000001 cycles: 633201235 heartbeat IPC: 0.3059 cumulative IPC: 0.8705 (Simulation time: 02 hr 41 min 09 sec)
*** Reached end of trace: (0, "traces/bt.A.champsimtrace")
Heartbeat CPU 0 instructions: 600000001 cycles: 667244465 heartbeat IPC: 0.2937 cumulative IPC: 0.8405 (Simulation time: 02 hr 48 min 59 sec)
Heartbeat CPU 0 instructions: 610000004 cycles: 693652067 heartbeat IPC: 0.3787 cumulative IPC: 0.8226 (Simulation time: 02 hr 53 min 59 sec)
Heartbeat CPU 0 instructions: 620000000 cycles: 696154397 heartbeat IPC: 3.996 cumulative IPC: 0.8342 (Simulation time: 02 hr 55 min 01 sec)
Heartbeat CPU 0 instructions: 630000003 cycles: 698656714 heartbeat IPC: 3.996 cumulative IPC: 0.8458 (Simulation time: 02 hr 56 min 00 sec)
Heartbeat CPU 0 instructions: 640000003 cycles: 701159032 heartbeat IPC: 3.996 cumulative IPC: 0.8572 (Simulation time: 02 hr 57 min 05 sec)
Heartbeat CPU 0 instructions: 650000003 cycles: 703662248 heartbeat IPC: 3.995 cumulative IPC: 0.8686 (Simulation time: 02 hr 58 min 06 sec)
Simulation finished CPU 0 instructions: 600000000 cycles: 690781220 cumulative IPC: 0.8686 (Simulation time: 02 hr 58 min 06 sec)
Simulation complete CPU 0 instructions: 600000000 cycles: 690781220 cumulative IPC: 0.8686 (Simulation time: 02 hr 58 min 06 sec)

ChampSim completed all CPUs

=== Simulation ===
CPU 0 runs traces/bt.A.champsimtrace
Region of Interest Statistics

CPU 0 cumulative IPC: 0.8686 instructions: 600000000 cycles: 690781220
CPU 0 Branch Prediction Accuracy: 99.29% MPKI: 0.1288 Average ROB Occupancy at Mispredict: 280
Branch type MPKI
BRANCH_DIRECT_JUMP: 5e-06
BRANCH_INDIRECT: 7.67e-05
BRANCH_CONDITIONAL: 0.129
BRANCH_DIRECT_CALL: 6.67e-06
BRANCH_INDIRECT_CALL: 3.33e-05
BRANCH_RETURN: 2.33e-05

LLC TOTAL        ACCESS:    5115655 HIT:    1892571 MISS:    3223084
LLC LOAD         ACCESS:    2238093 HIT:     623104 MISS:    1614989
LLC RFO          ACCESS:     889409 HIT:      68217 MISS:     821192
LLC PREFETCH     ACCESS:          0 HIT:          0 MISS:          0
LLC WRITE        ACCESS:    1984796 HIT:    1199644 MISS:     785152
LLC TRANSLATION  ACCESS:       3357 HIT:       1606 MISS:       1751
LLC PREFETCH REQUESTED:          0 ISSUED:          0 USEFUL:          0 USELESS:          0
LLC AVERAGE MISS LATENCY: 1020 cycles
cpu0_DTLB TOTAL        ACCESS:  126709556 HIT:  125953141 MISS:     756415
cpu0_DTLB LOAD         ACCESS:  126709556 HIT:  125953141 MISS:     756415
cpu0_DTLB RFO          ACCESS:          0 HIT:          0 MISS:          0
cpu0_DTLB PREFETCH     ACCESS:          0 HIT:          0 MISS:          0
cpu0_DTLB WRITE        ACCESS:          0 HIT:          0 MISS:          0
cpu0_DTLB TRANSLATION  ACCESS:          0 HIT:          0 MISS:          0
cpu0_DTLB PREFETCH REQUESTED:          0 ISSUED:          0 USEFUL:          0 USELESS:          0
cpu0_DTLB AVERAGE MISS LATENCY: 14.55 cycles
cpu0_ITLB TOTAL        ACCESS:     145207 HIT:     144964 MISS:        243
cpu0_ITLB LOAD         ACCESS:     145207 HIT:     144964 MISS:        243
cpu0_ITLB RFO          ACCESS:          0 HIT:          0 MISS:          0
cpu0_ITLB PREFETCH     ACCESS:          0 HIT:          0 MISS:          0
cpu0_ITLB WRITE        ACCESS:          0 HIT:          0 MISS:          0
cpu0_ITLB TRANSLATION  ACCESS:          0 HIT:          0 MISS:          0
cpu0_ITLB PREFETCH REQUESTED:          0 ISSUED:          0 USEFUL:          0 USELESS:          0
cpu0_ITLB AVERAGE MISS LATENCY: 309.4 cycles
cpu0_L1D TOTAL        ACCESS:  194127625 HIT:  180363727 MISS:   13763898
cpu0_L1D LOAD         ACCESS:  159445308 HIT:  149687018 MISS:    9758290
cpu0_L1D RFO          ACCESS:          0 HIT:          0 MISS:          0
cpu0_L1D PREFETCH     ACCESS:          0 HIT:          0 MISS:          0
cpu0_L1D WRITE        ACCESS:   34635566 HIT:   30647053 MISS:    3988513
cpu0_L1D TRANSLATION  ACCESS:      46751 HIT:      29656 MISS:      17095
cpu0_L1D PREFETCH REQUESTED:          0 ISSUED:          0 USEFUL:          0 USELESS:          0
cpu0_L1D AVERAGE MISS LATENCY: 180.7 cycles
cpu0_L1I TOTAL        ACCESS:     195467 HIT:     192643 MISS:       2824
cpu0_L1I LOAD         ACCESS:     195467 HIT:     192643 MISS:       2824
cpu0_L1I RFO          ACCESS:          0 HIT:          0 MISS:          0
cpu0_L1I PREFETCH     ACCESS:          0 HIT:          0 MISS:          0
cpu0_L1I WRITE        ACCESS:          0 HIT:          0 MISS:          0
cpu0_L1I TRANSLATION  ACCESS:          0 HIT:          0 MISS:          0
cpu0_L1I PREFETCH REQUESTED:          0 ISSUED:          0 USEFUL:          0 USELESS:          0
cpu0_L1I AVERAGE MISS LATENCY: 532.7 cycles
cpu0_L2C TOTAL        ACCESS:    5272379 HIT:    2140930 MISS:    3131449
cpu0_L2C LOAD         ACCESS:    2366335 HIT:     127988 MISS:    2238347
cpu0_L2C RFO          ACCESS:     890035 HIT:        626 MISS:     889409
cpu0_L2C PREFETCH     ACCESS:          0 HIT:          0 MISS:          0
cpu0_L2C WRITE        ACCESS:    1998916 HIT:    1998580 MISS:        336
cpu0_L2C TRANSLATION  ACCESS:      17093 HIT:      13736 MISS:       3357
cpu0_L2C PREFETCH REQUESTED:          0 ISSUED:          0 USEFUL:          0 USELESS:          0
cpu0_L2C AVERAGE MISS LATENCY: 1071 cycles
cpu0_STLB TOTAL        ACCESS:     297201 HIT:     250465 MISS:      46736
cpu0_STLB LOAD         ACCESS:     297201 HIT:     250465 MISS:      46736
cpu0_STLB RFO          ACCESS:          0 HIT:          0 MISS:          0
cpu0_STLB PREFETCH     ACCESS:          0 HIT:          0 MISS:          0
cpu0_STLB WRITE        ACCESS:          0 HIT:          0 MISS:          0
cpu0_STLB TRANSLATION  ACCESS:          0 HIT:          0 MISS:          0
cpu0_STLB PREFETCH REQUESTED:          0 ISSUED:          0 USEFUL:          0 USELESS:          0
cpu0_STLB AVERAGE MISS LATENCY: 305 cycles

DRAM Statistics

Channel 0 RQ ROW_BUFFER_HIT:     683380
  ROW_BUFFER_MISS:    1754543
 AVG DBUS CONGESTED CYCLE: 3.972
WQ ROW_BUFFER_HIT: Channel 0 
  ROW_BUFFER_MISS:     449474
  FULL:    1179013
Final OPTGen Hits: 14076
Final OPTGen Access: 52288
Final OPTGEN Hit Rate: 26.9202
