WARNING: physical memory size is smaller than virtual memory size.

*** ChampSim Multicore Out-of-Order Simulator ***
Warmup Instructions: 50000000
Simulation Instructions: 600000000
Number of CPUs: 1
Page size: 4096

Off-chip DRAM Size: 4 GiB Channels: 1 Width: 64-bit Data Race: 3200 MT/s
Heartbeat CPU 0 instructions: 10000000 cycles: 2881027 heartbeat IPC: 3.471 cumulative IPC: 3.471 (Simulation time: 00 hr 00 min 49 sec)
Heartbeat CPU 0 instructions: 20000000 cycles: 5381027 heartbeat IPC: 4 cumulative IPC: 3.717 (Simulation time: 00 hr 01 min 35 sec)
Heartbeat CPU 0 instructions: 30000000 cycles: 7881027 heartbeat IPC: 4 cumulative IPC: 3.807 (Simulation time: 00 hr 02 min 22 sec)
Heartbeat CPU 0 instructions: 40000000 cycles: 10381027 heartbeat IPC: 4 cumulative IPC: 3.853 (Simulation time: 00 hr 03 min 06 sec)
Heartbeat CPU 0 instructions: 50000000 cycles: 12881027 heartbeat IPC: 4 cumulative IPC: 3.882 (Simulation time: 00 hr 03 min 51 sec)
Warmup finished CPU 0 instructions: 50000000 cycles: 12881028 cumulative IPC: 3.882 (Simulation time: 00 hr 03 min 51 sec)
Warmup complete CPU 0 instructions: 50000000 cycles: 12881028 cumulative IPC: 3.882 (Simulation time: 00 hr 03 min 51 sec)
Heartbeat CPU 0 instructions: 60000004 cycles: 15383439 heartbeat IPC: 3.996 cumulative IPC: 3.996 (Simulation time: 00 hr 04 min 44 sec)
Heartbeat CPU 0 instructions: 70000000 cycles: 17885843 heartbeat IPC: 3.996 cumulative IPC: 3.996 (Simulation time: 00 hr 05 min 35 sec)
Heartbeat CPU 0 instructions: 80000002 cycles: 20388252 heartbeat IPC: 3.996 cumulative IPC: 3.996 (Simulation time: 00 hr 06 min 26 sec)
Heartbeat CPU 0 instructions: 90000004 cycles: 22890659 heartbeat IPC: 3.996 cumulative IPC: 3.996 (Simulation time: 00 hr 07 min 18 sec)
Heartbeat CPU 0 instructions: 100000004 cycles: 25393701 heartbeat IPC: 3.995 cumulative IPC: 3.996 (Simulation time: 00 hr 08 min 12 sec)
Heartbeat CPU 0 instructions: 110000000 cycles: 27896107 heartbeat IPC: 3.996 cumulative IPC: 3.996 (Simulation time: 00 hr 09 min 03 sec)
Heartbeat CPU 0 instructions: 120000003 cycles: 30402039 heartbeat IPC: 3.991 cumulative IPC: 3.995 (Simulation time: 00 hr 09 min 54 sec)
Heartbeat CPU 0 instructions: 130000000 cycles: 32904680 heartbeat IPC: 3.996 cumulative IPC: 3.995 (Simulation time: 00 hr 10 min 47 sec)
Heartbeat CPU 0 instructions: 140000001 cycles: 35407439 heartbeat IPC: 3.996 cumulative IPC: 3.995 (Simulation time: 00 hr 11 min 40 sec)
Heartbeat CPU 0 instructions: 150000000 cycles: 37910095 heartbeat IPC: 3.996 cumulative IPC: 3.995 (Simulation time: 00 hr 12 min 30 sec)
Heartbeat CPU 0 instructions: 160000001 cycles: 40414122 heartbeat IPC: 3.994 cumulative IPC: 3.995 (Simulation time: 00 hr 13 min 23 sec)
Heartbeat CPU 0 instructions: 170000002 cycles: 42917492 heartbeat IPC: 3.995 cumulative IPC: 3.995 (Simulation time: 00 hr 14 min 16 sec)
Heartbeat CPU 0 instructions: 180000001 cycles: 45420033 heartbeat IPC: 3.996 cumulative IPC: 3.995 (Simulation time: 00 hr 15 min 08 sec)
Heartbeat CPU 0 instructions: 190000004 cycles: 47922730 heartbeat IPC: 3.996 cumulative IPC: 3.995 (Simulation time: 00 hr 16 min 01 sec)
Heartbeat CPU 0 instructions: 200000000 cycles: 50425489 heartbeat IPC: 3.996 cumulative IPC: 3.995 (Simulation time: 00 hr 17 min 04 sec)
Heartbeat CPU 0 instructions: 210000000 cycles: 52928659 heartbeat IPC: 3.995 cumulative IPC: 3.995 (Simulation time: 00 hr 17 min 55 sec)
Heartbeat CPU 0 instructions: 220000000 cycles: 55432705 heartbeat IPC: 3.994 cumulative IPC: 3.995 (Simulation time: 00 hr 18 min 48 sec)
Heartbeat CPU 0 instructions: 230000004 cycles: 88408618 heartbeat IPC: 0.3033 cumulative IPC: 2.383 (Simulation time: 00 hr 24 min 11 sec)
Heartbeat CPU 0 instructions: 240000001 cycles: 91823500 heartbeat IPC: 2.928 cumulative IPC: 2.407 (Simulation time: 00 hr 25 min 16 sec)
Heartbeat CPU 0 instructions: 250000000 cycles: 95263854 heartbeat IPC: 2.907 cumulative IPC: 2.428 (Simulation time: 00 hr 26 min 21 sec)
Heartbeat CPU 0 instructions: 260000000 cycles: 98698546 heartbeat IPC: 2.911 cumulative IPC: 2.447 (Simulation time: 00 hr 27 min 27 sec)
Heartbeat CPU 0 instructions: 270000000 cycles: 102144796 heartbeat IPC: 2.902 cumulative IPC: 2.465 (Simulation time: 00 hr 28 min 33 sec)
Heartbeat CPU 0 instructions: 280000001 cycles: 105609861 heartbeat IPC: 2.886 cumulative IPC: 2.48 (Simulation time: 00 hr 29 min 40 sec)
Heartbeat CPU 0 instructions: 290000000 cycles: 109024521 heartbeat IPC: 2.929 cumulative IPC: 2.496 (Simulation time: 00 hr 30 min 46 sec)
Heartbeat CPU 0 instructions: 300000003 cycles: 112478242 heartbeat IPC: 2.895 cumulative IPC: 2.51 (Simulation time: 00 hr 31 min 51 sec)
Heartbeat CPU 0 instructions: 310000000 cycles: 115913810 heartbeat IPC: 2.911 cumulative IPC: 2.523 (Simulation time: 00 hr 32 min 54 sec)
Heartbeat CPU 0 instructions: 320000001 cycles: 119351162 heartbeat IPC: 2.909 cumulative IPC: 2.536 (Simulation time: 00 hr 34 min 01 sec)
Heartbeat CPU 0 instructions: 330000000 cycles: 125278926 heartbeat IPC: 1.687 cumulative IPC: 2.491 (Simulation time: 00 hr 35 min 35 sec)
Heartbeat CPU 0 instructions: 340000003 cycles: 132229844 heartbeat IPC: 1.439 cumulative IPC: 2.43 (Simulation time: 00 hr 37 min 19 sec)
Heartbeat CPU 0 instructions: 350000000 cycles: 139057820 heartbeat IPC: 1.465 cumulative IPC: 2.378 (Simulation time: 00 hr 39 min 03 sec)
Heartbeat CPU 0 instructions: 360000001 cycles: 145974037 heartbeat IPC: 1.446 cumulative IPC: 2.329 (Simulation time: 00 hr 40 min 47 sec)
Heartbeat CPU 0 instructions: 370000004 cycles: 152735813 heartbeat IPC: 1.479 cumulative IPC: 2.288 (Simulation time: 00 hr 42 min 29 sec)
Heartbeat CPU 0 instructions: 380000003 cycles: 159764031 heartbeat IPC: 1.423 cumulative IPC: 2.247 (Simulation time: 00 hr 44 min 13 sec)
Heartbeat CPU 0 instructions: 390000000 cycles: 166542587 heartbeat IPC: 1.475 cumulative IPC: 2.213 (Simulation time: 00 hr 45 min 57 sec)
Heartbeat CPU 0 instructions: 400000001 cycles: 173453978 heartbeat IPC: 1.447 cumulative IPC: 2.18 (Simulation time: 00 hr 47 min 39 sec)
Heartbeat CPU 0 instructions: 410000004 cycles: 180257328 heartbeat IPC: 1.47 cumulative IPC: 2.151 (Simulation time: 00 hr 49 min 24 sec)
Heartbeat CPU 0 instructions: 420000004 cycles: 187087538 heartbeat IPC: 1.464 cumulative IPC: 2.124 (Simulation time: 00 hr 51 min 06 sec)
Heartbeat CPU 0 instructions: 430000004 cycles: 194117611 heartbeat IPC: 1.422 cumulative IPC: 2.097 (Simulation time: 00 hr 52 min 51 sec)
Heartbeat CPU 0 instructions: 440000004 cycles: 201450244 heartbeat IPC: 1.364 cumulative IPC: 2.068 (Simulation time: 00 hr 54 min 40 sec)
Heartbeat CPU 0 instructions: 450000000 cycles: 208760688 heartbeat IPC: 1.368 cumulative IPC: 2.042 (Simulation time: 00 hr 56 min 27 sec)
Heartbeat CPU 0 instructions: 460000001 cycles: 216070488 heartbeat IPC: 1.368 cumulative IPC: 2.018 (Simulation time: 00 hr 58 min 15 sec)
Heartbeat CPU 0 instructions: 470000000 cycles: 223412315 heartbeat IPC: 1.362 cumulative IPC: 1.995 (Simulation time: 01 hr 00 min 05 sec)
Heartbeat CPU 0 instructions: 480000003 cycles: 229980038 heartbeat IPC: 1.523 cumulative IPC: 1.981 (Simulation time: 01 hr 01 min 43 sec)
Heartbeat CPU 0 instructions: 490000004 cycles: 236512511 heartbeat IPC: 1.531 cumulative IPC: 1.968 (Simulation time: 01 hr 03 min 24 sec)
Heartbeat CPU 0 instructions: 500000002 cycles: 243029744 heartbeat IPC: 1.534 cumulative IPC: 1.955 (Simulation time: 01 hr 05 min 03 sec)
Heartbeat CPU 0 instructions: 510000003 cycles: 250044020 heartbeat IPC: 1.426 cumulative IPC: 1.94 (Simulation time: 01 hr 06 min 57 sec)
Heartbeat CPU 0 instructions: 520000001 cycles: 310521139 heartbeat IPC: 0.1654 cumulative IPC: 1.579 (Simulation time: 01 hr 20 min 28 sec)
Heartbeat CPU 0 instructions: 530000002 cycles: 434232053 heartbeat IPC: 0.08083 cumulative IPC: 1.139 (Simulation time: 01 hr 46 min 50 sec)
Heartbeat CPU 0 instructions: 540000004 cycles: 465001106 heartbeat IPC: 0.325 cumulative IPC: 1.084 (Simulation time: 01 hr 53 min 54 sec)
Heartbeat CPU 0 instructions: 550000000 cycles: 496228464 heartbeat IPC: 0.3202 cumulative IPC: 1.034 (Simulation time: 02 hr 01 min 00 sec)
Heartbeat CPU 0 instructions: 560000001 cycles: 527359161 heartbeat IPC: 0.3212 cumulative IPC: 0.9913 (Simulation time: 02 hr 08 min 06 sec)
Heartbeat CPU 0 instructions: 570000002 cycles: 557916194 heartbeat IPC: 0.3273 cumulative IPC: 0.9541 (Simulation time: 02 hr 15 min 11 sec)
Heartbeat CPU 0 instructions: 580000000 cycles: 586542505 heartbeat IPC: 0.3493 cumulative IPC: 0.9239 (Simulation time: 02 hr 22 min 01 sec)
Heartbeat CPU 0 instructions: 590000001 cycles: 614835102 heartbeat IPC: 0.3534 cumulative IPC: 0.8971 (Simulation time: 02 hr 28 min 39 sec)
*** Reached end of trace: (0, "traces/bt.A.champsimtrace")
Heartbeat CPU 0 instructions: 600000001 cycles: 642587043 heartbeat IPC: 0.3603 cumulative IPC: 0.8734 (Simulation time: 02 hr 35 min 06 sec)
Heartbeat CPU 0 instructions: 610000004 cycles: 670721486 heartbeat IPC: 0.3554 cumulative IPC: 0.8513 (Simulation time: 02 hr 40 min 18 sec)
Heartbeat CPU 0 instructions: 620000000 cycles: 673224231 heartbeat IPC: 3.996 cumulative IPC: 0.8632 (Simulation time: 02 hr 41 min 19 sec)
Heartbeat CPU 0 instructions: 630000003 cycles: 675727819 heartbeat IPC: 3.994 cumulative IPC: 0.875 (Simulation time: 02 hr 42 min 19 sec)
Heartbeat CPU 0 instructions: 640000003 cycles: 678230227 heartbeat IPC: 3.996 cumulative IPC: 0.8868 (Simulation time: 02 hr 43 min 20 sec)
Heartbeat CPU 0 instructions: 650000003 cycles: 680732730 heartbeat IPC: 3.996 cumulative IPC: 0.8984 (Simulation time: 02 hr 44 min 21 sec)
Simulation finished CPU 0 instructions: 600000003 cycles: 667851703 cumulative IPC: 0.8984 (Simulation time: 02 hr 44 min 21 sec)
Simulation complete CPU 0 instructions: 600000003 cycles: 667851703 cumulative IPC: 0.8984 (Simulation time: 02 hr 44 min 21 sec)

ChampSim completed all CPUs

=== Simulation ===
CPU 0 runs traces/bt.A.champsimtrace
Region of Interest Statistics

CPU 0 cumulative IPC: 0.8984 instructions: 600000003 cycles: 667851703
CPU 0 Branch Prediction Accuracy: 99.28% MPKI: 0.1299 Average ROB Occupancy at Mispredict: 278.1
Branch type MPKI
BRANCH_DIRECT_JUMP: 5e-06
BRANCH_INDIRECT: 7.67e-05
BRANCH_CONDITIONAL: 0.13
BRANCH_DIRECT_CALL: 6.67e-06
BRANCH_INDIRECT_CALL: 3.33e-05
BRANCH_RETURN: 2.33e-05

LLC TOTAL        ACCESS:    7730770 HIT:    3477719 MISS:    4253051
LLC LOAD         ACCESS:    2235104 HIT:    1276257 MISS:     958847
LLC RFO          ACCESS:     889409 HIT:      50623 MISS:     838786
LLC PREFETCH     ACCESS:    2618625 HIT:    1522499 MISS:    1096126
LLC WRITE        ACCESS:    1984279 HIT:     628232 MISS:    1356047
LLC TRANSLATION  ACCESS:       3353 HIT:        108 MISS:       3245
LLC PREFETCH REQUESTED:    2618625 ISSUED:    2618625 USEFUL:     893408 USELESS:      28527
LLC AVERAGE MISS LATENCY: 913.2 cycles
cpu0_DTLB TOTAL        ACCESS:  126626072 HIT:  125869318 MISS:     756754
cpu0_DTLB LOAD         ACCESS:  126626072 HIT:  125869318 MISS:     756754
cpu0_DTLB RFO          ACCESS:          0 HIT:          0 MISS:          0
cpu0_DTLB PREFETCH     ACCESS:          0 HIT:          0 MISS:          0
cpu0_DTLB WRITE        ACCESS:          0 HIT:          0 MISS:          0
cpu0_DTLB TRANSLATION  ACCESS:          0 HIT:          0 MISS:          0
cpu0_DTLB PREFETCH REQUESTED:          0 ISSUED:          0 USEFUL:          0 USELESS:          0
cpu0_DTLB AVERAGE MISS LATENCY: 15.09 cycles
cpu0_ITLB TOTAL        ACCESS:     142740 HIT:     142508 MISS:        232
cpu0_ITLB LOAD         ACCESS:     142740 HIT:     142508 MISS:        232
cpu0_ITLB RFO          ACCESS:          0 HIT:          0 MISS:          0
cpu0_ITLB PREFETCH     ACCESS:          0 HIT:          0 MISS:          0
cpu0_ITLB WRITE        ACCESS:          0 HIT:          0 MISS:          0
cpu0_ITLB TRANSLATION  ACCESS:          0 HIT:          0 MISS:          0
cpu0_ITLB PREFETCH REQUESTED:          0 ISSUED:          0 USEFUL:          0 USELESS:          0
cpu0_ITLB AVERAGE MISS LATENCY: 354.5 cycles
cpu0_L1D TOTAL        ACCESS:  194730795 HIT:  181881684 MISS:   12849111
cpu0_L1D LOAD         ACCESS:  160048554 HIT:  151374275 MISS:    8674279
cpu0_L1D RFO          ACCESS:          0 HIT:          0 MISS:          0
cpu0_L1D PREFETCH     ACCESS:          0 HIT:          0 MISS:          0
cpu0_L1D WRITE        ACCESS:   34635491 HIT:   30477707 MISS:    4157784
cpu0_L1D TRANSLATION  ACCESS:      46750 HIT:      29702 MISS:      17048
cpu0_L1D PREFETCH REQUESTED:          0 ISSUED:          0 USEFUL:          0 USELESS:          0
cpu0_L1D AVERAGE MISS LATENCY: 160.5 cycles
cpu0_L1I TOTAL        ACCESS:     192444 HIT:     189715 MISS:       2729
cpu0_L1I LOAD         ACCESS:     192444 HIT:     189715 MISS:       2729
cpu0_L1I RFO          ACCESS:          0 HIT:          0 MISS:          0
cpu0_L1I PREFETCH     ACCESS:          0 HIT:          0 MISS:          0
cpu0_L1I WRITE        ACCESS:          0 HIT:          0 MISS:          0
cpu0_L1I TRANSLATION  ACCESS:          0 HIT:          0 MISS:          0
cpu0_L1I PREFETCH REQUESTED:          0 ISSUED:          0 USEFUL:          0 USELESS:          0
cpu0_L1I AVERAGE MISS LATENCY: 570.5 cycles
cpu0_L2C TOTAL        ACCESS:    5260901 HIT:    2132601 MISS:    3128300
cpu0_L2C LOAD         ACCESS:    2354672 HIT:     119503 MISS:    2235169
cpu0_L2C RFO          ACCESS:     890040 HIT:        631 MISS:     889409
cpu0_L2C PREFETCH     ACCESS:          0 HIT:          0 MISS:          0
cpu0_L2C WRITE        ACCESS:    1999144 HIT:    1998775 MISS:        369
cpu0_L2C TRANSLATION  ACCESS:      17045 HIT:      13692 MISS:       3353
cpu0_L2C PREFETCH REQUESTED:          0 ISSUED:          0 USEFUL:          0 USELESS:          0
cpu0_L2C AVERAGE MISS LATENCY: 814.4 cycles
cpu0_STLB TOTAL        ACCESS:     297198 HIT:     250463 MISS:      46735
cpu0_STLB LOAD         ACCESS:     297198 HIT:     250463 MISS:      46735
cpu0_STLB RFO          ACCESS:          0 HIT:          0 MISS:          0
cpu0_STLB PREFETCH     ACCESS:          0 HIT:          0 MISS:          0
cpu0_STLB WRITE        ACCESS:          0 HIT:          0 MISS:          0
cpu0_STLB TRANSLATION  ACCESS:          0 HIT:          0 MISS:          0
cpu0_STLB PREFETCH REQUESTED:          0 ISSUED:          0 USEFUL:          0 USELESS:          0
cpu0_STLB AVERAGE MISS LATENCY: 341.3 cycles

DRAM Statistics

Channel 0 RQ ROW_BUFFER_HIT:     932541
  ROW_BUFFER_MISS:    1728333
 AVG DBUS CONGESTED CYCLE: 3.96
WQ ROW_BUFFER_HIT: Channel 0 
  ROW_BUFFER_MISS:     674300
  FULL:    1196718
