WARNING: physical memory size is smaller than virtual memory size.

*** ChampSim Multicore Out-of-Order Simulator ***
Warmup Instructions: 50000000
Simulation Instructions: 600000000
Number of CPUs: 1
Page size: 4096

CPU 0 Tage branch predictor
Off-chip DRAM Size: 4 GiB Channels: 1 Width: 64-bit Data Race: 3200 MT/s
Heartbeat CPU 0 instructions: 10000000 cycles: 2881042 heartbeat IPC: 3.471 cumulative IPC: 3.471 (Simulation time: 00 hr 00 min 46 sec)
Heartbeat CPU 0 instructions: 20000000 cycles: 5381042 heartbeat IPC: 4 cumulative IPC: 3.717 (Simulation time: 00 hr 01 min 23 sec)
Heartbeat CPU 0 instructions: 30000000 cycles: 7881042 heartbeat IPC: 4 cumulative IPC: 3.807 (Simulation time: 00 hr 02 min 01 sec)
Heartbeat CPU 0 instructions: 40000000 cycles: 10381042 heartbeat IPC: 4 cumulative IPC: 3.853 (Simulation time: 00 hr 02 min 44 sec)
Heartbeat CPU 0 instructions: 50000000 cycles: 12881042 heartbeat IPC: 4 cumulative IPC: 3.882 (Simulation time: 00 hr 03 min 21 sec)
Warmup finished CPU 0 instructions: 50000000 cycles: 12881043 cumulative IPC: 3.882 (Simulation time: 00 hr 03 min 21 sec)
Warmup complete CPU 0 instructions: 50000000 cycles: 12881043 cumulative IPC: 3.882 (Simulation time: 00 hr 03 min 21 sec)
Heartbeat CPU 0 instructions: 60000004 cycles: 15381565 heartbeat IPC: 3.999 cumulative IPC: 3.999 (Simulation time: 00 hr 04 min 03 sec)
Heartbeat CPU 0 instructions: 70000002 cycles: 17881643 heartbeat IPC: 4 cumulative IPC: 4 (Simulation time: 00 hr 04 min 45 sec)
Heartbeat CPU 0 instructions: 80000001 cycles: 20381763 heartbeat IPC: 4 cumulative IPC: 4 (Simulation time: 00 hr 05 min 26 sec)
Heartbeat CPU 0 instructions: 90000004 cycles: 22881887 heartbeat IPC: 4 cumulative IPC: 4 (Simulation time: 00 hr 06 min 08 sec)
Heartbeat CPU 0 instructions: 100000000 cycles: 25382427 heartbeat IPC: 3.999 cumulative IPC: 4 (Simulation time: 00 hr 06 min 50 sec)
Heartbeat CPU 0 instructions: 110000002 cycles: 27882547 heartbeat IPC: 4 cumulative IPC: 4 (Simulation time: 00 hr 07 min 33 sec)
Heartbeat CPU 0 instructions: 120000000 cycles: 30382657 heartbeat IPC: 4 cumulative IPC: 4 (Simulation time: 00 hr 08 min 15 sec)
Heartbeat CPU 0 instructions: 130000002 cycles: 32882777 heartbeat IPC: 4 cumulative IPC: 4 (Simulation time: 00 hr 08 min 57 sec)
Heartbeat CPU 0 instructions: 140000004 cycles: 35382898 heartbeat IPC: 4 cumulative IPC: 4 (Simulation time: 00 hr 09 min 40 sec)
Heartbeat CPU 0 instructions: 150000000 cycles: 37882975 heartbeat IPC: 4 cumulative IPC: 4 (Simulation time: 00 hr 10 min 22 sec)
Heartbeat CPU 0 instructions: 160000003 cycles: 40383096 heartbeat IPC: 4 cumulative IPC: 4 (Simulation time: 00 hr 11 min 05 sec)
Heartbeat CPU 0 instructions: 170000002 cycles: 42883263 heartbeat IPC: 4 cumulative IPC: 4 (Simulation time: 00 hr 11 min 47 sec)
Heartbeat CPU 0 instructions: 180000000 cycles: 45383338 heartbeat IPC: 4 cumulative IPC: 4 (Simulation time: 00 hr 12 min 29 sec)
Heartbeat CPU 0 instructions: 190000003 cycles: 47883405 heartbeat IPC: 4 cumulative IPC: 4 (Simulation time: 00 hr 13 min 11 sec)
Heartbeat CPU 0 instructions: 200000000 cycles: 50383570 heartbeat IPC: 4 cumulative IPC: 4 (Simulation time: 00 hr 13 min 56 sec)
Heartbeat CPU 0 instructions: 210000000 cycles: 52883690 heartbeat IPC: 4 cumulative IPC: 4 (Simulation time: 00 hr 14 min 39 sec)
Heartbeat CPU 0 instructions: 220000003 cycles: 55383858 heartbeat IPC: 4 cumulative IPC: 4 (Simulation time: 00 hr 15 min 23 sec)
Heartbeat CPU 0 instructions: 230000001 cycles: 91475081 heartbeat IPC: 0.2771 cumulative IPC: 2.29 (Simulation time: 00 hr 19 min 16 sec)
Heartbeat CPU 0 instructions: 240000002 cycles: 97374896 heartbeat IPC: 1.695 cumulative IPC: 2.249 (Simulation time: 00 hr 20 min 25 sec)
Heartbeat CPU 0 instructions: 250000000 cycles: 103387575 heartbeat IPC: 1.663 cumulative IPC: 2.21 (Simulation time: 00 hr 21 min 34 sec)
Heartbeat CPU 0 instructions: 260000004 cycles: 109337518 heartbeat IPC: 1.681 cumulative IPC: 2.177 (Simulation time: 00 hr 22 min 43 sec)
Heartbeat CPU 0 instructions: 270000003 cycles: 115313537 heartbeat IPC: 1.673 cumulative IPC: 2.148 (Simulation time: 00 hr 23 min 52 sec)
Heartbeat CPU 0 instructions: 280000003 cycles: 121244684 heartbeat IPC: 1.686 cumulative IPC: 2.122 (Simulation time: 00 hr 25 min 01 sec)
Heartbeat CPU 0 instructions: 290000000 cycles: 127224630 heartbeat IPC: 1.672 cumulative IPC: 2.099 (Simulation time: 00 hr 26 min 10 sec)
Heartbeat CPU 0 instructions: 300000003 cycles: 133191329 heartbeat IPC: 1.676 cumulative IPC: 2.078 (Simulation time: 00 hr 27 min 19 sec)
Heartbeat CPU 0 instructions: 310000002 cycles: 139138206 heartbeat IPC: 1.682 cumulative IPC: 2.059 (Simulation time: 00 hr 28 min 29 sec)
Heartbeat CPU 0 instructions: 320000002 cycles: 145118512 heartbeat IPC: 1.672 cumulative IPC: 2.042 (Simulation time: 00 hr 29 min 39 sec)
Heartbeat CPU 0 instructions: 330000004 cycles: 151403822 heartbeat IPC: 1.591 cumulative IPC: 2.021 (Simulation time: 00 hr 30 min 51 sec)
Heartbeat CPU 0 instructions: 340000002 cycles: 157745150 heartbeat IPC: 1.577 cumulative IPC: 2.002 (Simulation time: 00 hr 32 min 02 sec)
Heartbeat CPU 0 instructions: 350000002 cycles: 164075291 heartbeat IPC: 1.58 cumulative IPC: 1.984 (Simulation time: 00 hr 33 min 14 sec)
Heartbeat CPU 0 instructions: 360000000 cycles: 170538683 heartbeat IPC: 1.547 cumulative IPC: 1.966 (Simulation time: 00 hr 34 min 27 sec)
Heartbeat CPU 0 instructions: 370000001 cycles: 176849091 heartbeat IPC: 1.585 cumulative IPC: 1.952 (Simulation time: 00 hr 35 min 39 sec)
Heartbeat CPU 0 instructions: 380000003 cycles: 183332404 heartbeat IPC: 1.542 cumulative IPC: 1.936 (Simulation time: 00 hr 36 min 54 sec)
Heartbeat CPU 0 instructions: 390000004 cycles: 189734894 heartbeat IPC: 1.562 cumulative IPC: 1.922 (Simulation time: 00 hr 38 min 09 sec)
Heartbeat CPU 0 instructions: 400000000 cycles: 196229729 heartbeat IPC: 1.54 cumulative IPC: 1.909 (Simulation time: 00 hr 39 min 25 sec)
Heartbeat CPU 0 instructions: 410000003 cycles: 202655207 heartbeat IPC: 1.556 cumulative IPC: 1.897 (Simulation time: 00 hr 40 min 37 sec)
Heartbeat CPU 0 instructions: 420000000 cycles: 209096747 heartbeat IPC: 1.552 cumulative IPC: 1.886 (Simulation time: 00 hr 41 min 49 sec)
Heartbeat CPU 0 instructions: 430000001 cycles: 214657384 heartbeat IPC: 1.798 cumulative IPC: 1.883 (Simulation time: 00 hr 42 min 56 sec)
Heartbeat CPU 0 instructions: 440000002 cycles: 220694630 heartbeat IPC: 1.656 cumulative IPC: 1.877 (Simulation time: 00 hr 44 min 07 sec)
Heartbeat CPU 0 instructions: 450000000 cycles: 227278913 heartbeat IPC: 1.519 cumulative IPC: 1.866 (Simulation time: 00 hr 45 min 22 sec)
Heartbeat CPU 0 instructions: 460000003 cycles: 233861305 heartbeat IPC: 1.519 cumulative IPC: 1.855 (Simulation time: 00 hr 46 min 38 sec)
Heartbeat CPU 0 instructions: 470000004 cycles: 240381923 heartbeat IPC: 1.534 cumulative IPC: 1.846 (Simulation time: 00 hr 47 min 52 sec)
Heartbeat CPU 0 instructions: 480000000 cycles: 246975509 heartbeat IPC: 1.517 cumulative IPC: 1.837 (Simulation time: 00 hr 49 min 06 sec)
Heartbeat CPU 0 instructions: 490000001 cycles: 253531374 heartbeat IPC: 1.525 cumulative IPC: 1.828 (Simulation time: 00 hr 50 min 20 sec)
Heartbeat CPU 0 instructions: 500000001 cycles: 260109841 heartbeat IPC: 1.52 cumulative IPC: 1.82 (Simulation time: 00 hr 51 min 35 sec)
Heartbeat CPU 0 instructions: 510000002 cycles: 266624639 heartbeat IPC: 1.535 cumulative IPC: 1.813 (Simulation time: 00 hr 52 min 48 sec)
Heartbeat CPU 0 instructions: 520000001 cycles: 332361577 heartbeat IPC: 0.1521 cumulative IPC: 1.471 (Simulation time: 01 hr 01 min 50 sec)
Heartbeat CPU 0 instructions: 530000001 cycles: 446698287 heartbeat IPC: 0.08746 cumulative IPC: 1.106 (Simulation time: 01 hr 16 min 29 sec)
Heartbeat CPU 0 instructions: 540000002 cycles: 476388375 heartbeat IPC: 0.3368 cumulative IPC: 1.057 (Simulation time: 01 hr 20 min 35 sec)
Heartbeat CPU 0 instructions: 550000003 cycles: 506870689 heartbeat IPC: 0.3281 cumulative IPC: 1.012 (Simulation time: 01 hr 24 min 45 sec)
Heartbeat CPU 0 instructions: 560000001 cycles: 537531908 heartbeat IPC: 0.3261 cumulative IPC: 0.9721 (Simulation time: 01 hr 29 min 02 sec)
Heartbeat CPU 0 instructions: 570000001 cycles: 567937609 heartbeat IPC: 0.3289 cumulative IPC: 0.9368 (Simulation time: 01 hr 33 min 12 sec)
Heartbeat CPU 0 instructions: 580000002 cycles: 598894403 heartbeat IPC: 0.323 cumulative IPC: 0.9044 (Simulation time: 01 hr 37 min 30 sec)
Heartbeat CPU 0 instructions: 590000001 cycles: 629922331 heartbeat IPC: 0.3223 cumulative IPC: 0.8751 (Simulation time: 01 hr 41 min 51 sec)
*** Reached end of trace: (0, "traces/bt.A.champsimtrace")
Heartbeat CPU 0 instructions: 600000002 cycles: 660706528 heartbeat IPC: 0.3248 cumulative IPC: 0.849 (Simulation time: 01 hr 46 min 06 sec)
Heartbeat CPU 0 instructions: 610000004 cycles: 689648839 heartbeat IPC: 0.3455 cumulative IPC: 0.8275 (Simulation time: 01 hr 49 min 15 sec)
Heartbeat CPU 0 instructions: 620000000 cycles: 692148961 heartbeat IPC: 4 cumulative IPC: 0.8391 (Simulation time: 01 hr 50 min 01 sec)
Heartbeat CPU 0 instructions: 630000002 cycles: 694649083 heartbeat IPC: 4 cumulative IPC: 0.8507 (Simulation time: 01 hr 50 min 51 sec)
Heartbeat CPU 0 instructions: 640000001 cycles: 697149204 heartbeat IPC: 4 cumulative IPC: 0.8622 (Simulation time: 01 hr 51 min 36 sec)
Heartbeat CPU 0 instructions: 650000002 cycles: 699649312 heartbeat IPC: 4 cumulative IPC: 0.8737 (Simulation time: 01 hr 52 min 20 sec)
Simulation finished CPU 0 instructions: 600000002 cycles: 686768270 cumulative IPC: 0.8737 (Simulation time: 01 hr 52 min 20 sec)
Simulation complete CPU 0 instructions: 600000002 cycles: 686768270 cumulative IPC: 0.8737 (Simulation time: 01 hr 52 min 20 sec)

ChampSim completed all CPUs

=== Simulation ===
CPU 0 runs traces/bt.A.champsimtrace
Region of Interest Statistics

CPU 0 cumulative IPC: 0.8737 instructions: 600000002 cycles: 686768270
CPU 0 Branch Prediction Accuracy: 99.98% MPKI: 0.004168 Average ROB Occupancy at Mispredict: 111.6
Branch type MPKI
BRANCH_DIRECT_JUMP: 5e-06
BRANCH_INDIRECT: 7.83e-05
BRANCH_CONDITIONAL: 0.00402
BRANCH_DIRECT_CALL: 6.67e-06
BRANCH_INDIRECT_CALL: 3.67e-05
BRANCH_RETURN: 2.33e-05

LLC TOTAL        ACCESS:    5122101 HIT:    2479444 MISS:    2642657
LLC LOAD         ACCESS:    2240505 HIT:     489020 MISS:    1751485
LLC RFO          ACCESS:     889446 HIT:       6944 MISS:     882502
LLC PREFETCH     ACCESS:          0 HIT:          0 MISS:          0
LLC WRITE        ACCESS:    1988773 HIT:    1981898 MISS:       6875
LLC TRANSLATION  ACCESS:       3377 HIT:       1582 MISS:       1795
LLC PREFETCH REQUESTED:          0 ISSUED:          0 USEFUL:          0 USELESS:          0
LLC AVERAGE MISS LATENCY: 1226 cycles
cpu0_DTLB TOTAL        ACCESS:  127548514 HIT:  126769491 MISS:     779023
cpu0_DTLB LOAD         ACCESS:  127548514 HIT:  126769491 MISS:     779023
cpu0_DTLB RFO          ACCESS:          0 HIT:          0 MISS:          0
cpu0_DTLB PREFETCH     ACCESS:          0 HIT:          0 MISS:          0
cpu0_DTLB WRITE        ACCESS:          0 HIT:          0 MISS:          0
cpu0_DTLB TRANSLATION  ACCESS:          0 HIT:          0 MISS:          0
cpu0_DTLB PREFETCH REQUESTED:          0 ISSUED:          0 USEFUL:          0 USELESS:          0
cpu0_DTLB AVERAGE MISS LATENCY: 14.29 cycles
cpu0_ITLB TOTAL        ACCESS:     172838 HIT:     172590 MISS:        248
cpu0_ITLB LOAD         ACCESS:     172838 HIT:     172590 MISS:        248
cpu0_ITLB RFO          ACCESS:          0 HIT:          0 MISS:          0
cpu0_ITLB PREFETCH     ACCESS:          0 HIT:          0 MISS:          0
cpu0_ITLB WRITE        ACCESS:          0 HIT:          0 MISS:          0
cpu0_ITLB TRANSLATION  ACCESS:          0 HIT:          0 MISS:          0
cpu0_ITLB PREFETCH REQUESTED:          0 ISSUED:          0 USEFUL:          0 USELESS:          0
cpu0_ITLB AVERAGE MISS LATENCY: 322.6 cycles
cpu0_L1D TOTAL        ACCESS:  195057389 HIT:  181022652 MISS:   14034737
cpu0_L1D LOAD         ACCESS:  160375101 HIT:  150459334 MISS:    9915767
cpu0_L1D RFO          ACCESS:          0 HIT:          0 MISS:          0
cpu0_L1D PREFETCH     ACCESS:          0 HIT:          0 MISS:          0
cpu0_L1D WRITE        ACCESS:   34635513 HIT:   30533649 MISS:    4101864
cpu0_L1D TRANSLATION  ACCESS:      46775 HIT:      29669 MISS:      17106
cpu0_L1D PREFETCH REQUESTED:          0 ISSUED:          0 USEFUL:          0 USELESS:          0
cpu0_L1D AVERAGE MISS LATENCY: 173.2 cycles
cpu0_L1I TOTAL        ACCESS:     205881 HIT:     202923 MISS:       2958
cpu0_L1I LOAD         ACCESS:     205881 HIT:     202923 MISS:       2958
cpu0_L1I RFO          ACCESS:          0 HIT:          0 MISS:          0
cpu0_L1I PREFETCH     ACCESS:          0 HIT:          0 MISS:          0
cpu0_L1I WRITE        ACCESS:          0 HIT:          0 MISS:          0
cpu0_L1I TRANSLATION  ACCESS:          0 HIT:          0 MISS:          0
cpu0_L1I PREFETCH REQUESTED:          0 ISSUED:          0 USEFUL:          0 USELESS:          0
cpu0_L1I AVERAGE MISS LATENCY: 485.5 cycles
cpu0_L2C TOTAL        ACCESS:    5272429 HIT:    2138586 MISS:    3133843
cpu0_L2C LOAD         ACCESS:    2366315 HIT:     125751 MISS:    2240564
cpu0_L2C RFO          ACCESS:     889975 HIT:        529 MISS:     889446
cpu0_L2C PREFETCH     ACCESS:          0 HIT:          0 MISS:          0
cpu0_L2C WRITE        ACCESS:    1999035 HIT:    1998579 MISS:        456
cpu0_L2C TRANSLATION  ACCESS:      17104 HIT:      13727 MISS:       3377
cpu0_L2C PREFETCH REQUESTED:          0 ISSUED:          0 USEFUL:          0 USELESS:          0
cpu0_L2C AVERAGE MISS LATENCY: 1055 cycles
cpu0_STLB TOTAL        ACCESS:     315004 HIT:     268251 MISS:      46753
cpu0_STLB LOAD         ACCESS:     315004 HIT:     268251 MISS:      46753
cpu0_STLB RFO          ACCESS:          0 HIT:          0 MISS:          0
cpu0_STLB PREFETCH     ACCESS:          0 HIT:          0 MISS:          0
cpu0_STLB WRITE        ACCESS:          0 HIT:          0 MISS:          0
cpu0_STLB TRANSLATION  ACCESS:          0 HIT:          0 MISS:          0
cpu0_STLB PREFETCH REQUESTED:          0 ISSUED:          0 USEFUL:          0 USELESS:          0
cpu0_STLB AVERAGE MISS LATENCY: 310.2 cycles

DRAM Statistics

Channel 0 RQ ROW_BUFFER_HIT:     684443
  ROW_BUFFER_MISS:    1951314
 AVG DBUS CONGESTED CYCLE: 3.975
WQ ROW_BUFFER_HIT: Channel 0 
  ROW_BUFFER_MISS:     340193
  FULL:    1391453
