WARNING: physical memory size is smaller than virtual memory size.

*** ChampSim Multicore Out-of-Order Simulator ***
Warmup Instructions: 50000000
Simulation Instructions: 600000000
Number of CPUs: 1
Page size: 4096

Off-chip DRAM Size: 4 GiB Channels: 1 Width: 64-bit Data Race: 3200 MT/s
Heartbeat CPU 0 instructions: 10000000 cycles: 2881042 heartbeat IPC: 3.471 cumulative IPC: 3.471 (Simulation time: 00 hr 00 min 38 sec)
Heartbeat CPU 0 instructions: 20000000 cycles: 5381042 heartbeat IPC: 4 cumulative IPC: 3.717 (Simulation time: 00 hr 01 min 11 sec)
Heartbeat CPU 0 instructions: 30000000 cycles: 7881042 heartbeat IPC: 4 cumulative IPC: 3.807 (Simulation time: 00 hr 01 min 42 sec)
Heartbeat CPU 0 instructions: 40000000 cycles: 10381042 heartbeat IPC: 4 cumulative IPC: 3.853 (Simulation time: 00 hr 02 min 13 sec)
Heartbeat CPU 0 instructions: 50000000 cycles: 12881042 heartbeat IPC: 4 cumulative IPC: 3.882 (Simulation time: 00 hr 02 min 45 sec)
Warmup finished CPU 0 instructions: 50000000 cycles: 12881043 cumulative IPC: 3.882 (Simulation time: 00 hr 02 min 45 sec)
Warmup complete CPU 0 instructions: 50000000 cycles: 12881043 cumulative IPC: 3.882 (Simulation time: 00 hr 02 min 45 sec)
Heartbeat CPU 0 instructions: 60000004 cycles: 15383651 heartbeat IPC: 3.996 cumulative IPC: 3.996 (Simulation time: 00 hr 03 min 24 sec)
Heartbeat CPU 0 instructions: 70000002 cycles: 17886014 heartbeat IPC: 3.996 cumulative IPC: 3.996 (Simulation time: 00 hr 04 min 02 sec)
Heartbeat CPU 0 instructions: 80000002 cycles: 20388420 heartbeat IPC: 3.996 cumulative IPC: 3.996 (Simulation time: 00 hr 04 min 40 sec)
Heartbeat CPU 0 instructions: 90000004 cycles: 22890843 heartbeat IPC: 3.996 cumulative IPC: 3.996 (Simulation time: 00 hr 05 min 18 sec)
Heartbeat CPU 0 instructions: 100000000 cycles: 25393248 heartbeat IPC: 3.996 cumulative IPC: 3.996 (Simulation time: 00 hr 05 min 56 sec)
Heartbeat CPU 0 instructions: 110000002 cycles: 27895654 heartbeat IPC: 3.996 cumulative IPC: 3.996 (Simulation time: 00 hr 06 min 35 sec)
Heartbeat CPU 0 instructions: 120000000 cycles: 30398051 heartbeat IPC: 3.996 cumulative IPC: 3.996 (Simulation time: 00 hr 07 min 11 sec)
Heartbeat CPU 0 instructions: 130000002 cycles: 32900458 heartbeat IPC: 3.996 cumulative IPC: 3.996 (Simulation time: 00 hr 07 min 49 sec)
Heartbeat CPU 0 instructions: 140000004 cycles: 35402867 heartbeat IPC: 3.996 cumulative IPC: 3.996 (Simulation time: 00 hr 08 min 26 sec)
Heartbeat CPU 0 instructions: 150000000 cycles: 37905229 heartbeat IPC: 3.996 cumulative IPC: 3.996 (Simulation time: 00 hr 09 min 04 sec)
Heartbeat CPU 0 instructions: 160000003 cycles: 40407636 heartbeat IPC: 3.996 cumulative IPC: 3.996 (Simulation time: 00 hr 09 min 41 sec)
Heartbeat CPU 0 instructions: 170000002 cycles: 42910100 heartbeat IPC: 3.996 cumulative IPC: 3.996 (Simulation time: 00 hr 10 min 17 sec)
Heartbeat CPU 0 instructions: 180000000 cycles: 45412462 heartbeat IPC: 3.996 cumulative IPC: 3.996 (Simulation time: 00 hr 10 min 54 sec)
Heartbeat CPU 0 instructions: 190000003 cycles: 47914943 heartbeat IPC: 3.996 cumulative IPC: 3.996 (Simulation time: 00 hr 11 min 30 sec)
Heartbeat CPU 0 instructions: 200000000 cycles: 50417395 heartbeat IPC: 3.996 cumulative IPC: 3.996 (Simulation time: 00 hr 12 min 06 sec)
Heartbeat CPU 0 instructions: 210000000 cycles: 52919800 heartbeat IPC: 3.996 cumulative IPC: 3.996 (Simulation time: 00 hr 12 min 42 sec)
Heartbeat CPU 0 instructions: 220000003 cycles: 55422254 heartbeat IPC: 3.996 cumulative IPC: 3.996 (Simulation time: 00 hr 13 min 21 sec)
Heartbeat CPU 0 instructions: 230000001 cycles: 91459840 heartbeat IPC: 0.2775 cumulative IPC: 2.291 (Simulation time: 00 hr 17 min 07 sec)
Heartbeat CPU 0 instructions: 240000002 cycles: 97475186 heartbeat IPC: 1.662 cumulative IPC: 2.246 (Simulation time: 00 hr 18 min 12 sec)
Heartbeat CPU 0 instructions: 250000000 cycles: 103514713 heartbeat IPC: 1.656 cumulative IPC: 2.207 (Simulation time: 00 hr 19 min 17 sec)
Heartbeat CPU 0 instructions: 260000004 cycles: 109559808 heartbeat IPC: 1.654 cumulative IPC: 2.172 (Simulation time: 00 hr 20 min 26 sec)
Heartbeat CPU 0 instructions: 270000003 cycles: 115607926 heartbeat IPC: 1.653 cumulative IPC: 2.142 (Simulation time: 00 hr 21 min 32 sec)
Heartbeat CPU 0 instructions: 280000001 cycles: 121654436 heartbeat IPC: 1.654 cumulative IPC: 2.114 (Simulation time: 00 hr 22 min 37 sec)
Heartbeat CPU 0 instructions: 290000000 cycles: 127701388 heartbeat IPC: 1.654 cumulative IPC: 2.09 (Simulation time: 00 hr 23 min 41 sec)
Heartbeat CPU 0 instructions: 300000003 cycles: 133769539 heartbeat IPC: 1.648 cumulative IPC: 2.068 (Simulation time: 00 hr 24 min 47 sec)
Heartbeat CPU 0 instructions: 310000002 cycles: 139843170 heartbeat IPC: 1.646 cumulative IPC: 2.048 (Simulation time: 00 hr 25 min 55 sec)
Heartbeat CPU 0 instructions: 320000002 cycles: 145883860 heartbeat IPC: 1.655 cumulative IPC: 2.03 (Simulation time: 00 hr 26 min 59 sec)
Heartbeat CPU 0 instructions: 330000004 cycles: 152310503 heartbeat IPC: 1.556 cumulative IPC: 2.008 (Simulation time: 00 hr 28 min 06 sec)
Heartbeat CPU 0 instructions: 340000002 cycles: 158852859 heartbeat IPC: 1.529 cumulative IPC: 1.987 (Simulation time: 00 hr 29 min 14 sec)
Heartbeat CPU 0 instructions: 350000002 cycles: 165322376 heartbeat IPC: 1.546 cumulative IPC: 1.968 (Simulation time: 00 hr 30 min 20 sec)
Heartbeat CPU 0 instructions: 360000000 cycles: 171903335 heartbeat IPC: 1.52 cumulative IPC: 1.949 (Simulation time: 00 hr 31 min 27 sec)
Heartbeat CPU 0 instructions: 370000001 cycles: 178361901 heartbeat IPC: 1.548 cumulative IPC: 1.934 (Simulation time: 00 hr 32 min 34 sec)
Heartbeat CPU 0 instructions: 380000003 cycles: 184968685 heartbeat IPC: 1.514 cumulative IPC: 1.918 (Simulation time: 00 hr 33 min 43 sec)
Heartbeat CPU 0 instructions: 390000004 cycles: 191491534 heartbeat IPC: 1.533 cumulative IPC: 1.904 (Simulation time: 00 hr 34 min 51 sec)
Heartbeat CPU 0 instructions: 400000000 cycles: 198085442 heartbeat IPC: 1.517 cumulative IPC: 1.89 (Simulation time: 00 hr 36 min 00 sec)
Heartbeat CPU 0 instructions: 410000003 cycles: 204583967 heartbeat IPC: 1.539 cumulative IPC: 1.878 (Simulation time: 00 hr 37 min 07 sec)
Heartbeat CPU 0 instructions: 420000000 cycles: 211154673 heartbeat IPC: 1.522 cumulative IPC: 1.866 (Simulation time: 00 hr 38 min 15 sec)
Heartbeat CPU 0 instructions: 430000001 cycles: 216762782 heartbeat IPC: 1.783 cumulative IPC: 1.864 (Simulation time: 00 hr 39 min 19 sec)
Heartbeat CPU 0 instructions: 440000002 cycles: 222802473 heartbeat IPC: 1.656 cumulative IPC: 1.858 (Simulation time: 00 hr 40 min 25 sec)
Heartbeat CPU 0 instructions: 450000000 cycles: 229392947 heartbeat IPC: 1.517 cumulative IPC: 1.847 (Simulation time: 00 hr 41 min 34 sec)
Heartbeat CPU 0 instructions: 460000003 cycles: 236017455 heartbeat IPC: 1.51 cumulative IPC: 1.837 (Simulation time: 00 hr 42 min 41 sec)
Heartbeat CPU 0 instructions: 470000004 cycles: 242629662 heartbeat IPC: 1.512 cumulative IPC: 1.828 (Simulation time: 00 hr 43 min 49 sec)
Heartbeat CPU 0 instructions: 480000000 cycles: 249247684 heartbeat IPC: 1.511 cumulative IPC: 1.819 (Simulation time: 00 hr 44 min 57 sec)
Heartbeat CPU 0 instructions: 490000001 cycles: 255852667 heartbeat IPC: 1.514 cumulative IPC: 1.811 (Simulation time: 00 hr 46 min 04 sec)
Heartbeat CPU 0 instructions: 500000001 cycles: 262510746 heartbeat IPC: 1.502 cumulative IPC: 1.803 (Simulation time: 00 hr 47 min 12 sec)
Heartbeat CPU 0 instructions: 510000002 cycles: 269089266 heartbeat IPC: 1.52 cumulative IPC: 1.795 (Simulation time: 00 hr 48 min 19 sec)
Heartbeat CPU 0 instructions: 520000001 cycles: 334916247 heartbeat IPC: 0.1519 cumulative IPC: 1.459 (Simulation time: 00 hr 56 min 37 sec)
Heartbeat CPU 0 instructions: 530000001 cycles: 449550298 heartbeat IPC: 0.08723 cumulative IPC: 1.099 (Simulation time: 01 hr 11 min 09 sec)
Heartbeat CPU 0 instructions: 540000002 cycles: 479265961 heartbeat IPC: 0.3365 cumulative IPC: 1.051 (Simulation time: 01 hr 15 min 14 sec)
Heartbeat CPU 0 instructions: 550000003 cycles: 509766550 heartbeat IPC: 0.3279 cumulative IPC: 1.006 (Simulation time: 01 hr 19 min 16 sec)
Heartbeat CPU 0 instructions: 560000001 cycles: 540482350 heartbeat IPC: 0.3256 cumulative IPC: 0.9666 (Simulation time: 01 hr 23 min 22 sec)
Heartbeat CPU 0 instructions: 570000000 cycles: 570975413 heartbeat IPC: 0.3279 cumulative IPC: 0.9317 (Simulation time: 01 hr 27 min 28 sec)
Heartbeat CPU 0 instructions: 580000002 cycles: 601943838 heartbeat IPC: 0.3229 cumulative IPC: 0.8997 (Simulation time: 01 hr 31 min 35 sec)
Heartbeat CPU 0 instructions: 590000001 cycles: 633079147 heartbeat IPC: 0.3212 cumulative IPC: 0.8707 (Simulation time: 01 hr 35 min 45 sec)
*** Reached end of trace: (0, "traces/bt.A.champsimtrace")
Heartbeat CPU 0 instructions: 600000002 cycles: 663858634 heartbeat IPC: 0.3249 cumulative IPC: 0.8449 (Simulation time: 01 hr 39 min 51 sec)
Heartbeat CPU 0 instructions: 610000004 cycles: 693004136 heartbeat IPC: 0.3431 cumulative IPC: 0.8234 (Simulation time: 01 hr 42 min 45 sec)
Heartbeat CPU 0 instructions: 620000000 cycles: 695506556 heartbeat IPC: 3.996 cumulative IPC: 0.835 (Simulation time: 01 hr 43 min 21 sec)
Heartbeat CPU 0 instructions: 630000002 cycles: 698008964 heartbeat IPC: 3.996 cumulative IPC: 0.8466 (Simulation time: 01 hr 43 min 57 sec)
Heartbeat CPU 0 instructions: 640000000 cycles: 700511372 heartbeat IPC: 3.996 cumulative IPC: 0.858 (Simulation time: 01 hr 44 min 33 sec)
Heartbeat CPU 0 instructions: 650000002 cycles: 703013769 heartbeat IPC: 3.996 cumulative IPC: 0.8694 (Simulation time: 01 hr 45 min 10 sec)
Simulation finished CPU 0 instructions: 600000002 cycles: 690132727 cumulative IPC: 0.8694 (Simulation time: 01 hr 45 min 10 sec)
Simulation complete CPU 0 instructions: 600000002 cycles: 690132727 cumulative IPC: 0.8694 (Simulation time: 01 hr 45 min 10 sec)

ChampSim completed all CPUs

=== Simulation ===
CPU 0 runs traces/bt.A.champsimtrace
Region of Interest Statistics

CPU 0 cumulative IPC: 0.8694 instructions: 600000002 cycles: 690132727
CPU 0 Branch Prediction Accuracy: 99.29% MPKI: 0.1296 Average ROB Occupancy at Mispredict: 279.9
Branch type MPKI
BRANCH_DIRECT_JUMP: 5e-06
BRANCH_INDIRECT: 7.83e-05
BRANCH_CONDITIONAL: 0.129
BRANCH_DIRECT_CALL: 6.67e-06
BRANCH_INDIRECT_CALL: 3.67e-05
BRANCH_RETURN: 2.33e-05

LLC TOTAL        ACCESS:    5121798 HIT:    2478281 MISS:    2643517
LLC LOAD         ACCESS:    2240368 HIT:     488688 MISS:    1751680
LLC RFO          ACCESS:     889449 HIT:       6946 MISS:     882503
LLC PREFETCH     ACCESS:          0 HIT:          0 MISS:          0
LLC WRITE        ACCESS:    1988604 HIT:    1981065 MISS:       7539
LLC TRANSLATION  ACCESS:       3377 HIT:       1582 MISS:       1795
LLC PREFETCH REQUESTED:          0 ISSUED:          0 USEFUL:          0 USELESS:          0
LLC AVERAGE MISS LATENCY: 1228 cycles
cpu0_DTLB TOTAL        ACCESS:  126757966 HIT:  125993231 MISS:     764735
cpu0_DTLB LOAD         ACCESS:  126757966 HIT:  125993231 MISS:     764735
cpu0_DTLB RFO          ACCESS:          0 HIT:          0 MISS:          0
cpu0_DTLB PREFETCH     ACCESS:          0 HIT:          0 MISS:          0
cpu0_DTLB WRITE        ACCESS:          0 HIT:          0 MISS:          0
cpu0_DTLB TRANSLATION  ACCESS:          0 HIT:          0 MISS:          0
cpu0_DTLB PREFETCH REQUESTED:          0 ISSUED:          0 USEFUL:          0 USELESS:          0
cpu0_DTLB AVERAGE MISS LATENCY: 14.77 cycles
cpu0_ITLB TOTAL        ACCESS:     145121 HIT:     144875 MISS:        246
cpu0_ITLB LOAD         ACCESS:     145121 HIT:     144875 MISS:        246
cpu0_ITLB RFO          ACCESS:          0 HIT:          0 MISS:          0
cpu0_ITLB PREFETCH     ACCESS:          0 HIT:          0 MISS:          0
cpu0_ITLB WRITE        ACCESS:          0 HIT:          0 MISS:          0
cpu0_ITLB TRANSLATION  ACCESS:          0 HIT:          0 MISS:          0
cpu0_ITLB PREFETCH REQUESTED:          0 ISSUED:          0 USEFUL:          0 USELESS:          0
cpu0_ITLB AVERAGE MISS LATENCY: 303.6 cycles
cpu0_L1D TOTAL        ACCESS:  194051183 HIT:  179999593 MISS:   14051590
cpu0_L1D LOAD         ACCESS:  159368878 HIT:  149434506 MISS:    9934372
cpu0_L1D RFO          ACCESS:          0 HIT:          0 MISS:          0
cpu0_L1D PREFETCH     ACCESS:          0 HIT:          0 MISS:          0
cpu0_L1D WRITE        ACCESS:   34635529 HIT:   30535430 MISS:    4100099
cpu0_L1D TRANSLATION  ACCESS:      46776 HIT:      29657 MISS:      17119
cpu0_L1D PREFETCH REQUESTED:          0 ISSUED:          0 USEFUL:          0 USELESS:          0
cpu0_L1D AVERAGE MISS LATENCY: 173.2 cycles
cpu0_L1I TOTAL        ACCESS:     194854 HIT:     192063 MISS:       2791
cpu0_L1I LOAD         ACCESS:     194854 HIT:     192063 MISS:       2791
cpu0_L1I RFO          ACCESS:          0 HIT:          0 MISS:          0
cpu0_L1I PREFETCH     ACCESS:          0 HIT:          0 MISS:          0
cpu0_L1I WRITE        ACCESS:          0 HIT:          0 MISS:          0
cpu0_L1I TRANSLATION  ACCESS:          0 HIT:          0 MISS:          0
cpu0_L1I PREFETCH REQUESTED:          0 ISSUED:          0 USEFUL:          0 USELESS:          0
cpu0_L1I AVERAGE MISS LATENCY: 513.6 cycles
cpu0_L2C TOTAL        ACCESS:    5272219 HIT:    2138533 MISS:    3133686
cpu0_L2C LOAD         ACCESS:    2366095 HIT:     125689 MISS:    2240406
cpu0_L2C RFO          ACCESS:     889976 HIT:        527 MISS:     889449
cpu0_L2C PREFETCH     ACCESS:          0 HIT:          0 MISS:          0
cpu0_L2C WRITE        ACCESS:    1999033 HIT:    1998579 MISS:        454
cpu0_L2C TRANSLATION  ACCESS:      17115 HIT:      13738 MISS:       3377
cpu0_L2C PREFETCH REQUESTED:          0 ISSUED:          0 USEFUL:          0 USELESS:          0
cpu0_L2C AVERAGE MISS LATENCY: 1057 cycles
cpu0_STLB TOTAL        ACCESS:     311331 HIT:     264578 MISS:      46753
cpu0_STLB LOAD         ACCESS:     311331 HIT:     264578 MISS:      46753
cpu0_STLB RFO          ACCESS:          0 HIT:          0 MISS:          0
cpu0_STLB PREFETCH     ACCESS:          0 HIT:          0 MISS:          0
cpu0_STLB WRITE        ACCESS:          0 HIT:          0 MISS:          0
cpu0_STLB TRANSLATION  ACCESS:          0 HIT:          0 MISS:          0
cpu0_STLB PREFETCH REQUESTED:          0 ISSUED:          0 USEFUL:          0 USELESS:          0
cpu0_STLB AVERAGE MISS LATENCY: 315.6 cycles

DRAM Statistics

Channel 0 RQ ROW_BUFFER_HIT:     673621
  ROW_BUFFER_MISS:    1962338
 AVG DBUS CONGESTED CYCLE: 3.975
WQ ROW_BUFFER_HIT: Channel 0 
  ROW_BUFFER_MISS:     338603
  FULL:    1393027
