WARNING: physical memory size is smaller than virtual memory size.

*** ChampSim Multicore Out-of-Order Simulator ***
Warmup Instructions: 50000000
Simulation Instructions: 600000000
Number of CPUs: 1
Page size: 4096

Off-chip DRAM Size: 4 GiB Channels: 1 Width: 64-bit Data Race: 3200 MT/s
Heartbeat CPU 0 instructions: 10000000 cycles: 2881042 heartbeat IPC: 3.471 cumulative IPC: 3.471 (Simulation time: 00 hr 00 min 22 sec)
Heartbeat CPU 0 instructions: 20000000 cycles: 5381042 heartbeat IPC: 4 cumulative IPC: 3.717 (Simulation time: 00 hr 00 min 51 sec)
Heartbeat CPU 0 instructions: 30000000 cycles: 7881042 heartbeat IPC: 4 cumulative IPC: 3.807 (Simulation time: 00 hr 01 min 25 sec)
Heartbeat CPU 0 instructions: 40000000 cycles: 10381042 heartbeat IPC: 4 cumulative IPC: 3.853 (Simulation time: 00 hr 02 min 03 sec)
Heartbeat CPU 0 instructions: 50000000 cycles: 12881042 heartbeat IPC: 4 cumulative IPC: 3.882 (Simulation time: 00 hr 02 min 39 sec)
Warmup finished CPU 0 instructions: 50000000 cycles: 12881043 cumulative IPC: 3.882 (Simulation time: 00 hr 02 min 39 sec)
Warmup complete CPU 0 instructions: 50000000 cycles: 12881043 cumulative IPC: 3.882 (Simulation time: 00 hr 02 min 39 sec)
Heartbeat CPU 0 instructions: 60000004 cycles: 15384288 heartbeat IPC: 3.995 cumulative IPC: 3.995 (Simulation time: 00 hr 03 min 23 sec)
Heartbeat CPU 0 instructions: 70000002 cycles: 17887522 heartbeat IPC: 3.995 cumulative IPC: 3.995 (Simulation time: 00 hr 04 min 06 sec)
Heartbeat CPU 0 instructions: 80000002 cycles: 20390731 heartbeat IPC: 3.995 cumulative IPC: 3.995 (Simulation time: 00 hr 04 min 49 sec)
Heartbeat CPU 0 instructions: 90000004 cycles: 22893154 heartbeat IPC: 3.996 cumulative IPC: 3.995 (Simulation time: 00 hr 05 min 32 sec)
Heartbeat CPU 0 instructions: 100000000 cycles: 25395559 heartbeat IPC: 3.996 cumulative IPC: 3.995 (Simulation time: 00 hr 06 min 16 sec)
Heartbeat CPU 0 instructions: 110000002 cycles: 27898275 heartbeat IPC: 3.996 cumulative IPC: 3.995 (Simulation time: 00 hr 06 min 59 sec)
Heartbeat CPU 0 instructions: 120000000 cycles: 30401900 heartbeat IPC: 3.994 cumulative IPC: 3.995 (Simulation time: 00 hr 07 min 43 sec)
Heartbeat CPU 0 instructions: 130000002 cycles: 32906063 heartbeat IPC: 3.993 cumulative IPC: 3.995 (Simulation time: 00 hr 08 min 25 sec)
Heartbeat CPU 0 instructions: 140000004 cycles: 35408598 heartbeat IPC: 3.996 cumulative IPC: 3.995 (Simulation time: 00 hr 09 min 06 sec)
Heartbeat CPU 0 instructions: 150000000 cycles: 37910960 heartbeat IPC: 3.996 cumulative IPC: 3.995 (Simulation time: 00 hr 09 min 49 sec)
Heartbeat CPU 0 instructions: 160000003 cycles: 40413409 heartbeat IPC: 3.996 cumulative IPC: 3.995 (Simulation time: 00 hr 10 min 31 sec)
Heartbeat CPU 0 instructions: 170000002 cycles: 42916203 heartbeat IPC: 3.996 cumulative IPC: 3.995 (Simulation time: 00 hr 11 min 12 sec)
Heartbeat CPU 0 instructions: 180000000 cycles: 45418617 heartbeat IPC: 3.996 cumulative IPC: 3.995 (Simulation time: 00 hr 11 min 52 sec)
Heartbeat CPU 0 instructions: 190000003 cycles: 47921397 heartbeat IPC: 3.996 cumulative IPC: 3.995 (Simulation time: 00 hr 12 min 31 sec)
Heartbeat CPU 0 instructions: 200000000 cycles: 50426026 heartbeat IPC: 3.993 cumulative IPC: 3.995 (Simulation time: 00 hr 13 min 10 sec)
Heartbeat CPU 0 instructions: 210000000 cycles: 52928657 heartbeat IPC: 3.996 cumulative IPC: 3.995 (Simulation time: 00 hr 13 min 50 sec)
Heartbeat CPU 0 instructions: 220000003 cycles: 55431111 heartbeat IPC: 3.996 cumulative IPC: 3.995 (Simulation time: 00 hr 14 min 28 sec)
Heartbeat CPU 0 instructions: 230000001 cycles: 89780350 heartbeat IPC: 0.2911 cumulative IPC: 2.341 (Simulation time: 00 hr 18 min 10 sec)
Heartbeat CPU 0 instructions: 240000002 cycles: 95700530 heartbeat IPC: 1.689 cumulative IPC: 2.294 (Simulation time: 00 hr 19 min 20 sec)
Heartbeat CPU 0 instructions: 250000000 cycles: 101756333 heartbeat IPC: 1.651 cumulative IPC: 2.25 (Simulation time: 00 hr 20 min 35 sec)
Heartbeat CPU 0 instructions: 260000004 cycles: 107802499 heartbeat IPC: 1.654 cumulative IPC: 2.212 (Simulation time: 00 hr 21 min 55 sec)
Heartbeat CPU 0 instructions: 270000003 cycles: 113874081 heartbeat IPC: 1.647 cumulative IPC: 2.178 (Simulation time: 00 hr 23 min 12 sec)
Heartbeat CPU 0 instructions: 280000001 cycles: 119945433 heartbeat IPC: 1.647 cumulative IPC: 2.148 (Simulation time: 00 hr 24 min 26 sec)
Heartbeat CPU 0 instructions: 290000000 cycles: 125974133 heartbeat IPC: 1.659 cumulative IPC: 2.122 (Simulation time: 00 hr 25 min 37 sec)
Heartbeat CPU 0 instructions: 300000003 cycles: 132055219 heartbeat IPC: 1.644 cumulative IPC: 2.098 (Simulation time: 00 hr 26 min 46 sec)
Heartbeat CPU 0 instructions: 310000001 cycles: 138089401 heartbeat IPC: 1.657 cumulative IPC: 2.077 (Simulation time: 00 hr 27 min 53 sec)
Heartbeat CPU 0 instructions: 320000002 cycles: 144144452 heartbeat IPC: 1.652 cumulative IPC: 2.057 (Simulation time: 00 hr 28 min 59 sec)
Heartbeat CPU 0 instructions: 330000004 cycles: 150746743 heartbeat IPC: 1.515 cumulative IPC: 2.031 (Simulation time: 00 hr 30 min 08 sec)
Heartbeat CPU 0 instructions: 340000002 cycles: 157585734 heartbeat IPC: 1.462 cumulative IPC: 2.004 (Simulation time: 00 hr 31 min 17 sec)
Heartbeat CPU 0 instructions: 350000002 cycles: 164396416 heartbeat IPC: 1.468 cumulative IPC: 1.98 (Simulation time: 00 hr 32 min 26 sec)
Heartbeat CPU 0 instructions: 360000002 cycles: 171247991 heartbeat IPC: 1.46 cumulative IPC: 1.957 (Simulation time: 00 hr 33 min 35 sec)
Heartbeat CPU 0 instructions: 370000001 cycles: 178004932 heartbeat IPC: 1.48 cumulative IPC: 1.938 (Simulation time: 00 hr 34 min 43 sec)
Heartbeat CPU 0 instructions: 380000003 cycles: 184800738 heartbeat IPC: 1.471 cumulative IPC: 1.92 (Simulation time: 00 hr 35 min 52 sec)
Heartbeat CPU 0 instructions: 390000004 cycles: 191585083 heartbeat IPC: 1.474 cumulative IPC: 1.903 (Simulation time: 00 hr 37 min 01 sec)
Heartbeat CPU 0 instructions: 400000000 cycles: 198457644 heartbeat IPC: 1.455 cumulative IPC: 1.886 (Simulation time: 00 hr 38 min 12 sec)
Heartbeat CPU 0 instructions: 410000003 cycles: 205232600 heartbeat IPC: 1.476 cumulative IPC: 1.872 (Simulation time: 00 hr 39 min 24 sec)
Heartbeat CPU 0 instructions: 420000000 cycles: 212026379 heartbeat IPC: 1.472 cumulative IPC: 1.858 (Simulation time: 00 hr 40 min 39 sec)
Heartbeat CPU 0 instructions: 430000002 cycles: 219025149 heartbeat IPC: 1.429 cumulative IPC: 1.843 (Simulation time: 00 hr 42 min 08 sec)
Heartbeat CPU 0 instructions: 440000002 cycles: 226144988 heartbeat IPC: 1.405 cumulative IPC: 1.829 (Simulation time: 00 hr 43 min 36 sec)
Heartbeat CPU 0 instructions: 450000000 cycles: 233289443 heartbeat IPC: 1.4 cumulative IPC: 1.815 (Simulation time: 00 hr 45 min 03 sec)
Heartbeat CPU 0 instructions: 460000003 cycles: 240461728 heartbeat IPC: 1.394 cumulative IPC: 1.802 (Simulation time: 00 hr 46 min 36 sec)
Heartbeat CPU 0 instructions: 470000004 cycles: 247621589 heartbeat IPC: 1.397 cumulative IPC: 1.789 (Simulation time: 00 hr 48 min 03 sec)
Heartbeat CPU 0 instructions: 480000000 cycles: 254768209 heartbeat IPC: 1.399 cumulative IPC: 1.778 (Simulation time: 00 hr 49 min 30 sec)
Heartbeat CPU 0 instructions: 490000001 cycles: 261883827 heartbeat IPC: 1.405 cumulative IPC: 1.767 (Simulation time: 00 hr 50 min 55 sec)
Heartbeat CPU 0 instructions: 500000001 cycles: 269047211 heartbeat IPC: 1.396 cumulative IPC: 1.757 (Simulation time: 00 hr 52 min 19 sec)
Heartbeat CPU 0 instructions: 510000002 cycles: 276244729 heartbeat IPC: 1.389 cumulative IPC: 1.747 (Simulation time: 00 hr 53 min 44 sec)
Heartbeat CPU 0 instructions: 520000003 cycles: 335085751 heartbeat IPC: 0.1699 cumulative IPC: 1.459 (Simulation time: 01 hr 02 min 49 sec)
Heartbeat CPU 0 instructions: 530000001 cycles: 441617674 heartbeat IPC: 0.09387 cumulative IPC: 1.12 (Simulation time: 01 hr 19 min 08 sec)
Heartbeat CPU 0 instructions: 540000002 cycles: 473859362 heartbeat IPC: 0.3102 cumulative IPC: 1.063 (Simulation time: 01 hr 24 min 33 sec)
Heartbeat CPU 0 instructions: 550000003 cycles: 509680308 heartbeat IPC: 0.2792 cumulative IPC: 1.006 (Simulation time: 01 hr 30 min 18 sec)
Heartbeat CPU 0 instructions: 560000002 cycles: 545600112 heartbeat IPC: 0.2784 cumulative IPC: 0.9574 (Simulation time: 01 hr 36 min 35 sec)
Heartbeat CPU 0 instructions: 570000000 cycles: 582122183 heartbeat IPC: 0.2738 cumulative IPC: 0.9135 (Simulation time: 01 hr 42 min 37 sec)
Heartbeat CPU 0 instructions: 580000003 cycles: 612698664 heartbeat IPC: 0.327 cumulative IPC: 0.8836 (Simulation time: 01 hr 47 min 16 sec)
Heartbeat CPU 0 instructions: 590000001 cycles: 649047439 heartbeat IPC: 0.2751 cumulative IPC: 0.8488 (Simulation time: 01 hr 52 min 36 sec)
*** Reached end of trace: (0, "traces/bt.A.champsimtrace")
Heartbeat CPU 0 instructions: 600000002 cycles: 685253244 heartbeat IPC: 0.2762 cumulative IPC: 0.818 (Simulation time: 01 hr 57 min 37 sec)
Heartbeat CPU 0 instructions: 610000004 cycles: 710109172 heartbeat IPC: 0.4023 cumulative IPC: 0.8032 (Simulation time: 02 hr 00 min 10 sec)
Heartbeat CPU 0 instructions: 620000000 cycles: 712611502 heartbeat IPC: 3.996 cumulative IPC: 0.8146 (Simulation time: 02 hr 00 min 48 sec)
Heartbeat CPU 0 instructions: 630000002 cycles: 715113820 heartbeat IPC: 3.996 cumulative IPC: 0.8259 (Simulation time: 02 hr 01 min 31 sec)
Heartbeat CPU 0 instructions: 640000000 cycles: 717616138 heartbeat IPC: 3.996 cumulative IPC: 0.8372 (Simulation time: 02 hr 02 min 11 sec)
Heartbeat CPU 0 instructions: 650000002 cycles: 720118534 heartbeat IPC: 3.996 cumulative IPC: 0.8484 (Simulation time: 02 hr 02 min 48 sec)
Simulation finished CPU 0 instructions: 600000002 cycles: 707237492 cumulative IPC: 0.8484 (Simulation time: 02 hr 02 min 48 sec)
Simulation complete CPU 0 instructions: 600000002 cycles: 707237492 cumulative IPC: 0.8484 (Simulation time: 02 hr 02 min 48 sec)

ChampSim completed all CPUs

=== Simulation ===
CPU 0 runs traces/bt.A.champsimtrace
Region of Interest Statistics

CPU 0 cumulative IPC: 0.8484 instructions: 600000002 cycles: 707237492
CPU 0 Branch Prediction Accuracy: 99.29% MPKI: 0.1296 Average ROB Occupancy at Mispredict: 280.2
Branch type MPKI
BRANCH_DIRECT_JUMP: 5e-06
BRANCH_INDIRECT: 7.83e-05
BRANCH_CONDITIONAL: 0.129
BRANCH_DIRECT_CALL: 6.67e-06
BRANCH_INDIRECT_CALL: 3.67e-05
BRANCH_RETURN: 2.33e-05

LLC TOTAL        ACCESS:    5120964 HIT:     573106 MISS:    4547858
LLC LOAD         ACCESS:    2239971 HIT:     322562 MISS:    1917409
LLC RFO          ACCESS:     889449 HIT:      63681 MISS:     825768
LLC PREFETCH     ACCESS:          0 HIT:          0 MISS:          0
LLC WRITE        ACCESS:    1988168 HIT:     186680 MISS:    1801488
LLC TRANSLATION  ACCESS:       3376 HIT:        183 MISS:       3193
LLC PREFETCH REQUESTED:          0 ISSUED:          0 USEFUL:          0 USELESS:          0
LLC AVERAGE MISS LATENCY: 704.3 cycles
cpu0_DTLB TOTAL        ACCESS:  126493485 HIT:  125728388 MISS:     765097
cpu0_DTLB LOAD         ACCESS:  126493485 HIT:  125728388 MISS:     765097
cpu0_DTLB RFO          ACCESS:          0 HIT:          0 MISS:          0
cpu0_DTLB PREFETCH     ACCESS:          0 HIT:          0 MISS:          0
cpu0_DTLB WRITE        ACCESS:          0 HIT:          0 MISS:          0
cpu0_DTLB TRANSLATION  ACCESS:          0 HIT:          0 MISS:          0
cpu0_DTLB PREFETCH REQUESTED:          0 ISSUED:          0 USEFUL:          0 USELESS:          0
cpu0_DTLB AVERAGE MISS LATENCY: 16.25 cycles
cpu0_ITLB TOTAL        ACCESS:     145737 HIT:     145504 MISS:        233
cpu0_ITLB LOAD         ACCESS:     145737 HIT:     145504 MISS:        233
cpu0_ITLB RFO          ACCESS:          0 HIT:          0 MISS:          0
cpu0_ITLB PREFETCH     ACCESS:          0 HIT:          0 MISS:          0
cpu0_ITLB WRITE        ACCESS:          0 HIT:          0 MISS:          0
cpu0_ITLB TRANSLATION  ACCESS:          0 HIT:          0 MISS:          0
cpu0_ITLB PREFETCH REQUESTED:          0 ISSUED:          0 USEFUL:          0 USELESS:          0
cpu0_ITLB AVERAGE MISS LATENCY: 299.3 cycles
cpu0_L1D TOTAL        ACCESS:  193740722 HIT:  179653971 MISS:   14086751
cpu0_L1D LOAD         ACCESS:  159058476 HIT:  149051265 MISS:   10007211
cpu0_L1D RFO          ACCESS:          0 HIT:          0 MISS:          0
cpu0_L1D PREFETCH     ACCESS:          0 HIT:          0 MISS:          0
cpu0_L1D WRITE        ACCESS:   34635471 HIT:   30573009 MISS:    4062462
cpu0_L1D TRANSLATION  ACCESS:      46775 HIT:      29697 MISS:      17078
cpu0_L1D PREFETCH REQUESTED:          0 ISSUED:          0 USEFUL:          0 USELESS:          0
cpu0_L1D AVERAGE MISS LATENCY: 170.1 cycles
cpu0_L1I TOTAL        ACCESS:     195599 HIT:     192794 MISS:       2805
cpu0_L1I LOAD         ACCESS:     195599 HIT:     192794 MISS:       2805
cpu0_L1I RFO          ACCESS:          0 HIT:          0 MISS:          0
cpu0_L1I PREFETCH     ACCESS:          0 HIT:          0 MISS:          0
cpu0_L1I WRITE        ACCESS:          0 HIT:          0 MISS:          0
cpu0_L1I TRANSLATION  ACCESS:          0 HIT:          0 MISS:          0
cpu0_L1I PREFETCH REQUESTED:          0 ISSUED:          0 USEFUL:          0 USELESS:          0
cpu0_L1I AVERAGE MISS LATENCY: 540 cycles
cpu0_L2C TOTAL        ACCESS:    5271395 HIT:    2138144 MISS:    3133251
cpu0_L2C LOAD         ACCESS:    2365230 HIT:     125258 MISS:    2239972
cpu0_L2C RFO          ACCESS:     889977 HIT:        528 MISS:     889449
cpu0_L2C PREFETCH     ACCESS:          0 HIT:          0 MISS:          0
cpu0_L2C WRITE        ACCESS:    1999114 HIT:    1998660 MISS:        454
cpu0_L2C TRANSLATION  ACCESS:      17074 HIT:      13698 MISS:       3376
cpu0_L2C PREFETCH REQUESTED:          0 ISSUED:          0 USEFUL:          0 USELESS:          0
cpu0_L2C AVERAGE MISS LATENCY: 1043 cycles
cpu0_STLB TOTAL        ACCESS:     311359 HIT:     264607 MISS:      46752
cpu0_STLB LOAD         ACCESS:     311359 HIT:     264607 MISS:      46752
cpu0_STLB RFO          ACCESS:          0 HIT:          0 MISS:          0
cpu0_STLB PREFETCH     ACCESS:          0 HIT:          0 MISS:          0
cpu0_STLB WRITE        ACCESS:          0 HIT:          0 MISS:          0
cpu0_STLB TRANSLATION  ACCESS:          0 HIT:          0 MISS:          0
cpu0_STLB PREFETCH REQUESTED:          0 ISSUED:          0 USEFUL:          0 USELESS:          0
cpu0_STLB AVERAGE MISS LATENCY: 358.6 cycles

DRAM Statistics

Channel 0 RQ ROW_BUFFER_HIT:     740036
  ROW_BUFFER_MISS:    2003540
 AVG DBUS CONGESTED CYCLE: 3.97
WQ ROW_BUFFER_HIT: Channel 0 
  ROW_BUFFER_MISS:     590871
  FULL:    1226298
