WARNING: physical memory size is smaller than virtual memory size.

*** ChampSim Multicore Out-of-Order Simulator ***
Warmup Instructions: 50000000
Simulation Instructions: 600000000
Number of CPUs: 1
Page size: 4096

Off-chip DRAM Size: 4 GiB Channels: 1 Width: 64-bit Data Race: 3200 MT/s
Heartbeat CPU 0 instructions: 10000000 cycles: 2881042 heartbeat IPC: 3.471 cumulative IPC: 3.471 (Simulation time: 00 hr 00 min 35 sec)
Heartbeat CPU 0 instructions: 20000000 cycles: 5381042 heartbeat IPC: 4 cumulative IPC: 3.717 (Simulation time: 00 hr 01 min 15 sec)
Heartbeat CPU 0 instructions: 30000000 cycles: 7881042 heartbeat IPC: 4 cumulative IPC: 3.807 (Simulation time: 00 hr 01 min 50 sec)
Heartbeat CPU 0 instructions: 40000000 cycles: 10381042 heartbeat IPC: 4 cumulative IPC: 3.853 (Simulation time: 00 hr 02 min 28 sec)
Heartbeat CPU 0 instructions: 50000000 cycles: 12881042 heartbeat IPC: 4 cumulative IPC: 3.882 (Simulation time: 00 hr 03 min 04 sec)
Warmup finished CPU 0 instructions: 50000000 cycles: 12881043 cumulative IPC: 3.882 (Simulation time: 00 hr 03 min 04 sec)
Warmup complete CPU 0 instructions: 50000000 cycles: 12881043 cumulative IPC: 3.882 (Simulation time: 00 hr 03 min 04 sec)
Heartbeat CPU 0 instructions: 60000004 cycles: 15383651 heartbeat IPC: 3.996 cumulative IPC: 3.996 (Simulation time: 00 hr 03 min 47 sec)
Heartbeat CPU 0 instructions: 70000002 cycles: 17886014 heartbeat IPC: 3.996 cumulative IPC: 3.996 (Simulation time: 00 hr 04 min 30 sec)
Heartbeat CPU 0 instructions: 80000002 cycles: 20388420 heartbeat IPC: 3.996 cumulative IPC: 3.996 (Simulation time: 00 hr 05 min 13 sec)
Heartbeat CPU 0 instructions: 90000004 cycles: 22891630 heartbeat IPC: 3.995 cumulative IPC: 3.996 (Simulation time: 00 hr 05 min 58 sec)
Heartbeat CPU 0 instructions: 100000000 cycles: 25394704 heartbeat IPC: 3.995 cumulative IPC: 3.996 (Simulation time: 00 hr 06 min 42 sec)
Heartbeat CPU 0 instructions: 110000002 cycles: 27897110 heartbeat IPC: 3.996 cumulative IPC: 3.996 (Simulation time: 00 hr 07 min 25 sec)
Heartbeat CPU 0 instructions: 120000000 cycles: 30399507 heartbeat IPC: 3.996 cumulative IPC: 3.996 (Simulation time: 00 hr 08 min 08 sec)
Heartbeat CPU 0 instructions: 130000002 cycles: 32902017 heartbeat IPC: 3.996 cumulative IPC: 3.996 (Simulation time: 00 hr 08 min 50 sec)
Heartbeat CPU 0 instructions: 140000004 cycles: 35404425 heartbeat IPC: 3.996 cumulative IPC: 3.996 (Simulation time: 00 hr 09 min 32 sec)
Heartbeat CPU 0 instructions: 150000000 cycles: 37906787 heartbeat IPC: 3.996 cumulative IPC: 3.996 (Simulation time: 00 hr 10 min 12 sec)
Heartbeat CPU 0 instructions: 160000003 cycles: 40409478 heartbeat IPC: 3.996 cumulative IPC: 3.996 (Simulation time: 00 hr 10 min 52 sec)
Heartbeat CPU 0 instructions: 170000002 cycles: 42911942 heartbeat IPC: 3.996 cumulative IPC: 3.996 (Simulation time: 00 hr 11 min 31 sec)
Heartbeat CPU 0 instructions: 180000000 cycles: 45414305 heartbeat IPC: 3.996 cumulative IPC: 3.996 (Simulation time: 00 hr 12 min 11 sec)
Heartbeat CPU 0 instructions: 190000003 cycles: 47916659 heartbeat IPC: 3.996 cumulative IPC: 3.996 (Simulation time: 00 hr 12 min 49 sec)
Heartbeat CPU 0 instructions: 200000000 cycles: 50419111 heartbeat IPC: 3.996 cumulative IPC: 3.996 (Simulation time: 00 hr 13 min 27 sec)
Heartbeat CPU 0 instructions: 210000000 cycles: 52921516 heartbeat IPC: 3.996 cumulative IPC: 3.996 (Simulation time: 00 hr 14 min 05 sec)
Heartbeat CPU 0 instructions: 220000003 cycles: 55424284 heartbeat IPC: 3.996 cumulative IPC: 3.996 (Simulation time: 00 hr 14 min 43 sec)
Heartbeat CPU 0 instructions: 230000001 cycles: 91255981 heartbeat IPC: 0.2791 cumulative IPC: 2.297 (Simulation time: 00 hr 18 min 37 sec)
Heartbeat CPU 0 instructions: 240000002 cycles: 95616797 heartbeat IPC: 2.293 cumulative IPC: 2.296 (Simulation time: 00 hr 19 min 38 sec)
Heartbeat CPU 0 instructions: 250000000 cycles: 99996669 heartbeat IPC: 2.283 cumulative IPC: 2.296 (Simulation time: 00 hr 20 min 41 sec)
Heartbeat CPU 0 instructions: 260000004 cycles: 104401321 heartbeat IPC: 2.27 cumulative IPC: 2.295 (Simulation time: 00 hr 21 min 44 sec)
Heartbeat CPU 0 instructions: 270000003 cycles: 108781437 heartbeat IPC: 2.283 cumulative IPC: 2.294 (Simulation time: 00 hr 22 min 47 sec)
Heartbeat CPU 0 instructions: 280000001 cycles: 113137094 heartbeat IPC: 2.296 cumulative IPC: 2.294 (Simulation time: 00 hr 23 min 47 sec)
Heartbeat CPU 0 instructions: 290000000 cycles: 117494013 heartbeat IPC: 2.295 cumulative IPC: 2.294 (Simulation time: 00 hr 24 min 45 sec)
Heartbeat CPU 0 instructions: 300000003 cycles: 121827829 heartbeat IPC: 2.307 cumulative IPC: 2.295 (Simulation time: 00 hr 25 min 42 sec)
Heartbeat CPU 0 instructions: 310000002 cycles: 126159507 heartbeat IPC: 2.309 cumulative IPC: 2.295 (Simulation time: 00 hr 26 min 38 sec)
Heartbeat CPU 0 instructions: 320000002 cycles: 130505602 heartbeat IPC: 2.301 cumulative IPC: 2.295 (Simulation time: 00 hr 27 min 32 sec)
Heartbeat CPU 0 instructions: 330000002 cycles: 134209834 heartbeat IPC: 2.7 cumulative IPC: 2.308 (Simulation time: 00 hr 28 min 19 sec)
Heartbeat CPU 0 instructions: 340000002 cycles: 137642725 heartbeat IPC: 2.913 cumulative IPC: 2.324 (Simulation time: 00 hr 29 min 04 sec)
Heartbeat CPU 0 instructions: 350000002 cycles: 140911141 heartbeat IPC: 3.06 cumulative IPC: 2.343 (Simulation time: 00 hr 29 min 46 sec)
Heartbeat CPU 0 instructions: 360000000 cycles: 144395661 heartbeat IPC: 2.87 cumulative IPC: 2.357 (Simulation time: 00 hr 30 min 31 sec)
Heartbeat CPU 0 instructions: 370000001 cycles: 147729369 heartbeat IPC: 3 cumulative IPC: 2.373 (Simulation time: 00 hr 31 min 14 sec)
Heartbeat CPU 0 instructions: 380000003 cycles: 151271024 heartbeat IPC: 2.824 cumulative IPC: 2.385 (Simulation time: 00 hr 31 min 59 sec)
Heartbeat CPU 0 instructions: 390000002 cycles: 154697124 heartbeat IPC: 2.919 cumulative IPC: 2.397 (Simulation time: 00 hr 32 min 42 sec)
Heartbeat CPU 0 instructions: 400000000 cycles: 158115416 heartbeat IPC: 2.925 cumulative IPC: 2.41 (Simulation time: 00 hr 33 min 26 sec)
Heartbeat CPU 0 instructions: 410000002 cycles: 161617725 heartbeat IPC: 2.855 cumulative IPC: 2.42 (Simulation time: 00 hr 34 min 10 sec)
Heartbeat CPU 0 instructions: 420000000 cycles: 165025995 heartbeat IPC: 2.934 cumulative IPC: 2.432 (Simulation time: 00 hr 34 min 53 sec)
Heartbeat CPU 0 instructions: 430000002 cycles: 167949772 heartbeat IPC: 3.42 cumulative IPC: 2.451 (Simulation time: 00 hr 35 min 33 sec)
Heartbeat CPU 0 instructions: 440000002 cycles: 171212196 heartbeat IPC: 3.065 cumulative IPC: 2.463 (Simulation time: 00 hr 36 min 17 sec)
Heartbeat CPU 0 instructions: 450000000 cycles: 174569506 heartbeat IPC: 2.979 cumulative IPC: 2.474 (Simulation time: 00 hr 37 min 00 sec)
Heartbeat CPU 0 instructions: 460000003 cycles: 178265700 heartbeat IPC: 2.705 cumulative IPC: 2.479 (Simulation time: 00 hr 37 min 47 sec)
Heartbeat CPU 0 instructions: 470000004 cycles: 181653626 heartbeat IPC: 2.952 cumulative IPC: 2.489 (Simulation time: 00 hr 38 min 33 sec)
Heartbeat CPU 0 instructions: 480000000 cycles: 185130914 heartbeat IPC: 2.876 cumulative IPC: 2.496 (Simulation time: 00 hr 39 min 20 sec)
Heartbeat CPU 0 instructions: 490000001 cycles: 188658741 heartbeat IPC: 2.835 cumulative IPC: 2.503 (Simulation time: 00 hr 40 min 08 sec)
Heartbeat CPU 0 instructions: 500000000 cycles: 192276023 heartbeat IPC: 2.765 cumulative IPC: 2.508 (Simulation time: 00 hr 41 min 05 sec)
Heartbeat CPU 0 instructions: 510000002 cycles: 195689362 heartbeat IPC: 2.93 cumulative IPC: 2.516 (Simulation time: 00 hr 42 min 00 sec)
Heartbeat CPU 0 instructions: 520000000 cycles: 263902303 heartbeat IPC: 0.1466 cumulative IPC: 1.872 (Simulation time: 00 hr 52 min 13 sec)
Heartbeat CPU 0 instructions: 530000001 cycles: 390811765 heartbeat IPC: 0.0788 cumulative IPC: 1.27 (Simulation time: 01 hr 11 min 13 sec)
Heartbeat CPU 0 instructions: 540000001 cycles: 420035284 heartbeat IPC: 0.3422 cumulative IPC: 1.203 (Simulation time: 01 hr 16 min 02 sec)
Heartbeat CPU 0 instructions: 550000003 cycles: 449467464 heartbeat IPC: 0.3398 cumulative IPC: 1.145 (Simulation time: 01 hr 21 min 01 sec)
Heartbeat CPU 0 instructions: 560000001 cycles: 479003251 heartbeat IPC: 0.3386 cumulative IPC: 1.094 (Simulation time: 01 hr 26 min 03 sec)
Heartbeat CPU 0 instructions: 570000001 cycles: 508472872 heartbeat IPC: 0.3393 cumulative IPC: 1.049 (Simulation time: 01 hr 31 min 33 sec)
Heartbeat CPU 0 instructions: 580000002 cycles: 539267328 heartbeat IPC: 0.3247 cumulative IPC: 1.007 (Simulation time: 01 hr 36 min 06 sec)
Heartbeat CPU 0 instructions: 590000001 cycles: 570030225 heartbeat IPC: 0.3251 cumulative IPC: 0.9692 (Simulation time: 01 hr 41 min 21 sec)
*** Reached end of trace: (0, "traces/bt.A.champsimtrace")
Heartbeat CPU 0 instructions: 600000002 cycles: 600574759 heartbeat IPC: 0.3274 cumulative IPC: 0.9359 (Simulation time: 01 hr 45 min 56 sec)
Heartbeat CPU 0 instructions: 610000004 cycles: 629116328 heartbeat IPC: 0.3504 cumulative IPC: 0.9087 (Simulation time: 01 hr 49 min 00 sec)
Heartbeat CPU 0 instructions: 620000000 cycles: 631618748 heartbeat IPC: 3.996 cumulative IPC: 0.9212 (Simulation time: 01 hr 49 min 39 sec)
Heartbeat CPU 0 instructions: 630000002 cycles: 634121156 heartbeat IPC: 3.996 cumulative IPC: 0.9336 (Simulation time: 01 hr 50 min 21 sec)
Heartbeat CPU 0 instructions: 640000000 cycles: 636623564 heartbeat IPC: 3.996 cumulative IPC: 0.9459 (Simulation time: 01 hr 51 min 03 sec)
Heartbeat CPU 0 instructions: 650000002 cycles: 639125961 heartbeat IPC: 3.996 cumulative IPC: 0.9581 (Simulation time: 01 hr 51 min 44 sec)
Simulation finished CPU 0 instructions: 600000002 cycles: 626244919 cumulative IPC: 0.9581 (Simulation time: 01 hr 51 min 44 sec)
Simulation complete CPU 0 instructions: 600000002 cycles: 626244919 cumulative IPC: 0.9581 (Simulation time: 01 hr 51 min 44 sec)

ChampSim completed all CPUs

=== Simulation ===
CPU 0 runs traces/bt.A.champsimtrace
Region of Interest Statistics

CPU 0 cumulative IPC: 0.9581 instructions: 600000002 cycles: 626244919
CPU 0 Branch Prediction Accuracy: 99.29% MPKI: 0.1296 Average ROB Occupancy at Mispredict: 279.6
Branch type MPKI
BRANCH_DIRECT_JUMP: 5e-06
BRANCH_INDIRECT: 7.83e-05
BRANCH_CONDITIONAL: 0.129
BRANCH_DIRECT_CALL: 6.67e-06
BRANCH_INDIRECT_CALL: 3.67e-05
BRANCH_RETURN: 2.33e-05

LLC TOTAL        ACCESS:    7361923 HIT:    3565962 MISS:    3795961
LLC LOAD         ACCESS:    2240274 HIT:    1116338 MISS:    1123936
LLC RFO          ACCESS:     889447 HIT:       6963 MISS:     882484
LLC PREFETCH     ACCESS:    2240307 HIT:     474379 MISS:    1765928
LLC WRITE        ACCESS:    1988524 HIT:    1966890 MISS:      21634
LLC TRANSLATION  ACCESS:       3371 HIT:       1392 MISS:       1979
LLC PREFETCH REQUESTED:    2241780 ISSUED:    2240307 USEFUL:    1471837 USELESS:      26398
LLC AVERAGE MISS LATENCY: 1162 cycles
cpu0_DTLB TOTAL        ACCESS:  128561111 HIT:  127803085 MISS:     758026
cpu0_DTLB LOAD         ACCESS:  128561111 HIT:  127803085 MISS:     758026
cpu0_DTLB RFO          ACCESS:          0 HIT:          0 MISS:          0
cpu0_DTLB PREFETCH     ACCESS:          0 HIT:          0 MISS:          0
cpu0_DTLB WRITE        ACCESS:          0 HIT:          0 MISS:          0
cpu0_DTLB TRANSLATION  ACCESS:          0 HIT:          0 MISS:          0
cpu0_DTLB PREFETCH REQUESTED:          0 ISSUED:          0 USEFUL:          0 USELESS:          0
cpu0_DTLB AVERAGE MISS LATENCY: 15.17 cycles
cpu0_ITLB TOTAL        ACCESS:     141772 HIT:     141522 MISS:        250
cpu0_ITLB LOAD         ACCESS:     141772 HIT:     141522 MISS:        250
cpu0_ITLB RFO          ACCESS:          0 HIT:          0 MISS:          0
cpu0_ITLB PREFETCH     ACCESS:          0 HIT:          0 MISS:          0
cpu0_ITLB WRITE        ACCESS:          0 HIT:          0 MISS:          0
cpu0_ITLB TRANSLATION  ACCESS:          0 HIT:          0 MISS:          0
cpu0_ITLB PREFETCH REQUESTED:          0 ISSUED:          0 USEFUL:          0 USELESS:          0
cpu0_ITLB AVERAGE MISS LATENCY: 413.8 cycles
cpu0_L1D TOTAL        ACCESS:  196765471 HIT:  183222334 MISS:   13543137
cpu0_L1D LOAD         ACCESS:  162083197 HIT:  152684487 MISS:    9398710
cpu0_L1D RFO          ACCESS:          0 HIT:          0 MISS:          0
cpu0_L1D PREFETCH     ACCESS:          0 HIT:          0 MISS:          0
cpu0_L1D WRITE        ACCESS:   34635499 HIT:   30508183 MISS:    4127316
cpu0_L1D TRANSLATION  ACCESS:      46775 HIT:      29664 MISS:      17111
cpu0_L1D PREFETCH REQUESTED:          0 ISSUED:          0 USEFUL:          0 USELESS:          0
cpu0_L1D AVERAGE MISS LATENCY: 165.8 cycles
cpu0_L1I TOTAL        ACCESS:     191217 HIT:     188454 MISS:       2763
cpu0_L1I LOAD         ACCESS:     191217 HIT:     188454 MISS:       2763
cpu0_L1I RFO          ACCESS:          0 HIT:          0 MISS:          0
cpu0_L1I PREFETCH     ACCESS:          0 HIT:          0 MISS:          0
cpu0_L1I WRITE        ACCESS:          0 HIT:          0 MISS:          0
cpu0_L1I TRANSLATION  ACCESS:          0 HIT:          0 MISS:          0
cpu0_L1I PREFETCH REQUESTED:          0 ISSUED:          0 USEFUL:          0 USELESS:          0
cpu0_L1I AVERAGE MISS LATENCY: 470.9 cycles
cpu0_L2C TOTAL        ACCESS:    5265909 HIT:    2132327 MISS:    3133582
cpu0_L2C LOAD         ACCESS:    2359788 HIT:     119478 MISS:    2240310
cpu0_L2C RFO          ACCESS:     889976 HIT:        529 MISS:     889447
cpu0_L2C PREFETCH     ACCESS:          0 HIT:          0 MISS:          0
cpu0_L2C WRITE        ACCESS:    1999038 HIT:    1998584 MISS:        454
cpu0_L2C TRANSLATION  ACCESS:      17107 HIT:      13736 MISS:       3371
cpu0_L2C PREFETCH REQUESTED:          0 ISSUED:          0 USEFUL:          0 USELESS:          0
cpu0_L2C AVERAGE MISS LATENCY: 935.4 cycles
cpu0_STLB TOTAL        ACCESS:     311332 HIT:     264580 MISS:      46752
cpu0_STLB LOAD         ACCESS:     311332 HIT:     264580 MISS:      46752
cpu0_STLB RFO          ACCESS:          0 HIT:          0 MISS:          0
cpu0_STLB PREFETCH     ACCESS:          0 HIT:          0 MISS:          0
cpu0_STLB WRITE        ACCESS:          0 HIT:          0 MISS:          0
cpu0_STLB TRANSLATION  ACCESS:          0 HIT:          0 MISS:          0
cpu0_STLB PREFETCH REQUESTED:          0 ISSUED:          0 USEFUL:          0 USELESS:          0
cpu0_STLB AVERAGE MISS LATENCY: 325.6 cycles

DRAM Statistics

Channel 0 RQ ROW_BUFFER_HIT:     731350
  ROW_BUFFER_MISS:    1950914
 AVG DBUS CONGESTED CYCLE: 3.98
WQ ROW_BUFFER_HIT: Channel 0 
  ROW_BUFFER_MISS:     269408
  FULL:    1466342
