WARNING: physical memory size is smaller than virtual memory size.

*** ChampSim Multicore Out-of-Order Simulator ***
Warmup Instructions: 50000000
Simulation Instructions: 600000000
Number of CPUs: 1
Page size: 4096

Off-chip DRAM Size: 4 GiB Channels: 1 Width: 64-bit Data Race: 3200 MT/s
Heartbeat CPU 0 instructions: 10000000 cycles: 2881042 heartbeat IPC: 3.471 cumulative IPC: 3.471 (Simulation time: 00 hr 00 min 27 sec)
Heartbeat CPU 0 instructions: 20000000 cycles: 5381042 heartbeat IPC: 4 cumulative IPC: 3.717 (Simulation time: 00 hr 00 min 57 sec)
Heartbeat CPU 0 instructions: 30000000 cycles: 7881042 heartbeat IPC: 4 cumulative IPC: 3.807 (Simulation time: 00 hr 01 min 33 sec)
Heartbeat CPU 0 instructions: 40000000 cycles: 10381042 heartbeat IPC: 4 cumulative IPC: 3.853 (Simulation time: 00 hr 02 min 11 sec)
Heartbeat CPU 0 instructions: 50000000 cycles: 12881042 heartbeat IPC: 4 cumulative IPC: 3.882 (Simulation time: 00 hr 02 min 51 sec)
Warmup finished CPU 0 instructions: 50000000 cycles: 12881043 cumulative IPC: 3.882 (Simulation time: 00 hr 02 min 51 sec)
Warmup complete CPU 0 instructions: 50000000 cycles: 12881043 cumulative IPC: 3.882 (Simulation time: 00 hr 02 min 51 sec)
Heartbeat CPU 0 instructions: 60000004 cycles: 15383364 heartbeat IPC: 3.996 cumulative IPC: 3.996 (Simulation time: 00 hr 03 min 43 sec)
Heartbeat CPU 0 instructions: 70000002 cycles: 17885682 heartbeat IPC: 3.996 cumulative IPC: 3.996 (Simulation time: 00 hr 04 min 32 sec)
Heartbeat CPU 0 instructions: 80000002 cycles: 20388169 heartbeat IPC: 3.996 cumulative IPC: 3.996 (Simulation time: 00 hr 05 min 18 sec)
Heartbeat CPU 0 instructions: 90000004 cycles: 22891400 heartbeat IPC: 3.995 cumulative IPC: 3.996 (Simulation time: 00 hr 06 min 05 sec)
Heartbeat CPU 0 instructions: 100000000 cycles: 25393820 heartbeat IPC: 3.996 cumulative IPC: 3.996 (Simulation time: 00 hr 06 min 48 sec)
Heartbeat CPU 0 instructions: 110000002 cycles: 27896255 heartbeat IPC: 3.996 cumulative IPC: 3.996 (Simulation time: 00 hr 07 min 30 sec)
Heartbeat CPU 0 instructions: 120000000 cycles: 30399662 heartbeat IPC: 3.995 cumulative IPC: 3.996 (Simulation time: 00 hr 08 min 11 sec)
Heartbeat CPU 0 instructions: 130000002 cycles: 32903525 heartbeat IPC: 3.994 cumulative IPC: 3.996 (Simulation time: 00 hr 09 min 02 sec)
Heartbeat CPU 0 instructions: 140000004 cycles: 35406238 heartbeat IPC: 3.996 cumulative IPC: 3.996 (Simulation time: 00 hr 10 min 03 sec)
Heartbeat CPU 0 instructions: 150000000 cycles: 37908600 heartbeat IPC: 3.996 cumulative IPC: 3.996 (Simulation time: 00 hr 11 min 03 sec)
Heartbeat CPU 0 instructions: 160000003 cycles: 40411007 heartbeat IPC: 3.996 cumulative IPC: 3.996 (Simulation time: 00 hr 12 min 06 sec)
Heartbeat CPU 0 instructions: 170000002 cycles: 42914857 heartbeat IPC: 3.994 cumulative IPC: 3.995 (Simulation time: 00 hr 13 min 03 sec)
Heartbeat CPU 0 instructions: 180000000 cycles: 45417727 heartbeat IPC: 3.995 cumulative IPC: 3.995 (Simulation time: 00 hr 13 min 59 sec)
Heartbeat CPU 0 instructions: 190000003 cycles: 47920874 heartbeat IPC: 3.995 cumulative IPC: 3.995 (Simulation time: 00 hr 14 min 58 sec)
Heartbeat CPU 0 instructions: 200000000 cycles: 50423326 heartbeat IPC: 3.996 cumulative IPC: 3.995 (Simulation time: 00 hr 15 min 56 sec)
Heartbeat CPU 0 instructions: 210000000 cycles: 52925948 heartbeat IPC: 3.996 cumulative IPC: 3.996 (Simulation time: 00 hr 16 min 52 sec)
Heartbeat CPU 0 instructions: 220000003 cycles: 55428312 heartbeat IPC: 3.996 cumulative IPC: 3.996 (Simulation time: 00 hr 17 min 44 sec)
Heartbeat CPU 0 instructions: 230000001 cycles: 87796056 heartbeat IPC: 0.3089 cumulative IPC: 2.403 (Simulation time: 00 hr 22 min 37 sec)
Heartbeat CPU 0 instructions: 240000002 cycles: 92143573 heartbeat IPC: 2.3 cumulative IPC: 2.397 (Simulation time: 00 hr 23 min 57 sec)
Heartbeat CPU 0 instructions: 250000000 cycles: 96505132 heartbeat IPC: 2.293 cumulative IPC: 2.392 (Simulation time: 00 hr 25 min 16 sec)
Heartbeat CPU 0 instructions: 260000004 cycles: 100859887 heartbeat IPC: 2.296 cumulative IPC: 2.387 (Simulation time: 00 hr 26 min 32 sec)
Heartbeat CPU 0 instructions: 270000003 cycles: 105208734 heartbeat IPC: 2.299 cumulative IPC: 2.383 (Simulation time: 00 hr 27 min 51 sec)
Heartbeat CPU 0 instructions: 280000001 cycles: 109557174 heartbeat IPC: 2.3 cumulative IPC: 2.379 (Simulation time: 00 hr 29 min 07 sec)
Heartbeat CPU 0 instructions: 290000000 cycles: 113911273 heartbeat IPC: 2.297 cumulative IPC: 2.376 (Simulation time: 00 hr 30 min 22 sec)
Heartbeat CPU 0 instructions: 300000003 cycles: 118256082 heartbeat IPC: 2.302 cumulative IPC: 2.372 (Simulation time: 00 hr 31 min 34 sec)
Heartbeat CPU 0 instructions: 310000002 cycles: 122602881 heartbeat IPC: 2.301 cumulative IPC: 2.37 (Simulation time: 00 hr 32 min 47 sec)
Heartbeat CPU 0 instructions: 320000002 cycles: 126942302 heartbeat IPC: 2.304 cumulative IPC: 2.367 (Simulation time: 00 hr 34 min 00 sec)
Heartbeat CPU 0 instructions: 330000002 cycles: 130580812 heartbeat IPC: 2.748 cumulative IPC: 2.379 (Simulation time: 00 hr 35 min 01 sec)
Heartbeat CPU 0 instructions: 340000002 cycles: 133670613 heartbeat IPC: 3.236 cumulative IPC: 2.401 (Simulation time: 00 hr 36 min 02 sec)
Heartbeat CPU 0 instructions: 350000002 cycles: 136789323 heartbeat IPC: 3.206 cumulative IPC: 2.421 (Simulation time: 00 hr 37 min 02 sec)
Heartbeat CPU 0 instructions: 360000000 cycles: 140110178 heartbeat IPC: 3.011 cumulative IPC: 2.437 (Simulation time: 00 hr 38 min 04 sec)
Heartbeat CPU 0 instructions: 370000001 cycles: 143304103 heartbeat IPC: 3.131 cumulative IPC: 2.454 (Simulation time: 00 hr 39 min 05 sec)
Heartbeat CPU 0 instructions: 380000003 cycles: 146557432 heartbeat IPC: 3.074 cumulative IPC: 2.469 (Simulation time: 00 hr 40 min 06 sec)
Heartbeat CPU 0 instructions: 390000002 cycles: 149670341 heartbeat IPC: 3.212 cumulative IPC: 2.486 (Simulation time: 00 hr 41 min 09 sec)
Heartbeat CPU 0 instructions: 400000000 cycles: 153075181 heartbeat IPC: 2.937 cumulative IPC: 2.497 (Simulation time: 00 hr 42 min 10 sec)
Heartbeat CPU 0 instructions: 410000002 cycles: 156220653 heartbeat IPC: 3.179 cumulative IPC: 2.512 (Simulation time: 00 hr 43 min 09 sec)
Heartbeat CPU 0 instructions: 420000000 cycles: 159340545 heartbeat IPC: 3.205 cumulative IPC: 2.526 (Simulation time: 00 hr 44 min 07 sec)
Heartbeat CPU 0 instructions: 430000002 cycles: 162656594 heartbeat IPC: 3.016 cumulative IPC: 2.537 (Simulation time: 00 hr 45 min 12 sec)
Heartbeat CPU 0 instructions: 440000002 cycles: 166191945 heartbeat IPC: 2.829 cumulative IPC: 2.544 (Simulation time: 00 hr 46 min 15 sec)
Heartbeat CPU 0 instructions: 450000000 cycles: 169774637 heartbeat IPC: 2.791 cumulative IPC: 2.549 (Simulation time: 00 hr 47 min 18 sec)
Heartbeat CPU 0 instructions: 460000003 cycles: 173135739 heartbeat IPC: 2.975 cumulative IPC: 2.558 (Simulation time: 00 hr 48 min 23 sec)
Heartbeat CPU 0 instructions: 470000004 cycles: 176637891 heartbeat IPC: 2.855 cumulative IPC: 2.565 (Simulation time: 00 hr 49 min 32 sec)
Heartbeat CPU 0 instructions: 480000000 cycles: 180290335 heartbeat IPC: 2.738 cumulative IPC: 2.569 (Simulation time: 00 hr 50 min 41 sec)
Heartbeat CPU 0 instructions: 490000001 cycles: 183937309 heartbeat IPC: 2.742 cumulative IPC: 2.572 (Simulation time: 00 hr 51 min 49 sec)
Heartbeat CPU 0 instructions: 500000000 cycles: 187723802 heartbeat IPC: 2.641 cumulative IPC: 2.574 (Simulation time: 00 hr 52 min 57 sec)
Heartbeat CPU 0 instructions: 510000002 cycles: 191417560 heartbeat IPC: 2.707 cumulative IPC: 2.577 (Simulation time: 00 hr 54 min 01 sec)
Heartbeat CPU 0 instructions: 520000001 cycles: 257006740 heartbeat IPC: 0.1525 cumulative IPC: 1.925 (Simulation time: 01 hr 05 min 40 sec)
Heartbeat CPU 0 instructions: 530000001 cycles: 378939904 heartbeat IPC: 0.08201 cumulative IPC: 1.311 (Simulation time: 01 hr 26 min 07 sec)
Heartbeat CPU 0 instructions: 540000001 cycles: 412160977 heartbeat IPC: 0.301 cumulative IPC: 1.227 (Simulation time: 01 hr 32 min 05 sec)
Heartbeat CPU 0 instructions: 550000003 cycles: 441978534 heartbeat IPC: 0.3354 cumulative IPC: 1.165 (Simulation time: 01 hr 37 min 27 sec)
Heartbeat CPU 0 instructions: 560000001 cycles: 471942043 heartbeat IPC: 0.3337 cumulative IPC: 1.111 (Simulation time: 01 hr 43 min 21 sec)
Heartbeat CPU 0 instructions: 570000001 cycles: 501337933 heartbeat IPC: 0.3402 cumulative IPC: 1.065 (Simulation time: 01 hr 49 min 12 sec)
Heartbeat CPU 0 instructions: 580000002 cycles: 528053568 heartbeat IPC: 0.3743 cumulative IPC: 1.029 (Simulation time: 01 hr 54 min 39 sec)
Heartbeat CPU 0 instructions: 590000001 cycles: 559526785 heartbeat IPC: 0.3177 cumulative IPC: 0.9878 (Simulation time: 02 hr 00 min 49 sec)
*** Reached end of trace: (0, "traces/bt.A.champsimtrace")
Heartbeat CPU 0 instructions: 600000001 cycles: 590674690 heartbeat IPC: 0.321 cumulative IPC: 0.9519 (Simulation time: 02 hr 06 min 53 sec)
Heartbeat CPU 0 instructions: 610000004 cycles: 613595183 heartbeat IPC: 0.4363 cumulative IPC: 0.9322 (Simulation time: 02 hr 10 min 24 sec)
Heartbeat CPU 0 instructions: 620000000 cycles: 616097626 heartbeat IPC: 3.996 cumulative IPC: 0.9449 (Simulation time: 02 hr 11 min 16 sec)
Heartbeat CPU 0 instructions: 630000002 cycles: 618600034 heartbeat IPC: 3.996 cumulative IPC: 0.9575 (Simulation time: 02 hr 12 min 08 sec)
Heartbeat CPU 0 instructions: 640000000 cycles: 621102442 heartbeat IPC: 3.996 cumulative IPC: 0.97 (Simulation time: 02 hr 13 min 02 sec)
Heartbeat CPU 0 instructions: 650000002 cycles: 623604929 heartbeat IPC: 3.996 cumulative IPC: 0.9824 (Simulation time: 02 hr 13 min 56 sec)
Simulation finished CPU 0 instructions: 600000002 cycles: 610723887 cumulative IPC: 0.9824 (Simulation time: 02 hr 13 min 56 sec)
Simulation complete CPU 0 instructions: 600000002 cycles: 610723887 cumulative IPC: 0.9824 (Simulation time: 02 hr 13 min 56 sec)

ChampSim completed all CPUs

=== Simulation ===
CPU 0 runs traces/bt.A.champsimtrace
Region of Interest Statistics

CPU 0 cumulative IPC: 0.9824 instructions: 600000002 cycles: 610723887
CPU 0 Branch Prediction Accuracy: 99.29% MPKI: 0.1288 Average ROB Occupancy at Mispredict: 279.8
Branch type MPKI
BRANCH_DIRECT_JUMP: 5e-06
BRANCH_INDIRECT: 7.83e-05
BRANCH_CONDITIONAL: 0.129
BRANCH_DIRECT_CALL: 6.67e-06
BRANCH_INDIRECT_CALL: 3.67e-05
BRANCH_RETURN: 2.33e-05

LLC TOTAL        ACCESS:    7362192 HIT:    3397056 MISS:    3965136
LLC LOAD         ACCESS:    2240323 HIT:    1153140 MISS:    1087183
LLC RFO          ACCESS:     889446 HIT:      44695 MISS:     844751
LLC PREFETCH     ACCESS:    2240466 HIT:     523759 MISS:    1716707
LLC WRITE        ACCESS:    1988584 HIT:    1674476 MISS:     314108
LLC TRANSLATION  ACCESS:       3373 HIT:        986 MISS:       2387
LLC PREFETCH REQUESTED:    2242448 ISSUED:    2240466 USEFUL:    1441042 USELESS:      26361
LLC AVERAGE MISS LATENCY: 1075 cycles
cpu0_DTLB TOTAL        ACCESS:  128586436 HIT:  127829141 MISS:     757295
cpu0_DTLB LOAD         ACCESS:  128586436 HIT:  127829141 MISS:     757295
cpu0_DTLB RFO          ACCESS:          0 HIT:          0 MISS:          0
cpu0_DTLB PREFETCH     ACCESS:          0 HIT:          0 MISS:          0
cpu0_DTLB WRITE        ACCESS:          0 HIT:          0 MISS:          0
cpu0_DTLB TRANSLATION  ACCESS:          0 HIT:          0 MISS:          0
cpu0_DTLB PREFETCH REQUESTED:          0 ISSUED:          0 USEFUL:          0 USELESS:          0
cpu0_DTLB AVERAGE MISS LATENCY: 15.08 cycles
cpu0_ITLB TOTAL        ACCESS:     141220 HIT:     140971 MISS:        249
cpu0_ITLB LOAD         ACCESS:     141220 HIT:     140971 MISS:        249
cpu0_ITLB RFO          ACCESS:          0 HIT:          0 MISS:          0
cpu0_ITLB PREFETCH     ACCESS:          0 HIT:          0 MISS:          0
cpu0_ITLB WRITE        ACCESS:          0 HIT:          0 MISS:          0
cpu0_ITLB TRANSLATION  ACCESS:          0 HIT:          0 MISS:          0
cpu0_ITLB PREFETCH REQUESTED:          0 ISSUED:          0 USEFUL:          0 USELESS:          0
cpu0_ITLB AVERAGE MISS LATENCY: 302.5 cycles
cpu0_L1D TOTAL        ACCESS:  196837612 HIT:  183418615 MISS:   13418997
cpu0_L1D LOAD         ACCESS:  162155379 HIT:  152806318 MISS:    9349061
cpu0_L1D RFO          ACCESS:          0 HIT:          0 MISS:          0
cpu0_L1D PREFETCH     ACCESS:          0 HIT:          0 MISS:          0
cpu0_L1D WRITE        ACCESS:   34635458 HIT:   30582615 MISS:    4052843
cpu0_L1D TRANSLATION  ACCESS:      46775 HIT:      29682 MISS:      17093
cpu0_L1D PREFETCH REQUESTED:          0 ISSUED:          0 USEFUL:          0 USELESS:          0
cpu0_L1D AVERAGE MISS LATENCY: 157.7 cycles
cpu0_L1I TOTAL        ACCESS:     190557 HIT:     187806 MISS:       2751
cpu0_L1I LOAD         ACCESS:     190557 HIT:     187806 MISS:       2751
cpu0_L1I RFO          ACCESS:          0 HIT:          0 MISS:          0
cpu0_L1I PREFETCH     ACCESS:          0 HIT:          0 MISS:          0
cpu0_L1I WRITE        ACCESS:          0 HIT:          0 MISS:          0
cpu0_L1I TRANSLATION  ACCESS:          0 HIT:          0 MISS:          0
cpu0_L1I PREFETCH REQUESTED:          0 ISSUED:          0 USEFUL:          0 USELESS:          0
cpu0_L1I AVERAGE MISS LATENCY: 463.4 cycles
cpu0_L2C TOTAL        ACCESS:    5265591 HIT:    2131948 MISS:    3133643
cpu0_L2C LOAD         ACCESS:    2359493 HIT:     119125 MISS:    2240368
cpu0_L2C RFO          ACCESS:     889973 HIT:        527 MISS:     889446
cpu0_L2C PREFETCH     ACCESS:          0 HIT:          0 MISS:          0
cpu0_L2C WRITE        ACCESS:    1999036 HIT:    1998580 MISS:        456
cpu0_L2C TRANSLATION  ACCESS:      17089 HIT:      13716 MISS:       3373
cpu0_L2C PREFETCH REQUESTED:          0 ISSUED:          0 USEFUL:          0 USELESS:          0
cpu0_L2C AVERAGE MISS LATENCY: 887.8 cycles
cpu0_STLB TOTAL        ACCESS:     311295 HIT:     264543 MISS:      46752
cpu0_STLB LOAD         ACCESS:     311295 HIT:     264543 MISS:      46752
cpu0_STLB RFO          ACCESS:          0 HIT:          0 MISS:          0
cpu0_STLB PREFETCH     ACCESS:          0 HIT:          0 MISS:          0
cpu0_STLB WRITE        ACCESS:          0 HIT:          0 MISS:          0
cpu0_STLB TRANSLATION  ACCESS:          0 HIT:          0 MISS:          0
cpu0_STLB PREFETCH REQUESTED:          0 ISSUED:          0 USEFUL:          0 USELESS:          0
cpu0_STLB AVERAGE MISS LATENCY: 324.5 cycles

DRAM Statistics

Channel 0 RQ ROW_BUFFER_HIT:     729131
  ROW_BUFFER_MISS:    1865771
 AVG DBUS CONGESTED CYCLE: 3.976
WQ ROW_BUFFER_HIT: Channel 0 
  ROW_BUFFER_MISS:     469033
  FULL:    1246295
