WARNING: physical memory size is smaller than virtual memory size.

*** ChampSim Multicore Out-of-Order Simulator ***
Warmup Instructions: 50000000
Simulation Instructions: 600000000
Number of CPUs: 1
Page size: 4096

Off-chip DRAM Size: 4 GiB Channels: 1 Width: 64-bit Data Race: 3200 MT/s
Heartbeat CPU 0 instructions: 10000000 cycles: 2881042 heartbeat IPC: 3.471 cumulative IPC: 3.471 (Simulation time: 00 hr 00 min 41 sec)
Heartbeat CPU 0 instructions: 20000000 cycles: 5381042 heartbeat IPC: 4 cumulative IPC: 3.717 (Simulation time: 00 hr 01 min 20 sec)
Heartbeat CPU 0 instructions: 30000000 cycles: 7881042 heartbeat IPC: 4 cumulative IPC: 3.807 (Simulation time: 00 hr 02 min 07 sec)
Heartbeat CPU 0 instructions: 40000000 cycles: 10381042 heartbeat IPC: 4 cumulative IPC: 3.853 (Simulation time: 00 hr 03 min 02 sec)
Heartbeat CPU 0 instructions: 50000000 cycles: 12881042 heartbeat IPC: 4 cumulative IPC: 3.882 (Simulation time: 00 hr 03 min 52 sec)
Warmup finished CPU 0 instructions: 50000000 cycles: 12881043 cumulative IPC: 3.882 (Simulation time: 00 hr 03 min 52 sec)
Warmup complete CPU 0 instructions: 50000000 cycles: 12881043 cumulative IPC: 3.882 (Simulation time: 00 hr 03 min 52 sec)
Heartbeat CPU 0 instructions: 60000004 cycles: 15383651 heartbeat IPC: 3.996 cumulative IPC: 3.996 (Simulation time: 00 hr 04 min 57 sec)
Heartbeat CPU 0 instructions: 70000002 cycles: 17886014 heartbeat IPC: 3.996 cumulative IPC: 3.996 (Simulation time: 00 hr 06 min 07 sec)
Heartbeat CPU 0 instructions: 80000002 cycles: 20388734 heartbeat IPC: 3.996 cumulative IPC: 3.996 (Simulation time: 00 hr 07 min 13 sec)
Heartbeat CPU 0 instructions: 90000004 cycles: 22891157 heartbeat IPC: 3.996 cumulative IPC: 3.996 (Simulation time: 00 hr 08 min 16 sec)
Heartbeat CPU 0 instructions: 100000000 cycles: 25393562 heartbeat IPC: 3.996 cumulative IPC: 3.996 (Simulation time: 00 hr 09 min 19 sec)
Heartbeat CPU 0 instructions: 110000002 cycles: 27895968 heartbeat IPC: 3.996 cumulative IPC: 3.996 (Simulation time: 00 hr 10 min 22 sec)
Heartbeat CPU 0 instructions: 120000000 cycles: 30398365 heartbeat IPC: 3.996 cumulative IPC: 3.996 (Simulation time: 00 hr 11 min 25 sec)
Heartbeat CPU 0 instructions: 130000002 cycles: 32900816 heartbeat IPC: 3.996 cumulative IPC: 3.996 (Simulation time: 00 hr 12 min 25 sec)
Heartbeat CPU 0 instructions: 140000004 cycles: 35403225 heartbeat IPC: 3.996 cumulative IPC: 3.996 (Simulation time: 00 hr 13 min 23 sec)
Heartbeat CPU 0 instructions: 150000000 cycles: 37905587 heartbeat IPC: 3.996 cumulative IPC: 3.996 (Simulation time: 00 hr 14 min 20 sec)
Heartbeat CPU 0 instructions: 160000003 cycles: 40407994 heartbeat IPC: 3.996 cumulative IPC: 3.996 (Simulation time: 00 hr 15 min 16 sec)
Heartbeat CPU 0 instructions: 170000002 cycles: 42910458 heartbeat IPC: 3.996 cumulative IPC: 3.996 (Simulation time: 00 hr 16 min 12 sec)
Heartbeat CPU 0 instructions: 180000000 cycles: 45412821 heartbeat IPC: 3.996 cumulative IPC: 3.996 (Simulation time: 00 hr 17 min 08 sec)
Heartbeat CPU 0 instructions: 190000003 cycles: 47915175 heartbeat IPC: 3.996 cumulative IPC: 3.996 (Simulation time: 00 hr 18 min 04 sec)
Heartbeat CPU 0 instructions: 200000000 cycles: 50417627 heartbeat IPC: 3.996 cumulative IPC: 3.996 (Simulation time: 00 hr 19 min 04 sec)
Heartbeat CPU 0 instructions: 210000000 cycles: 52920032 heartbeat IPC: 3.996 cumulative IPC: 3.996 (Simulation time: 00 hr 20 min 01 sec)
Heartbeat CPU 0 instructions: 220000003 cycles: 55422486 heartbeat IPC: 3.996 cumulative IPC: 3.996 (Simulation time: 00 hr 20 min 58 sec)
Heartbeat CPU 0 instructions: 230000001 cycles: 90361651 heartbeat IPC: 0.2862 cumulative IPC: 2.323 (Simulation time: 00 hr 26 min 26 sec)
Heartbeat CPU 0 instructions: 240000002 cycles: 94721232 heartbeat IPC: 2.294 cumulative IPC: 2.322 (Simulation time: 00 hr 27 min 48 sec)
Heartbeat CPU 0 instructions: 250000000 cycles: 99100434 heartbeat IPC: 2.284 cumulative IPC: 2.32 (Simulation time: 00 hr 29 min 08 sec)
Heartbeat CPU 0 instructions: 260000004 cycles: 103533412 heartbeat IPC: 2.256 cumulative IPC: 2.317 (Simulation time: 00 hr 30 min 30 sec)
Heartbeat CPU 0 instructions: 270000003 cycles: 107960637 heartbeat IPC: 2.259 cumulative IPC: 2.314 (Simulation time: 00 hr 31 min 52 sec)
Heartbeat CPU 0 instructions: 280000001 cycles: 112391524 heartbeat IPC: 2.257 cumulative IPC: 2.311 (Simulation time: 00 hr 33 min 14 sec)
Heartbeat CPU 0 instructions: 290000000 cycles: 116821003 heartbeat IPC: 2.258 cumulative IPC: 2.309 (Simulation time: 00 hr 34 min 35 sec)
Heartbeat CPU 0 instructions: 300000003 cycles: 121255398 heartbeat IPC: 2.255 cumulative IPC: 2.307 (Simulation time: 00 hr 35 min 56 sec)
Heartbeat CPU 0 instructions: 310000002 cycles: 125681081 heartbeat IPC: 2.26 cumulative IPC: 2.305 (Simulation time: 00 hr 37 min 17 sec)
Heartbeat CPU 0 instructions: 320000002 cycles: 130087425 heartbeat IPC: 2.269 cumulative IPC: 2.304 (Simulation time: 00 hr 38 min 37 sec)
Heartbeat CPU 0 instructions: 330000002 cycles: 133994841 heartbeat IPC: 2.559 cumulative IPC: 2.312 (Simulation time: 00 hr 39 min 52 sec)
Heartbeat CPU 0 instructions: 340000002 cycles: 137219699 heartbeat IPC: 3.101 cumulative IPC: 2.332 (Simulation time: 00 hr 40 min 58 sec)
Heartbeat CPU 0 instructions: 350000002 cycles: 140615510 heartbeat IPC: 2.945 cumulative IPC: 2.349 (Simulation time: 00 hr 42 min 06 sec)
Heartbeat CPU 0 instructions: 360000000 cycles: 144114076 heartbeat IPC: 2.858 cumulative IPC: 2.362 (Simulation time: 00 hr 43 min 14 sec)
Heartbeat CPU 0 instructions: 370000001 cycles: 147469714 heartbeat IPC: 2.98 cumulative IPC: 2.378 (Simulation time: 00 hr 44 min 25 sec)
Heartbeat CPU 0 instructions: 380000003 cycles: 150844801 heartbeat IPC: 2.963 cumulative IPC: 2.392 (Simulation time: 00 hr 45 min 34 sec)
Heartbeat CPU 0 instructions: 390000002 cycles: 154223405 heartbeat IPC: 2.96 cumulative IPC: 2.406 (Simulation time: 00 hr 46 min 41 sec)
Heartbeat CPU 0 instructions: 400000000 cycles: 157697160 heartbeat IPC: 2.879 cumulative IPC: 2.417 (Simulation time: 00 hr 47 min 50 sec)
Heartbeat CPU 0 instructions: 410000002 cycles: 161045627 heartbeat IPC: 2.986 cumulative IPC: 2.43 (Simulation time: 00 hr 48 min 58 sec)
Heartbeat CPU 0 instructions: 420000000 cycles: 164544144 heartbeat IPC: 2.858 cumulative IPC: 2.44 (Simulation time: 00 hr 50 min 07 sec)
Heartbeat CPU 0 instructions: 430000002 cycles: 167480094 heartbeat IPC: 3.406 cumulative IPC: 2.458 (Simulation time: 00 hr 51 min 10 sec)
Heartbeat CPU 0 instructions: 440000002 cycles: 170886486 heartbeat IPC: 2.936 cumulative IPC: 2.468 (Simulation time: 00 hr 52 min 18 sec)
Heartbeat CPU 0 instructions: 450000000 cycles: 174375216 heartbeat IPC: 2.866 cumulative IPC: 2.477 (Simulation time: 00 hr 53 min 27 sec)
Heartbeat CPU 0 instructions: 460000003 cycles: 178017980 heartbeat IPC: 2.745 cumulative IPC: 2.483 (Simulation time: 00 hr 54 min 38 sec)
Heartbeat CPU 0 instructions: 470000004 cycles: 181500186 heartbeat IPC: 2.872 cumulative IPC: 2.491 (Simulation time: 00 hr 55 min 49 sec)
Heartbeat CPU 0 instructions: 480000000 cycles: 185136583 heartbeat IPC: 2.75 cumulative IPC: 2.496 (Simulation time: 00 hr 57 min 00 sec)
Heartbeat CPU 0 instructions: 490000001 cycles: 188706188 heartbeat IPC: 2.801 cumulative IPC: 2.502 (Simulation time: 00 hr 58 min 10 sec)
Heartbeat CPU 0 instructions: 500000001 cycles: 192336137 heartbeat IPC: 2.755 cumulative IPC: 2.508 (Simulation time: 00 hr 59 min 21 sec)
Heartbeat CPU 0 instructions: 510000002 cycles: 195650000 heartbeat IPC: 3.018 cumulative IPC: 2.517 (Simulation time: 01 hr 00 min 29 sec)
Heartbeat CPU 0 instructions: 520000002 cycles: 260821169 heartbeat IPC: 0.1534 cumulative IPC: 1.896 (Simulation time: 01 hr 13 min 24 sec)
Heartbeat CPU 0 instructions: 530000001 cycles: 377105472 heartbeat IPC: 0.086 cumulative IPC: 1.318 (Simulation time: 01 hr 35 min 40 sec)
Heartbeat CPU 0 instructions: 540000001 cycles: 405811484 heartbeat IPC: 0.3484 cumulative IPC: 1.247 (Simulation time: 01 hr 41 min 43 sec)
Heartbeat CPU 0 instructions: 550000003 cycles: 434914421 heartbeat IPC: 0.3436 cumulative IPC: 1.185 (Simulation time: 01 hr 47 min 47 sec)
Heartbeat CPU 0 instructions: 560000001 cycles: 463898021 heartbeat IPC: 0.345 cumulative IPC: 1.131 (Simulation time: 01 hr 53 min 47 sec)
Heartbeat CPU 0 instructions: 570000001 cycles: 492846014 heartbeat IPC: 0.3454 cumulative IPC: 1.083 (Simulation time: 01 hr 59 min 44 sec)
Heartbeat CPU 0 instructions: 580000002 cycles: 523012057 heartbeat IPC: 0.3315 cumulative IPC: 1.039 (Simulation time: 02 hr 06 min 01 sec)
Heartbeat CPU 0 instructions: 590000001 cycles: 553245517 heartbeat IPC: 0.3308 cumulative IPC: 0.9993 (Simulation time: 02 hr 12 min 14 sec)
*** Reached end of trace: (0, "traces/bt.A.champsimtrace")
Heartbeat CPU 0 instructions: 600000001 cycles: 583204381 heartbeat IPC: 0.3338 cumulative IPC: 0.9644 (Simulation time: 02 hr 18 min 28 sec)
Heartbeat CPU 0 instructions: 610000004 cycles: 611037091 heartbeat IPC: 0.3593 cumulative IPC: 0.9362 (Simulation time: 02 hr 22 min 55 sec)
Heartbeat CPU 0 instructions: 620000000 cycles: 613539511 heartbeat IPC: 3.996 cumulative IPC: 0.949 (Simulation time: 02 hr 23 min 54 sec)
Heartbeat CPU 0 instructions: 630000002 cycles: 616041919 heartbeat IPC: 3.996 cumulative IPC: 0.9616 (Simulation time: 02 hr 24 min 56 sec)
Heartbeat CPU 0 instructions: 640000000 cycles: 618544327 heartbeat IPC: 3.996 cumulative IPC: 0.9741 (Simulation time: 02 hr 25 min 56 sec)
Heartbeat CPU 0 instructions: 650000002 cycles: 621046724 heartbeat IPC: 3.996 cumulative IPC: 0.9866 (Simulation time: 02 hr 26 min 53 sec)
Simulation finished CPU 0 instructions: 600000002 cycles: 608165682 cumulative IPC: 0.9866 (Simulation time: 02 hr 26 min 53 sec)
Simulation complete CPU 0 instructions: 600000002 cycles: 608165682 cumulative IPC: 0.9866 (Simulation time: 02 hr 26 min 53 sec)

ChampSim completed all CPUs

=== Simulation ===
CPU 0 runs traces/bt.A.champsimtrace
Region of Interest Statistics

CPU 0 cumulative IPC: 0.9866 instructions: 600000002 cycles: 608165682
CPU 0 Branch Prediction Accuracy: 99.29% MPKI: 0.1288 Average ROB Occupancy at Mispredict: 279.9
Branch type MPKI
BRANCH_DIRECT_JUMP: 5e-06
BRANCH_INDIRECT: 7.83e-05
BRANCH_CONDITIONAL: 0.129
BRANCH_DIRECT_CALL: 6.67e-06
BRANCH_INDIRECT_CALL: 3.67e-05
BRANCH_RETURN: 2.33e-05

LLC TOTAL        ACCESS:    7362063 HIT:    3631349 MISS:    3730714
LLC LOAD         ACCESS:    2240323 HIT:    1137386 MISS:    1102937
LLC RFO          ACCESS:     889446 HIT:       6970 MISS:     882476
LLC PREFETCH     ACCESS:    2240330 HIT:     497030 MISS:    1743300
LLC WRITE        ACCESS:    1988591 HIT:    1988394 MISS:        197
LLC TRANSLATION  ACCESS:       3373 HIT:       1569 MISS:       1804
LLC PREFETCH REQUESTED:    2240330 ISSUED:    2240330 USEFUL:    1467307 USELESS:      25225
LLC AVERAGE MISS LATENCY: 1163 cycles
cpu0_DTLB TOTAL        ACCESS:  128637195 HIT:  127879580 MISS:     757615
cpu0_DTLB LOAD         ACCESS:  128637195 HIT:  127879580 MISS:     757615
cpu0_DTLB RFO          ACCESS:          0 HIT:          0 MISS:          0
cpu0_DTLB PREFETCH     ACCESS:          0 HIT:          0 MISS:          0
cpu0_DTLB WRITE        ACCESS:          0 HIT:          0 MISS:          0
cpu0_DTLB TRANSLATION  ACCESS:          0 HIT:          0 MISS:          0
cpu0_DTLB PREFETCH REQUESTED:          0 ISSUED:          0 USEFUL:          0 USELESS:          0
cpu0_DTLB AVERAGE MISS LATENCY: 14.23 cycles
cpu0_ITLB TOTAL        ACCESS:     141151 HIT:     140901 MISS:        250
cpu0_ITLB LOAD         ACCESS:     141151 HIT:     140901 MISS:        250
cpu0_ITLB RFO          ACCESS:          0 HIT:          0 MISS:          0
cpu0_ITLB PREFETCH     ACCESS:          0 HIT:          0 MISS:          0
cpu0_ITLB WRITE        ACCESS:          0 HIT:          0 MISS:          0
cpu0_ITLB TRANSLATION  ACCESS:          0 HIT:          0 MISS:          0
cpu0_ITLB PREFETCH REQUESTED:          0 ISSUED:          0 USEFUL:          0 USELESS:          0
cpu0_ITLB AVERAGE MISS LATENCY: 338.2 cycles
cpu0_L1D TOTAL        ACCESS:  196893341 HIT:  183343915 MISS:   13549426
cpu0_L1D LOAD         ACCESS:  162211051 HIT:  152801645 MISS:    9409406
cpu0_L1D RFO          ACCESS:          0 HIT:          0 MISS:          0
cpu0_L1D PREFETCH     ACCESS:          0 HIT:          0 MISS:          0
cpu0_L1D WRITE        ACCESS:   34635514 HIT:   30512606 MISS:    4122908
cpu0_L1D TRANSLATION  ACCESS:      46776 HIT:      29664 MISS:      17112
cpu0_L1D PREFETCH REQUESTED:          0 ISSUED:          0 USEFUL:          0 USELESS:          0
cpu0_L1D AVERAGE MISS LATENCY: 158 cycles
cpu0_L1I TOTAL        ACCESS:     190451 HIT:     187714 MISS:       2737
cpu0_L1I LOAD         ACCESS:     190451 HIT:     187714 MISS:       2737
cpu0_L1I RFO          ACCESS:          0 HIT:          0 MISS:          0
cpu0_L1I PREFETCH     ACCESS:          0 HIT:          0 MISS:          0
cpu0_L1I WRITE        ACCESS:          0 HIT:          0 MISS:          0
cpu0_L1I TRANSLATION  ACCESS:          0 HIT:          0 MISS:          0
cpu0_L1I PREFETCH REQUESTED:          0 ISSUED:          0 USEFUL:          0 USELESS:          0
cpu0_L1I AVERAGE MISS LATENCY: 484.5 cycles
cpu0_L2C TOTAL        ACCESS:    5265935 HIT:    2132299 MISS:    3133636
cpu0_L2C LOAD         ACCESS:    2359820 HIT:     119459 MISS:    2240361
cpu0_L2C RFO          ACCESS:     889973 HIT:        527 MISS:     889446
cpu0_L2C PREFETCH     ACCESS:          0 HIT:          0 MISS:          0
cpu0_L2C WRITE        ACCESS:    1999035 HIT:    1998579 MISS:        456
cpu0_L2C TRANSLATION  ACCESS:      17107 HIT:      13734 MISS:       3373
cpu0_L2C PREFETCH REQUESTED:          0 ISSUED:          0 USEFUL:          0 USELESS:          0
cpu0_L2C AVERAGE MISS LATENCY: 895 cycles
cpu0_STLB TOTAL        ACCESS:     311361 HIT:     264608 MISS:      46753
cpu0_STLB LOAD         ACCESS:     311361 HIT:     264608 MISS:      46753
cpu0_STLB RFO          ACCESS:          0 HIT:          0 MISS:          0
cpu0_STLB PREFETCH     ACCESS:          0 HIT:          0 MISS:          0
cpu0_STLB WRITE        ACCESS:          0 HIT:          0 MISS:          0
cpu0_STLB TRANSLATION  ACCESS:          0 HIT:          0 MISS:          0
cpu0_STLB PREFETCH REQUESTED:          0 ISSUED:          0 USEFUL:          0 USELESS:          0
cpu0_STLB AVERAGE MISS LATENCY: 308.3 cycles

DRAM Statistics

Channel 0 RQ ROW_BUFFER_HIT:     715481
  ROW_BUFFER_MISS:    1943475
 AVG DBUS CONGESTED CYCLE: 3.98
WQ ROW_BUFFER_HIT: Channel 0 
  ROW_BUFFER_MISS:     404580
  FULL:    1326417
