WARNING: physical memory size is smaller than virtual memory size.

*** ChampSim Multicore Out-of-Order Simulator ***
Warmup Instructions: 50000000
Simulation Instructions: 600000000
Number of CPUs: 1
Page size: 4096

CPU 0 Tage branch predictor
Off-chip DRAM Size: 4 GiB Channels: 1 Width: 64-bit Data Race: 3200 MT/s
Heartbeat CPU 0 instructions: 10000000 cycles: 2881042 heartbeat IPC: 3.471 cumulative IPC: 3.471 (Simulation time: 00 hr 00 min 41 sec)
Heartbeat CPU 0 instructions: 20000000 cycles: 5381042 heartbeat IPC: 4 cumulative IPC: 3.717 (Simulation time: 00 hr 01 min 18 sec)
Heartbeat CPU 0 instructions: 30000000 cycles: 7881042 heartbeat IPC: 4 cumulative IPC: 3.807 (Simulation time: 00 hr 01 min 56 sec)
Heartbeat CPU 0 instructions: 40000000 cycles: 10381042 heartbeat IPC: 4 cumulative IPC: 3.853 (Simulation time: 00 hr 02 min 33 sec)
Heartbeat CPU 0 instructions: 50000000 cycles: 12881042 heartbeat IPC: 4 cumulative IPC: 3.882 (Simulation time: 00 hr 03 min 10 sec)
Warmup finished CPU 0 instructions: 50000000 cycles: 12881043 cumulative IPC: 3.882 (Simulation time: 00 hr 03 min 10 sec)
Warmup complete CPU 0 instructions: 50000000 cycles: 12881043 cumulative IPC: 3.882 (Simulation time: 00 hr 03 min 10 sec)
Heartbeat CPU 0 instructions: 60000004 cycles: 15382500 heartbeat IPC: 3.998 cumulative IPC: 3.998 (Simulation time: 00 hr 03 min 53 sec)
Heartbeat CPU 0 instructions: 70000002 cycles: 17883099 heartbeat IPC: 3.999 cumulative IPC: 3.998 (Simulation time: 00 hr 04 min 36 sec)
Heartbeat CPU 0 instructions: 80000001 cycles: 20383704 heartbeat IPC: 3.999 cumulative IPC: 3.999 (Simulation time: 00 hr 05 min 19 sec)
Heartbeat CPU 0 instructions: 90000004 cycles: 22884277 heartbeat IPC: 3.999 cumulative IPC: 3.999 (Simulation time: 00 hr 06 min 03 sec)
Heartbeat CPU 0 instructions: 100000000 cycles: 25384992 heartbeat IPC: 3.999 cumulative IPC: 3.999 (Simulation time: 00 hr 06 min 47 sec)
Heartbeat CPU 0 instructions: 110000002 cycles: 27886085 heartbeat IPC: 3.998 cumulative IPC: 3.999 (Simulation time: 00 hr 07 min 31 sec)
Heartbeat CPU 0 instructions: 120000000 cycles: 30386595 heartbeat IPC: 3.999 cumulative IPC: 3.999 (Simulation time: 00 hr 08 min 15 sec)
Heartbeat CPU 0 instructions: 130000002 cycles: 32888199 heartbeat IPC: 3.997 cumulative IPC: 3.999 (Simulation time: 00 hr 08 min 58 sec)
Heartbeat CPU 0 instructions: 140000004 cycles: 35389315 heartbeat IPC: 3.998 cumulative IPC: 3.999 (Simulation time: 00 hr 09 min 42 sec)
Heartbeat CPU 0 instructions: 150000000 cycles: 37890168 heartbeat IPC: 3.999 cumulative IPC: 3.999 (Simulation time: 00 hr 10 min 27 sec)
Heartbeat CPU 0 instructions: 160000003 cycles: 40390288 heartbeat IPC: 4 cumulative IPC: 3.999 (Simulation time: 00 hr 11 min 10 sec)
Heartbeat CPU 0 instructions: 170000002 cycles: 42891323 heartbeat IPC: 3.998 cumulative IPC: 3.999 (Simulation time: 00 hr 11 min 51 sec)
Heartbeat CPU 0 instructions: 180000000 cycles: 45392092 heartbeat IPC: 3.999 cumulative IPC: 3.999 (Simulation time: 00 hr 12 min 33 sec)
Heartbeat CPU 0 instructions: 190000003 cycles: 47893098 heartbeat IPC: 3.998 cumulative IPC: 3.999 (Simulation time: 00 hr 13 min 16 sec)
Heartbeat CPU 0 instructions: 200000000 cycles: 50393359 heartbeat IPC: 4 cumulative IPC: 3.999 (Simulation time: 00 hr 13 min 58 sec)
Heartbeat CPU 0 instructions: 210000000 cycles: 52893652 heartbeat IPC: 4 cumulative IPC: 3.999 (Simulation time: 00 hr 14 min 41 sec)
Heartbeat CPU 0 instructions: 220000003 cycles: 55394723 heartbeat IPC: 3.998 cumulative IPC: 3.999 (Simulation time: 00 hr 15 min 24 sec)
Heartbeat CPU 0 instructions: 230000001 cycles: 94355640 heartbeat IPC: 0.2567 cumulative IPC: 2.209 (Simulation time: 00 hr 19 min 30 sec)
Heartbeat CPU 0 instructions: 240000002 cycles: 98413445 heartbeat IPC: 2.464 cumulative IPC: 2.221 (Simulation time: 00 hr 20 min 24 sec)
Heartbeat CPU 0 instructions: 250000000 cycles: 102544248 heartbeat IPC: 2.421 cumulative IPC: 2.231 (Simulation time: 00 hr 21 min 19 sec)
Heartbeat CPU 0 instructions: 260000002 cycles: 106622953 heartbeat IPC: 2.452 cumulative IPC: 2.24 (Simulation time: 00 hr 22 min 14 sec)
Heartbeat CPU 0 instructions: 270000003 cycles: 110700949 heartbeat IPC: 2.452 cumulative IPC: 2.249 (Simulation time: 00 hr 23 min 09 sec)
Heartbeat CPU 0 instructions: 280000003 cycles: 114836159 heartbeat IPC: 2.418 cumulative IPC: 2.256 (Simulation time: 00 hr 24 min 04 sec)
Heartbeat CPU 0 instructions: 290000002 cycles: 118906671 heartbeat IPC: 2.457 cumulative IPC: 2.264 (Simulation time: 00 hr 24 min 58 sec)
Heartbeat CPU 0 instructions: 300000003 cycles: 122963308 heartbeat IPC: 2.465 cumulative IPC: 2.271 (Simulation time: 00 hr 25 min 51 sec)
Heartbeat CPU 0 instructions: 310000002 cycles: 127074971 heartbeat IPC: 2.432 cumulative IPC: 2.277 (Simulation time: 00 hr 26 min 45 sec)
Heartbeat CPU 0 instructions: 320000004 cycles: 131157976 heartbeat IPC: 2.449 cumulative IPC: 2.283 (Simulation time: 00 hr 27 min 40 sec)
Heartbeat CPU 0 instructions: 330000004 cycles: 137002407 heartbeat IPC: 1.711 cumulative IPC: 2.256 (Simulation time: 00 hr 28 min 48 sec)
Heartbeat CPU 0 instructions: 340000002 cycles: 143811474 heartbeat IPC: 1.469 cumulative IPC: 2.215 (Simulation time: 00 hr 30 min 02 sec)
Heartbeat CPU 0 instructions: 350000002 cycles: 150688654 heartbeat IPC: 1.454 cumulative IPC: 2.177 (Simulation time: 00 hr 31 min 16 sec)
Heartbeat CPU 0 instructions: 360000000 cycles: 157622820 heartbeat IPC: 1.442 cumulative IPC: 2.142 (Simulation time: 00 hr 32 min 31 sec)
Heartbeat CPU 0 instructions: 370000001 cycles: 164432265 heartbeat IPC: 1.469 cumulative IPC: 2.111 (Simulation time: 00 hr 33 min 45 sec)
Heartbeat CPU 0 instructions: 380000003 cycles: 171326071 heartbeat IPC: 1.451 cumulative IPC: 2.083 (Simulation time: 00 hr 35 min 01 sec)
Heartbeat CPU 0 instructions: 390000004 cycles: 178164221 heartbeat IPC: 1.462 cumulative IPC: 2.057 (Simulation time: 00 hr 36 min 17 sec)
Heartbeat CPU 0 instructions: 400000000 cycles: 185079483 heartbeat IPC: 1.446 cumulative IPC: 2.033 (Simulation time: 00 hr 37 min 31 sec)
Heartbeat CPU 0 instructions: 410000003 cycles: 191960879 heartbeat IPC: 1.453 cumulative IPC: 2.01 (Simulation time: 00 hr 38 min 47 sec)
Heartbeat CPU 0 instructions: 420000000 cycles: 198856312 heartbeat IPC: 1.45 cumulative IPC: 1.99 (Simulation time: 00 hr 40 min 02 sec)
Heartbeat CPU 0 instructions: 430000002 cycles: 204860183 heartbeat IPC: 1.666 cumulative IPC: 1.979 (Simulation time: 00 hr 41 min 11 sec)
Heartbeat CPU 0 instructions: 440000002 cycles: 211293924 heartbeat IPC: 1.554 cumulative IPC: 1.966 (Simulation time: 00 hr 42 min 23 sec)
Heartbeat CPU 0 instructions: 450000000 cycles: 217963112 heartbeat IPC: 1.499 cumulative IPC: 1.95 (Simulation time: 00 hr 43 min 40 sec)
Heartbeat CPU 0 instructions: 460000003 cycles: 224821726 heartbeat IPC: 1.458 cumulative IPC: 1.935 (Simulation time: 00 hr 44 min 54 sec)
Heartbeat CPU 0 instructions: 470000004 cycles: 231689540 heartbeat IPC: 1.456 cumulative IPC: 1.919 (Simulation time: 00 hr 46 min 08 sec)
Heartbeat CPU 0 instructions: 480000000 cycles: 238591074 heartbeat IPC: 1.449 cumulative IPC: 1.905 (Simulation time: 00 hr 47 min 22 sec)
Heartbeat CPU 0 instructions: 490000001 cycles: 245509684 heartbeat IPC: 1.445 cumulative IPC: 1.891 (Simulation time: 00 hr 48 min 39 sec)
Heartbeat CPU 0 instructions: 500000001 cycles: 252509671 heartbeat IPC: 1.429 cumulative IPC: 1.878 (Simulation time: 00 hr 49 min 56 sec)
Heartbeat CPU 0 instructions: 510000002 cycles: 259448786 heartbeat IPC: 1.441 cumulative IPC: 1.866 (Simulation time: 00 hr 51 min 15 sec)
Heartbeat CPU 0 instructions: 520000003 cycles: 344459091 heartbeat IPC: 0.1176 cumulative IPC: 1.417 (Simulation time: 01 hr 02 min 07 sec)
Heartbeat CPU 0 instructions: 530000001 cycles: 487483154 heartbeat IPC: 0.06992 cumulative IPC: 1.011 (Simulation time: 01 hr 20 min 15 sec)
Heartbeat CPU 0 instructions: 540000002 cycles: 513100657 heartbeat IPC: 0.3904 cumulative IPC: 0.9796 (Simulation time: 01 hr 24 min 22 sec)
Heartbeat CPU 0 instructions: 550000003 cycles: 538392527 heartbeat IPC: 0.3954 cumulative IPC: 0.9515 (Simulation time: 01 hr 28 min 06 sec)
Heartbeat CPU 0 instructions: 560000001 cycles: 563698196 heartbeat IPC: 0.3952 cumulative IPC: 0.9259 (Simulation time: 01 hr 31 min 41 sec)
Heartbeat CPU 0 instructions: 570000001 cycles: 589066078 heartbeat IPC: 0.3942 cumulative IPC: 0.9025 (Simulation time: 01 hr 35 min 06 sec)
Heartbeat CPU 0 instructions: 580000002 cycles: 614044700 heartbeat IPC: 0.4003 cumulative IPC: 0.8816 (Simulation time: 01 hr 38 min 34 sec)
Heartbeat CPU 0 instructions: 590000000 cycles: 638934583 heartbeat IPC: 0.4018 cumulative IPC: 0.8625 (Simulation time: 01 hr 42 min 01 sec)
*** Reached end of trace: (0, "traces/bt.A.champsimtrace")
Heartbeat CPU 0 instructions: 600000002 cycles: 663570886 heartbeat IPC: 0.4059 cumulative IPC: 0.8453 (Simulation time: 01 hr 45 min 25 sec)
Heartbeat CPU 0 instructions: 610000004 cycles: 694671731 heartbeat IPC: 0.3215 cumulative IPC: 0.8214 (Simulation time: 01 hr 48 min 40 sec)
Heartbeat CPU 0 instructions: 620000000 cycles: 697172886 heartbeat IPC: 3.998 cumulative IPC: 0.833 (Simulation time: 01 hr 49 min 21 sec)
Heartbeat CPU 0 instructions: 630000002 cycles: 699673155 heartbeat IPC: 4 cumulative IPC: 0.8445 (Simulation time: 01 hr 50 min 02 sec)
Heartbeat CPU 0 instructions: 640000001 cycles: 702173278 heartbeat IPC: 4 cumulative IPC: 0.856 (Simulation time: 01 hr 50 min 43 sec)
Heartbeat CPU 0 instructions: 650000002 cycles: 704673558 heartbeat IPC: 4 cumulative IPC: 0.8673 (Simulation time: 01 hr 51 min 24 sec)
Simulation finished CPU 0 instructions: 600000002 cycles: 691792516 cumulative IPC: 0.8673 (Simulation time: 01 hr 51 min 24 sec)
Simulation complete CPU 0 instructions: 600000002 cycles: 691792516 cumulative IPC: 0.8673 (Simulation time: 01 hr 51 min 24 sec)

ChampSim completed all CPUs

=== Simulation ===
CPU 0 runs traces/bt.A.champsimtrace
Region of Interest Statistics

CPU 0 cumulative IPC: 0.8673 instructions: 600000002 cycles: 691792516
CPU 0 Branch Prediction Accuracy: 99.98% MPKI: 0.004168 Average ROB Occupancy at Mispredict: 109.4
Branch type MPKI
BRANCH_DIRECT_JUMP: 5e-06
BRANCH_INDIRECT: 7.83e-05
BRANCH_CONDITIONAL: 0.00402
BRANCH_DIRECT_CALL: 6.67e-06
BRANCH_INDIRECT_CALL: 3.67e-05
BRANCH_RETURN: 2.33e-05

LLC TOTAL        ACCESS:    7792068 HIT:    4590007 MISS:    3202061
LLC LOAD         ACCESS:    2240187 HIT:    1349285 MISS:     890902
LLC RFO          ACCESS:     889447 HIT:       6846 MISS:     882601
LLC PREFETCH     ACCESS:    2670337 HIT:    1482064 MISS:    1188273
LLC WRITE        ACCESS:    1988721 HIT:    1750551 MISS:     238170
LLC TRANSLATION  ACCESS:       3376 HIT:       1261 MISS:       2115
LLC PREFETCH REQUESTED:    2670337 ISSUED:    2670337 USEFUL:     959857 USELESS:      18298
LLC AVERAGE MISS LATENCY: 1391 cycles
cpu0_DTLB TOTAL        ACCESS:  127327525 HIT:  126549879 MISS:     777646
cpu0_DTLB LOAD         ACCESS:  127327525 HIT:  126549879 MISS:     777646
cpu0_DTLB RFO          ACCESS:          0 HIT:          0 MISS:          0
cpu0_DTLB PREFETCH     ACCESS:          0 HIT:          0 MISS:          0
cpu0_DTLB WRITE        ACCESS:          0 HIT:          0 MISS:          0
cpu0_DTLB TRANSLATION  ACCESS:          0 HIT:          0 MISS:          0
cpu0_DTLB PREFETCH REQUESTED:          0 ISSUED:          0 USEFUL:          0 USELESS:          0
cpu0_DTLB AVERAGE MISS LATENCY: 14.23 cycles
cpu0_ITLB TOTAL        ACCESS:     173048 HIT:     172791 MISS:        257
cpu0_ITLB LOAD         ACCESS:     173048 HIT:     172791 MISS:        257
cpu0_ITLB RFO          ACCESS:          0 HIT:          0 MISS:          0
cpu0_ITLB PREFETCH     ACCESS:          0 HIT:          0 MISS:          0
cpu0_ITLB WRITE        ACCESS:          0 HIT:          0 MISS:          0
cpu0_ITLB TRANSLATION  ACCESS:          0 HIT:          0 MISS:          0
cpu0_ITLB PREFETCH REQUESTED:          0 ISSUED:          0 USEFUL:          0 USELESS:          0
cpu0_ITLB AVERAGE MISS LATENCY: 189.6 cycles
cpu0_L1D TOTAL        ACCESS:  195458244 HIT:  182655314 MISS:   12802930
cpu0_L1D LOAD         ACCESS:  160775990 HIT:  152219168 MISS:    8556822
cpu0_L1D RFO          ACCESS:          0 HIT:          0 MISS:          0
cpu0_L1D PREFETCH     ACCESS:          0 HIT:          0 MISS:          0
cpu0_L1D WRITE        ACCESS:   34635480 HIT:   30406452 MISS:    4229028
cpu0_L1D TRANSLATION  ACCESS:      46774 HIT:      29694 MISS:      17080
cpu0_L1D PREFETCH REQUESTED:          0 ISSUED:          0 USEFUL:          0 USELESS:          0
cpu0_L1D AVERAGE MISS LATENCY: 183.1 cycles
cpu0_L1I TOTAL        ACCESS:     205955 HIT:     203062 MISS:       2893
cpu0_L1I LOAD         ACCESS:     205955 HIT:     203062 MISS:       2893
cpu0_L1I RFO          ACCESS:          0 HIT:          0 MISS:          0
cpu0_L1I PREFETCH     ACCESS:          0 HIT:          0 MISS:          0
cpu0_L1I WRITE        ACCESS:          0 HIT:          0 MISS:          0
cpu0_L1I TRANSLATION  ACCESS:          0 HIT:          0 MISS:          0
cpu0_L1I PREFETCH REQUESTED:          0 ISSUED:          0 USEFUL:          0 USELESS:          0
cpu0_L1I AVERAGE MISS LATENCY: 397 cycles
cpu0_L2C TOTAL        ACCESS:    5259239 HIT:    2125743 MISS:    3133496
cpu0_L2C LOAD         ACCESS:    2353099 HIT:     112882 MISS:    2240217
cpu0_L2C RFO          ACCESS:     889975 HIT:        528 MISS:     889447
cpu0_L2C PREFETCH     ACCESS:          0 HIT:          0 MISS:          0
cpu0_L2C WRITE        ACCESS:    1999087 HIT:    1998631 MISS:        456
cpu0_L2C TRANSLATION  ACCESS:      17078 HIT:      13702 MISS:       3376
cpu0_L2C PREFETCH REQUESTED:          0 ISSUED:          0 USEFUL:          0 USELESS:          0
cpu0_L2C AVERAGE MISS LATENCY: 916.3 cycles
cpu0_STLB TOTAL        ACCESS:     314213 HIT:     267461 MISS:      46752
cpu0_STLB LOAD         ACCESS:     314213 HIT:     267461 MISS:      46752
cpu0_STLB RFO          ACCESS:          0 HIT:          0 MISS:          0
cpu0_STLB PREFETCH     ACCESS:          0 HIT:          0 MISS:          0
cpu0_STLB WRITE        ACCESS:          0 HIT:          0 MISS:          0
cpu0_STLB TRANSLATION  ACCESS:          0 HIT:          0 MISS:          0
cpu0_STLB PREFETCH REQUESTED:          0 ISSUED:          0 USEFUL:          0 USELESS:          0
cpu0_STLB AVERAGE MISS LATENCY: 320.5 cycles

DRAM Statistics

Channel 0 RQ ROW_BUFFER_HIT:     864024
  ROW_BUFFER_MISS:    1824062
 AVG DBUS CONGESTED CYCLE: 3.98
WQ ROW_BUFFER_HIT: Channel 0 
  ROW_BUFFER_MISS:      37086
  FULL:    1711428
