WARNING: physical memory size is smaller than virtual memory size.

*** ChampSim Multicore Out-of-Order Simulator ***
Warmup Instructions: 50000000
Simulation Instructions: 600000000
Number of CPUs: 1
Page size: 4096

CPU 0 Tage branch predictor
Off-chip DRAM Size: 4 GiB Channels: 1 Width: 64-bit Data Race: 3200 MT/s
Heartbeat CPU 0 instructions: 10000002 cycles: 2881041 heartbeat IPC: 3.471 cumulative IPC: 3.471 (Simulation time: 00 hr 00 min 59 sec)
Heartbeat CPU 0 instructions: 20000002 cycles: 5381041 heartbeat IPC: 4 cumulative IPC: 3.717 (Simulation time: 00 hr 01 min 47 sec)
Heartbeat CPU 0 instructions: 30000002 cycles: 7881041 heartbeat IPC: 4 cumulative IPC: 3.807 (Simulation time: 00 hr 02 min 29 sec)
Heartbeat CPU 0 instructions: 40000002 cycles: 10381041 heartbeat IPC: 4 cumulative IPC: 3.853 (Simulation time: 00 hr 03 min 26 sec)
Heartbeat CPU 0 instructions: 50000002 cycles: 12881041 heartbeat IPC: 4 cumulative IPC: 3.882 (Simulation time: 00 hr 04 min 12 sec)
Warmup finished CPU 0 instructions: 50000002 cycles: 12881042 cumulative IPC: 3.882 (Simulation time: 00 hr 04 min 12 sec)
Warmup complete CPU 0 instructions: 50000002 cycles: 12881042 cumulative IPC: 3.882 (Simulation time: 00 hr 04 min 12 sec)
Heartbeat CPU 0 instructions: 60000000 cycles: 15381165 heartbeat IPC: 4 cumulative IPC: 4 (Simulation time: 00 hr 05 min 06 sec)
Heartbeat CPU 0 instructions: 70000001 cycles: 17882029 heartbeat IPC: 3.999 cumulative IPC: 3.999 (Simulation time: 00 hr 06 min 02 sec)
Heartbeat CPU 0 instructions: 80000000 cycles: 20382154 heartbeat IPC: 4 cumulative IPC: 3.999 (Simulation time: 00 hr 07 min 06 sec)
Heartbeat CPU 0 instructions: 90000000 cycles: 22882733 heartbeat IPC: 3.999 cumulative IPC: 3.999 (Simulation time: 00 hr 07 min 57 sec)
Heartbeat CPU 0 instructions: 100000000 cycles: 25382855 heartbeat IPC: 4 cumulative IPC: 3.999 (Simulation time: 00 hr 08 min 48 sec)
Heartbeat CPU 0 instructions: 110000001 cycles: 27882977 heartbeat IPC: 4 cumulative IPC: 3.999 (Simulation time: 00 hr 09 min 48 sec)
Heartbeat CPU 0 instructions: 120000000 cycles: 30383264 heartbeat IPC: 4 cumulative IPC: 3.999 (Simulation time: 00 hr 10 min 49 sec)
Heartbeat CPU 0 instructions: 130000003 cycles: 32883804 heartbeat IPC: 3.999 cumulative IPC: 3.999 (Simulation time: 00 hr 11 min 37 sec)
Heartbeat CPU 0 instructions: 140000002 cycles: 35383925 heartbeat IPC: 4 cumulative IPC: 3.999 (Simulation time: 00 hr 12 min 44 sec)
Heartbeat CPU 0 instructions: 150000001 cycles: 37884002 heartbeat IPC: 4 cumulative IPC: 4 (Simulation time: 00 hr 13 min 52 sec)
Heartbeat CPU 0 instructions: 160000003 cycles: 40384126 heartbeat IPC: 4 cumulative IPC: 4 (Simulation time: 00 hr 15 min 04 sec)
Heartbeat CPU 0 instructions: 170000003 cycles: 42884248 heartbeat IPC: 4 cumulative IPC: 4 (Simulation time: 00 hr 16 min 09 sec)
Heartbeat CPU 0 instructions: 180000002 cycles: 45384325 heartbeat IPC: 4 cumulative IPC: 4 (Simulation time: 00 hr 17 min 17 sec)
Heartbeat CPU 0 instructions: 190000003 cycles: 47884370 heartbeat IPC: 4 cumulative IPC: 4 (Simulation time: 00 hr 18 min 16 sec)
Heartbeat CPU 0 instructions: 200000000 cycles: 50384787 heartbeat IPC: 3.999 cumulative IPC: 4 (Simulation time: 00 hr 19 min 18 sec)
Heartbeat CPU 0 instructions: 210000001 cycles: 52884878 heartbeat IPC: 4 cumulative IPC: 4 (Simulation time: 00 hr 20 min 12 sec)
Heartbeat CPU 0 instructions: 220000004 cycles: 55384967 heartbeat IPC: 4 cumulative IPC: 4 (Simulation time: 00 hr 21 min 03 sec)
Heartbeat CPU 0 instructions: 230000000 cycles: 90425318 heartbeat IPC: 0.2854 cumulative IPC: 2.321 (Simulation time: 00 hr 25 min 11 sec)
Heartbeat CPU 0 instructions: 240000000 cycles: 94690637 heartbeat IPC: 2.344 cumulative IPC: 2.322 (Simulation time: 00 hr 26 min 32 sec)
Heartbeat CPU 0 instructions: 250000000 cycles: 98975612 heartbeat IPC: 2.334 cumulative IPC: 2.323 (Simulation time: 00 hr 27 min 43 sec)
Heartbeat CPU 0 instructions: 260000001 cycles: 103256379 heartbeat IPC: 2.336 cumulative IPC: 2.324 (Simulation time: 00 hr 28 min 42 sec)
Heartbeat CPU 0 instructions: 270000000 cycles: 107524887 heartbeat IPC: 2.343 cumulative IPC: 2.325 (Simulation time: 00 hr 29 min 48 sec)
Heartbeat CPU 0 instructions: 280000000 cycles: 111801818 heartbeat IPC: 2.338 cumulative IPC: 2.325 (Simulation time: 00 hr 31 min 02 sec)
Heartbeat CPU 0 instructions: 290000002 cycles: 116063648 heartbeat IPC: 2.346 cumulative IPC: 2.326 (Simulation time: 00 hr 32 min 05 sec)
Heartbeat CPU 0 instructions: 300000003 cycles: 120336112 heartbeat IPC: 2.341 cumulative IPC: 2.327 (Simulation time: 00 hr 33 min 17 sec)
Heartbeat CPU 0 instructions: 310000000 cycles: 124600672 heartbeat IPC: 2.345 cumulative IPC: 2.327 (Simulation time: 00 hr 34 min 40 sec)
Heartbeat CPU 0 instructions: 320000004 cycles: 128842210 heartbeat IPC: 2.358 cumulative IPC: 2.328 (Simulation time: 00 hr 35 min 52 sec)
Heartbeat CPU 0 instructions: 330000002 cycles: 132880139 heartbeat IPC: 2.477 cumulative IPC: 2.333 (Simulation time: 00 hr 36 min 57 sec)
Heartbeat CPU 0 instructions: 340000002 cycles: 136455614 heartbeat IPC: 2.797 cumulative IPC: 2.347 (Simulation time: 00 hr 38 min 03 sec)
Heartbeat CPU 0 instructions: 350000000 cycles: 139864869 heartbeat IPC: 2.933 cumulative IPC: 2.363 (Simulation time: 00 hr 39 min 06 sec)
Heartbeat CPU 0 instructions: 360000003 cycles: 143509685 heartbeat IPC: 2.744 cumulative IPC: 2.373 (Simulation time: 00 hr 40 min 12 sec)
Heartbeat CPU 0 instructions: 370000000 cycles: 147023636 heartbeat IPC: 2.846 cumulative IPC: 2.386 (Simulation time: 00 hr 41 min 16 sec)
Heartbeat CPU 0 instructions: 380000000 cycles: 150562230 heartbeat IPC: 2.826 cumulative IPC: 2.397 (Simulation time: 00 hr 42 min 22 sec)
Heartbeat CPU 0 instructions: 390000004 cycles: 154148326 heartbeat IPC: 2.789 cumulative IPC: 2.407 (Simulation time: 00 hr 43 min 23 sec)
Heartbeat CPU 0 instructions: 400000000 cycles: 157789773 heartbeat IPC: 2.746 cumulative IPC: 2.415 (Simulation time: 00 hr 44 min 31 sec)
Heartbeat CPU 0 instructions: 410000002 cycles: 161137762 heartbeat IPC: 2.987 cumulative IPC: 2.428 (Simulation time: 00 hr 45 min 41 sec)
Heartbeat CPU 0 instructions: 420000004 cycles: 164700829 heartbeat IPC: 2.807 cumulative IPC: 2.437 (Simulation time: 00 hr 46 min 49 sec)
Heartbeat CPU 0 instructions: 430000000 cycles: 167401781 heartbeat IPC: 3.702 cumulative IPC: 2.459 (Simulation time: 00 hr 47 min 42 sec)
Heartbeat CPU 0 instructions: 440000001 cycles: 170162515 heartbeat IPC: 3.622 cumulative IPC: 2.48 (Simulation time: 00 hr 48 min 35 sec)
Heartbeat CPU 0 instructions: 450000002 cycles: 173058141 heartbeat IPC: 3.453 cumulative IPC: 2.497 (Simulation time: 00 hr 49 min 25 sec)
Heartbeat CPU 0 instructions: 460000002 cycles: 176226847 heartbeat IPC: 3.156 cumulative IPC: 2.51 (Simulation time: 00 hr 50 min 19 sec)
Heartbeat CPU 0 instructions: 470000001 cycles: 179733064 heartbeat IPC: 2.852 cumulative IPC: 2.517 (Simulation time: 00 hr 51 min 14 sec)
Heartbeat CPU 0 instructions: 480000002 cycles: 183350291 heartbeat IPC: 2.765 cumulative IPC: 2.522 (Simulation time: 00 hr 52 min 03 sec)
Heartbeat CPU 0 instructions: 490000003 cycles: 186869712 heartbeat IPC: 2.841 cumulative IPC: 2.529 (Simulation time: 00 hr 53 min 19 sec)
Heartbeat CPU 0 instructions: 500000001 cycles: 190514274 heartbeat IPC: 2.744 cumulative IPC: 2.533 (Simulation time: 00 hr 54 min 23 sec)
Heartbeat CPU 0 instructions: 510000001 cycles: 194043505 heartbeat IPC: 2.833 cumulative IPC: 2.539 (Simulation time: 00 hr 55 min 19 sec)
Heartbeat CPU 0 instructions: 520000000 cycles: 265315142 heartbeat IPC: 0.1403 cumulative IPC: 1.862 (Simulation time: 01 hr 05 min 51 sec)
Heartbeat CPU 0 instructions: 530000000 cycles: 394014788 heartbeat IPC: 0.0777 cumulative IPC: 1.259 (Simulation time: 01 hr 23 min 44 sec)
Heartbeat CPU 0 instructions: 540000001 cycles: 424514570 heartbeat IPC: 0.3279 cumulative IPC: 1.19 (Simulation time: 01 hr 29 min 27 sec)
Heartbeat CPU 0 instructions: 550000003 cycles: 453219796 heartbeat IPC: 0.3484 cumulative IPC: 1.135 (Simulation time: 01 hr 34 min 54 sec)
Heartbeat CPU 0 instructions: 560000000 cycles: 483189603 heartbeat IPC: 0.3337 cumulative IPC: 1.084 (Simulation time: 01 hr 40 min 23 sec)
Heartbeat CPU 0 instructions: 570000000 cycles: 514105223 heartbeat IPC: 0.3235 cumulative IPC: 1.037 (Simulation time: 01 hr 46 min 04 sec)
Heartbeat CPU 0 instructions: 580000004 cycles: 548384764 heartbeat IPC: 0.2917 cumulative IPC: 0.9897 (Simulation time: 01 hr 52 min 34 sec)
Heartbeat CPU 0 instructions: 590000000 cycles: 581277865 heartbeat IPC: 0.304 cumulative IPC: 0.95 (Simulation time: 02 hr 00 min 15 sec)
*** Reached end of trace: (0, "traces/bt.A.champsimtrace")
Heartbeat CPU 0 instructions: 600000004 cycles: 613173151 heartbeat IPC: 0.3135 cumulative IPC: 0.9162 (Simulation time: 02 hr 06 min 35 sec)
Heartbeat CPU 0 instructions: 610000002 cycles: 637922509 heartbeat IPC: 0.4041 cumulative IPC: 0.8959 (Simulation time: 02 hr 10 min 37 sec)
Heartbeat CPU 0 instructions: 620000001 cycles: 640422510 heartbeat IPC: 4 cumulative IPC: 0.9083 (Simulation time: 02 hr 12 min 08 sec)
Heartbeat CPU 0 instructions: 630000003 cycles: 642922510 heartbeat IPC: 4 cumulative IPC: 0.9206 (Simulation time: 02 hr 13 min 26 sec)
Heartbeat CPU 0 instructions: 640000000 cycles: 645422509 heartbeat IPC: 4 cumulative IPC: 0.9327 (Simulation time: 02 hr 14 min 43 sec)
Heartbeat CPU 0 instructions: 650000001 cycles: 647922555 heartbeat IPC: 4 cumulative IPC: 0.9448 (Simulation time: 02 hr 16 min 03 sec)
Simulation finished CPU 0 instructions: 600000004 cycles: 635041515 cumulative IPC: 0.9448 (Simulation time: 02 hr 16 min 03 sec)
Simulation complete CPU 0 instructions: 600000004 cycles: 635041515 cumulative IPC: 0.9448 (Simulation time: 02 hr 16 min 03 sec)

ChampSim completed all CPUs

=== Simulation ===
CPU 0 runs traces/bt.A.champsimtrace
Region of Interest Statistics

CPU 0 cumulative IPC: 0.9448 instructions: 600000004 cycles: 635041515
CPU 0 Branch Prediction Accuracy: 99.98% MPKI: 0.004168 Average ROB Occupancy at Mispredict: 118.1
Branch type MPKI
BRANCH_DIRECT_JUMP: 5e-06
BRANCH_INDIRECT: 8.83e-05
BRANCH_CONDITIONAL: 0.00401
BRANCH_DIRECT_CALL: 6.67e-06
BRANCH_INDIRECT_CALL: 3.5e-05
BRANCH_RETURN: 2.17e-05

LLC TOTAL        ACCESS:    7363169 HIT:    3427810 MISS:    3935359
LLC LOAD         ACCESS:    2240759 HIT:    1157483 MISS:    1083276
LLC RFO          ACCESS:     889430 HIT:      51317 MISS:     838113
LLC PREFETCH     ACCESS:    2240784 HIT:     533158 MISS:    1707626
LLC WRITE        ACCESS:    1988808 HIT:    1684739 MISS:     304069
LLC TRANSLATION  ACCESS:       3388 HIT:       1113 MISS:       2275
LLC PREFETCH REQUESTED:    2240784 ISSUED:    2240784 USEFUL:    1443591 USELESS:      22728
LLC AVERAGE MISS LATENCY: 1142 cycles
cpu0_DTLB TOTAL        ACCESS:  129982151 HIT:  129258618 MISS:     723533
cpu0_DTLB LOAD         ACCESS:  129982151 HIT:  129258618 MISS:     723533
cpu0_DTLB RFO          ACCESS:          0 HIT:          0 MISS:          0
cpu0_DTLB PREFETCH     ACCESS:          0 HIT:          0 MISS:          0
cpu0_DTLB WRITE        ACCESS:          0 HIT:          0 MISS:          0
cpu0_DTLB TRANSLATION  ACCESS:          0 HIT:          0 MISS:          0
cpu0_DTLB PREFETCH REQUESTED:          0 ISSUED:          0 USEFUL:          0 USELESS:          0
cpu0_DTLB AVERAGE MISS LATENCY: 16.68 cycles
cpu0_ITLB TOTAL        ACCESS:     172739 HIT:     172486 MISS:        253
cpu0_ITLB LOAD         ACCESS:     172739 HIT:     172486 MISS:        253
cpu0_ITLB RFO          ACCESS:          0 HIT:          0 MISS:          0
cpu0_ITLB PREFETCH     ACCESS:          0 HIT:          0 MISS:          0
cpu0_ITLB WRITE        ACCESS:          0 HIT:          0 MISS:          0
cpu0_ITLB TRANSLATION  ACCESS:          0 HIT:          0 MISS:          0
cpu0_ITLB PREFETCH REQUESTED:          0 ISSUED:          0 USEFUL:          0 USELESS:          0
cpu0_ITLB AVERAGE MISS LATENCY: 310.3 cycles
cpu0_L1D TOTAL        ACCESS:  198590085 HIT:  185107142 MISS:   13482943
cpu0_L1D LOAD         ACCESS:  163907866 HIT:  154474102 MISS:    9433764
cpu0_L1D RFO          ACCESS:          0 HIT:          0 MISS:          0
cpu0_L1D PREFETCH     ACCESS:          0 HIT:          0 MISS:          0
cpu0_L1D WRITE        ACCESS:   34635448 HIT:   30603392 MISS:    4032056
cpu0_L1D TRANSLATION  ACCESS:      46771 HIT:      29648 MISS:      17123
cpu0_L1D PREFETCH REQUESTED:          0 ISSUED:          0 USEFUL:          0 USELESS:          0
cpu0_L1D AVERAGE MISS LATENCY: 166 cycles
cpu0_L1I TOTAL        ACCESS:     203606 HIT:     200673 MISS:       2933
cpu0_L1I LOAD         ACCESS:     203606 HIT:     200673 MISS:       2933
cpu0_L1I RFO          ACCESS:          0 HIT:          0 MISS:          0
cpu0_L1I PREFETCH     ACCESS:          0 HIT:          0 MISS:          0
cpu0_L1I WRITE        ACCESS:          0 HIT:          0 MISS:          0
cpu0_L1I TRANSLATION  ACCESS:          0 HIT:          0 MISS:          0
cpu0_L1I PREFETCH REQUESTED:          0 ISSUED:          0 USEFUL:          0 USELESS:          0
cpu0_L1I AVERAGE MISS LATENCY: 421.2 cycles
cpu0_L2C TOTAL        ACCESS:    5268067 HIT:    2134071 MISS:    3133996
cpu0_L2C LOAD         ACCESS:    2360841 HIT:     120025 MISS:    2240816
cpu0_L2C RFO          ACCESS:     890404 HIT:        974 MISS:     889430
cpu0_L2C PREFETCH     ACCESS:          0 HIT:          0 MISS:          0
cpu0_L2C WRITE        ACCESS:    1999701 HIT:    1999339 MISS:        362
cpu0_L2C TRANSLATION  ACCESS:      17121 HIT:      13733 MISS:       3388
cpu0_L2C PREFETCH REQUESTED:          0 ISSUED:          0 USEFUL:          0 USELESS:          0
cpu0_L2C AVERAGE MISS LATENCY: 937.1 cycles
cpu0_STLB TOTAL        ACCESS:     284958 HIT:     238212 MISS:      46746
cpu0_STLB LOAD         ACCESS:     284958 HIT:     238212 MISS:      46746
cpu0_STLB RFO          ACCESS:          0 HIT:          0 MISS:          0
cpu0_STLB PREFETCH     ACCESS:          0 HIT:          0 MISS:          0
cpu0_STLB WRITE        ACCESS:          0 HIT:          0 MISS:          0
cpu0_STLB TRANSLATION  ACCESS:          0 HIT:          0 MISS:          0
cpu0_STLB PREFETCH REQUESTED:          0 ISSUED:          0 USEFUL:          0 USELESS:          0
cpu0_STLB AVERAGE MISS LATENCY: 345.7 cycles

DRAM Statistics

Channel 0 RQ ROW_BUFFER_HIT:     759038
  ROW_BUFFER_MISS:    1823026
 AVG DBUS CONGESTED CYCLE: 3.979
WQ ROW_BUFFER_HIT: Channel 0 
  ROW_BUFFER_MISS:     255269
  FULL:    1436611
