WARNING: physical memory size is smaller than virtual memory size.

*** ChampSim Multicore Out-of-Order Simulator ***
Warmup Instructions: 50000000
Simulation Instructions: 600000000
Number of CPUs: 1
Page size: 4096

Off-chip DRAM Size: 4 GiB Channels: 1 Width: 64-bit Data Race: 3200 MT/s
Heartbeat CPU 0 instructions: 10000000 cycles: 2881042 heartbeat IPC: 3.471 cumulative IPC: 3.471 (Simulation time: 00 hr 00 min 38 sec)
Heartbeat CPU 0 instructions: 20000000 cycles: 5381042 heartbeat IPC: 4 cumulative IPC: 3.717 (Simulation time: 00 hr 01 min 17 sec)
Heartbeat CPU 0 instructions: 30000000 cycles: 7881042 heartbeat IPC: 4 cumulative IPC: 3.807 (Simulation time: 00 hr 01 min 50 sec)
Heartbeat CPU 0 instructions: 40000000 cycles: 10381042 heartbeat IPC: 4 cumulative IPC: 3.853 (Simulation time: 00 hr 02 min 22 sec)
Heartbeat CPU 0 instructions: 50000000 cycles: 12881042 heartbeat IPC: 4 cumulative IPC: 3.882 (Simulation time: 00 hr 02 min 55 sec)
Warmup finished CPU 0 instructions: 50000000 cycles: 12881043 cumulative IPC: 3.882 (Simulation time: 00 hr 02 min 55 sec)
Warmup complete CPU 0 instructions: 50000000 cycles: 12881043 cumulative IPC: 3.882 (Simulation time: 00 hr 02 min 55 sec)
Heartbeat CPU 0 instructions: 60000004 cycles: 15383648 heartbeat IPC: 3.996 cumulative IPC: 3.996 (Simulation time: 00 hr 03 min 35 sec)
Heartbeat CPU 0 instructions: 70000002 cycles: 17887241 heartbeat IPC: 3.994 cumulative IPC: 3.995 (Simulation time: 00 hr 04 min 15 sec)
Heartbeat CPU 0 instructions: 80000002 cycles: 20389819 heartbeat IPC: 3.996 cumulative IPC: 3.995 (Simulation time: 00 hr 04 min 55 sec)
Heartbeat CPU 0 instructions: 90000004 cycles: 22894063 heartbeat IPC: 3.993 cumulative IPC: 3.995 (Simulation time: 00 hr 05 min 34 sec)
Heartbeat CPU 0 instructions: 100000000 cycles: 25396852 heartbeat IPC: 3.996 cumulative IPC: 3.995 (Simulation time: 00 hr 06 min 15 sec)
Heartbeat CPU 0 instructions: 110000002 cycles: 27899664 heartbeat IPC: 3.996 cumulative IPC: 3.995 (Simulation time: 00 hr 06 min 53 sec)
Heartbeat CPU 0 instructions: 120000000 cycles: 30403185 heartbeat IPC: 3.994 cumulative IPC: 3.995 (Simulation time: 00 hr 07 min 37 sec)
Heartbeat CPU 0 instructions: 130000002 cycles: 32906499 heartbeat IPC: 3.995 cumulative IPC: 3.995 (Simulation time: 00 hr 08 min 20 sec)
Heartbeat CPU 0 instructions: 140000004 cycles: 35408908 heartbeat IPC: 3.996 cumulative IPC: 3.995 (Simulation time: 00 hr 09 min 04 sec)
Heartbeat CPU 0 instructions: 150000000 cycles: 37911270 heartbeat IPC: 3.996 cumulative IPC: 3.995 (Simulation time: 00 hr 09 min 44 sec)
Heartbeat CPU 0 instructions: 160000003 cycles: 40414594 heartbeat IPC: 3.995 cumulative IPC: 3.995 (Simulation time: 00 hr 10 min 23 sec)
Heartbeat CPU 0 instructions: 170000002 cycles: 42918922 heartbeat IPC: 3.993 cumulative IPC: 3.995 (Simulation time: 00 hr 11 min 01 sec)
Heartbeat CPU 0 instructions: 180000000 cycles: 45421480 heartbeat IPC: 3.996 cumulative IPC: 3.995 (Simulation time: 00 hr 11 min 41 sec)
Heartbeat CPU 0 instructions: 190000003 cycles: 47923834 heartbeat IPC: 3.996 cumulative IPC: 3.995 (Simulation time: 00 hr 12 min 19 sec)
Heartbeat CPU 0 instructions: 200000000 cycles: 50426419 heartbeat IPC: 3.996 cumulative IPC: 3.995 (Simulation time: 00 hr 12 min 57 sec)
Heartbeat CPU 0 instructions: 210000000 cycles: 52928991 heartbeat IPC: 3.996 cumulative IPC: 3.995 (Simulation time: 00 hr 13 min 33 sec)
Heartbeat CPU 0 instructions: 220000003 cycles: 55431445 heartbeat IPC: 3.996 cumulative IPC: 3.995 (Simulation time: 00 hr 14 min 10 sec)
Heartbeat CPU 0 instructions: 230000001 cycles: 89750560 heartbeat IPC: 0.2914 cumulative IPC: 2.342 (Simulation time: 00 hr 17 min 48 sec)
Heartbeat CPU 0 instructions: 240000002 cycles: 95670740 heartbeat IPC: 1.689 cumulative IPC: 2.295 (Simulation time: 00 hr 18 min 52 sec)
Heartbeat CPU 0 instructions: 250000000 cycles: 101726543 heartbeat IPC: 1.651 cumulative IPC: 2.251 (Simulation time: 00 hr 19 min 57 sec)
Heartbeat CPU 0 instructions: 260000004 cycles: 107772709 heartbeat IPC: 1.654 cumulative IPC: 2.213 (Simulation time: 00 hr 21 min 03 sec)
Heartbeat CPU 0 instructions: 270000003 cycles: 113844291 heartbeat IPC: 1.647 cumulative IPC: 2.179 (Simulation time: 00 hr 22 min 09 sec)
Heartbeat CPU 0 instructions: 280000001 cycles: 119915643 heartbeat IPC: 1.647 cumulative IPC: 2.149 (Simulation time: 00 hr 23 min 15 sec)
Heartbeat CPU 0 instructions: 290000000 cycles: 125944343 heartbeat IPC: 1.659 cumulative IPC: 2.123 (Simulation time: 00 hr 24 min 20 sec)
Heartbeat CPU 0 instructions: 300000003 cycles: 132025429 heartbeat IPC: 1.644 cumulative IPC: 2.098 (Simulation time: 00 hr 25 min 26 sec)
Heartbeat CPU 0 instructions: 310000001 cycles: 138059611 heartbeat IPC: 1.657 cumulative IPC: 2.077 (Simulation time: 00 hr 26 min 32 sec)
Heartbeat CPU 0 instructions: 320000002 cycles: 144114662 heartbeat IPC: 1.652 cumulative IPC: 2.057 (Simulation time: 00 hr 27 min 36 sec)
Heartbeat CPU 0 instructions: 330000004 cycles: 150716953 heartbeat IPC: 1.515 cumulative IPC: 2.031 (Simulation time: 00 hr 28 min 46 sec)
Heartbeat CPU 0 instructions: 340000002 cycles: 157555944 heartbeat IPC: 1.462 cumulative IPC: 2.004 (Simulation time: 00 hr 29 min 57 sec)
Heartbeat CPU 0 instructions: 350000002 cycles: 164366626 heartbeat IPC: 1.468 cumulative IPC: 1.98 (Simulation time: 00 hr 31 min 08 sec)
Heartbeat CPU 0 instructions: 360000002 cycles: 171218201 heartbeat IPC: 1.46 cumulative IPC: 1.958 (Simulation time: 00 hr 32 min 19 sec)
Heartbeat CPU 0 instructions: 370000001 cycles: 177975142 heartbeat IPC: 1.48 cumulative IPC: 1.938 (Simulation time: 00 hr 33 min 29 sec)
Heartbeat CPU 0 instructions: 380000003 cycles: 184770948 heartbeat IPC: 1.471 cumulative IPC: 1.92 (Simulation time: 00 hr 34 min 38 sec)
Heartbeat CPU 0 instructions: 390000004 cycles: 191555293 heartbeat IPC: 1.474 cumulative IPC: 1.903 (Simulation time: 00 hr 35 min 47 sec)
Heartbeat CPU 0 instructions: 400000000 cycles: 198427854 heartbeat IPC: 1.455 cumulative IPC: 1.886 (Simulation time: 00 hr 36 min 58 sec)
Heartbeat CPU 0 instructions: 410000003 cycles: 205202810 heartbeat IPC: 1.476 cumulative IPC: 1.872 (Simulation time: 00 hr 38 min 09 sec)
Heartbeat CPU 0 instructions: 420000000 cycles: 211996589 heartbeat IPC: 1.472 cumulative IPC: 1.858 (Simulation time: 00 hr 39 min 18 sec)
Heartbeat CPU 0 instructions: 430000002 cycles: 219007338 heartbeat IPC: 1.426 cumulative IPC: 1.844 (Simulation time: 00 hr 40 min 29 sec)
Heartbeat CPU 0 instructions: 440000002 cycles: 226106213 heartbeat IPC: 1.409 cumulative IPC: 1.829 (Simulation time: 00 hr 41 min 43 sec)
Heartbeat CPU 0 instructions: 450000000 cycles: 233210893 heartbeat IPC: 1.408 cumulative IPC: 1.815 (Simulation time: 00 hr 42 min 55 sec)
Heartbeat CPU 0 instructions: 460000003 cycles: 240370023 heartbeat IPC: 1.397 cumulative IPC: 1.802 (Simulation time: 00 hr 44 min 12 sec)
Heartbeat CPU 0 instructions: 470000004 cycles: 247529884 heartbeat IPC: 1.397 cumulative IPC: 1.79 (Simulation time: 00 hr 45 min 27 sec)
Heartbeat CPU 0 instructions: 480000000 cycles: 254681404 heartbeat IPC: 1.398 cumulative IPC: 1.778 (Simulation time: 00 hr 46 min 42 sec)
Heartbeat CPU 0 instructions: 490000001 cycles: 261823216 heartbeat IPC: 1.4 cumulative IPC: 1.767 (Simulation time: 00 hr 47 min 57 sec)
Heartbeat CPU 0 instructions: 500000001 cycles: 268972951 heartbeat IPC: 1.399 cumulative IPC: 1.757 (Simulation time: 00 hr 49 min 09 sec)
Heartbeat CPU 0 instructions: 510000002 cycles: 276170469 heartbeat IPC: 1.389 cumulative IPC: 1.747 (Simulation time: 00 hr 50 min 22 sec)
Heartbeat CPU 0 instructions: 520000002 cycles: 334921047 heartbeat IPC: 0.1702 cumulative IPC: 1.459 (Simulation time: 00 hr 58 min 00 sec)
Heartbeat CPU 0 instructions: 530000001 cycles: 441161026 heartbeat IPC: 0.09413 cumulative IPC: 1.121 (Simulation time: 01 hr 11 min 49 sec)
Heartbeat CPU 0 instructions: 540000002 cycles: 475706047 heartbeat IPC: 0.2895 cumulative IPC: 1.059 (Simulation time: 01 hr 16 min 41 sec)
Heartbeat CPU 0 instructions: 550000003 cycles: 514419931 heartbeat IPC: 0.2583 cumulative IPC: 0.9969 (Simulation time: 01 hr 22 min 35 sec)
Heartbeat CPU 0 instructions: 560000001 cycles: 552852950 heartbeat IPC: 0.2602 cumulative IPC: 0.9445 (Simulation time: 01 hr 28 min 13 sec)
Heartbeat CPU 0 instructions: 570000000 cycles: 591424944 heartbeat IPC: 0.2593 cumulative IPC: 0.8988 (Simulation time: 01 hr 34 min 01 sec)
Heartbeat CPU 0 instructions: 580000003 cycles: 622260511 heartbeat IPC: 0.3243 cumulative IPC: 0.8697 (Simulation time: 01 hr 38 min 34 sec)
Heartbeat CPU 0 instructions: 590000000 cycles: 660485016 heartbeat IPC: 0.2616 cumulative IPC: 0.8338 (Simulation time: 01 hr 44 min 13 sec)
*** Reached end of trace: (0, "traces/bt.A.champsimtrace")
Heartbeat CPU 0 instructions: 600000002 cycles: 698288365 heartbeat IPC: 0.2645 cumulative IPC: 0.8024 (Simulation time: 01 hr 49 min 46 sec)
Heartbeat CPU 0 instructions: 610000004 cycles: 723066523 heartbeat IPC: 0.4036 cumulative IPC: 0.7885 (Simulation time: 01 hr 52 min 33 sec)
Heartbeat CPU 0 instructions: 620000000 cycles: 725568853 heartbeat IPC: 3.996 cumulative IPC: 0.7998 (Simulation time: 01 hr 53 min 12 sec)
Heartbeat CPU 0 instructions: 630000002 cycles: 728071171 heartbeat IPC: 3.996 cumulative IPC: 0.811 (Simulation time: 01 hr 53 min 51 sec)
Heartbeat CPU 0 instructions: 640000000 cycles: 730573489 heartbeat IPC: 3.996 cumulative IPC: 0.8221 (Simulation time: 01 hr 54 min 29 sec)
Heartbeat CPU 0 instructions: 650000002 cycles: 733076303 heartbeat IPC: 3.996 cumulative IPC: 0.8331 (Simulation time: 01 hr 55 min 08 sec)
Simulation finished CPU 0 instructions: 600000002 cycles: 720195261 cumulative IPC: 0.8331 (Simulation time: 01 hr 55 min 08 sec)
Simulation complete CPU 0 instructions: 600000002 cycles: 720195261 cumulative IPC: 0.8331 (Simulation time: 01 hr 55 min 08 sec)

ChampSim completed all CPUs

=== Simulation ===
CPU 0 runs traces/bt.A.champsimtrace
Region of Interest Statistics

CPU 0 cumulative IPC: 0.8331 instructions: 600000002 cycles: 720195261
CPU 0 Branch Prediction Accuracy: 99.29% MPKI: 0.1296 Average ROB Occupancy at Mispredict: 280.3
Branch type MPKI
BRANCH_DIRECT_JUMP: 5e-06
BRANCH_INDIRECT: 7.83e-05
BRANCH_CONDITIONAL: 0.129
BRANCH_DIRECT_CALL: 6.67e-06
BRANCH_INDIRECT_CALL: 3.67e-05
BRANCH_RETURN: 2.33e-05

LLC TOTAL        ACCESS:    5120964 HIT:     467276 MISS:    4653688
LLC LOAD         ACCESS:    2239976 HIT:     306558 MISS:    1933418
LLC RFO          ACCESS:     889448 HIT:      63120 MISS:     826328
LLC PREFETCH     ACCESS:          0 HIT:          0 MISS:          0
LLC WRITE        ACCESS:    1988163 HIT:      97489 MISS:    1890674
LLC TRANSLATION  ACCESS:       3377 HIT:        109 MISS:       3268
LLC PREFETCH REQUESTED:          0 ISSUED:          0 USEFUL:          0 USELESS:          0
LLC AVERAGE MISS LATENCY: 705.5 cycles
cpu0_DTLB TOTAL        ACCESS:  126408160 HIT:  125643526 MISS:     764634
cpu0_DTLB LOAD         ACCESS:  126408160 HIT:  125643526 MISS:     764634
cpu0_DTLB RFO          ACCESS:          0 HIT:          0 MISS:          0
cpu0_DTLB PREFETCH     ACCESS:          0 HIT:          0 MISS:          0
cpu0_DTLB WRITE        ACCESS:          0 HIT:          0 MISS:          0
cpu0_DTLB TRANSLATION  ACCESS:          0 HIT:          0 MISS:          0
cpu0_DTLB PREFETCH REQUESTED:          0 ISSUED:          0 USEFUL:          0 USELESS:          0
cpu0_DTLB AVERAGE MISS LATENCY: 16.01 cycles
cpu0_ITLB TOTAL        ACCESS:     145765 HIT:     145532 MISS:        233
cpu0_ITLB LOAD         ACCESS:     145765 HIT:     145532 MISS:        233
cpu0_ITLB RFO          ACCESS:          0 HIT:          0 MISS:          0
cpu0_ITLB PREFETCH     ACCESS:          0 HIT:          0 MISS:          0
cpu0_ITLB WRITE        ACCESS:          0 HIT:          0 MISS:          0
cpu0_ITLB TRANSLATION  ACCESS:          0 HIT:          0 MISS:          0
cpu0_ITLB PREFETCH REQUESTED:          0 ISSUED:          0 USEFUL:          0 USELESS:          0
cpu0_ITLB AVERAGE MISS LATENCY: 299 cycles
cpu0_L1D TOTAL        ACCESS:  193627354 HIT:  179635947 MISS:   13991407
cpu0_L1D LOAD         ACCESS:  158945101 HIT:  149031021 MISS:    9914080
cpu0_L1D RFO          ACCESS:          0 HIT:          0 MISS:          0
cpu0_L1D PREFETCH     ACCESS:          0 HIT:          0 MISS:          0
cpu0_L1D WRITE        ACCESS:   34635478 HIT:   30575229 MISS:    4060249
cpu0_L1D TRANSLATION  ACCESS:      46775 HIT:      29697 MISS:      17078
cpu0_L1D PREFETCH REQUESTED:          0 ISSUED:          0 USEFUL:          0 USELESS:          0
cpu0_L1D AVERAGE MISS LATENCY: 174.4 cycles
cpu0_L1I TOTAL        ACCESS:     195630 HIT:     192823 MISS:       2807
cpu0_L1I LOAD         ACCESS:     195630 HIT:     192823 MISS:       2807
cpu0_L1I RFO          ACCESS:          0 HIT:          0 MISS:          0
cpu0_L1I PREFETCH     ACCESS:          0 HIT:          0 MISS:          0
cpu0_L1I WRITE        ACCESS:          0 HIT:          0 MISS:          0
cpu0_L1I TRANSLATION  ACCESS:          0 HIT:          0 MISS:          0
cpu0_L1I PREFETCH REQUESTED:          0 ISSUED:          0 USEFUL:          0 USELESS:          0
cpu0_L1I AVERAGE MISS LATENCY: 557 cycles
cpu0_L2C TOTAL        ACCESS:    5271268 HIT:    2138010 MISS:    3133258
cpu0_L2C LOAD         ACCESS:    2365101 HIT:     125123 MISS:    2239978
cpu0_L2C RFO          ACCESS:     889976 HIT:        528 MISS:     889448
cpu0_L2C PREFETCH     ACCESS:          0 HIT:          0 MISS:          0
cpu0_L2C WRITE        ACCESS:    1999117 HIT:    1998662 MISS:        455
cpu0_L2C TRANSLATION  ACCESS:      17074 HIT:      13697 MISS:       3377
cpu0_L2C PREFETCH REQUESTED:          0 ISSUED:          0 USEFUL:          0 USELESS:          0
cpu0_L2C AVERAGE MISS LATENCY: 1069 cycles
cpu0_STLB TOTAL        ACCESS:     311304 HIT:     264552 MISS:      46752
cpu0_STLB LOAD         ACCESS:     311304 HIT:     264552 MISS:      46752
cpu0_STLB RFO          ACCESS:          0 HIT:          0 MISS:          0
cpu0_STLB PREFETCH     ACCESS:          0 HIT:          0 MISS:          0
cpu0_STLB WRITE        ACCESS:          0 HIT:          0 MISS:          0
cpu0_STLB TRANSLATION  ACCESS:          0 HIT:          0 MISS:          0
cpu0_STLB PREFETCH REQUESTED:          0 ISSUED:          0 USEFUL:          0 USELESS:          0
cpu0_STLB AVERAGE MISS LATENCY: 358.3 cycles

DRAM Statistics

Channel 0 RQ ROW_BUFFER_HIT:     732659
  ROW_BUFFER_MISS:    2026315
 AVG DBUS CONGESTED CYCLE: 3.969
WQ ROW_BUFFER_HIT: Channel 0 
  ROW_BUFFER_MISS:     659520
  FULL:    1242448
