WARNING: physical memory size is smaller than virtual memory size.

*** ChampSim Multicore Out-of-Order Simulator ***
Warmup Instructions: 50000000
Simulation Instructions: 600000000
Number of CPUs: 1
Page size: 4096

Off-chip DRAM Size: 4 GiB Channels: 1 Width: 64-bit Data Race: 3200 MT/s
Heartbeat CPU 0 instructions: 10000000 cycles: 2881040 heartbeat IPC: 3.471 cumulative IPC: 3.471 (Simulation time: 00 hr 00 min 34 sec)
Heartbeat CPU 0 instructions: 20000000 cycles: 5381040 heartbeat IPC: 4 cumulative IPC: 3.717 (Simulation time: 00 hr 01 min 04 sec)
Heartbeat CPU 0 instructions: 30000000 cycles: 7881040 heartbeat IPC: 4 cumulative IPC: 3.807 (Simulation time: 00 hr 01 min 37 sec)
Heartbeat CPU 0 instructions: 40000000 cycles: 10381040 heartbeat IPC: 4 cumulative IPC: 3.853 (Simulation time: 00 hr 02 min 08 sec)
Heartbeat CPU 0 instructions: 50000000 cycles: 12881040 heartbeat IPC: 4 cumulative IPC: 3.882 (Simulation time: 00 hr 02 min 38 sec)
Warmup finished CPU 0 instructions: 50000000 cycles: 12881041 cumulative IPC: 3.882 (Simulation time: 00 hr 02 min 38 sec)
Warmup complete CPU 0 instructions: 50000000 cycles: 12881041 cumulative IPC: 3.882 (Simulation time: 00 hr 02 min 38 sec)
Heartbeat CPU 0 instructions: 60000004 cycles: 15383783 heartbeat IPC: 3.996 cumulative IPC: 3.996 (Simulation time: 00 hr 03 min 14 sec)
Heartbeat CPU 0 instructions: 70000002 cycles: 17886785 heartbeat IPC: 3.995 cumulative IPC: 3.995 (Simulation time: 00 hr 03 min 50 sec)
Heartbeat CPU 0 instructions: 80000002 cycles: 20389309 heartbeat IPC: 3.996 cumulative IPC: 3.996 (Simulation time: 00 hr 04 min 26 sec)
Heartbeat CPU 0 instructions: 90000004 cycles: 22891803 heartbeat IPC: 3.996 cumulative IPC: 3.996 (Simulation time: 00 hr 05 min 03 sec)
Heartbeat CPU 0 instructions: 100000000 cycles: 25394382 heartbeat IPC: 3.996 cumulative IPC: 3.996 (Simulation time: 00 hr 05 min 42 sec)
Heartbeat CPU 0 instructions: 110000002 cycles: 27896788 heartbeat IPC: 3.996 cumulative IPC: 3.996 (Simulation time: 00 hr 06 min 19 sec)
Heartbeat CPU 0 instructions: 120000000 cycles: 30401342 heartbeat IPC: 3.993 cumulative IPC: 3.995 (Simulation time: 00 hr 07 min 00 sec)
Heartbeat CPU 0 instructions: 130000002 cycles: 32905503 heartbeat IPC: 3.993 cumulative IPC: 3.995 (Simulation time: 00 hr 07 min 37 sec)
Heartbeat CPU 0 instructions: 140000004 cycles: 35408038 heartbeat IPC: 3.996 cumulative IPC: 3.995 (Simulation time: 00 hr 08 min 14 sec)
Heartbeat CPU 0 instructions: 150000000 cycles: 37910400 heartbeat IPC: 3.996 cumulative IPC: 3.995 (Simulation time: 00 hr 08 min 52 sec)
Heartbeat CPU 0 instructions: 160000003 cycles: 40412849 heartbeat IPC: 3.996 cumulative IPC: 3.995 (Simulation time: 00 hr 09 min 29 sec)
Heartbeat CPU 0 instructions: 170000002 cycles: 42915643 heartbeat IPC: 3.996 cumulative IPC: 3.995 (Simulation time: 00 hr 10 min 07 sec)
Heartbeat CPU 0 instructions: 180000000 cycles: 45418057 heartbeat IPC: 3.996 cumulative IPC: 3.995 (Simulation time: 00 hr 10 min 46 sec)
Heartbeat CPU 0 instructions: 190000003 cycles: 47920837 heartbeat IPC: 3.996 cumulative IPC: 3.995 (Simulation time: 00 hr 11 min 23 sec)
Heartbeat CPU 0 instructions: 200000000 cycles: 50425466 heartbeat IPC: 3.993 cumulative IPC: 3.995 (Simulation time: 00 hr 12 min 00 sec)
Heartbeat CPU 0 instructions: 210000000 cycles: 52928097 heartbeat IPC: 3.996 cumulative IPC: 3.995 (Simulation time: 00 hr 12 min 41 sec)
Heartbeat CPU 0 instructions: 220000003 cycles: 55430551 heartbeat IPC: 3.996 cumulative IPC: 3.995 (Simulation time: 00 hr 13 min 23 sec)
Heartbeat CPU 0 instructions: 230000001 cycles: 89731268 heartbeat IPC: 0.2915 cumulative IPC: 2.342 (Simulation time: 00 hr 17 min 15 sec)
Heartbeat CPU 0 instructions: 240000002 cycles: 94020290 heartbeat IPC: 2.332 cumulative IPC: 2.342 (Simulation time: 00 hr 18 min 13 sec)
Heartbeat CPU 0 instructions: 250000000 cycles: 98355263 heartbeat IPC: 2.307 cumulative IPC: 2.34 (Simulation time: 00 hr 19 min 11 sec)
Heartbeat CPU 0 instructions: 260000004 cycles: 102665217 heartbeat IPC: 2.32 cumulative IPC: 2.339 (Simulation time: 00 hr 20 min 09 sec)
Heartbeat CPU 0 instructions: 270000003 cycles: 106984274 heartbeat IPC: 2.315 cumulative IPC: 2.338 (Simulation time: 00 hr 21 min 02 sec)
Heartbeat CPU 0 instructions: 280000001 cycles: 111315120 heartbeat IPC: 2.309 cumulative IPC: 2.337 (Simulation time: 00 hr 21 min 54 sec)
Heartbeat CPU 0 instructions: 290000000 cycles: 115584443 heartbeat IPC: 2.342 cumulative IPC: 2.337 (Simulation time: 00 hr 22 min 45 sec)
Heartbeat CPU 0 instructions: 300000003 cycles: 119946159 heartbeat IPC: 2.293 cumulative IPC: 2.335 (Simulation time: 00 hr 23 min 38 sec)
Heartbeat CPU 0 instructions: 310000002 cycles: 124243316 heartbeat IPC: 2.327 cumulative IPC: 2.335 (Simulation time: 00 hr 24 min 32 sec)
Heartbeat CPU 0 instructions: 320000002 cycles: 128544575 heartbeat IPC: 2.325 cumulative IPC: 2.334 (Simulation time: 00 hr 25 min 23 sec)
Heartbeat CPU 0 instructions: 330000002 cycles: 132725637 heartbeat IPC: 2.392 cumulative IPC: 2.336 (Simulation time: 00 hr 26 min 13 sec)
Heartbeat CPU 0 instructions: 340000002 cycles: 136248746 heartbeat IPC: 2.838 cumulative IPC: 2.351 (Simulation time: 00 hr 27 min 00 sec)
Heartbeat CPU 0 instructions: 350000002 cycles: 139727445 heartbeat IPC: 2.875 cumulative IPC: 2.365 (Simulation time: 00 hr 27 min 47 sec)
Heartbeat CPU 0 instructions: 360000000 cycles: 143252082 heartbeat IPC: 2.837 cumulative IPC: 2.378 (Simulation time: 00 hr 28 min 32 sec)
Heartbeat CPU 0 instructions: 370000001 cycles: 146722205 heartbeat IPC: 2.882 cumulative IPC: 2.391 (Simulation time: 00 hr 29 min 25 sec)
Heartbeat CPU 0 instructions: 380000003 cycles: 150209114 heartbeat IPC: 2.868 cumulative IPC: 2.403 (Simulation time: 00 hr 30 min 13 sec)
Heartbeat CPU 0 instructions: 390000002 cycles: 153666875 heartbeat IPC: 2.892 cumulative IPC: 2.415 (Simulation time: 00 hr 31 min 04 sec)
Heartbeat CPU 0 instructions: 400000000 cycles: 157210989 heartbeat IPC: 2.822 cumulative IPC: 2.425 (Simulation time: 00 hr 32 min 00 sec)
Heartbeat CPU 0 instructions: 410000002 cycles: 160628394 heartbeat IPC: 2.926 cumulative IPC: 2.437 (Simulation time: 00 hr 32 min 54 sec)
Heartbeat CPU 0 instructions: 420000000 cycles: 164189114 heartbeat IPC: 2.808 cumulative IPC: 2.445 (Simulation time: 00 hr 33 min 46 sec)
Heartbeat CPU 0 instructions: 430000001 cycles: 167961511 heartbeat IPC: 2.651 cumulative IPC: 2.45 (Simulation time: 00 hr 34 min 38 sec)
Heartbeat CPU 0 instructions: 440000002 cycles: 171862262 heartbeat IPC: 2.564 cumulative IPC: 2.453 (Simulation time: 00 hr 35 min 31 sec)
Heartbeat CPU 0 instructions: 450000000 cycles: 175671325 heartbeat IPC: 2.625 cumulative IPC: 2.457 (Simulation time: 00 hr 36 min 25 sec)
Heartbeat CPU 0 instructions: 460000003 cycles: 179568831 heartbeat IPC: 2.566 cumulative IPC: 2.46 (Simulation time: 00 hr 37 min 21 sec)
Heartbeat CPU 0 instructions: 470000004 cycles: 183425242 heartbeat IPC: 2.593 cumulative IPC: 2.463 (Simulation time: 00 hr 38 min 16 sec)
Heartbeat CPU 0 instructions: 480000000 cycles: 187331305 heartbeat IPC: 2.56 cumulative IPC: 2.465 (Simulation time: 00 hr 39 min 10 sec)
Heartbeat CPU 0 instructions: 490000001 cycles: 191190031 heartbeat IPC: 2.592 cumulative IPC: 2.468 (Simulation time: 00 hr 40 min 06 sec)
Heartbeat CPU 0 instructions: 500000001 cycles: 195107814 heartbeat IPC: 2.552 cumulative IPC: 2.469 (Simulation time: 00 hr 40 min 59 sec)
Heartbeat CPU 0 instructions: 510000002 cycles: 198959639 heartbeat IPC: 2.596 cumulative IPC: 2.472 (Simulation time: 00 hr 41 min 51 sec)
Heartbeat CPU 0 instructions: 520000000 cycles: 256546205 heartbeat IPC: 0.1737 cumulative IPC: 1.929 (Simulation time: 00 hr 50 min 36 sec)
Heartbeat CPU 0 instructions: 530000000 cycles: 370562703 heartbeat IPC: 0.08771 cumulative IPC: 1.342 (Simulation time: 01 hr 06 min 38 sec)
Heartbeat CPU 0 instructions: 540000001 cycles: 402925999 heartbeat IPC: 0.309 cumulative IPC: 1.256 (Simulation time: 01 hr 11 min 14 sec)
Heartbeat CPU 0 instructions: 550000003 cycles: 439845525 heartbeat IPC: 0.2709 cumulative IPC: 1.171 (Simulation time: 01 hr 16 min 46 sec)
Heartbeat CPU 0 instructions: 560000001 cycles: 476509926 heartbeat IPC: 0.2727 cumulative IPC: 1.1 (Simulation time: 01 hr 22 min 33 sec)
Heartbeat CPU 0 instructions: 570000001 cycles: 513404834 heartbeat IPC: 0.271 cumulative IPC: 1.039 (Simulation time: 01 hr 28 min 11 sec)
Heartbeat CPU 0 instructions: 580000002 cycles: 542820567 heartbeat IPC: 0.34 cumulative IPC: 1 (Simulation time: 01 hr 32 min 52 sec)
Heartbeat CPU 0 instructions: 590000001 cycles: 579983111 heartbeat IPC: 0.2691 cumulative IPC: 0.9522 (Simulation time: 01 hr 38 min 53 sec)
*** Reached end of trace: (0, "traces/bt.A.champsimtrace")
Heartbeat CPU 0 instructions: 600000002 cycles: 616744918 heartbeat IPC: 0.272 cumulative IPC: 0.9108 (Simulation time: 01 hr 44 min 31 sec)
Heartbeat CPU 0 instructions: 610000004 cycles: 641919733 heartbeat IPC: 0.3972 cumulative IPC: 0.8902 (Simulation time: 01 hr 47 min 16 sec)
Heartbeat CPU 0 instructions: 620000000 cycles: 644422063 heartbeat IPC: 3.996 cumulative IPC: 0.9026 (Simulation time: 01 hr 47 min 54 sec)
Heartbeat CPU 0 instructions: 630000002 cycles: 646924381 heartbeat IPC: 3.996 cumulative IPC: 0.9148 (Simulation time: 01 hr 48 min 32 sec)
Heartbeat CPU 0 instructions: 640000000 cycles: 649426699 heartbeat IPC: 3.996 cumulative IPC: 0.9269 (Simulation time: 01 hr 49 min 11 sec)
Heartbeat CPU 0 instructions: 650000002 cycles: 651929096 heartbeat IPC: 3.996 cumulative IPC: 0.9389 (Simulation time: 01 hr 49 min 49 sec)
Simulation finished CPU 0 instructions: 600000002 cycles: 639048056 cumulative IPC: 0.9389 (Simulation time: 01 hr 49 min 49 sec)
Simulation complete CPU 0 instructions: 600000002 cycles: 639048056 cumulative IPC: 0.9389 (Simulation time: 01 hr 49 min 49 sec)

ChampSim completed all CPUs

=== Simulation ===
CPU 0 runs traces/bt.A.champsimtrace
Region of Interest Statistics

CPU 0 cumulative IPC: 0.9389 instructions: 600000002 cycles: 639048056
CPU 0 Branch Prediction Accuracy: 99.29% MPKI: 0.1288 Average ROB Occupancy at Mispredict: 279.9
Branch type MPKI
BRANCH_DIRECT_JUMP: 5e-06
BRANCH_INDIRECT: 7.83e-05
BRANCH_CONDITIONAL: 0.129
BRANCH_DIRECT_CALL: 6.67e-06
BRANCH_INDIRECT_CALL: 3.67e-05
BRANCH_RETURN: 2.33e-05

LLC TOTAL        ACCESS:    7360984 HIT:    1653161 MISS:    5707823
LLC LOAD         ACCESS:    2239933 HIT:     960749 MISS:    1279184
LLC RFO          ACCESS:     889446 HIT:      52144 MISS:     837302
LLC PREFETCH     ACCESS:    2240070 HIT:     301669 MISS:    1938401
LLC WRITE        ACCESS:    1988163 HIT:     338540 MISS:    1649623
LLC TRANSLATION  ACCESS:       3372 HIT:         59 MISS:       3313
LLC PREFETCH REQUESTED:    2242835 ISSUED:    2240070 USEFUL:    1524810 USELESS:      45621
LLC AVERAGE MISS LATENCY: 826.5 cycles
cpu0_DTLB TOTAL        ACCESS:  127999796 HIT:  127242131 MISS:     757665
cpu0_DTLB LOAD         ACCESS:  127999796 HIT:  127242131 MISS:     757665
cpu0_DTLB RFO          ACCESS:          0 HIT:          0 MISS:          0
cpu0_DTLB PREFETCH     ACCESS:          0 HIT:          0 MISS:          0
cpu0_DTLB WRITE        ACCESS:          0 HIT:          0 MISS:          0
cpu0_DTLB TRANSLATION  ACCESS:          0 HIT:          0 MISS:          0
cpu0_DTLB PREFETCH REQUESTED:          0 ISSUED:          0 USEFUL:          0 USELESS:          0
cpu0_DTLB AVERAGE MISS LATENCY: 17.91 cycles
cpu0_ITLB TOTAL        ACCESS:     142708 HIT:     142464 MISS:        244
cpu0_ITLB LOAD         ACCESS:     142708 HIT:     142464 MISS:        244
cpu0_ITLB RFO          ACCESS:          0 HIT:          0 MISS:          0
cpu0_ITLB PREFETCH     ACCESS:          0 HIT:          0 MISS:          0
cpu0_ITLB WRITE        ACCESS:          0 HIT:          0 MISS:          0
cpu0_ITLB TRANSLATION  ACCESS:          0 HIT:          0 MISS:          0
cpu0_ITLB PREFETCH REQUESTED:          0 ISSUED:          0 USEFUL:          0 USELESS:          0
cpu0_ITLB AVERAGE MISS LATENCY: 364.3 cycles
cpu0_L1D TOTAL        ACCESS:  196075797 HIT:  182582615 MISS:   13493182
cpu0_L1D LOAD         ACCESS:  161393570 HIT:  152007008 MISS:    9386562
cpu0_L1D RFO          ACCESS:          0 HIT:          0 MISS:          0
cpu0_L1D PREFETCH     ACCESS:          0 HIT:          0 MISS:          0
cpu0_L1D WRITE        ACCESS:   34635452 HIT:   30545903 MISS:    4089549
cpu0_L1D TRANSLATION  ACCESS:      46775 HIT:      29704 MISS:      17071
cpu0_L1D PREFETCH REQUESTED:          0 ISSUED:          0 USEFUL:          0 USELESS:          0
cpu0_L1D AVERAGE MISS LATENCY: 161.8 cycles
cpu0_L1I TOTAL        ACCESS:     192198 HIT:     189459 MISS:       2739
cpu0_L1I LOAD         ACCESS:     192198 HIT:     189459 MISS:       2739
cpu0_L1I RFO          ACCESS:          0 HIT:          0 MISS:          0
cpu0_L1I PREFETCH     ACCESS:          0 HIT:          0 MISS:          0
cpu0_L1I WRITE        ACCESS:          0 HIT:          0 MISS:          0
cpu0_L1I TRANSLATION  ACCESS:          0 HIT:          0 MISS:          0
cpu0_L1I PREFETCH REQUESTED:          0 ISSUED:          0 USEFUL:          0 USELESS:          0
cpu0_L1I AVERAGE MISS LATENCY: 554.2 cycles
cpu0_L2C TOTAL        ACCESS:    5264950 HIT:    2131727 MISS:    3133223
cpu0_L2C LOAD         ACCESS:    2358792 HIT:     118843 MISS:    2239949
cpu0_L2C RFO          ACCESS:     889976 HIT:        530 MISS:     889446
cpu0_L2C PREFETCH     ACCESS:          0 HIT:          0 MISS:          0
cpu0_L2C WRITE        ACCESS:    1999114 HIT:    1998658 MISS:        456
cpu0_L2C TRANSLATION  ACCESS:      17068 HIT:      13696 MISS:       3372
cpu0_L2C PREFETCH REQUESTED:          0 ISSUED:          0 USEFUL:          0 USELESS:          0
cpu0_L2C AVERAGE MISS LATENCY: 914 cycles
cpu0_STLB TOTAL        ACCESS:     311214 HIT:     264462 MISS:      46752
cpu0_STLB LOAD         ACCESS:     311214 HIT:     264462 MISS:      46752
cpu0_STLB RFO          ACCESS:          0 HIT:          0 MISS:          0
cpu0_STLB PREFETCH     ACCESS:          0 HIT:          0 MISS:          0
cpu0_STLB WRITE        ACCESS:          0 HIT:          0 MISS:          0
cpu0_STLB TRANSLATION  ACCESS:          0 HIT:          0 MISS:          0
cpu0_STLB PREFETCH REQUESTED:          0 ISSUED:          0 USEFUL:          0 USELESS:          0
cpu0_STLB AVERAGE MISS LATENCY: 404.3 cycles

DRAM Statistics

Channel 0 RQ ROW_BUFFER_HIT:     802013
  ROW_BUFFER_MISS:    2019152
 AVG DBUS CONGESTED CYCLE: 3.974
WQ ROW_BUFFER_HIT: Channel 0 
  ROW_BUFFER_MISS:     597899
  FULL:    1314920
