WARNING: physical memory size is smaller than virtual memory size.

*** ChampSim Multicore Out-of-Order Simulator ***
Warmup Instructions: 50000000
Simulation Instructions: 600000000
Number of CPUs: 1
Page size: 4096

Off-chip DRAM Size: 4 GiB Channels: 1 Width: 64-bit Data Race: 3200 MT/s
Heartbeat CPU 0 instructions: 10000003 cycles: 2881028 heartbeat IPC: 3.471 cumulative IPC: 3.471 (Simulation time: 00 hr 01 min 00 sec)
Heartbeat CPU 0 instructions: 20000003 cycles: 5381028 heartbeat IPC: 4 cumulative IPC: 3.717 (Simulation time: 00 hr 02 min 03 sec)
Heartbeat CPU 0 instructions: 30000003 cycles: 7881028 heartbeat IPC: 4 cumulative IPC: 3.807 (Simulation time: 00 hr 02 min 56 sec)
Heartbeat CPU 0 instructions: 40000003 cycles: 10381028 heartbeat IPC: 4 cumulative IPC: 3.853 (Simulation time: 00 hr 03 min 48 sec)
Heartbeat CPU 0 instructions: 50000003 cycles: 12881028 heartbeat IPC: 4 cumulative IPC: 3.882 (Simulation time: 00 hr 04 min 41 sec)
Warmup finished CPU 0 instructions: 50000003 cycles: 12881029 cumulative IPC: 3.882 (Simulation time: 00 hr 04 min 41 sec)
Warmup complete CPU 0 instructions: 50000003 cycles: 12881029 cumulative IPC: 3.882 (Simulation time: 00 hr 04 min 41 sec)
Heartbeat CPU 0 instructions: 60000004 cycles: 15383349 heartbeat IPC: 3.996 cumulative IPC: 3.996 (Simulation time: 00 hr 05 min 41 sec)
Heartbeat CPU 0 instructions: 70000000 cycles: 17885664 heartbeat IPC: 3.996 cumulative IPC: 3.996 (Simulation time: 00 hr 06 min 41 sec)
Heartbeat CPU 0 instructions: 80000002 cycles: 20387983 heartbeat IPC: 3.996 cumulative IPC: 3.996 (Simulation time: 00 hr 07 min 41 sec)
Heartbeat CPU 0 instructions: 90000004 cycles: 22890345 heartbeat IPC: 3.996 cumulative IPC: 3.996 (Simulation time: 00 hr 08 min 41 sec)
Heartbeat CPU 0 instructions: 100000004 cycles: 25393722 heartbeat IPC: 3.995 cumulative IPC: 3.996 (Simulation time: 00 hr 09 min 40 sec)
Heartbeat CPU 0 instructions: 110000000 cycles: 27896715 heartbeat IPC: 3.995 cumulative IPC: 3.996 (Simulation time: 00 hr 10 min 40 sec)
Heartbeat CPU 0 instructions: 120000003 cycles: 30399339 heartbeat IPC: 3.996 cumulative IPC: 3.996 (Simulation time: 00 hr 11 min 40 sec)
Heartbeat CPU 0 instructions: 130000000 cycles: 32902335 heartbeat IPC: 3.995 cumulative IPC: 3.996 (Simulation time: 00 hr 12 min 41 sec)
Heartbeat CPU 0 instructions: 140000001 cycles: 35405402 heartbeat IPC: 3.995 cumulative IPC: 3.996 (Simulation time: 00 hr 13 min 41 sec)
Heartbeat CPU 0 instructions: 150000000 cycles: 37908490 heartbeat IPC: 3.995 cumulative IPC: 3.996 (Simulation time: 00 hr 14 min 40 sec)
Heartbeat CPU 0 instructions: 160000001 cycles: 40411613 heartbeat IPC: 3.995 cumulative IPC: 3.996 (Simulation time: 00 hr 15 min 40 sec)
Heartbeat CPU 0 instructions: 170000002 cycles: 42915958 heartbeat IPC: 3.993 cumulative IPC: 3.995 (Simulation time: 00 hr 16 min 40 sec)
Heartbeat CPU 0 instructions: 180000001 cycles: 45418321 heartbeat IPC: 3.996 cumulative IPC: 3.995 (Simulation time: 00 hr 17 min 40 sec)
Heartbeat CPU 0 instructions: 190000004 cycles: 47921029 heartbeat IPC: 3.996 cumulative IPC: 3.995 (Simulation time: 00 hr 18 min 40 sec)
Heartbeat CPU 0 instructions: 200000000 cycles: 50424544 heartbeat IPC: 3.994 cumulative IPC: 3.995 (Simulation time: 00 hr 19 min 39 sec)
Heartbeat CPU 0 instructions: 210000000 cycles: 52926951 heartbeat IPC: 3.996 cumulative IPC: 3.995 (Simulation time: 00 hr 20 min 39 sec)
Heartbeat CPU 0 instructions: 220000000 cycles: 55429357 heartbeat IPC: 3.996 cumulative IPC: 3.995 (Simulation time: 00 hr 21 min 38 sec)
Heartbeat CPU 0 instructions: 230000004 cycles: 89353687 heartbeat IPC: 0.2948 cumulative IPC: 2.354 (Simulation time: 00 hr 27 min 50 sec)
Heartbeat CPU 0 instructions: 240000001 cycles: 92159124 heartbeat IPC: 3.565 cumulative IPC: 2.397 (Simulation time: 00 hr 28 min 57 sec)
Heartbeat CPU 0 instructions: 250000000 cycles: 94940553 heartbeat IPC: 3.595 cumulative IPC: 2.437 (Simulation time: 00 hr 30 min 03 sec)
Heartbeat CPU 0 instructions: 260000000 cycles: 97720797 heartbeat IPC: 3.597 cumulative IPC: 2.475 (Simulation time: 00 hr 31 min 09 sec)
Heartbeat CPU 0 instructions: 270000000 cycles: 100938731 heartbeat IPC: 3.108 cumulative IPC: 2.498 (Simulation time: 00 hr 32 min 20 sec)
Heartbeat CPU 0 instructions: 280000001 cycles: 104370416 heartbeat IPC: 2.914 cumulative IPC: 2.514 (Simulation time: 00 hr 33 min 34 sec)
Heartbeat CPU 0 instructions: 290000000 cycles: 107819041 heartbeat IPC: 2.9 cumulative IPC: 2.528 (Simulation time: 00 hr 34 min 48 sec)
Heartbeat CPU 0 instructions: 300000003 cycles: 111298287 heartbeat IPC: 2.874 cumulative IPC: 2.54 (Simulation time: 00 hr 36 min 03 sec)
Heartbeat CPU 0 instructions: 310000000 cycles: 114747225 heartbeat IPC: 2.899 cumulative IPC: 2.552 (Simulation time: 00 hr 37 min 18 sec)
Heartbeat CPU 0 instructions: 320000001 cycles: 118183797 heartbeat IPC: 2.91 cumulative IPC: 2.564 (Simulation time: 00 hr 38 min 31 sec)
Heartbeat CPU 0 instructions: 330000004 cycles: 121602231 heartbeat IPC: 2.925 cumulative IPC: 2.575 (Simulation time: 00 hr 39 min 44 sec)
Heartbeat CPU 0 instructions: 340000003 cycles: 125009397 heartbeat IPC: 2.935 cumulative IPC: 2.586 (Simulation time: 00 hr 40 min 56 sec)
Heartbeat CPU 0 instructions: 350000000 cycles: 128738857 heartbeat IPC: 2.681 cumulative IPC: 2.589 (Simulation time: 00 hr 42 min 13 sec)
Heartbeat CPU 0 instructions: 360000001 cycles: 132775854 heartbeat IPC: 2.477 cumulative IPC: 2.586 (Simulation time: 00 hr 43 min 35 sec)
Heartbeat CPU 0 instructions: 370000004 cycles: 138437654 heartbeat IPC: 1.766 cumulative IPC: 2.549 (Simulation time: 00 hr 45 min 16 sec)
Heartbeat CPU 0 instructions: 380000003 cycles: 145468371 heartbeat IPC: 1.422 cumulative IPC: 2.489 (Simulation time: 00 hr 47 min 16 sec)
Heartbeat CPU 0 instructions: 390000000 cycles: 152246927 heartbeat IPC: 1.475 cumulative IPC: 2.44 (Simulation time: 00 hr 49 min 16 sec)
Heartbeat CPU 0 instructions: 400000001 cycles: 159131888 heartbeat IPC: 1.452 cumulative IPC: 2.393 (Simulation time: 00 hr 51 min 14 sec)
Heartbeat CPU 0 instructions: 410000004 cycles: 165935238 heartbeat IPC: 1.47 cumulative IPC: 2.352 (Simulation time: 00 hr 53 min 13 sec)
Heartbeat CPU 0 instructions: 420000004 cycles: 172621087 heartbeat IPC: 1.496 cumulative IPC: 2.316 (Simulation time: 00 hr 55 min 20 sec)
Heartbeat CPU 0 instructions: 430000004 cycles: 177514468 heartbeat IPC: 2.044 cumulative IPC: 2.308 (Simulation time: 00 hr 56 min 53 sec)
Heartbeat CPU 0 instructions: 440000004 cycles: 182691728 heartbeat IPC: 1.932 cumulative IPC: 2.297 (Simulation time: 00 hr 58 min 31 sec)
Heartbeat CPU 0 instructions: 450000000 cycles: 188189280 heartbeat IPC: 1.819 cumulative IPC: 2.282 (Simulation time: 01 hr 00 min 12 sec)
Heartbeat CPU 0 instructions: 460000001 cycles: 193938441 heartbeat IPC: 1.739 cumulative IPC: 2.264 (Simulation time: 01 hr 01 min 58 sec)
Heartbeat CPU 0 instructions: 470000000 cycles: 199422182 heartbeat IPC: 1.824 cumulative IPC: 2.252 (Simulation time: 01 hr 03 min 39 sec)
Heartbeat CPU 0 instructions: 480000003 cycles: 204935582 heartbeat IPC: 1.814 cumulative IPC: 2.239 (Simulation time: 01 hr 05 min 21 sec)
Heartbeat CPU 0 instructions: 490000004 cycles: 210469272 heartbeat IPC: 1.807 cumulative IPC: 2.227 (Simulation time: 01 hr 07 min 03 sec)
Heartbeat CPU 0 instructions: 500000004 cycles: 216028065 heartbeat IPC: 1.799 cumulative IPC: 2.215 (Simulation time: 01 hr 08 min 45 sec)
Heartbeat CPU 0 instructions: 510000003 cycles: 221498808 heartbeat IPC: 1.828 cumulative IPC: 2.205 (Simulation time: 01 hr 10 min 26 sec)
Heartbeat CPU 0 instructions: 520000001 cycles: 302453621 heartbeat IPC: 0.1235 cumulative IPC: 1.623 (Simulation time: 01 hr 28 min 09 sec)
Heartbeat CPU 0 instructions: 530000002 cycles: 430703547 heartbeat IPC: 0.07797 cumulative IPC: 1.149 (Simulation time: 01 hr 55 min 56 sec)
Heartbeat CPU 0 instructions: 540000004 cycles: 455208680 heartbeat IPC: 0.4081 cumulative IPC: 1.108 (Simulation time: 02 hr 01 min 39 sec)
Heartbeat CPU 0 instructions: 550000002 cycles: 479557935 heartbeat IPC: 0.4107 cumulative IPC: 1.071 (Simulation time: 02 hr 07 min 21 sec)
Heartbeat CPU 0 instructions: 560000001 cycles: 504250544 heartbeat IPC: 0.405 cumulative IPC: 1.038 (Simulation time: 02 hr 13 min 08 sec)
Heartbeat CPU 0 instructions: 570000002 cycles: 529826595 heartbeat IPC: 0.391 cumulative IPC: 1.006 (Simulation time: 02 hr 19 min 00 sec)
Heartbeat CPU 0 instructions: 580000001 cycles: 557169677 heartbeat IPC: 0.3657 cumulative IPC: 0.9737 (Simulation time: 02 hr 25 min 20 sec)
Heartbeat CPU 0 instructions: 590000001 cycles: 582197905 heartbeat IPC: 0.3995 cumulative IPC: 0.9485 (Simulation time: 02 hr 31 min 11 sec)
*** Reached end of trace: (0, "traces/bt.A.champsimtrace")
Heartbeat CPU 0 instructions: 600000001 cycles: 607582870 heartbeat IPC: 0.3939 cumulative IPC: 0.9248 (Simulation time: 02 hr 37 min 12 sec)
Heartbeat CPU 0 instructions: 610000004 cycles: 634082077 heartbeat IPC: 0.3774 cumulative IPC: 0.9015 (Simulation time: 02 hr 42 min 05 sec)
Heartbeat CPU 0 instructions: 620000000 cycles: 636584497 heartbeat IPC: 3.996 cumulative IPC: 0.9139 (Simulation time: 02 hr 43 min 05 sec)
Heartbeat CPU 0 instructions: 630000003 cycles: 639086904 heartbeat IPC: 3.996 cumulative IPC: 0.9262 (Simulation time: 02 hr 44 min 04 sec)
Heartbeat CPU 0 instructions: 640000003 cycles: 641589312 heartbeat IPC: 3.996 cumulative IPC: 0.9384 (Simulation time: 02 hr 45 min 03 sec)
Heartbeat CPU 0 instructions: 650000003 cycles: 644091707 heartbeat IPC: 3.996 cumulative IPC: 0.9506 (Simulation time: 02 hr 46 min 02 sec)
Simulation finished CPU 0 instructions: 600000000 cycles: 631210679 cumulative IPC: 0.9506 (Simulation time: 02 hr 46 min 02 sec)
Simulation complete CPU 0 instructions: 600000000 cycles: 631210679 cumulative IPC: 0.9506 (Simulation time: 02 hr 46 min 02 sec)

ChampSim completed all CPUs

=== Simulation ===
CPU 0 runs traces/bt.A.champsimtrace
Region of Interest Statistics

CPU 0 cumulative IPC: 0.9506 instructions: 600000000 cycles: 631210679
CPU 0 Branch Prediction Accuracy: 99.29% MPKI: 0.1288 Average ROB Occupancy at Mispredict: 279
Branch type MPKI
BRANCH_DIRECT_JUMP: 5e-06
BRANCH_INDIRECT: 7.67e-05
BRANCH_CONDITIONAL: 0.129
BRANCH_DIRECT_CALL: 6.67e-06
BRANCH_INDIRECT_CALL: 3.33e-05
BRANCH_RETURN: 2.33e-05

LLC TOTAL        ACCESS:    7748632 HIT:    4325943 MISS:    3422689
LLC LOAD         ACCESS:    2236561 HIT:    1477077 MISS:     759484
LLC RFO          ACCESS:     889409 HIT:      77754 MISS:     811655
LLC PREFETCH     ACCESS:    2633530 HIT:    1550153 MISS:    1083377
LLC WRITE        ACCESS:    1985781 HIT:    1220732 MISS:     765049
LLC TRANSLATION  ACCESS:       3351 HIT:        227 MISS:       3124
LLC PREFETCH REQUESTED:    2633530 ISSUED:    2633530 USEFUL:     898360 USELESS:      11659
LLC AVERAGE MISS LATENCY: 1177 cycles
cpu0_DTLB TOTAL        ACCESS:  127008107 HIT:  126251004 MISS:     757103
cpu0_DTLB LOAD         ACCESS:  127008107 HIT:  126251004 MISS:     757103
cpu0_DTLB RFO          ACCESS:          0 HIT:          0 MISS:          0
cpu0_DTLB PREFETCH     ACCESS:          0 HIT:          0 MISS:          0
cpu0_DTLB WRITE        ACCESS:          0 HIT:          0 MISS:          0
cpu0_DTLB TRANSLATION  ACCESS:          0 HIT:          0 MISS:          0
cpu0_DTLB PREFETCH REQUESTED:          0 ISSUED:          0 USEFUL:          0 USELESS:          0
cpu0_DTLB AVERAGE MISS LATENCY: 14.68 cycles
cpu0_ITLB TOTAL        ACCESS:     142706 HIT:     142454 MISS:        252
cpu0_ITLB LOAD         ACCESS:     142706 HIT:     142454 MISS:        252
cpu0_ITLB RFO          ACCESS:          0 HIT:          0 MISS:          0
cpu0_ITLB PREFETCH     ACCESS:          0 HIT:          0 MISS:          0
cpu0_ITLB WRITE        ACCESS:          0 HIT:          0 MISS:          0
cpu0_ITLB TRANSLATION  ACCESS:          0 HIT:          0 MISS:          0
cpu0_ITLB PREFETCH REQUESTED:          0 ISSUED:          0 USEFUL:          0 USELESS:          0
cpu0_ITLB AVERAGE MISS LATENCY: 292.3 cycles
cpu0_L1D TOTAL        ACCESS:  195213101 HIT:  182485157 MISS:   12727944
cpu0_L1D LOAD         ACCESS:  160530804 HIT:  151923739 MISS:    8607065
cpu0_L1D RFO          ACCESS:          0 HIT:          0 MISS:          0
cpu0_L1D PREFETCH     ACCESS:          0 HIT:          0 MISS:          0
cpu0_L1D WRITE        ACCESS:   34635547 HIT:   30531715 MISS:    4103832
cpu0_L1D TRANSLATION  ACCESS:      46750 HIT:      29703 MISS:      17047
cpu0_L1D PREFETCH REQUESTED:          0 ISSUED:          0 USEFUL:          0 USELESS:          0
cpu0_L1D AVERAGE MISS LATENCY: 161.6 cycles
cpu0_L1I TOTAL        ACCESS:     193023 HIT:     190194 MISS:       2829
cpu0_L1I LOAD         ACCESS:     193023 HIT:     190194 MISS:       2829
cpu0_L1I RFO          ACCESS:          0 HIT:          0 MISS:          0
cpu0_L1I PREFETCH     ACCESS:          0 HIT:          0 MISS:          0
cpu0_L1I WRITE        ACCESS:          0 HIT:          0 MISS:          0
cpu0_L1I TRANSLATION  ACCESS:          0 HIT:          0 MISS:          0
cpu0_L1I PREFETCH REQUESTED:          0 ISSUED:          0 USEFUL:          0 USELESS:          0
cpu0_L1I AVERAGE MISS LATENCY: 540.9 cycles
cpu0_L2C TOTAL        ACCESS:    5260967 HIT:    2131084 MISS:    3129883
cpu0_L2C LOAD         ACCESS:    2354778 HIT:     118023 MISS:    2236755
cpu0_L2C RFO          ACCESS:     890034 HIT:        625 MISS:     889409
cpu0_L2C PREFETCH     ACCESS:          0 HIT:          0 MISS:          0
cpu0_L2C WRITE        ACCESS:    1999110 HIT:    1998742 MISS:        368
cpu0_L2C TRANSLATION  ACCESS:      17045 HIT:      13694 MISS:       3351
cpu0_L2C PREFETCH REQUESTED:          0 ISSUED:          0 USEFUL:          0 USELESS:          0
cpu0_L2C AVERAGE MISS LATENCY: 814.4 cycles
cpu0_STLB TOTAL        ACCESS:     297172 HIT:     250437 MISS:      46735
cpu0_STLB LOAD         ACCESS:     297172 HIT:     250437 MISS:      46735
cpu0_STLB RFO          ACCESS:          0 HIT:          0 MISS:          0
cpu0_STLB PREFETCH     ACCESS:          0 HIT:          0 MISS:          0
cpu0_STLB WRITE        ACCESS:          0 HIT:          0 MISS:          0
cpu0_STLB TRANSLATION  ACCESS:          0 HIT:          0 MISS:          0
cpu0_STLB PREFETCH REQUESTED:          0 ISSUED:          0 USEFUL:          0 USELESS:          0
cpu0_STLB AVERAGE MISS LATENCY: 327.8 cycles

DRAM Statistics

Channel 0 RQ ROW_BUFFER_HIT:     840623
  ROW_BUFFER_MISS:    1588869
 AVG DBUS CONGESTED CYCLE: 3.963
WQ ROW_BUFFER_HIT: Channel 0 
  ROW_BUFFER_MISS:     431540
  FULL:    1164351
Final OPTGen Hits: 49291
Final OPTGen Access: 52269
Final OPTGEN Hit Rate: 94.3026
