WARNING: physical memory size is smaller than virtual memory size.

*** ChampSim Multicore Out-of-Order Simulator ***
Warmup Instructions: 50000000
Simulation Instructions: 600000000
Number of CPUs: 1
Page size: 4096

Off-chip DRAM Size: 4 GiB Channels: 1 Width: 64-bit Data Race: 3200 MT/s
Heartbeat CPU 0 instructions: 10000000 cycles: 2881042 heartbeat IPC: 3.471 cumulative IPC: 3.471 (Simulation time: 00 hr 00 min 35 sec)
Heartbeat CPU 0 instructions: 20000000 cycles: 5381042 heartbeat IPC: 4 cumulative IPC: 3.717 (Simulation time: 00 hr 01 min 05 sec)
Heartbeat CPU 0 instructions: 30000000 cycles: 7881042 heartbeat IPC: 4 cumulative IPC: 3.807 (Simulation time: 00 hr 01 min 36 sec)
Heartbeat CPU 0 instructions: 40000000 cycles: 10381042 heartbeat IPC: 4 cumulative IPC: 3.853 (Simulation time: 00 hr 02 min 10 sec)
Heartbeat CPU 0 instructions: 50000000 cycles: 12881042 heartbeat IPC: 4 cumulative IPC: 3.882 (Simulation time: 00 hr 02 min 43 sec)
Warmup finished CPU 0 instructions: 50000000 cycles: 12881043 cumulative IPC: 3.882 (Simulation time: 00 hr 02 min 43 sec)
Warmup complete CPU 0 instructions: 50000000 cycles: 12881043 cumulative IPC: 3.882 (Simulation time: 00 hr 02 min 43 sec)
Heartbeat CPU 0 instructions: 60000004 cycles: 15384021 heartbeat IPC: 3.995 cumulative IPC: 3.995 (Simulation time: 00 hr 03 min 20 sec)
Heartbeat CPU 0 instructions: 70000002 cycles: 17886384 heartbeat IPC: 3.996 cumulative IPC: 3.996 (Simulation time: 00 hr 03 min 59 sec)
Heartbeat CPU 0 instructions: 80000002 cycles: 20391369 heartbeat IPC: 3.992 cumulative IPC: 3.995 (Simulation time: 00 hr 04 min 36 sec)
Heartbeat CPU 0 instructions: 90000004 cycles: 22894238 heartbeat IPC: 3.995 cumulative IPC: 3.995 (Simulation time: 00 hr 05 min 14 sec)
Heartbeat CPU 0 instructions: 100000000 cycles: 25396665 heartbeat IPC: 3.996 cumulative IPC: 3.995 (Simulation time: 00 hr 05 min 52 sec)
Heartbeat CPU 0 instructions: 110000002 cycles: 27900811 heartbeat IPC: 3.993 cumulative IPC: 3.995 (Simulation time: 00 hr 06 min 30 sec)
Heartbeat CPU 0 instructions: 120000000 cycles: 30403208 heartbeat IPC: 3.996 cumulative IPC: 3.995 (Simulation time: 00 hr 07 min 09 sec)
Heartbeat CPU 0 instructions: 130000002 cycles: 32907281 heartbeat IPC: 3.993 cumulative IPC: 3.995 (Simulation time: 00 hr 07 min 46 sec)
Heartbeat CPU 0 instructions: 140000004 cycles: 35410753 heartbeat IPC: 3.994 cumulative IPC: 3.995 (Simulation time: 00 hr 08 min 22 sec)
Heartbeat CPU 0 instructions: 150000000 cycles: 37913354 heartbeat IPC: 3.996 cumulative IPC: 3.995 (Simulation time: 00 hr 08 min 59 sec)
Heartbeat CPU 0 instructions: 160000003 cycles: 40416581 heartbeat IPC: 3.995 cumulative IPC: 3.995 (Simulation time: 00 hr 09 min 37 sec)
Heartbeat CPU 0 instructions: 170000002 cycles: 42919501 heartbeat IPC: 3.995 cumulative IPC: 3.995 (Simulation time: 00 hr 10 min 14 sec)
Heartbeat CPU 0 instructions: 180000000 cycles: 45422220 heartbeat IPC: 3.996 cumulative IPC: 3.995 (Simulation time: 00 hr 10 min 51 sec)
Heartbeat CPU 0 instructions: 190000003 cycles: 47925230 heartbeat IPC: 3.995 cumulative IPC: 3.995 (Simulation time: 00 hr 11 min 27 sec)
Heartbeat CPU 0 instructions: 200000000 cycles: 50427957 heartbeat IPC: 3.996 cumulative IPC: 3.995 (Simulation time: 00 hr 12 min 04 sec)
Heartbeat CPU 0 instructions: 210000000 cycles: 52930362 heartbeat IPC: 3.996 cumulative IPC: 3.995 (Simulation time: 00 hr 12 min 42 sec)
Heartbeat CPU 0 instructions: 220000003 cycles: 55432816 heartbeat IPC: 3.996 cumulative IPC: 3.995 (Simulation time: 00 hr 13 min 20 sec)
Heartbeat CPU 0 instructions: 230000000 cycles: 94550114 heartbeat IPC: 0.2556 cumulative IPC: 2.204 (Simulation time: 00 hr 17 min 18 sec)
Heartbeat CPU 0 instructions: 240000002 cycles: 99226059 heartbeat IPC: 2.139 cumulative IPC: 2.2 (Simulation time: 00 hr 18 min 13 sec)
Heartbeat CPU 0 instructions: 250000000 cycles: 103867388 heartbeat IPC: 2.155 cumulative IPC: 2.198 (Simulation time: 00 hr 19 min 08 sec)
Heartbeat CPU 0 instructions: 260000004 cycles: 108527910 heartbeat IPC: 2.146 cumulative IPC: 2.196 (Simulation time: 00 hr 20 min 04 sec)
Heartbeat CPU 0 instructions: 270000003 cycles: 113160409 heartbeat IPC: 2.159 cumulative IPC: 2.194 (Simulation time: 00 hr 21 min 01 sec)
Heartbeat CPU 0 instructions: 280000001 cycles: 117791863 heartbeat IPC: 2.159 cumulative IPC: 2.192 (Simulation time: 00 hr 21 min 59 sec)
Heartbeat CPU 0 instructions: 290000000 cycles: 122463027 heartbeat IPC: 2.141 cumulative IPC: 2.19 (Simulation time: 00 hr 22 min 57 sec)
Heartbeat CPU 0 instructions: 300000003 cycles: 127091561 heartbeat IPC: 2.161 cumulative IPC: 2.189 (Simulation time: 00 hr 23 min 52 sec)
Heartbeat CPU 0 instructions: 310000001 cycles: 131685837 heartbeat IPC: 2.177 cumulative IPC: 2.188 (Simulation time: 00 hr 24 min 47 sec)
Heartbeat CPU 0 instructions: 320000002 cycles: 136274637 heartbeat IPC: 2.179 cumulative IPC: 2.188 (Simulation time: 00 hr 25 min 42 sec)
Heartbeat CPU 0 instructions: 330000002 cycles: 140335053 heartbeat IPC: 2.463 cumulative IPC: 2.197 (Simulation time: 00 hr 26 min 33 sec)
Heartbeat CPU 0 instructions: 340000002 cycles: 144082000 heartbeat IPC: 2.669 cumulative IPC: 2.21 (Simulation time: 00 hr 27 min 21 sec)
Heartbeat CPU 0 instructions: 350000002 cycles: 147754797 heartbeat IPC: 2.723 cumulative IPC: 2.224 (Simulation time: 00 hr 28 min 07 sec)
Heartbeat CPU 0 instructions: 360000000 cycles: 151530689 heartbeat IPC: 2.648 cumulative IPC: 2.236 (Simulation time: 00 hr 28 min 55 sec)
Heartbeat CPU 0 instructions: 370000001 cycles: 155177629 heartbeat IPC: 2.742 cumulative IPC: 2.249 (Simulation time: 00 hr 29 min 41 sec)
Heartbeat CPU 0 instructions: 380000003 cycles: 158942753 heartbeat IPC: 2.656 cumulative IPC: 2.259 (Simulation time: 00 hr 30 min 28 sec)
Heartbeat CPU 0 instructions: 390000004 cycles: 162579996 heartbeat IPC: 2.749 cumulative IPC: 2.271 (Simulation time: 00 hr 31 min 16 sec)
Heartbeat CPU 0 instructions: 400000000 cycles: 166342412 heartbeat IPC: 2.658 cumulative IPC: 2.281 (Simulation time: 00 hr 32 min 06 sec)
Heartbeat CPU 0 instructions: 410000002 cycles: 170032134 heartbeat IPC: 2.71 cumulative IPC: 2.291 (Simulation time: 00 hr 32 min 52 sec)
Heartbeat CPU 0 instructions: 420000000 cycles: 173772286 heartbeat IPC: 2.674 cumulative IPC: 2.3 (Simulation time: 00 hr 33 min 39 sec)
Heartbeat CPU 0 instructions: 430000003 cycles: 177066786 heartbeat IPC: 3.035 cumulative IPC: 2.314 (Simulation time: 00 hr 34 min 22 sec)
Heartbeat CPU 0 instructions: 440000002 cycles: 180616851 heartbeat IPC: 2.817 cumulative IPC: 2.325 (Simulation time: 00 hr 35 min 07 sec)
Heartbeat CPU 0 instructions: 450000000 cycles: 184237508 heartbeat IPC: 2.762 cumulative IPC: 2.334 (Simulation time: 00 hr 35 min 52 sec)
Heartbeat CPU 0 instructions: 460000003 cycles: 188037770 heartbeat IPC: 2.631 cumulative IPC: 2.341 (Simulation time: 00 hr 36 min 40 sec)
Heartbeat CPU 0 instructions: 470000004 cycles: 191807521 heartbeat IPC: 2.653 cumulative IPC: 2.347 (Simulation time: 00 hr 37 min 28 sec)
Heartbeat CPU 0 instructions: 480000000 cycles: 195671028 heartbeat IPC: 2.588 cumulative IPC: 2.352 (Simulation time: 00 hr 38 min 16 sec)
Heartbeat CPU 0 instructions: 490000001 cycles: 199509738 heartbeat IPC: 2.605 cumulative IPC: 2.358 (Simulation time: 00 hr 39 min 04 sec)
Heartbeat CPU 0 instructions: 500000000 cycles: 203401332 heartbeat IPC: 2.57 cumulative IPC: 2.362 (Simulation time: 00 hr 39 min 52 sec)
Heartbeat CPU 0 instructions: 510000002 cycles: 207219767 heartbeat IPC: 2.619 cumulative IPC: 2.367 (Simulation time: 00 hr 40 min 40 sec)
Heartbeat CPU 0 instructions: 520000001 cycles: 279089021 heartbeat IPC: 0.1391 cumulative IPC: 1.766 (Simulation time: 00 hr 50 min 03 sec)
Heartbeat CPU 0 instructions: 530000001 cycles: 412123483 heartbeat IPC: 0.07517 cumulative IPC: 1.202 (Simulation time: 01 hr 06 min 55 sec)
Heartbeat CPU 0 instructions: 540000001 cycles: 443471070 heartbeat IPC: 0.319 cumulative IPC: 1.138 (Simulation time: 01 hr 11 min 08 sec)
Heartbeat CPU 0 instructions: 550000003 cycles: 474645164 heartbeat IPC: 0.3208 cumulative IPC: 1.083 (Simulation time: 01 hr 15 min 18 sec)
Heartbeat CPU 0 instructions: 560000001 cycles: 505688536 heartbeat IPC: 0.3221 cumulative IPC: 1.035 (Simulation time: 01 hr 19 min 25 sec)
Heartbeat CPU 0 instructions: 570000001 cycles: 536776464 heartbeat IPC: 0.3217 cumulative IPC: 0.9926 (Simulation time: 01 hr 23 min 34 sec)
Heartbeat CPU 0 instructions: 580000002 cycles: 569096046 heartbeat IPC: 0.3094 cumulative IPC: 0.9529 (Simulation time: 01 hr 27 min 54 sec)
Heartbeat CPU 0 instructions: 590000001 cycles: 601440884 heartbeat IPC: 0.3092 cumulative IPC: 0.9175 (Simulation time: 01 hr 32 min 15 sec)
*** Reached end of trace: (0, "traces/bt.A.champsimtrace")
Heartbeat CPU 0 instructions: 600000000 cycles: 633527638 heartbeat IPC: 0.3117 cumulative IPC: 0.8862 (Simulation time: 01 hr 36 min 36 sec)
Heartbeat CPU 0 instructions: 610000004 cycles: 664558353 heartbeat IPC: 0.3223 cumulative IPC: 0.8593 (Simulation time: 01 hr 39 min 44 sec)
Heartbeat CPU 0 instructions: 620000000 cycles: 667060773 heartbeat IPC: 3.996 cumulative IPC: 0.8713 (Simulation time: 01 hr 40 min 22 sec)
Heartbeat CPU 0 instructions: 630000002 cycles: 669563777 heartbeat IPC: 3.995 cumulative IPC: 0.8832 (Simulation time: 01 hr 41 min 00 sec)
Heartbeat CPU 0 instructions: 640000000 cycles: 672066432 heartbeat IPC: 3.996 cumulative IPC: 0.895 (Simulation time: 01 hr 41 min 38 sec)
Heartbeat CPU 0 instructions: 650000002 cycles: 674570182 heartbeat IPC: 3.994 cumulative IPC: 0.9068 (Simulation time: 01 hr 42 min 15 sec)
Simulation finished CPU 0 instructions: 600000002 cycles: 661689140 cumulative IPC: 0.9068 (Simulation time: 01 hr 42 min 15 sec)
Simulation complete CPU 0 instructions: 600000002 cycles: 661689140 cumulative IPC: 0.9068 (Simulation time: 01 hr 42 min 15 sec)

ChampSim completed all CPUs

=== Simulation ===
CPU 0 runs traces/bt.A.champsimtrace
Region of Interest Statistics

CPU 0 cumulative IPC: 0.9068 instructions: 600000002 cycles: 661689140
CPU 0 Branch Prediction Accuracy: 99.29% MPKI: 0.1296 Average ROB Occupancy at Mispredict: 279.3
Branch type MPKI
BRANCH_DIRECT_JUMP: 5e-06
BRANCH_INDIRECT: 7.83e-05
BRANCH_CONDITIONAL: 0.129
BRANCH_DIRECT_CALL: 6.67e-06
BRANCH_INDIRECT_CALL: 3.67e-05
BRANCH_RETURN: 2.33e-05

LLC TOTAL        ACCESS:    7361772 HIT:    3344007 MISS:    4017765
LLC LOAD         ACCESS:    2240235 HIT:    1113580 MISS:    1126655
LLC RFO          ACCESS:     889446 HIT:       6686 MISS:     882760
LLC PREFETCH     ACCESS:    2240235 HIT:     472355 MISS:    1767880
LLC WRITE        ACCESS:    1988485 HIT:    1750159 MISS:     238326
LLC TRANSLATION  ACCESS:       3371 HIT:       1227 MISS:       2144
LLC PREFETCH REQUESTED:    2240235 ISSUED:    2240235 USEFUL:    1467712 USELESS:      26485
LLC AVERAGE MISS LATENCY: 1240 cycles
cpu0_DTLB TOTAL        ACCESS:  128244472 HIT:  127487124 MISS:     757348
cpu0_DTLB LOAD         ACCESS:  128244472 HIT:  127487124 MISS:     757348
cpu0_DTLB RFO          ACCESS:          0 HIT:          0 MISS:          0
cpu0_DTLB PREFETCH     ACCESS:          0 HIT:          0 MISS:          0
cpu0_DTLB WRITE        ACCESS:          0 HIT:          0 MISS:          0
cpu0_DTLB TRANSLATION  ACCESS:          0 HIT:          0 MISS:          0
cpu0_DTLB PREFETCH REQUESTED:          0 ISSUED:          0 USEFUL:          0 USELESS:          0
cpu0_DTLB AVERAGE MISS LATENCY: 17.03 cycles
cpu0_ITLB TOTAL        ACCESS:     143159 HIT:     142905 MISS:        254
cpu0_ITLB LOAD         ACCESS:     143159 HIT:     142905 MISS:        254
cpu0_ITLB RFO          ACCESS:          0 HIT:          0 MISS:          0
cpu0_ITLB PREFETCH     ACCESS:          0 HIT:          0 MISS:          0
cpu0_ITLB WRITE        ACCESS:          0 HIT:          0 MISS:          0
cpu0_ITLB TRANSLATION  ACCESS:          0 HIT:          0 MISS:          0
cpu0_ITLB PREFETCH REQUESTED:          0 ISSUED:          0 USEFUL:          0 USELESS:          0
cpu0_ITLB AVERAGE MISS LATENCY: 268.3 cycles
cpu0_L1D TOTAL        ACCESS:  196398244 HIT:  182921032 MISS:   13477212
cpu0_L1D LOAD         ACCESS:  161715962 HIT:  152380589 MISS:    9335373
cpu0_L1D RFO          ACCESS:          0 HIT:          0 MISS:          0
cpu0_L1D PREFETCH     ACCESS:          0 HIT:          0 MISS:          0
cpu0_L1D WRITE        ACCESS:   34635507 HIT:   30510763 MISS:    4124744
cpu0_L1D TRANSLATION  ACCESS:      46775 HIT:      29680 MISS:      17095
cpu0_L1D PREFETCH REQUESTED:          0 ISSUED:          0 USEFUL:          0 USELESS:          0
cpu0_L1D AVERAGE MISS LATENCY: 179.2 cycles
cpu0_L1I TOTAL        ACCESS:     192709 HIT:     189961 MISS:       2748
cpu0_L1I LOAD         ACCESS:     192709 HIT:     189961 MISS:       2748
cpu0_L1I RFO          ACCESS:          0 HIT:          0 MISS:          0
cpu0_L1I PREFETCH     ACCESS:          0 HIT:          0 MISS:          0
cpu0_L1I WRITE        ACCESS:          0 HIT:          0 MISS:          0
cpu0_L1I TRANSLATION  ACCESS:          0 HIT:          0 MISS:          0
cpu0_L1I PREFETCH REQUESTED:          0 ISSUED:          0 USEFUL:          0 USELESS:          0
cpu0_L1I AVERAGE MISS LATENCY: 381.5 cycles
cpu0_L2C TOTAL        ACCESS:    5265866 HIT:    2132323 MISS:    3133543
cpu0_L2C LOAD         ACCESS:    2359731 HIT:     119459 MISS:    2240272
cpu0_L2C RFO          ACCESS:     889977 HIT:        531 MISS:     889446
cpu0_L2C PREFETCH     ACCESS:          0 HIT:          0 MISS:          0
cpu0_L2C WRITE        ACCESS:    1999067 HIT:    1998613 MISS:        454
cpu0_L2C TRANSLATION  ACCESS:      17091 HIT:      13720 MISS:       3371
cpu0_L2C PREFETCH REQUESTED:          0 ISSUED:          0 USEFUL:          0 USELESS:          0
cpu0_L2C AVERAGE MISS LATENCY: 995.9 cycles
cpu0_STLB TOTAL        ACCESS:     311356 HIT:     264604 MISS:      46752
cpu0_STLB LOAD         ACCESS:     311356 HIT:     264604 MISS:      46752
cpu0_STLB RFO          ACCESS:          0 HIT:          0 MISS:          0
cpu0_STLB PREFETCH     ACCESS:          0 HIT:          0 MISS:          0
cpu0_STLB WRITE        ACCESS:          0 HIT:          0 MISS:          0
cpu0_STLB TRANSLATION  ACCESS:          0 HIT:          0 MISS:          0
cpu0_STLB PREFETCH REQUESTED:          0 ISSUED:          0 USEFUL:          0 USELESS:          0
cpu0_STLB AVERAGE MISS LATENCY: 364.7 cycles

DRAM Statistics

Channel 0 RQ ROW_BUFFER_HIT:     745229
  ROW_BUFFER_MISS:    1939317
 AVG DBUS CONGESTED CYCLE: 3.989
WQ ROW_BUFFER_HIT: Channel 0 
  ROW_BUFFER_MISS:      37152
  FULL:    1711859
