WARNING: physical memory size is smaller than virtual memory size.

*** ChampSim Multicore Out-of-Order Simulator ***
Warmup Instructions: 50000000
Simulation Instructions: 600000000
Number of CPUs: 1
Page size: 4096

Off-chip DRAM Size: 4 GiB Channels: 1 Width: 64-bit Data Race: 3200 MT/s
Heartbeat CPU 0 instructions: 10000000 cycles: 2881042 heartbeat IPC: 3.471 cumulative IPC: 3.471 (Simulation time: 00 hr 00 min 44 sec)
Heartbeat CPU 0 instructions: 20000000 cycles: 5381042 heartbeat IPC: 4 cumulative IPC: 3.717 (Simulation time: 00 hr 01 min 20 sec)
Heartbeat CPU 0 instructions: 30000000 cycles: 7881042 heartbeat IPC: 4 cumulative IPC: 3.807 (Simulation time: 00 hr 01 min 56 sec)
Heartbeat CPU 0 instructions: 40000000 cycles: 10381042 heartbeat IPC: 4 cumulative IPC: 3.853 (Simulation time: 00 hr 02 min 31 sec)
Heartbeat CPU 0 instructions: 50000000 cycles: 12881042 heartbeat IPC: 4 cumulative IPC: 3.882 (Simulation time: 00 hr 03 min 10 sec)
Warmup finished CPU 0 instructions: 50000000 cycles: 12881043 cumulative IPC: 3.882 (Simulation time: 00 hr 03 min 10 sec)
Warmup complete CPU 0 instructions: 50000000 cycles: 12881043 cumulative IPC: 3.882 (Simulation time: 00 hr 03 min 10 sec)
Heartbeat CPU 0 instructions: 60000004 cycles: 15384085 heartbeat IPC: 3.995 cumulative IPC: 3.995 (Simulation time: 00 hr 03 min 59 sec)
Heartbeat CPU 0 instructions: 70000002 cycles: 17887855 heartbeat IPC: 3.994 cumulative IPC: 3.995 (Simulation time: 00 hr 04 min 48 sec)
Heartbeat CPU 0 instructions: 80000002 cycles: 20390379 heartbeat IPC: 3.996 cumulative IPC: 3.995 (Simulation time: 00 hr 05 min 34 sec)
Heartbeat CPU 0 instructions: 90000004 cycles: 22892873 heartbeat IPC: 3.996 cumulative IPC: 3.995 (Simulation time: 00 hr 06 min 21 sec)
Heartbeat CPU 0 instructions: 100000000 cycles: 25395452 heartbeat IPC: 3.996 cumulative IPC: 3.995 (Simulation time: 00 hr 07 min 05 sec)
Heartbeat CPU 0 instructions: 110000002 cycles: 27897858 heartbeat IPC: 3.996 cumulative IPC: 3.996 (Simulation time: 00 hr 07 min 45 sec)
Heartbeat CPU 0 instructions: 120000000 cycles: 30402412 heartbeat IPC: 3.993 cumulative IPC: 3.995 (Simulation time: 00 hr 08 min 28 sec)
Heartbeat CPU 0 instructions: 130000002 cycles: 32906573 heartbeat IPC: 3.993 cumulative IPC: 3.995 (Simulation time: 00 hr 09 min 07 sec)
Heartbeat CPU 0 instructions: 140000004 cycles: 35409108 heartbeat IPC: 3.996 cumulative IPC: 3.995 (Simulation time: 00 hr 09 min 48 sec)
Heartbeat CPU 0 instructions: 150000000 cycles: 37911470 heartbeat IPC: 3.996 cumulative IPC: 3.995 (Simulation time: 00 hr 10 min 27 sec)
Heartbeat CPU 0 instructions: 160000003 cycles: 40413919 heartbeat IPC: 3.996 cumulative IPC: 3.995 (Simulation time: 00 hr 11 min 05 sec)
Heartbeat CPU 0 instructions: 170000002 cycles: 42916713 heartbeat IPC: 3.996 cumulative IPC: 3.995 (Simulation time: 00 hr 11 min 44 sec)
Heartbeat CPU 0 instructions: 180000000 cycles: 45419127 heartbeat IPC: 3.996 cumulative IPC: 3.995 (Simulation time: 00 hr 12 min 22 sec)
Heartbeat CPU 0 instructions: 190000003 cycles: 47921907 heartbeat IPC: 3.996 cumulative IPC: 3.995 (Simulation time: 00 hr 13 min 02 sec)
Heartbeat CPU 0 instructions: 200000000 cycles: 50426536 heartbeat IPC: 3.993 cumulative IPC: 3.995 (Simulation time: 00 hr 13 min 42 sec)
Heartbeat CPU 0 instructions: 210000000 cycles: 52929167 heartbeat IPC: 3.996 cumulative IPC: 3.995 (Simulation time: 00 hr 14 min 24 sec)
Heartbeat CPU 0 instructions: 220000003 cycles: 55431621 heartbeat IPC: 3.996 cumulative IPC: 3.995 (Simulation time: 00 hr 15 min 05 sec)
Heartbeat CPU 0 instructions: 230000002 cycles: 89415525 heartbeat IPC: 0.2943 cumulative IPC: 2.352 (Simulation time: 00 hr 19 min 07 sec)
Heartbeat CPU 0 instructions: 240000002 cycles: 93037920 heartbeat IPC: 2.761 cumulative IPC: 2.37 (Simulation time: 00 hr 19 min 56 sec)
Heartbeat CPU 0 instructions: 250000000 cycles: 96807189 heartbeat IPC: 2.653 cumulative IPC: 2.383 (Simulation time: 00 hr 20 min 47 sec)
Heartbeat CPU 0 instructions: 260000002 cycles: 100388755 heartbeat IPC: 2.792 cumulative IPC: 2.4 (Simulation time: 00 hr 21 min 38 sec)
Heartbeat CPU 0 instructions: 270000003 cycles: 103833179 heartbeat IPC: 2.903 cumulative IPC: 2.419 (Simulation time: 00 hr 22 min 30 sec)
Heartbeat CPU 0 instructions: 280000001 cycles: 107280569 heartbeat IPC: 2.901 cumulative IPC: 2.436 (Simulation time: 00 hr 23 min 25 sec)
Heartbeat CPU 0 instructions: 290000002 cycles: 110680311 heartbeat IPC: 2.941 cumulative IPC: 2.454 (Simulation time: 00 hr 24 min 17 sec)
Heartbeat CPU 0 instructions: 300000003 cycles: 114099625 heartbeat IPC: 2.925 cumulative IPC: 2.47 (Simulation time: 00 hr 25 min 08 sec)
Heartbeat CPU 0 instructions: 310000002 cycles: 117524542 heartbeat IPC: 2.92 cumulative IPC: 2.485 (Simulation time: 00 hr 25 min 57 sec)
Heartbeat CPU 0 instructions: 320000002 cycles: 120959002 heartbeat IPC: 2.912 cumulative IPC: 2.498 (Simulation time: 00 hr 26 min 47 sec)
Heartbeat CPU 0 instructions: 330000004 cycles: 126013922 heartbeat IPC: 1.978 cumulative IPC: 2.475 (Simulation time: 00 hr 27 min 47 sec)
Heartbeat CPU 0 instructions: 340000002 cycles: 131360216 heartbeat IPC: 1.87 cumulative IPC: 2.448 (Simulation time: 00 hr 28 min 49 sec)
Heartbeat CPU 0 instructions: 350000002 cycles: 136609383 heartbeat IPC: 1.905 cumulative IPC: 2.425 (Simulation time: 00 hr 29 min 50 sec)
Heartbeat CPU 0 instructions: 360000002 cycles: 141965764 heartbeat IPC: 1.867 cumulative IPC: 2.402 (Simulation time: 00 hr 30 min 51 sec)
Heartbeat CPU 0 instructions: 370000001 cycles: 147518522 heartbeat IPC: 1.801 cumulative IPC: 2.377 (Simulation time: 00 hr 31 min 54 sec)
Heartbeat CPU 0 instructions: 380000003 cycles: 153776519 heartbeat IPC: 1.598 cumulative IPC: 2.342 (Simulation time: 00 hr 33 min 01 sec)
Heartbeat CPU 0 instructions: 390000004 cycles: 160272113 heartbeat IPC: 1.54 cumulative IPC: 2.307 (Simulation time: 00 hr 34 min 12 sec)
Heartbeat CPU 0 instructions: 400000000 cycles: 167072919 heartbeat IPC: 1.47 cumulative IPC: 2.27 (Simulation time: 00 hr 35 min 24 sec)
Heartbeat CPU 0 instructions: 410000003 cycles: 173765635 heartbeat IPC: 1.494 cumulative IPC: 2.238 (Simulation time: 00 hr 36 min 37 sec)
Heartbeat CPU 0 instructions: 420000000 cycles: 180509027 heartbeat IPC: 1.483 cumulative IPC: 2.207 (Simulation time: 00 hr 37 min 55 sec)
Heartbeat CPU 0 instructions: 430000002 cycles: 186707851 heartbeat IPC: 1.613 cumulative IPC: 2.186 (Simulation time: 00 hr 39 min 05 sec)
Heartbeat CPU 0 instructions: 440000002 cycles: 192890937 heartbeat IPC: 1.617 cumulative IPC: 2.167 (Simulation time: 00 hr 40 min 20 sec)
Heartbeat CPU 0 instructions: 450000000 cycles: 199138611 heartbeat IPC: 1.601 cumulative IPC: 2.148 (Simulation time: 00 hr 41 min 31 sec)
Heartbeat CPU 0 instructions: 460000003 cycles: 205337400 heartbeat IPC: 1.613 cumulative IPC: 2.13 (Simulation time: 00 hr 42 min 43 sec)
Heartbeat CPU 0 instructions: 470000004 cycles: 211553220 heartbeat IPC: 1.609 cumulative IPC: 2.114 (Simulation time: 00 hr 43 min 59 sec)
Heartbeat CPU 0 instructions: 480000001 cycles: 217776354 heartbeat IPC: 1.607 cumulative IPC: 2.099 (Simulation time: 00 hr 45 min 22 sec)
Heartbeat CPU 0 instructions: 490000001 cycles: 224029515 heartbeat IPC: 1.599 cumulative IPC: 2.084 (Simulation time: 00 hr 46 min 45 sec)
Heartbeat CPU 0 instructions: 500000001 cycles: 230228985 heartbeat IPC: 1.613 cumulative IPC: 2.07 (Simulation time: 00 hr 48 min 04 sec)
Heartbeat CPU 0 instructions: 510000002 cycles: 236430226 heartbeat IPC: 1.613 cumulative IPC: 2.058 (Simulation time: 00 hr 49 min 22 sec)
Heartbeat CPU 0 instructions: 520000003 cycles: 301572781 heartbeat IPC: 0.1535 cumulative IPC: 1.628 (Simulation time: 00 hr 58 min 38 sec)
Heartbeat CPU 0 instructions: 530000001 cycles: 426185064 heartbeat IPC: 0.08025 cumulative IPC: 1.161 (Simulation time: 01 hr 14 min 55 sec)
Heartbeat CPU 0 instructions: 540000002 cycles: 458040115 heartbeat IPC: 0.3139 cumulative IPC: 1.101 (Simulation time: 01 hr 19 min 15 sec)
Heartbeat CPU 0 instructions: 550000003 cycles: 490654928 heartbeat IPC: 0.3066 cumulative IPC: 1.047 (Simulation time: 01 hr 23 min 44 sec)
Heartbeat CPU 0 instructions: 560000001 cycles: 523001896 heartbeat IPC: 0.3091 cumulative IPC: 0.9998 (Simulation time: 01 hr 28 min 06 sec)
Heartbeat CPU 0 instructions: 570000001 cycles: 555490461 heartbeat IPC: 0.3078 cumulative IPC: 0.9583 (Simulation time: 01 hr 32 min 28 sec)
Heartbeat CPU 0 instructions: 580000003 cycles: 585841671 heartbeat IPC: 0.3295 cumulative IPC: 0.925 (Simulation time: 01 hr 36 min 34 sec)
Heartbeat CPU 0 instructions: 590000000 cycles: 616548151 heartbeat IPC: 0.3257 cumulative IPC: 0.8945 (Simulation time: 01 hr 40 min 43 sec)
*** Reached end of trace: (0, "traces/bt.A.champsimtrace")
Heartbeat CPU 0 instructions: 600000002 cycles: 646912230 heartbeat IPC: 0.3293 cumulative IPC: 0.8675 (Simulation time: 01 hr 44 min 53 sec)
Heartbeat CPU 0 instructions: 610000004 cycles: 675622193 heartbeat IPC: 0.3483 cumulative IPC: 0.845 (Simulation time: 01 hr 47 min 49 sec)
Heartbeat CPU 0 instructions: 620000000 cycles: 678124629 heartbeat IPC: 3.996 cumulative IPC: 0.8568 (Simulation time: 01 hr 48 min 27 sec)
Heartbeat CPU 0 instructions: 630000002 cycles: 680627793 heartbeat IPC: 3.995 cumulative IPC: 0.8686 (Simulation time: 01 hr 49 min 04 sec)
Heartbeat CPU 0 instructions: 640000000 cycles: 683130251 heartbeat IPC: 3.996 cumulative IPC: 0.8803 (Simulation time: 01 hr 49 min 42 sec)
Heartbeat CPU 0 instructions: 650000002 cycles: 685632854 heartbeat IPC: 3.996 cumulative IPC: 0.8919 (Simulation time: 01 hr 50 min 19 sec)
Simulation finished CPU 0 instructions: 600000002 cycles: 672751812 cumulative IPC: 0.8919 (Simulation time: 01 hr 50 min 19 sec)
Simulation complete CPU 0 instructions: 600000002 cycles: 672751812 cumulative IPC: 0.8919 (Simulation time: 01 hr 50 min 19 sec)

ChampSim completed all CPUs

=== Simulation ===
CPU 0 runs traces/bt.A.champsimtrace
Region of Interest Statistics

CPU 0 cumulative IPC: 0.8919 instructions: 600000002 cycles: 672751812
CPU 0 Branch Prediction Accuracy: 99.29% MPKI: 0.1288 Average ROB Occupancy at Mispredict: 279.4
Branch type MPKI
BRANCH_DIRECT_JUMP: 5e-06
BRANCH_INDIRECT: 7.83e-05
BRANCH_CONDITIONAL: 0.129
BRANCH_DIRECT_CALL: 6.67e-06
BRANCH_INDIRECT_CALL: 3.67e-05
BRANCH_RETURN: 2.33e-05

LLC TOTAL        ACCESS:    7767879 HIT:    2749104 MISS:    5018775
LLC LOAD         ACCESS:    2239938 HIT:    1222046 MISS:    1017892
LLC RFO          ACCESS:     889448 HIT:      13802 MISS:     875646
LLC PREFETCH     ACCESS:    2646657 HIT:    1374514 MISS:    1272143
LLC WRITE        ACCESS:    1988469 HIT:     138641 MISS:    1849828
LLC TRANSLATION  ACCESS:       3367 HIT:        101 MISS:       3266
LLC PREFETCH REQUESTED:    2646657 ISSUED:    2646657 USEFUL:    1019776 USELESS:      40049
LLC AVERAGE MISS LATENCY: 841 cycles
cpu0_DTLB TOTAL        ACCESS:  126601918 HIT:  125837892 MISS:     764026
cpu0_DTLB LOAD         ACCESS:  126601918 HIT:  125837892 MISS:     764026
cpu0_DTLB RFO          ACCESS:          0 HIT:          0 MISS:          0
cpu0_DTLB PREFETCH     ACCESS:          0 HIT:          0 MISS:          0
cpu0_DTLB WRITE        ACCESS:          0 HIT:          0 MISS:          0
cpu0_DTLB TRANSLATION  ACCESS:          0 HIT:          0 MISS:          0
cpu0_DTLB PREFETCH REQUESTED:          0 ISSUED:          0 USEFUL:          0 USELESS:          0
cpu0_DTLB AVERAGE MISS LATENCY: 15.09 cycles
cpu0_ITLB TOTAL        ACCESS:     143280 HIT:     143037 MISS:        243
cpu0_ITLB LOAD         ACCESS:     143280 HIT:     143037 MISS:        243
cpu0_ITLB RFO          ACCESS:          0 HIT:          0 MISS:          0
cpu0_ITLB PREFETCH     ACCESS:          0 HIT:          0 MISS:          0
cpu0_ITLB WRITE        ACCESS:          0 HIT:          0 MISS:          0
cpu0_ITLB TRANSLATION  ACCESS:          0 HIT:          0 MISS:          0
cpu0_ITLB PREFETCH REQUESTED:          0 ISSUED:          0 USEFUL:          0 USELESS:          0
cpu0_ITLB AVERAGE MISS LATENCY: 304.8 cycles
cpu0_L1D TOTAL        ACCESS:  194575440 HIT:  181658919 MISS:   12916521
cpu0_L1D LOAD         ACCESS:  159893234 HIT:  151216152 MISS:    8677082
cpu0_L1D RFO          ACCESS:          0 HIT:          0 MISS:          0
cpu0_L1D PREFETCH     ACCESS:          0 HIT:          0 MISS:          0
cpu0_L1D WRITE        ACCESS:   34635431 HIT:   30413057 MISS:    4222374
cpu0_L1D TRANSLATION  ACCESS:      46775 HIT:      29710 MISS:      17065
cpu0_L1D PREFETCH REQUESTED:          0 ISSUED:          0 USEFUL:          0 USELESS:          0
cpu0_L1D AVERAGE MISS LATENCY: 165.4 cycles
cpu0_L1I TOTAL        ACCESS:     193371 HIT:     190587 MISS:       2784
cpu0_L1I LOAD         ACCESS:     193371 HIT:     190587 MISS:       2784
cpu0_L1I RFO          ACCESS:          0 HIT:          0 MISS:          0
cpu0_L1I PREFETCH     ACCESS:          0 HIT:          0 MISS:          0
cpu0_L1I WRITE        ACCESS:          0 HIT:          0 MISS:          0
cpu0_L1I TRANSLATION  ACCESS:          0 HIT:          0 MISS:          0
cpu0_L1I PREFETCH REQUESTED:          0 ISSUED:          0 USEFUL:          0 USELESS:          0
cpu0_L1I AVERAGE MISS LATENCY: 550.5 cycles
cpu0_L2C TOTAL        ACCESS:    5259215 HIT:    2126003 MISS:    3133212
cpu0_L2C LOAD         ACCESS:    2353048 HIT:     113107 MISS:    2239941
cpu0_L2C RFO          ACCESS:     889977 HIT:        529 MISS:     889448
cpu0_L2C PREFETCH     ACCESS:          0 HIT:          0 MISS:          0
cpu0_L2C WRITE        ACCESS:    1999128 HIT:    1998672 MISS:        456
cpu0_L2C TRANSLATION  ACCESS:      17062 HIT:      13695 MISS:       3367
cpu0_L2C PREFETCH REQUESTED:          0 ISSUED:          0 USEFUL:          0 USELESS:          0
cpu0_L2C AVERAGE MISS LATENCY: 847.9 cycles
cpu0_STLB TOTAL        ACCESS:     310597 HIT:     263845 MISS:      46752
cpu0_STLB LOAD         ACCESS:     310597 HIT:     263845 MISS:      46752
cpu0_STLB RFO          ACCESS:          0 HIT:          0 MISS:          0
cpu0_STLB PREFETCH     ACCESS:          0 HIT:          0 MISS:          0
cpu0_STLB WRITE        ACCESS:          0 HIT:          0 MISS:          0
cpu0_STLB TRANSLATION  ACCESS:          0 HIT:          0 MISS:          0
cpu0_STLB PREFETCH REQUESTED:          0 ISSUED:          0 USEFUL:          0 USELESS:          0
cpu0_STLB AVERAGE MISS LATENCY: 335.5 cycles

DRAM Statistics

Channel 0 RQ ROW_BUFFER_HIT:     968109
  ROW_BUFFER_MISS:    1908695
 AVG DBUS CONGESTED CYCLE: 3.958
WQ ROW_BUFFER_HIT: Channel 0 
  ROW_BUFFER_MISS:     630870
  FULL:    1259166
