WARNING: physical memory size is smaller than virtual memory size.

*** ChampSim Multicore Out-of-Order Simulator ***
Warmup Instructions: 50000000
Simulation Instructions: 600000000
Number of CPUs: 1
Page size: 4096

Off-chip DRAM Size: 4 GiB Channels: 1 Width: 64-bit Data Race: 3200 MT/s
Heartbeat CPU 0 instructions: 10000003 cycles: 2881028 heartbeat IPC: 3.471 cumulative IPC: 3.471 (Simulation time: 00 hr 01 min 12 sec)
Heartbeat CPU 0 instructions: 20000003 cycles: 5381028 heartbeat IPC: 4 cumulative IPC: 3.717 (Simulation time: 00 hr 02 min 04 sec)
Heartbeat CPU 0 instructions: 30000003 cycles: 7881028 heartbeat IPC: 4 cumulative IPC: 3.807 (Simulation time: 00 hr 02 min 55 sec)
Heartbeat CPU 0 instructions: 40000003 cycles: 10381028 heartbeat IPC: 4 cumulative IPC: 3.853 (Simulation time: 00 hr 03 min 48 sec)
Heartbeat CPU 0 instructions: 50000003 cycles: 12881028 heartbeat IPC: 4 cumulative IPC: 3.882 (Simulation time: 00 hr 04 min 39 sec)
Warmup finished CPU 0 instructions: 50000003 cycles: 12881029 cumulative IPC: 3.882 (Simulation time: 00 hr 04 min 39 sec)
Warmup complete CPU 0 instructions: 50000003 cycles: 12881029 cumulative IPC: 3.882 (Simulation time: 00 hr 04 min 39 sec)
Heartbeat CPU 0 instructions: 60000004 cycles: 15383349 heartbeat IPC: 3.996 cumulative IPC: 3.996 (Simulation time: 00 hr 05 min 39 sec)
Heartbeat CPU 0 instructions: 70000000 cycles: 17885664 heartbeat IPC: 3.996 cumulative IPC: 3.996 (Simulation time: 00 hr 06 min 38 sec)
Heartbeat CPU 0 instructions: 80000002 cycles: 20387983 heartbeat IPC: 3.996 cumulative IPC: 3.996 (Simulation time: 00 hr 07 min 38 sec)
Heartbeat CPU 0 instructions: 90000004 cycles: 22890440 heartbeat IPC: 3.996 cumulative IPC: 3.996 (Simulation time: 00 hr 08 min 37 sec)
Heartbeat CPU 0 instructions: 100000004 cycles: 25392862 heartbeat IPC: 3.996 cumulative IPC: 3.996 (Simulation time: 00 hr 09 min 35 sec)
Heartbeat CPU 0 instructions: 110000000 cycles: 27895473 heartbeat IPC: 3.996 cumulative IPC: 3.996 (Simulation time: 00 hr 10 min 35 sec)
Heartbeat CPU 0 instructions: 120000003 cycles: 30400500 heartbeat IPC: 3.992 cumulative IPC: 3.996 (Simulation time: 00 hr 11 min 35 sec)
Heartbeat CPU 0 instructions: 130000000 cycles: 32903633 heartbeat IPC: 3.995 cumulative IPC: 3.995 (Simulation time: 00 hr 12 min 36 sec)
Heartbeat CPU 0 instructions: 140000001 cycles: 35406386 heartbeat IPC: 3.996 cumulative IPC: 3.995 (Simulation time: 00 hr 13 min 35 sec)
Heartbeat CPU 0 instructions: 150000000 cycles: 37909302 heartbeat IPC: 3.995 cumulative IPC: 3.995 (Simulation time: 00 hr 14 min 35 sec)
Heartbeat CPU 0 instructions: 160000001 cycles: 40415125 heartbeat IPC: 3.991 cumulative IPC: 3.995 (Simulation time: 00 hr 15 min 34 sec)
Heartbeat CPU 0 instructions: 170000002 cycles: 42918259 heartbeat IPC: 3.995 cumulative IPC: 3.995 (Simulation time: 00 hr 16 min 33 sec)
Heartbeat CPU 0 instructions: 180000001 cycles: 45421091 heartbeat IPC: 3.995 cumulative IPC: 3.995 (Simulation time: 00 hr 17 min 32 sec)
Heartbeat CPU 0 instructions: 190000004 cycles: 47923563 heartbeat IPC: 3.996 cumulative IPC: 3.995 (Simulation time: 00 hr 18 min 32 sec)
Heartbeat CPU 0 instructions: 200000000 cycles: 50426018 heartbeat IPC: 3.996 cumulative IPC: 3.995 (Simulation time: 00 hr 19 min 31 sec)
Heartbeat CPU 0 instructions: 210000000 cycles: 52929280 heartbeat IPC: 3.995 cumulative IPC: 3.995 (Simulation time: 00 hr 20 min 30 sec)
Heartbeat CPU 0 instructions: 220000000 cycles: 55431765 heartbeat IPC: 3.996 cumulative IPC: 3.995 (Simulation time: 00 hr 21 min 29 sec)
Heartbeat CPU 0 instructions: 230000004 cycles: 90597171 heartbeat IPC: 0.2844 cumulative IPC: 2.316 (Simulation time: 00 hr 27 min 50 sec)
Heartbeat CPU 0 instructions: 240000001 cycles: 94411273 heartbeat IPC: 2.622 cumulative IPC: 2.33 (Simulation time: 00 hr 29 min 09 sec)
Heartbeat CPU 0 instructions: 250000000 cycles: 98193800 heartbeat IPC: 2.644 cumulative IPC: 2.344 (Simulation time: 00 hr 30 min 26 sec)
Heartbeat CPU 0 instructions: 260000002 cycles: 102030208 heartbeat IPC: 2.607 cumulative IPC: 2.356 (Simulation time: 00 hr 31 min 46 sec)
Heartbeat CPU 0 instructions: 270000000 cycles: 106057389 heartbeat IPC: 2.483 cumulative IPC: 2.361 (Simulation time: 00 hr 33 min 07 sec)
Heartbeat CPU 0 instructions: 280000001 cycles: 110461239 heartbeat IPC: 2.271 cumulative IPC: 2.357 (Simulation time: 00 hr 34 min 34 sec)
Heartbeat CPU 0 instructions: 290000003 cycles: 114915661 heartbeat IPC: 2.245 cumulative IPC: 2.352 (Simulation time: 00 hr 35 min 59 sec)
Heartbeat CPU 0 instructions: 300000003 cycles: 119388969 heartbeat IPC: 2.235 cumulative IPC: 2.347 (Simulation time: 00 hr 37 min 24 sec)
Heartbeat CPU 0 instructions: 310000000 cycles: 123858347 heartbeat IPC: 2.237 cumulative IPC: 2.343 (Simulation time: 00 hr 38 min 51 sec)
Heartbeat CPU 0 instructions: 320000002 cycles: 128359787 heartbeat IPC: 2.222 cumulative IPC: 2.338 (Simulation time: 00 hr 40 min 20 sec)
Heartbeat CPU 0 instructions: 330000004 cycles: 131889649 heartbeat IPC: 2.833 cumulative IPC: 2.353 (Simulation time: 00 hr 41 min 35 sec)
Heartbeat CPU 0 instructions: 340000003 cycles: 134450757 heartbeat IPC: 3.905 cumulative IPC: 2.385 (Simulation time: 00 hr 42 min 36 sec)
Heartbeat CPU 0 instructions: 350000000 cycles: 137001952 heartbeat IPC: 3.92 cumulative IPC: 2.417 (Simulation time: 00 hr 43 min 38 sec)
Heartbeat CPU 0 instructions: 360000001 cycles: 139564654 heartbeat IPC: 3.902 cumulative IPC: 2.447 (Simulation time: 00 hr 44 min 40 sec)
Heartbeat CPU 0 instructions: 370000004 cycles: 142533095 heartbeat IPC: 3.369 cumulative IPC: 2.468 (Simulation time: 00 hr 45 min 48 sec)
Heartbeat CPU 0 instructions: 380000001 cycles: 146178109 heartbeat IPC: 2.743 cumulative IPC: 2.476 (Simulation time: 00 hr 47 min 05 sec)
Heartbeat CPU 0 instructions: 390000004 cycles: 149640519 heartbeat IPC: 2.888 cumulative IPC: 2.486 (Simulation time: 00 hr 48 min 17 sec)
Heartbeat CPU 0 instructions: 400000001 cycles: 153253682 heartbeat IPC: 2.768 cumulative IPC: 2.493 (Simulation time: 00 hr 49 min 32 sec)
Heartbeat CPU 0 instructions: 410000004 cycles: 156832652 heartbeat IPC: 2.794 cumulative IPC: 2.501 (Simulation time: 00 hr 50 min 47 sec)
Heartbeat CPU 0 instructions: 420000004 cycles: 160416412 heartbeat IPC: 2.79 cumulative IPC: 2.508 (Simulation time: 00 hr 52 min 02 sec)
Heartbeat CPU 0 instructions: 430000003 cycles: 163204411 heartbeat IPC: 3.587 cumulative IPC: 2.528 (Simulation time: 00 hr 53 min 08 sec)
Heartbeat CPU 0 instructions: 440000004 cycles: 166026828 heartbeat IPC: 3.543 cumulative IPC: 2.547 (Simulation time: 00 hr 54 min 14 sec)
Heartbeat CPU 0 instructions: 450000001 cycles: 169208538 heartbeat IPC: 3.143 cumulative IPC: 2.559 (Simulation time: 00 hr 55 min 23 sec)
Heartbeat CPU 0 instructions: 460000001 cycles: 172642782 heartbeat IPC: 2.912 cumulative IPC: 2.566 (Simulation time: 00 hr 56 min 37 sec)
Heartbeat CPU 0 instructions: 470000000 cycles: 176206169 heartbeat IPC: 2.806 cumulative IPC: 2.572 (Simulation time: 00 hr 57 min 52 sec)
Heartbeat CPU 0 instructions: 480000000 cycles: 179892006 heartbeat IPC: 2.713 cumulative IPC: 2.575 (Simulation time: 00 hr 59 min 08 sec)
Heartbeat CPU 0 instructions: 490000004 cycles: 183530228 heartbeat IPC: 2.749 cumulative IPC: 2.578 (Simulation time: 01 hr 00 min 24 sec)
Heartbeat CPU 0 instructions: 500000001 cycles: 187265002 heartbeat IPC: 2.678 cumulative IPC: 2.581 (Simulation time: 01 hr 01 min 41 sec)
Heartbeat CPU 0 instructions: 510000003 cycles: 190953883 heartbeat IPC: 2.711 cumulative IPC: 2.583 (Simulation time: 01 hr 02 min 57 sec)
Heartbeat CPU 0 instructions: 520000000 cycles: 261648792 heartbeat IPC: 0.1415 cumulative IPC: 1.889 (Simulation time: 01 hr 18 min 20 sec)
Heartbeat CPU 0 instructions: 530000002 cycles: 380634980 heartbeat IPC: 0.08404 cumulative IPC: 1.305 (Simulation time: 01 hr 43 min 41 sec)
Heartbeat CPU 0 instructions: 540000003 cycles: 409695121 heartbeat IPC: 0.3441 cumulative IPC: 1.235 (Simulation time: 01 hr 50 min 21 sec)
Heartbeat CPU 0 instructions: 550000002 cycles: 439848069 heartbeat IPC: 0.3316 cumulative IPC: 1.171 (Simulation time: 01 hr 57 min 16 sec)
Heartbeat CPU 0 instructions: 560000000 cycles: 469420844 heartbeat IPC: 0.3381 cumulative IPC: 1.117 (Simulation time: 02 hr 04 min 04 sec)
Heartbeat CPU 0 instructions: 570000002 cycles: 500962319 heartbeat IPC: 0.317 cumulative IPC: 1.065 (Simulation time: 02 hr 11 min 15 sec)
Heartbeat CPU 0 instructions: 580000001 cycles: 533463490 heartbeat IPC: 0.3077 cumulative IPC: 1.018 (Simulation time: 02 hr 18 min 39 sec)
Heartbeat CPU 0 instructions: 590000001 cycles: 563576321 heartbeat IPC: 0.3321 cumulative IPC: 0.9806 (Simulation time: 02 hr 25 min 34 sec)
*** Reached end of trace: (0, "traces/bt.A.champsimtrace")
Heartbeat CPU 0 instructions: 600000001 cycles: 595623626 heartbeat IPC: 0.312 cumulative IPC: 0.9438 (Simulation time: 02 hr 32 min 56 sec)
Heartbeat CPU 0 instructions: 610000004 cycles: 619846672 heartbeat IPC: 0.4128 cumulative IPC: 0.9226 (Simulation time: 02 hr 37 min 40 sec)
Heartbeat CPU 0 instructions: 620000000 cycles: 622349749 heartbeat IPC: 3.995 cumulative IPC: 0.9352 (Simulation time: 02 hr 38 min 41 sec)
Heartbeat CPU 0 instructions: 630000003 cycles: 624853906 heartbeat IPC: 3.993 cumulative IPC: 0.9478 (Simulation time: 02 hr 39 min 41 sec)
Heartbeat CPU 0 instructions: 640000003 cycles: 627356314 heartbeat IPC: 3.996 cumulative IPC: 0.9602 (Simulation time: 02 hr 40 min 42 sec)
Heartbeat CPU 0 instructions: 650000003 cycles: 629859637 heartbeat IPC: 3.995 cumulative IPC: 0.9725 (Simulation time: 02 hr 41 min 42 sec)
Simulation finished CPU 0 instructions: 600000000 cycles: 616978609 cumulative IPC: 0.9725 (Simulation time: 02 hr 41 min 42 sec)
Simulation complete CPU 0 instructions: 600000000 cycles: 616978609 cumulative IPC: 0.9725 (Simulation time: 02 hr 41 min 42 sec)

ChampSim completed all CPUs

=== Simulation ===
CPU 0 runs traces/bt.A.champsimtrace
Region of Interest Statistics

CPU 0 cumulative IPC: 0.9725 instructions: 600000000 cycles: 616978609
CPU 0 Branch Prediction Accuracy: 99.28% MPKI: 0.1299 Average ROB Occupancy at Mispredict: 278.7
Branch type MPKI
BRANCH_DIRECT_JUMP: 5e-06
BRANCH_INDIRECT: 7.67e-05
BRANCH_CONDITIONAL: 0.13
BRANCH_DIRECT_CALL: 6.67e-06
BRANCH_INDIRECT_CALL: 3.33e-05
BRANCH_RETURN: 2.33e-05

LLC TOTAL        ACCESS:    7353670 HIT:    3092245 MISS:    4261425
LLC LOAD         ACCESS:    2238055 HIT:    1192536 MISS:    1045519
LLC RFO          ACCESS:     889406 HIT:      64691 MISS:     824715
LLC PREFETCH     ACCESS:    2238055 HIT:     627345 MISS:    1610710
LLC WRITE        ACCESS:    1984797 HIT:    1207428 MISS:     777369
LLC TRANSLATION  ACCESS:       3357 HIT:        245 MISS:       3112
LLC PREFETCH REQUESTED:    2238055 ISSUED:    2238055 USEFUL:    1355597 USELESS:      16692
LLC AVERAGE MISS LATENCY: 1011 cycles
cpu0_DTLB TOTAL        ACCESS:  128645594 HIT:  127895225 MISS:     750369
cpu0_DTLB LOAD         ACCESS:  128645594 HIT:  127895225 MISS:     750369
cpu0_DTLB RFO          ACCESS:          0 HIT:          0 MISS:          0
cpu0_DTLB PREFETCH     ACCESS:          0 HIT:          0 MISS:          0
cpu0_DTLB WRITE        ACCESS:          0 HIT:          0 MISS:          0
cpu0_DTLB TRANSLATION  ACCESS:          0 HIT:          0 MISS:          0
cpu0_DTLB PREFETCH REQUESTED:          0 ISSUED:          0 USEFUL:          0 USELESS:          0
cpu0_DTLB AVERAGE MISS LATENCY: 17.27 cycles
cpu0_ITLB TOTAL        ACCESS:     142719 HIT:     142490 MISS:        229
cpu0_ITLB LOAD         ACCESS:     142719 HIT:     142490 MISS:        229
cpu0_ITLB RFO          ACCESS:          0 HIT:          0 MISS:          0
cpu0_ITLB PREFETCH     ACCESS:          0 HIT:          0 MISS:          0
cpu0_ITLB WRITE        ACCESS:          0 HIT:          0 MISS:          0
cpu0_ITLB TRANSLATION  ACCESS:          0 HIT:          0 MISS:          0
cpu0_ITLB PREFETCH REQUESTED:          0 ISSUED:          0 USEFUL:          0 USELESS:          0
cpu0_ITLB AVERAGE MISS LATENCY: 383.4 cycles
cpu0_L1D TOTAL        ACCESS:  196934875 HIT:  183532667 MISS:   13402208
cpu0_L1D LOAD         ACCESS:  162252710 HIT:  152912167 MISS:    9340543
cpu0_L1D RFO          ACCESS:          0 HIT:          0 MISS:          0
cpu0_L1D PREFETCH     ACCESS:          0 HIT:          0 MISS:          0
cpu0_L1D WRITE        ACCESS:   34635415 HIT:   30590803 MISS:    4044612
cpu0_L1D TRANSLATION  ACCESS:      46750 HIT:      29697 MISS:      17053
cpu0_L1D PREFETCH REQUESTED:          0 ISSUED:          0 USEFUL:          0 USELESS:          0
cpu0_L1D AVERAGE MISS LATENCY: 161.4 cycles
cpu0_L1I TOTAL        ACCESS:     192245 HIT:     189534 MISS:       2711
cpu0_L1I LOAD         ACCESS:     192245 HIT:     189534 MISS:       2711
cpu0_L1I RFO          ACCESS:          0 HIT:          0 MISS:          0
cpu0_L1I PREFETCH     ACCESS:          0 HIT:          0 MISS:          0
cpu0_L1I WRITE        ACCESS:          0 HIT:          0 MISS:          0
cpu0_L1I TRANSLATION  ACCESS:          0 HIT:          0 MISS:          0
cpu0_L1I PREFETCH REQUESTED:          0 ISSUED:          0 USEFUL:          0 USELESS:          0
cpu0_L1I AVERAGE MISS LATENCY: 486.9 cycles
cpu0_L2C TOTAL        ACCESS:    5266171 HIT:    2134751 MISS:    3131420
cpu0_L2C LOAD         ACCESS:    2360165 HIT:     121849 MISS:    2238316
cpu0_L2C RFO          ACCESS:     890030 HIT:        624 MISS:     889406
cpu0_L2C PREFETCH     ACCESS:          0 HIT:          0 MISS:          0
cpu0_L2C WRITE        ACCESS:    1998925 HIT:    1998584 MISS:        341
cpu0_L2C TRANSLATION  ACCESS:      17051 HIT:      13694 MISS:       3357
cpu0_L2C PREFETCH REQUESTED:          0 ISSUED:          0 USEFUL:          0 USELESS:          0
cpu0_L2C AVERAGE MISS LATENCY: 906.2 cycles
cpu0_STLB TOTAL        ACCESS:     297284 HIT:     250549 MISS:      46735
cpu0_STLB LOAD         ACCESS:     297284 HIT:     250549 MISS:      46735
cpu0_STLB RFO          ACCESS:          0 HIT:          0 MISS:          0
cpu0_STLB PREFETCH     ACCESS:          0 HIT:          0 MISS:          0
cpu0_STLB WRITE        ACCESS:          0 HIT:          0 MISS:          0
cpu0_STLB TRANSLATION  ACCESS:          0 HIT:          0 MISS:          0
cpu0_STLB PREFETCH REQUESTED:          0 ISSUED:          0 USEFUL:          0 USELESS:          0
cpu0_STLB AVERAGE MISS LATENCY: 384.1 cycles

DRAM Statistics

Channel 0 RQ ROW_BUFFER_HIT:     686641
  ROW_BUFFER_MISS:    1779659
 AVG DBUS CONGESTED CYCLE: 3.979
WQ ROW_BUFFER_HIT: Channel 0 
  ROW_BUFFER_MISS:     387303
  FULL:    1194257
Final OPTGen Hits: 30843
Final OPTGen Access: 52283
Final OPTGEN Hit Rate: 58.9925
