WARNING: physical memory size is smaller than virtual memory size.

*** ChampSim Multicore Out-of-Order Simulator ***
Warmup Instructions: 50000000
Simulation Instructions: 600000000
Number of CPUs: 1
Page size: 4096

Off-chip DRAM Size: 4 GiB Channels: 1 Width: 64-bit Data Race: 3200 MT/s
Heartbeat CPU 0 instructions: 10000000 cycles: 2881042 heartbeat IPC: 3.471 cumulative IPC: 3.471 (Simulation time: 00 hr 00 min 33 sec)
Heartbeat CPU 0 instructions: 20000000 cycles: 5381042 heartbeat IPC: 4 cumulative IPC: 3.717 (Simulation time: 00 hr 01 min 05 sec)
Heartbeat CPU 0 instructions: 30000000 cycles: 7881042 heartbeat IPC: 4 cumulative IPC: 3.807 (Simulation time: 00 hr 01 min 35 sec)
Heartbeat CPU 0 instructions: 40000000 cycles: 10381042 heartbeat IPC: 4 cumulative IPC: 3.853 (Simulation time: 00 hr 02 min 06 sec)
Heartbeat CPU 0 instructions: 50000000 cycles: 12881042 heartbeat IPC: 4 cumulative IPC: 3.882 (Simulation time: 00 hr 02 min 37 sec)
Warmup finished CPU 0 instructions: 50000000 cycles: 12881043 cumulative IPC: 3.882 (Simulation time: 00 hr 02 min 37 sec)
Warmup complete CPU 0 instructions: 50000000 cycles: 12881043 cumulative IPC: 3.882 (Simulation time: 00 hr 02 min 37 sec)
Heartbeat CPU 0 instructions: 60000004 cycles: 15383453 heartbeat IPC: 3.996 cumulative IPC: 3.996 (Simulation time: 00 hr 03 min 14 sec)
Heartbeat CPU 0 instructions: 70000002 cycles: 17887327 heartbeat IPC: 3.994 cumulative IPC: 3.995 (Simulation time: 00 hr 03 min 52 sec)
Heartbeat CPU 0 instructions: 80000002 cycles: 20390045 heartbeat IPC: 3.996 cumulative IPC: 3.995 (Simulation time: 00 hr 04 min 29 sec)
Heartbeat CPU 0 instructions: 90000004 cycles: 22893072 heartbeat IPC: 3.995 cumulative IPC: 3.995 (Simulation time: 00 hr 05 min 09 sec)
Heartbeat CPU 0 instructions: 100000000 cycles: 25395477 heartbeat IPC: 3.996 cumulative IPC: 3.995 (Simulation time: 00 hr 05 min 52 sec)
Heartbeat CPU 0 instructions: 110000002 cycles: 27897883 heartbeat IPC: 3.996 cumulative IPC: 3.996 (Simulation time: 00 hr 06 min 32 sec)
Heartbeat CPU 0 instructions: 120000000 cycles: 30402437 heartbeat IPC: 3.993 cumulative IPC: 3.995 (Simulation time: 00 hr 07 min 14 sec)
Heartbeat CPU 0 instructions: 130000002 cycles: 32906598 heartbeat IPC: 3.993 cumulative IPC: 3.995 (Simulation time: 00 hr 08 min 00 sec)
Heartbeat CPU 0 instructions: 140000004 cycles: 35409133 heartbeat IPC: 3.996 cumulative IPC: 3.995 (Simulation time: 00 hr 08 min 46 sec)
Heartbeat CPU 0 instructions: 150000000 cycles: 37911495 heartbeat IPC: 3.996 cumulative IPC: 3.995 (Simulation time: 00 hr 09 min 31 sec)
Heartbeat CPU 0 instructions: 160000003 cycles: 40413944 heartbeat IPC: 3.996 cumulative IPC: 3.995 (Simulation time: 00 hr 10 min 12 sec)
Heartbeat CPU 0 instructions: 170000002 cycles: 42916738 heartbeat IPC: 3.996 cumulative IPC: 3.995 (Simulation time: 00 hr 10 min 52 sec)
Heartbeat CPU 0 instructions: 180000000 cycles: 45419152 heartbeat IPC: 3.996 cumulative IPC: 3.995 (Simulation time: 00 hr 11 min 32 sec)
Heartbeat CPU 0 instructions: 190000003 cycles: 47921932 heartbeat IPC: 3.996 cumulative IPC: 3.995 (Simulation time: 00 hr 12 min 11 sec)
Heartbeat CPU 0 instructions: 200000000 cycles: 50426561 heartbeat IPC: 3.993 cumulative IPC: 3.995 (Simulation time: 00 hr 12 min 50 sec)
Heartbeat CPU 0 instructions: 210000000 cycles: 52929192 heartbeat IPC: 3.996 cumulative IPC: 3.995 (Simulation time: 00 hr 13 min 30 sec)
Heartbeat CPU 0 instructions: 220000003 cycles: 55431646 heartbeat IPC: 3.996 cumulative IPC: 3.995 (Simulation time: 00 hr 14 min 10 sec)
Heartbeat CPU 0 instructions: 230000000 cycles: 89412948 heartbeat IPC: 0.2943 cumulative IPC: 2.352 (Simulation time: 00 hr 17 min 59 sec)
Heartbeat CPU 0 instructions: 240000002 cycles: 92899068 heartbeat IPC: 2.869 cumulative IPC: 2.374 (Simulation time: 00 hr 18 min 50 sec)
Heartbeat CPU 0 instructions: 250000000 cycles: 96325935 heartbeat IPC: 2.918 cumulative IPC: 2.397 (Simulation time: 00 hr 19 min 39 sec)
Heartbeat CPU 0 instructions: 260000002 cycles: 99782223 heartbeat IPC: 2.893 cumulative IPC: 2.417 (Simulation time: 00 hr 20 min 32 sec)
Heartbeat CPU 0 instructions: 270000003 cycles: 103258212 heartbeat IPC: 2.877 cumulative IPC: 2.434 (Simulation time: 00 hr 21 min 24 sec)
Heartbeat CPU 0 instructions: 280000001 cycles: 106736807 heartbeat IPC: 2.875 cumulative IPC: 2.451 (Simulation time: 00 hr 22 min 21 sec)
Heartbeat CPU 0 instructions: 290000002 cycles: 110186757 heartbeat IPC: 2.899 cumulative IPC: 2.466 (Simulation time: 00 hr 23 min 25 sec)
Heartbeat CPU 0 instructions: 300000003 cycles: 113605175 heartbeat IPC: 2.925 cumulative IPC: 2.482 (Simulation time: 00 hr 24 min 21 sec)
Heartbeat CPU 0 instructions: 310000002 cycles: 117068980 heartbeat IPC: 2.887 cumulative IPC: 2.495 (Simulation time: 00 hr 25 min 19 sec)
Heartbeat CPU 0 instructions: 320000002 cycles: 120503415 heartbeat IPC: 2.912 cumulative IPC: 2.509 (Simulation time: 00 hr 26 min 09 sec)
Heartbeat CPU 0 instructions: 330000004 cycles: 125727063 heartbeat IPC: 1.914 cumulative IPC: 2.481 (Simulation time: 00 hr 27 min 12 sec)
Heartbeat CPU 0 instructions: 340000002 cycles: 132601666 heartbeat IPC: 1.455 cumulative IPC: 2.422 (Simulation time: 00 hr 28 min 32 sec)
Heartbeat CPU 0 instructions: 350000002 cycles: 139375519 heartbeat IPC: 1.476 cumulative IPC: 2.372 (Simulation time: 00 hr 29 min 50 sec)
Heartbeat CPU 0 instructions: 360000000 cycles: 146142169 heartbeat IPC: 1.478 cumulative IPC: 2.326 (Simulation time: 00 hr 31 min 10 sec)
Heartbeat CPU 0 instructions: 370000001 cycles: 152913647 heartbeat IPC: 1.477 cumulative IPC: 2.285 (Simulation time: 00 hr 32 min 31 sec)
Heartbeat CPU 0 instructions: 380000003 cycles: 159722854 heartbeat IPC: 1.469 cumulative IPC: 2.247 (Simulation time: 00 hr 33 min 56 sec)
Heartbeat CPU 0 instructions: 390000004 cycles: 166452654 heartbeat IPC: 1.486 cumulative IPC: 2.214 (Simulation time: 00 hr 35 min 16 sec)
Heartbeat CPU 0 instructions: 400000000 cycles: 173287314 heartbeat IPC: 1.463 cumulative IPC: 2.182 (Simulation time: 00 hr 36 min 35 sec)
Heartbeat CPU 0 instructions: 410000003 cycles: 179967491 heartbeat IPC: 1.497 cumulative IPC: 2.155 (Simulation time: 00 hr 37 min 51 sec)
Heartbeat CPU 0 instructions: 420000000 cycles: 186111201 heartbeat IPC: 1.628 cumulative IPC: 2.136 (Simulation time: 00 hr 39 min 02 sec)
Heartbeat CPU 0 instructions: 430000002 cycles: 192754729 heartbeat IPC: 1.505 cumulative IPC: 2.113 (Simulation time: 00 hr 40 min 16 sec)
Heartbeat CPU 0 instructions: 440000002 cycles: 199627375 heartbeat IPC: 1.455 cumulative IPC: 2.088 (Simulation time: 00 hr 41 min 35 sec)
Heartbeat CPU 0 instructions: 450000000 cycles: 206480508 heartbeat IPC: 1.459 cumulative IPC: 2.066 (Simulation time: 00 hr 42 min 49 sec)
Heartbeat CPU 0 instructions: 460000003 cycles: 213382434 heartbeat IPC: 1.449 cumulative IPC: 2.045 (Simulation time: 00 hr 44 min 03 sec)
Heartbeat CPU 0 instructions: 470000004 cycles: 220275759 heartbeat IPC: 1.451 cumulative IPC: 2.025 (Simulation time: 00 hr 45 min 16 sec)
Heartbeat CPU 0 instructions: 480000000 cycles: 227170986 heartbeat IPC: 1.45 cumulative IPC: 2.007 (Simulation time: 00 hr 46 min 28 sec)
Heartbeat CPU 0 instructions: 490000001 cycles: 233936503 heartbeat IPC: 1.478 cumulative IPC: 1.99 (Simulation time: 00 hr 47 min 39 sec)
Heartbeat CPU 0 instructions: 500000001 cycles: 240862804 heartbeat IPC: 1.444 cumulative IPC: 1.974 (Simulation time: 00 hr 48 min 50 sec)
Heartbeat CPU 0 instructions: 510000002 cycles: 247804071 heartbeat IPC: 1.441 cumulative IPC: 1.958 (Simulation time: 00 hr 50 min 11 sec)
Heartbeat CPU 0 instructions: 520000003 cycles: 319665777 heartbeat IPC: 0.1392 cumulative IPC: 1.532 (Simulation time: 01 hr 00 min 57 sec)
Heartbeat CPU 0 instructions: 530000001 cycles: 446524657 heartbeat IPC: 0.07883 cumulative IPC: 1.107 (Simulation time: 01 hr 19 min 15 sec)
Heartbeat CPU 0 instructions: 540000002 cycles: 475074454 heartbeat IPC: 0.3503 cumulative IPC: 1.06 (Simulation time: 01 hr 23 min 29 sec)
Heartbeat CPU 0 instructions: 550000003 cycles: 507491694 heartbeat IPC: 0.3085 cumulative IPC: 1.011 (Simulation time: 01 hr 28 min 00 sec)
Heartbeat CPU 0 instructions: 560000001 cycles: 539657698 heartbeat IPC: 0.3109 cumulative IPC: 0.9682 (Simulation time: 01 hr 32 min 19 sec)
Heartbeat CPU 0 instructions: 570000001 cycles: 572044886 heartbeat IPC: 0.3088 cumulative IPC: 0.93 (Simulation time: 01 hr 36 min 38 sec)
Heartbeat CPU 0 instructions: 580000003 cycles: 597895523 heartbeat IPC: 0.3868 cumulative IPC: 0.906 (Simulation time: 01 hr 40 min 15 sec)
Heartbeat CPU 0 instructions: 590000000 cycles: 628518970 heartbeat IPC: 0.3265 cumulative IPC: 0.8771 (Simulation time: 01 hr 44 min 27 sec)
*** Reached end of trace: (0, "traces/bt.A.champsimtrace")
Heartbeat CPU 0 instructions: 600000001 cycles: 658826420 heartbeat IPC: 0.33 cumulative IPC: 0.8515 (Simulation time: 01 hr 49 min 04 sec)
Heartbeat CPU 0 instructions: 610000004 cycles: 684098798 heartbeat IPC: 0.3957 cumulative IPC: 0.8343 (Simulation time: 01 hr 52 min 08 sec)
Heartbeat CPU 0 instructions: 620000000 cycles: 686601128 heartbeat IPC: 3.996 cumulative IPC: 0.846 (Simulation time: 01 hr 52 min 53 sec)
Heartbeat CPU 0 instructions: 630000002 cycles: 689103446 heartbeat IPC: 3.996 cumulative IPC: 0.8577 (Simulation time: 01 hr 53 min 39 sec)
Heartbeat CPU 0 instructions: 640000000 cycles: 691605764 heartbeat IPC: 3.996 cumulative IPC: 0.8693 (Simulation time: 01 hr 54 min 26 sec)
Heartbeat CPU 0 instructions: 650000002 cycles: 694108161 heartbeat IPC: 3.996 cumulative IPC: 0.8808 (Simulation time: 01 hr 55 min 10 sec)
Simulation finished CPU 0 instructions: 600000002 cycles: 681227119 cumulative IPC: 0.8808 (Simulation time: 01 hr 55 min 10 sec)
Simulation complete CPU 0 instructions: 600000002 cycles: 681227119 cumulative IPC: 0.8808 (Simulation time: 01 hr 55 min 10 sec)

ChampSim completed all CPUs

=== Simulation ===
CPU 0 runs traces/bt.A.champsimtrace
Region of Interest Statistics

CPU 0 cumulative IPC: 0.8808 instructions: 600000002 cycles: 681227119
CPU 0 Branch Prediction Accuracy: 99.29% MPKI: 0.1288 Average ROB Occupancy at Mispredict: 279.3
Branch type MPKI
BRANCH_DIRECT_JUMP: 5e-06
BRANCH_INDIRECT: 7.83e-05
BRANCH_CONDITIONAL: 0.129
BRANCH_DIRECT_CALL: 6.67e-06
BRANCH_INDIRECT_CALL: 3.67e-05
BRANCH_RETURN: 2.33e-05

LLC TOTAL        ACCESS:    7764988 HIT:    2808601 MISS:    4956387
LLC LOAD         ACCESS:    2239969 HIT:    1216560 MISS:    1023409
LLC RFO          ACCESS:     889446 HIT:      59726 MISS:     829720
LLC PREFETCH     ACCESS:    2643741 HIT:    1330237 MISS:    1313504
LLC WRITE        ACCESS:    1988464 HIT:     201703 MISS:    1786761
LLC TRANSLATION  ACCESS:       3368 HIT:        375 MISS:       2993
LLC PREFETCH REQUESTED:    2643741 ISSUED:    2643741 USEFUL:     999353 USELESS:      37080
LLC AVERAGE MISS LATENCY: 874.3 cycles
cpu0_DTLB TOTAL        ACCESS:  126601169 HIT:  125841096 MISS:     760073
cpu0_DTLB LOAD         ACCESS:  126601169 HIT:  125841096 MISS:     760073
cpu0_DTLB RFO          ACCESS:          0 HIT:          0 MISS:          0
cpu0_DTLB PREFETCH     ACCESS:          0 HIT:          0 MISS:          0
cpu0_DTLB WRITE        ACCESS:          0 HIT:          0 MISS:          0
cpu0_DTLB TRANSLATION  ACCESS:          0 HIT:          0 MISS:          0
cpu0_DTLB PREFETCH REQUESTED:          0 ISSUED:          0 USEFUL:          0 USELESS:          0
cpu0_DTLB AVERAGE MISS LATENCY: 15.43 cycles
cpu0_ITLB TOTAL        ACCESS:     142632 HIT:     142385 MISS:        247
cpu0_ITLB LOAD         ACCESS:     142632 HIT:     142385 MISS:        247
cpu0_ITLB RFO          ACCESS:          0 HIT:          0 MISS:          0
cpu0_ITLB PREFETCH     ACCESS:          0 HIT:          0 MISS:          0
cpu0_ITLB WRITE        ACCESS:          0 HIT:          0 MISS:          0
cpu0_ITLB TRANSLATION  ACCESS:          0 HIT:          0 MISS:          0
cpu0_ITLB PREFETCH REQUESTED:          0 ISSUED:          0 USEFUL:          0 USELESS:          0
cpu0_ITLB AVERAGE MISS LATENCY: 281.2 cycles
cpu0_L1D TOTAL        ACCESS:  194604095 HIT:  181882153 MISS:   12721942
cpu0_L1D LOAD         ACCESS:  159921856 HIT:  151391551 MISS:    8530305
cpu0_L1D RFO          ACCESS:          0 HIT:          0 MISS:          0
cpu0_L1D PREFETCH     ACCESS:          0 HIT:          0 MISS:          0
cpu0_L1D WRITE        ACCESS:   34635464 HIT:   30460895 MISS:    4174569
cpu0_L1D TRANSLATION  ACCESS:      46775 HIT:      29707 MISS:      17068
cpu0_L1D PREFETCH REQUESTED:          0 ISSUED:          0 USEFUL:          0 USELESS:          0
cpu0_L1D AVERAGE MISS LATENCY: 171.9 cycles
cpu0_L1I TOTAL        ACCESS:     192204 HIT:     189417 MISS:       2787
cpu0_L1I LOAD         ACCESS:     192204 HIT:     189417 MISS:       2787
cpu0_L1I RFO          ACCESS:          0 HIT:          0 MISS:          0
cpu0_L1I PREFETCH     ACCESS:          0 HIT:          0 MISS:          0
cpu0_L1I WRITE        ACCESS:          0 HIT:          0 MISS:          0
cpu0_L1I TRANSLATION  ACCESS:          0 HIT:          0 MISS:          0
cpu0_L1I PREFETCH REQUESTED:          0 ISSUED:          0 USEFUL:          0 USELESS:          0
cpu0_L1I AVERAGE MISS LATENCY: 551.3 cycles
cpu0_L2C TOTAL        ACCESS:    5259270 HIT:    2126024 MISS:    3133246
cpu0_L2C LOAD         ACCESS:    2353101 HIT:     113125 MISS:    2239976
cpu0_L2C RFO          ACCESS:     889974 HIT:        528 MISS:     889446
cpu0_L2C PREFETCH     ACCESS:          0 HIT:          0 MISS:          0
cpu0_L2C WRITE        ACCESS:    1999130 HIT:    1998674 MISS:        456
cpu0_L2C TRANSLATION  ACCESS:      17065 HIT:      13697 MISS:       3368
cpu0_L2C PREFETCH REQUESTED:          0 ISSUED:          0 USEFUL:          0 USELESS:          0
cpu0_L2C AVERAGE MISS LATENCY: 860.3 cycles
cpu0_STLB TOTAL        ACCESS:     310610 HIT:     263858 MISS:      46752
cpu0_STLB LOAD         ACCESS:     310610 HIT:     263858 MISS:      46752
cpu0_STLB RFO          ACCESS:          0 HIT:          0 MISS:          0
cpu0_STLB PREFETCH     ACCESS:          0 HIT:          0 MISS:          0
cpu0_STLB WRITE        ACCESS:          0 HIT:          0 MISS:          0
cpu0_STLB TRANSLATION  ACCESS:          0 HIT:          0 MISS:          0
cpu0_STLB PREFETCH REQUESTED:          0 ISSUED:          0 USEFUL:          0 USELESS:          0
cpu0_STLB AVERAGE MISS LATENCY: 337.9 cycles

DRAM Statistics

Channel 0 RQ ROW_BUFFER_HIT:     969647
  ROW_BUFFER_MISS:    1843269
 AVG DBUS CONGESTED CYCLE: 3.958
WQ ROW_BUFFER_HIT: Channel 0 
  ROW_BUFFER_MISS:     598108
  FULL:    1302983
