WARNING: physical memory size is smaller than virtual memory size.

*** ChampSim Multicore Out-of-Order Simulator ***
Warmup Instructions: 50000000
Simulation Instructions: 600000000
Number of CPUs: 1
Page size: 4096

CPU 0 Tage branch predictor
Off-chip DRAM Size: 4 GiB Channels: 1 Width: 64-bit Data Race: 3200 MT/s
Heartbeat CPU 0 instructions: 10000000 cycles: 2881042 heartbeat IPC: 3.471 cumulative IPC: 3.471 (Simulation time: 00 hr 00 min 28 sec)
Heartbeat CPU 0 instructions: 20000000 cycles: 5381042 heartbeat IPC: 4 cumulative IPC: 3.717 (Simulation time: 00 hr 01 min 02 sec)
Heartbeat CPU 0 instructions: 30000000 cycles: 7881042 heartbeat IPC: 4 cumulative IPC: 3.807 (Simulation time: 00 hr 01 min 38 sec)
Heartbeat CPU 0 instructions: 40000000 cycles: 10381042 heartbeat IPC: 4 cumulative IPC: 3.853 (Simulation time: 00 hr 02 min 12 sec)
Heartbeat CPU 0 instructions: 50000000 cycles: 12881042 heartbeat IPC: 4 cumulative IPC: 3.882 (Simulation time: 00 hr 02 min 48 sec)
Warmup finished CPU 0 instructions: 50000000 cycles: 12881043 cumulative IPC: 3.882 (Simulation time: 00 hr 02 min 48 sec)
Warmup complete CPU 0 instructions: 50000000 cycles: 12881043 cumulative IPC: 3.882 (Simulation time: 00 hr 02 min 48 sec)
Heartbeat CPU 0 instructions: 60000004 cycles: 15381377 heartbeat IPC: 3.999 cumulative IPC: 3.999 (Simulation time: 00 hr 03 min 31 sec)
Heartbeat CPU 0 instructions: 70000002 cycles: 17881455 heartbeat IPC: 4 cumulative IPC: 4 (Simulation time: 00 hr 04 min 14 sec)
Heartbeat CPU 0 instructions: 80000001 cycles: 20381902 heartbeat IPC: 3.999 cumulative IPC: 4 (Simulation time: 00 hr 04 min 57 sec)
Heartbeat CPU 0 instructions: 90000004 cycles: 22882024 heartbeat IPC: 4 cumulative IPC: 4 (Simulation time: 00 hr 05 min 39 sec)
Heartbeat CPU 0 instructions: 100000000 cycles: 25382143 heartbeat IPC: 4 cumulative IPC: 4 (Simulation time: 00 hr 06 min 21 sec)
Heartbeat CPU 0 instructions: 110000002 cycles: 27882262 heartbeat IPC: 4 cumulative IPC: 4 (Simulation time: 00 hr 07 min 01 sec)
Heartbeat CPU 0 instructions: 120000000 cycles: 30382372 heartbeat IPC: 4 cumulative IPC: 4 (Simulation time: 00 hr 07 min 41 sec)
Heartbeat CPU 0 instructions: 130000002 cycles: 32882537 heartbeat IPC: 4 cumulative IPC: 4 (Simulation time: 00 hr 08 min 21 sec)
Heartbeat CPU 0 instructions: 140000004 cycles: 35382658 heartbeat IPC: 4 cumulative IPC: 4 (Simulation time: 00 hr 09 min 01 sec)
Heartbeat CPU 0 instructions: 150000000 cycles: 37882735 heartbeat IPC: 4 cumulative IPC: 4 (Simulation time: 00 hr 09 min 41 sec)
Heartbeat CPU 0 instructions: 160000003 cycles: 40382856 heartbeat IPC: 4 cumulative IPC: 4 (Simulation time: 00 hr 10 min 21 sec)
Heartbeat CPU 0 instructions: 170000002 cycles: 42883023 heartbeat IPC: 4 cumulative IPC: 4 (Simulation time: 00 hr 11 min 00 sec)
Heartbeat CPU 0 instructions: 180000000 cycles: 45383098 heartbeat IPC: 4 cumulative IPC: 4 (Simulation time: 00 hr 11 min 40 sec)
Heartbeat CPU 0 instructions: 190000003 cycles: 47883165 heartbeat IPC: 4 cumulative IPC: 4 (Simulation time: 00 hr 12 min 20 sec)
Heartbeat CPU 0 instructions: 200000000 cycles: 50383336 heartbeat IPC: 4 cumulative IPC: 4 (Simulation time: 00 hr 13 min 00 sec)
Heartbeat CPU 0 instructions: 210000000 cycles: 52883456 heartbeat IPC: 4 cumulative IPC: 4 (Simulation time: 00 hr 13 min 39 sec)
Heartbeat CPU 0 instructions: 220000003 cycles: 55383623 heartbeat IPC: 4 cumulative IPC: 4 (Simulation time: 00 hr 14 min 20 sec)
Heartbeat CPU 0 instructions: 230000001 cycles: 90112856 heartbeat IPC: 0.2879 cumulative IPC: 2.331 (Simulation time: 00 hr 17 min 55 sec)
Heartbeat CPU 0 instructions: 240000002 cycles: 94430638 heartbeat IPC: 2.316 cumulative IPC: 2.33 (Simulation time: 00 hr 18 min 52 sec)
Heartbeat CPU 0 instructions: 250000000 cycles: 98760156 heartbeat IPC: 2.31 cumulative IPC: 2.329 (Simulation time: 00 hr 19 min 48 sec)
Heartbeat CPU 0 instructions: 260000004 cycles: 103160354 heartbeat IPC: 2.273 cumulative IPC: 2.326 (Simulation time: 00 hr 20 min 45 sec)
Heartbeat CPU 0 instructions: 270000003 cycles: 107533006 heartbeat IPC: 2.287 cumulative IPC: 2.324 (Simulation time: 00 hr 21 min 41 sec)
Heartbeat CPU 0 instructions: 280000003 cycles: 111912278 heartbeat IPC: 2.283 cumulative IPC: 2.322 (Simulation time: 00 hr 22 min 37 sec)
Heartbeat CPU 0 instructions: 290000000 cycles: 116298108 heartbeat IPC: 2.28 cumulative IPC: 2.321 (Simulation time: 00 hr 23 min 33 sec)
Heartbeat CPU 0 instructions: 300000003 cycles: 120687500 heartbeat IPC: 2.278 cumulative IPC: 2.319 (Simulation time: 00 hr 24 min 29 sec)
Heartbeat CPU 0 instructions: 310000002 cycles: 125065122 heartbeat IPC: 2.284 cumulative IPC: 2.318 (Simulation time: 00 hr 25 min 26 sec)
Heartbeat CPU 0 instructions: 320000004 cycles: 129445836 heartbeat IPC: 2.283 cumulative IPC: 2.316 (Simulation time: 00 hr 26 min 22 sec)
Heartbeat CPU 0 instructions: 330000004 cycles: 133326583 heartbeat IPC: 2.577 cumulative IPC: 2.325 (Simulation time: 00 hr 27 min 13 sec)
Heartbeat CPU 0 instructions: 340000002 cycles: 136859200 heartbeat IPC: 2.831 cumulative IPC: 2.339 (Simulation time: 00 hr 28 min 02 sec)
Heartbeat CPU 0 instructions: 350000002 cycles: 140196194 heartbeat IPC: 2.997 cumulative IPC: 2.356 (Simulation time: 00 hr 28 min 49 sec)
Heartbeat CPU 0 instructions: 360000000 cycles: 143668547 heartbeat IPC: 2.88 cumulative IPC: 2.37 (Simulation time: 00 hr 29 min 38 sec)
Heartbeat CPU 0 instructions: 370000001 cycles: 147100199 heartbeat IPC: 2.914 cumulative IPC: 2.384 (Simulation time: 00 hr 30 min 26 sec)
Heartbeat CPU 0 instructions: 380000003 cycles: 150676721 heartbeat IPC: 2.796 cumulative IPC: 2.395 (Simulation time: 00 hr 31 min 15 sec)
Heartbeat CPU 0 instructions: 390000002 cycles: 154092322 heartbeat IPC: 2.928 cumulative IPC: 2.408 (Simulation time: 00 hr 32 min 04 sec)
Heartbeat CPU 0 instructions: 400000000 cycles: 157484936 heartbeat IPC: 2.948 cumulative IPC: 2.42 (Simulation time: 00 hr 32 min 52 sec)
Heartbeat CPU 0 instructions: 410000002 cycles: 160871216 heartbeat IPC: 2.953 cumulative IPC: 2.433 (Simulation time: 00 hr 33 min 40 sec)
Heartbeat CPU 0 instructions: 420000000 cycles: 164435620 heartbeat IPC: 2.806 cumulative IPC: 2.441 (Simulation time: 00 hr 34 min 28 sec)
Heartbeat CPU 0 instructions: 430000002 cycles: 167265783 heartbeat IPC: 3.533 cumulative IPC: 2.461 (Simulation time: 00 hr 35 min 12 sec)
Heartbeat CPU 0 instructions: 440000002 cycles: 170587853 heartbeat IPC: 3.01 cumulative IPC: 2.473 (Simulation time: 00 hr 35 min 59 sec)
Heartbeat CPU 0 instructions: 450000000 cycles: 174295400 heartbeat IPC: 2.697 cumulative IPC: 2.478 (Simulation time: 00 hr 36 min 49 sec)
Heartbeat CPU 0 instructions: 460000003 cycles: 177983903 heartbeat IPC: 2.711 cumulative IPC: 2.483 (Simulation time: 00 hr 37 min 39 sec)
Heartbeat CPU 0 instructions: 470000004 cycles: 181371949 heartbeat IPC: 2.952 cumulative IPC: 2.493 (Simulation time: 00 hr 38 min 27 sec)
Heartbeat CPU 0 instructions: 480000000 cycles: 185102267 heartbeat IPC: 2.681 cumulative IPC: 2.497 (Simulation time: 00 hr 39 min 17 sec)
Heartbeat CPU 0 instructions: 490000001 cycles: 188654179 heartbeat IPC: 2.815 cumulative IPC: 2.503 (Simulation time: 00 hr 40 min 06 sec)
Heartbeat CPU 0 instructions: 500000000 cycles: 192288335 heartbeat IPC: 2.752 cumulative IPC: 2.508 (Simulation time: 00 hr 40 min 55 sec)
Heartbeat CPU 0 instructions: 510000002 cycles: 195895100 heartbeat IPC: 2.773 cumulative IPC: 2.513 (Simulation time: 00 hr 41 min 45 sec)
Heartbeat CPU 0 instructions: 520000001 cycles: 260319498 heartbeat IPC: 0.1552 cumulative IPC: 1.899 (Simulation time: 00 hr 50 min 09 sec)
Heartbeat CPU 0 instructions: 530000001 cycles: 375340757 heartbeat IPC: 0.08694 cumulative IPC: 1.324 (Simulation time: 01 hr 05 min 03 sec)
Heartbeat CPU 0 instructions: 540000000 cycles: 403320121 heartbeat IPC: 0.3574 cumulative IPC: 1.255 (Simulation time: 01 hr 08 min 58 sec)
Heartbeat CPU 0 instructions: 550000000 cycles: 431413356 heartbeat IPC: 0.356 cumulative IPC: 1.195 (Simulation time: 01 hr 12 min 53 sec)
Heartbeat CPU 0 instructions: 560000004 cycles: 459521251 heartbeat IPC: 0.3558 cumulative IPC: 1.142 (Simulation time: 01 hr 16 min 50 sec)
Heartbeat CPU 0 instructions: 570000001 cycles: 487630694 heartbeat IPC: 0.3558 cumulative IPC: 1.095 (Simulation time: 01 hr 20 min 48 sec)
Heartbeat CPU 0 instructions: 580000002 cycles: 516812434 heartbeat IPC: 0.3427 cumulative IPC: 1.052 (Simulation time: 01 hr 24 min 59 sec)
Heartbeat CPU 0 instructions: 590000001 cycles: 545875917 heartbeat IPC: 0.3441 cumulative IPC: 1.013 (Simulation time: 01 hr 29 min 12 sec)
*** Reached end of trace: (0, "traces/bt.A.champsimtrace")
Heartbeat CPU 0 instructions: 600000001 cycles: 574707883 heartbeat IPC: 0.3468 cumulative IPC: 0.9789 (Simulation time: 01 hr 33 min 19 sec)
Heartbeat CPU 0 instructions: 610000004 cycles: 602098009 heartbeat IPC: 0.3651 cumulative IPC: 0.9504 (Simulation time: 01 hr 36 min 41 sec)
Heartbeat CPU 0 instructions: 620000000 cycles: 604598131 heartbeat IPC: 4 cumulative IPC: 0.9633 (Simulation time: 01 hr 37 min 30 sec)
Heartbeat CPU 0 instructions: 630000002 cycles: 607098253 heartbeat IPC: 4 cumulative IPC: 0.9761 (Simulation time: 01 hr 38 min 18 sec)
Heartbeat CPU 0 instructions: 640000001 cycles: 609598374 heartbeat IPC: 4 cumulative IPC: 0.9887 (Simulation time: 01 hr 39 min 07 sec)
Heartbeat CPU 0 instructions: 650000002 cycles: 612098482 heartbeat IPC: 4 cumulative IPC: 1.001 (Simulation time: 01 hr 39 min 56 sec)
Simulation finished CPU 0 instructions: 600000002 cycles: 599217440 cumulative IPC: 1.001 (Simulation time: 01 hr 39 min 56 sec)
Simulation complete CPU 0 instructions: 600000002 cycles: 599217440 cumulative IPC: 1.001 (Simulation time: 01 hr 39 min 56 sec)

ChampSim completed all CPUs

=== Simulation ===
CPU 0 runs traces/bt.A.champsimtrace
Region of Interest Statistics

CPU 0 cumulative IPC: 1.001 instructions: 600000002 cycles: 599217440
CPU 0 Branch Prediction Accuracy: 99.98% MPKI: 0.004168 Average ROB Occupancy at Mispredict: 111.1
Branch type MPKI
BRANCH_DIRECT_JUMP: 5e-06
BRANCH_INDIRECT: 7.83e-05
BRANCH_CONDITIONAL: 0.00402
BRANCH_DIRECT_CALL: 6.67e-06
BRANCH_INDIRECT_CALL: 3.67e-05
BRANCH_RETURN: 2.33e-05

LLC TOTAL        ACCESS:    7362514 HIT:    3629341 MISS:    3733173
LLC LOAD         ACCESS:    2240471 HIT:    1135468 MISS:    1105003
LLC RFO          ACCESS:     889446 HIT:       6967 MISS:     882479
LLC PREFETCH     ACCESS:    2240471 HIT:     496672 MISS:    1743799
LLC WRITE        ACCESS:    1988750 HIT:    1988622 MISS:        128
LLC TRANSLATION  ACCESS:       3376 HIT:       1612 MISS:       1764
LLC PREFETCH REQUESTED:    2240471 ISSUED:    2240471 USEFUL:    1468070 USELESS:      25204
LLC AVERAGE MISS LATENCY: 1155 cycles
cpu0_DTLB TOTAL        ACCESS:  130007080 HIT:  129243602 MISS:     763478
cpu0_DTLB LOAD         ACCESS:  130007080 HIT:  129243602 MISS:     763478
cpu0_DTLB RFO          ACCESS:          0 HIT:          0 MISS:          0
cpu0_DTLB PREFETCH     ACCESS:          0 HIT:          0 MISS:          0
cpu0_DTLB WRITE        ACCESS:          0 HIT:          0 MISS:          0
cpu0_DTLB TRANSLATION  ACCESS:          0 HIT:          0 MISS:          0
cpu0_DTLB PREFETCH REQUESTED:          0 ISSUED:          0 USEFUL:          0 USELESS:          0
cpu0_DTLB AVERAGE MISS LATENCY: 14.18 cycles
cpu0_ITLB TOTAL        ACCESS:     173206 HIT:     172958 MISS:        248
cpu0_ITLB LOAD         ACCESS:     173206 HIT:     172958 MISS:        248
cpu0_ITLB RFO          ACCESS:          0 HIT:          0 MISS:          0
cpu0_ITLB PREFETCH     ACCESS:          0 HIT:          0 MISS:          0
cpu0_ITLB WRITE        ACCESS:          0 HIT:          0 MISS:          0
cpu0_ITLB TRANSLATION  ACCESS:          0 HIT:          0 MISS:          0
cpu0_ITLB PREFETCH REQUESTED:          0 ISSUED:          0 USEFUL:          0 USELESS:          0
cpu0_ITLB AVERAGE MISS LATENCY: 313.5 cycles
cpu0_L1D TOTAL        ACCESS:  198529145 HIT:  184986492 MISS:   13542653
cpu0_L1D LOAD         ACCESS:  163846864 HIT:  154446676 MISS:    9400188
cpu0_L1D RFO          ACCESS:          0 HIT:          0 MISS:          0
cpu0_L1D PREFETCH     ACCESS:          0 HIT:          0 MISS:          0
cpu0_L1D WRITE        ACCESS:   34635507 HIT:   30510151 MISS:    4125356
cpu0_L1D TRANSLATION  ACCESS:      46774 HIT:      29665 MISS:      17109
cpu0_L1D PREFETCH REQUESTED:          0 ISSUED:          0 USEFUL:          0 USELESS:          0
cpu0_L1D AVERAGE MISS LATENCY: 156.2 cycles
cpu0_L1I TOTAL        ACCESS:     204605 HIT:     201653 MISS:       2952
cpu0_L1I LOAD         ACCESS:     204605 HIT:     201653 MISS:       2952
cpu0_L1I RFO          ACCESS:          0 HIT:          0 MISS:          0
cpu0_L1I PREFETCH     ACCESS:          0 HIT:          0 MISS:          0
cpu0_L1I WRITE        ACCESS:          0 HIT:          0 MISS:          0
cpu0_L1I TRANSLATION  ACCESS:          0 HIT:          0 MISS:          0
cpu0_L1I PREFETCH REQUESTED:          0 ISSUED:          0 USEFUL:          0 USELESS:          0
cpu0_L1I AVERAGE MISS LATENCY: 412.7 cycles
cpu0_L2C TOTAL        ACCESS:    5265954 HIT:    2132143 MISS:    3133811
cpu0_L2C LOAD         ACCESS:    2359842 HIT:     119309 MISS:    2240533
cpu0_L2C RFO          ACCESS:     889974 HIT:        528 MISS:     889446
cpu0_L2C PREFETCH     ACCESS:          0 HIT:          0 MISS:          0
cpu0_L2C WRITE        ACCESS:    1999031 HIT:    1998575 MISS:        456
cpu0_L2C TRANSLATION  ACCESS:      17107 HIT:      13731 MISS:       3376
cpu0_L2C PREFETCH REQUESTED:          0 ISSUED:          0 USEFUL:          0 USELESS:          0
cpu0_L2C AVERAGE MISS LATENCY: 880.5 cycles
cpu0_STLB TOTAL        ACCESS:     314984 HIT:     268232 MISS:      46752
cpu0_STLB LOAD         ACCESS:     314984 HIT:     268232 MISS:      46752
cpu0_STLB RFO          ACCESS:          0 HIT:          0 MISS:          0
cpu0_STLB PREFETCH     ACCESS:          0 HIT:          0 MISS:          0
cpu0_STLB WRITE        ACCESS:          0 HIT:          0 MISS:          0
cpu0_STLB TRANSLATION  ACCESS:          0 HIT:          0 MISS:          0
cpu0_STLB PREFETCH REQUESTED:          0 ISSUED:          0 USEFUL:          0 USELESS:          0
cpu0_STLB AVERAGE MISS LATENCY: 310.6 cycles

DRAM Statistics

Channel 0 RQ ROW_BUFFER_HIT:     712184
  ROW_BUFFER_MISS:    1947302
 AVG DBUS CONGESTED CYCLE: 3.978
WQ ROW_BUFFER_HIT: Channel 0 
  ROW_BUFFER_MISS:     457983
  FULL:    1273532
