WARNING: physical memory size is smaller than virtual memory size.

*** ChampSim Multicore Out-of-Order Simulator ***
Warmup Instructions: 50000000
Simulation Instructions: 600000000
Number of CPUs: 1
Page size: 4096

CPU 0 Tage branch predictor
Off-chip DRAM Size: 4 GiB Channels: 1 Width: 64-bit Data Race: 3200 MT/s
Heartbeat CPU 0 instructions: 10000000 cycles: 2881042 heartbeat IPC: 3.471 cumulative IPC: 3.471 (Simulation time: 00 hr 00 min 33 sec)
Heartbeat CPU 0 instructions: 20000000 cycles: 5381042 heartbeat IPC: 4 cumulative IPC: 3.717 (Simulation time: 00 hr 01 min 11 sec)
Heartbeat CPU 0 instructions: 30000000 cycles: 7881042 heartbeat IPC: 4 cumulative IPC: 3.807 (Simulation time: 00 hr 01 min 54 sec)
Heartbeat CPU 0 instructions: 40000000 cycles: 10381042 heartbeat IPC: 4 cumulative IPC: 3.853 (Simulation time: 00 hr 02 min 36 sec)
Heartbeat CPU 0 instructions: 50000000 cycles: 12881042 heartbeat IPC: 4 cumulative IPC: 3.882 (Simulation time: 00 hr 03 min 20 sec)
Warmup finished CPU 0 instructions: 50000000 cycles: 12881043 cumulative IPC: 3.882 (Simulation time: 00 hr 03 min 20 sec)
Warmup complete CPU 0 instructions: 50000000 cycles: 12881043 cumulative IPC: 3.882 (Simulation time: 00 hr 03 min 20 sec)
Heartbeat CPU 0 instructions: 60000004 cycles: 15382003 heartbeat IPC: 3.998 cumulative IPC: 3.998 (Simulation time: 00 hr 04 min 10 sec)
Heartbeat CPU 0 instructions: 70000002 cycles: 17882954 heartbeat IPC: 3.998 cumulative IPC: 3.998 (Simulation time: 00 hr 04 min 59 sec)
Heartbeat CPU 0 instructions: 80000001 cycles: 20383886 heartbeat IPC: 3.999 cumulative IPC: 3.998 (Simulation time: 00 hr 05 min 50 sec)
Heartbeat CPU 0 instructions: 90000004 cycles: 22884009 heartbeat IPC: 4 cumulative IPC: 3.999 (Simulation time: 00 hr 06 min 39 sec)
Heartbeat CPU 0 instructions: 100000000 cycles: 25384128 heartbeat IPC: 4 cumulative IPC: 3.999 (Simulation time: 00 hr 07 min 30 sec)
Heartbeat CPU 0 instructions: 110000002 cycles: 27884557 heartbeat IPC: 3.999 cumulative IPC: 3.999 (Simulation time: 00 hr 08 min 18 sec)
Heartbeat CPU 0 instructions: 120000000 cycles: 30385900 heartbeat IPC: 3.998 cumulative IPC: 3.999 (Simulation time: 00 hr 09 min 06 sec)
Heartbeat CPU 0 instructions: 130000002 cycles: 32888397 heartbeat IPC: 3.996 cumulative IPC: 3.999 (Simulation time: 00 hr 09 min 54 sec)
Heartbeat CPU 0 instructions: 140000004 cycles: 35388518 heartbeat IPC: 4 cumulative IPC: 3.999 (Simulation time: 00 hr 10 min 40 sec)
Heartbeat CPU 0 instructions: 150000000 cycles: 37889187 heartbeat IPC: 3.999 cumulative IPC: 3.999 (Simulation time: 00 hr 11 min 24 sec)
Heartbeat CPU 0 instructions: 160000003 cycles: 40389362 heartbeat IPC: 4 cumulative IPC: 3.999 (Simulation time: 00 hr 12 min 08 sec)
Heartbeat CPU 0 instructions: 170000002 cycles: 42889876 heartbeat IPC: 3.999 cumulative IPC: 3.999 (Simulation time: 00 hr 12 min 53 sec)
Heartbeat CPU 0 instructions: 180000000 cycles: 45390891 heartbeat IPC: 3.998 cumulative IPC: 3.999 (Simulation time: 00 hr 13 min 37 sec)
Heartbeat CPU 0 instructions: 190000003 cycles: 47890959 heartbeat IPC: 4 cumulative IPC: 3.999 (Simulation time: 00 hr 14 min 20 sec)
Heartbeat CPU 0 instructions: 200000000 cycles: 50392572 heartbeat IPC: 3.997 cumulative IPC: 3.999 (Simulation time: 00 hr 15 min 03 sec)
Heartbeat CPU 0 instructions: 210000000 cycles: 52894342 heartbeat IPC: 3.997 cumulative IPC: 3.999 (Simulation time: 00 hr 15 min 47 sec)
Heartbeat CPU 0 instructions: 220000003 cycles: 55395211 heartbeat IPC: 3.999 cumulative IPC: 3.999 (Simulation time: 00 hr 16 min 31 sec)
Heartbeat CPU 0 instructions: 230000001 cycles: 89771445 heartbeat IPC: 0.2909 cumulative IPC: 2.341 (Simulation time: 00 hr 20 min 37 sec)
Heartbeat CPU 0 instructions: 240000002 cycles: 95596012 heartbeat IPC: 1.717 cumulative IPC: 2.297 (Simulation time: 00 hr 21 min 59 sec)
Heartbeat CPU 0 instructions: 250000000 cycles: 101536770 heartbeat IPC: 1.683 cumulative IPC: 2.256 (Simulation time: 00 hr 23 min 20 sec)
Heartbeat CPU 0 instructions: 260000004 cycles: 107474614 heartbeat IPC: 1.684 cumulative IPC: 2.22 (Simulation time: 00 hr 24 min 37 sec)
Heartbeat CPU 0 instructions: 270000003 cycles: 113398327 heartbeat IPC: 1.688 cumulative IPC: 2.189 (Simulation time: 00 hr 25 min 52 sec)
Heartbeat CPU 0 instructions: 280000003 cycles: 119355845 heartbeat IPC: 1.679 cumulative IPC: 2.16 (Simulation time: 00 hr 27 min 05 sec)
Heartbeat CPU 0 instructions: 290000000 cycles: 125289105 heartbeat IPC: 1.685 cumulative IPC: 2.135 (Simulation time: 00 hr 28 min 15 sec)
Heartbeat CPU 0 instructions: 300000003 cycles: 131260957 heartbeat IPC: 1.675 cumulative IPC: 2.112 (Simulation time: 00 hr 29 min 24 sec)
Heartbeat CPU 0 instructions: 310000001 cycles: 137177261 heartbeat IPC: 1.69 cumulative IPC: 2.092 (Simulation time: 00 hr 30 min 32 sec)
Heartbeat CPU 0 instructions: 320000002 cycles: 143127632 heartbeat IPC: 1.681 cumulative IPC: 2.073 (Simulation time: 00 hr 31 min 40 sec)
Heartbeat CPU 0 instructions: 330000004 cycles: 149668256 heartbeat IPC: 1.529 cumulative IPC: 2.047 (Simulation time: 00 hr 32 min 51 sec)
Heartbeat CPU 0 instructions: 340000002 cycles: 156538009 heartbeat IPC: 1.456 cumulative IPC: 2.019 (Simulation time: 00 hr 34 min 04 sec)
Heartbeat CPU 0 instructions: 350000002 cycles: 163258384 heartbeat IPC: 1.488 cumulative IPC: 1.995 (Simulation time: 00 hr 35 min 19 sec)
Heartbeat CPU 0 instructions: 360000000 cycles: 170036760 heartbeat IPC: 1.475 cumulative IPC: 1.973 (Simulation time: 00 hr 36 min 32 sec)
Heartbeat CPU 0 instructions: 370000001 cycles: 176730539 heartbeat IPC: 1.494 cumulative IPC: 1.953 (Simulation time: 00 hr 37 min 47 sec)
Heartbeat CPU 0 instructions: 380000003 cycles: 183504438 heartbeat IPC: 1.476 cumulative IPC: 1.934 (Simulation time: 00 hr 39 min 04 sec)
Heartbeat CPU 0 instructions: 390000004 cycles: 190235679 heartbeat IPC: 1.486 cumulative IPC: 1.917 (Simulation time: 00 hr 40 min 23 sec)
Heartbeat CPU 0 instructions: 400000000 cycles: 197047395 heartbeat IPC: 1.468 cumulative IPC: 1.9 (Simulation time: 00 hr 41 min 50 sec)
Heartbeat CPU 0 instructions: 410000003 cycles: 203820449 heartbeat IPC: 1.476 cumulative IPC: 1.885 (Simulation time: 00 hr 43 min 20 sec)
Heartbeat CPU 0 instructions: 420000000 cycles: 210542539 heartbeat IPC: 1.488 cumulative IPC: 1.872 (Simulation time: 00 hr 44 min 45 sec)
Heartbeat CPU 0 instructions: 430000002 cycles: 217607814 heartbeat IPC: 1.415 cumulative IPC: 1.856 (Simulation time: 00 hr 46 min 18 sec)
Heartbeat CPU 0 instructions: 440000002 cycles: 224841962 heartbeat IPC: 1.382 cumulative IPC: 1.84 (Simulation time: 00 hr 47 min 51 sec)
Heartbeat CPU 0 instructions: 450000000 cycles: 232032292 heartbeat IPC: 1.391 cumulative IPC: 1.825 (Simulation time: 00 hr 49 min 25 sec)
Heartbeat CPU 0 instructions: 460000003 cycles: 239282730 heartbeat IPC: 1.379 cumulative IPC: 1.811 (Simulation time: 00 hr 51 min 00 sec)
Heartbeat CPU 0 instructions: 470000004 cycles: 246533121 heartbeat IPC: 1.379 cumulative IPC: 1.798 (Simulation time: 00 hr 52 min 31 sec)
Heartbeat CPU 0 instructions: 480000000 cycles: 253772571 heartbeat IPC: 1.381 cumulative IPC: 1.785 (Simulation time: 00 hr 54 min 05 sec)
Heartbeat CPU 0 instructions: 490000001 cycles: 261024810 heartbeat IPC: 1.379 cumulative IPC: 1.773 (Simulation time: 00 hr 55 min 40 sec)
Heartbeat CPU 0 instructions: 500000001 cycles: 268307975 heartbeat IPC: 1.373 cumulative IPC: 1.762 (Simulation time: 00 hr 57 min 15 sec)
Heartbeat CPU 0 instructions: 510000002 cycles: 275594413 heartbeat IPC: 1.372 cumulative IPC: 1.751 (Simulation time: 00 hr 58 min 46 sec)
Heartbeat CPU 0 instructions: 520000000 cycles: 334537965 heartbeat IPC: 0.1697 cumulative IPC: 1.461 (Simulation time: 01 hr 08 min 13 sec)
Heartbeat CPU 0 instructions: 530000001 cycles: 440921044 heartbeat IPC: 0.094 cumulative IPC: 1.121 (Simulation time: 01 hr 24 min 36 sec)
Heartbeat CPU 0 instructions: 540000002 cycles: 473109460 heartbeat IPC: 0.3107 cumulative IPC: 1.065 (Simulation time: 01 hr 29 min 43 sec)
Heartbeat CPU 0 instructions: 550000003 cycles: 508848365 heartbeat IPC: 0.2798 cumulative IPC: 1.008 (Simulation time: 01 hr 35 min 55 sec)
Heartbeat CPU 0 instructions: 560000001 cycles: 544717036 heartbeat IPC: 0.2788 cumulative IPC: 0.9589 (Simulation time: 01 hr 41 min 58 sec)
Heartbeat CPU 0 instructions: 570000000 cycles: 581137850 heartbeat IPC: 0.2746 cumulative IPC: 0.9151 (Simulation time: 01 hr 47 min 24 sec)
Heartbeat CPU 0 instructions: 580000003 cycles: 611668061 heartbeat IPC: 0.3275 cumulative IPC: 0.8851 (Simulation time: 01 hr 51 min 54 sec)
Heartbeat CPU 0 instructions: 590000001 cycles: 647874086 heartbeat IPC: 0.2762 cumulative IPC: 0.8504 (Simulation time: 01 hr 56 min 55 sec)
*** Reached end of trace: (0, "traces/bt.A.champsimtrace")
Heartbeat CPU 0 instructions: 600000002 cycles: 684003163 heartbeat IPC: 0.2768 cumulative IPC: 0.8195 (Simulation time: 02 hr 01 min 52 sec)
Heartbeat CPU 0 instructions: 610000004 cycles: 708690645 heartbeat IPC: 0.4051 cumulative IPC: 0.8048 (Simulation time: 02 hr 04 min 33 sec)
Heartbeat CPU 0 instructions: 620000000 cycles: 711190675 heartbeat IPC: 4 cumulative IPC: 0.8163 (Simulation time: 02 hr 05 min 19 sec)
Heartbeat CPU 0 instructions: 630000002 cycles: 713690706 heartbeat IPC: 4 cumulative IPC: 0.8276 (Simulation time: 02 hr 06 min 01 sec)
Heartbeat CPU 0 instructions: 640000001 cycles: 716190737 heartbeat IPC: 4 cumulative IPC: 0.8389 (Simulation time: 02 hr 06 min 43 sec)
Heartbeat CPU 0 instructions: 650000002 cycles: 718690847 heartbeat IPC: 4 cumulative IPC: 0.8501 (Simulation time: 02 hr 07 min 24 sec)
Simulation finished CPU 0 instructions: 600000002 cycles: 705809805 cumulative IPC: 0.8501 (Simulation time: 02 hr 07 min 24 sec)
Simulation complete CPU 0 instructions: 600000002 cycles: 705809805 cumulative IPC: 0.8501 (Simulation time: 02 hr 07 min 24 sec)

ChampSim completed all CPUs

=== Simulation ===
CPU 0 runs traces/bt.A.champsimtrace
Region of Interest Statistics

CPU 0 cumulative IPC: 0.8501 instructions: 600000002 cycles: 705809805
CPU 0 Branch Prediction Accuracy: 99.98% MPKI: 0.004168 Average ROB Occupancy at Mispredict: 112.1
Branch type MPKI
BRANCH_DIRECT_JUMP: 5e-06
BRANCH_INDIRECT: 7.83e-05
BRANCH_CONDITIONAL: 0.00402
BRANCH_DIRECT_CALL: 6.67e-06
BRANCH_INDIRECT_CALL: 3.67e-05
BRANCH_RETURN: 2.33e-05

LLC TOTAL        ACCESS:    5120976 HIT:     575692 MISS:    4545284
LLC LOAD         ACCESS:    2239978 HIT:     322925 MISS:    1917053
LLC RFO          ACCESS:     889446 HIT:      63668 MISS:     825778
LLC PREFETCH     ACCESS:          0 HIT:          0 MISS:          0
LLC WRITE        ACCESS:    1988176 HIT:     188969 MISS:    1799207
LLC TRANSLATION  ACCESS:       3376 HIT:        130 MISS:       3246
LLC PREFETCH REQUESTED:          0 ISSUED:          0 USEFUL:          0 USELESS:          0
LLC AVERAGE MISS LATENCY: 705.3 cycles
cpu0_DTLB TOTAL        ACCESS:  126983063 HIT:  126202781 MISS:     780282
cpu0_DTLB LOAD         ACCESS:  126983063 HIT:  126202781 MISS:     780282
cpu0_DTLB RFO          ACCESS:          0 HIT:          0 MISS:          0
cpu0_DTLB PREFETCH     ACCESS:          0 HIT:          0 MISS:          0
cpu0_DTLB WRITE        ACCESS:          0 HIT:          0 MISS:          0
cpu0_DTLB TRANSLATION  ACCESS:          0 HIT:          0 MISS:          0
cpu0_DTLB PREFETCH REQUESTED:          0 ISSUED:          0 USEFUL:          0 USELESS:          0
cpu0_DTLB AVERAGE MISS LATENCY: 16.14 cycles
cpu0_ITLB TOTAL        ACCESS:     172323 HIT:     172083 MISS:        240
cpu0_ITLB LOAD         ACCESS:     172323 HIT:     172083 MISS:        240
cpu0_ITLB RFO          ACCESS:          0 HIT:          0 MISS:          0
cpu0_ITLB PREFETCH     ACCESS:          0 HIT:          0 MISS:          0
cpu0_ITLB WRITE        ACCESS:          0 HIT:          0 MISS:          0
cpu0_ITLB TRANSLATION  ACCESS:          0 HIT:          0 MISS:          0
cpu0_ITLB PREFETCH REQUESTED:          0 ISSUED:          0 USEFUL:          0 USELESS:          0
cpu0_ITLB AVERAGE MISS LATENCY: 293.6 cycles
cpu0_L1D TOTAL        ACCESS:  194367591 HIT:  180300245 MISS:   14067346
cpu0_L1D LOAD         ACCESS:  159685363 HIT:  149695382 MISS:    9989981
cpu0_L1D RFO          ACCESS:          0 HIT:          0 MISS:          0
cpu0_L1D PREFETCH     ACCESS:          0 HIT:          0 MISS:          0
cpu0_L1D WRITE        ACCESS:   34635454 HIT:   30575158 MISS:    4060296
cpu0_L1D TRANSLATION  ACCESS:      46774 HIT:      29705 MISS:      17069
cpu0_L1D PREFETCH REQUESTED:          0 ISSUED:          0 USEFUL:          0 USELESS:          0
cpu0_L1D AVERAGE MISS LATENCY: 170.6 cycles
cpu0_L1I TOTAL        ACCESS:     205495 HIT:     202544 MISS:       2951
cpu0_L1I LOAD         ACCESS:     205495 HIT:     202544 MISS:       2951
cpu0_L1I RFO          ACCESS:          0 HIT:          0 MISS:          0
cpu0_L1I PREFETCH     ACCESS:          0 HIT:          0 MISS:          0
cpu0_L1I WRITE        ACCESS:          0 HIT:          0 MISS:          0
cpu0_L1I TRANSLATION  ACCESS:          0 HIT:          0 MISS:          0
cpu0_L1I PREFETCH REQUESTED:          0 ISSUED:          0 USEFUL:          0 USELESS:          0
cpu0_L1I AVERAGE MISS LATENCY: 510.6 cycles
cpu0_L2C TOTAL        ACCESS:    5271593 HIT:    2138334 MISS:    3133259
cpu0_L2C LOAD         ACCESS:    2365432 HIT:     125451 MISS:    2239981
cpu0_L2C RFO          ACCESS:     889975 HIT:        529 MISS:     889446
cpu0_L2C PREFETCH     ACCESS:          0 HIT:          0 MISS:          0
cpu0_L2C WRITE        ACCESS:    1999119 HIT:    1998663 MISS:        456
cpu0_L2C TRANSLATION  ACCESS:      17067 HIT:      13691 MISS:       3376
cpu0_L2C PREFETCH REQUESTED:          0 ISSUED:          0 USEFUL:          0 USELESS:          0
cpu0_L2C AVERAGE MISS LATENCY: 1044 cycles
cpu0_STLB TOTAL        ACCESS:     314955 HIT:     268203 MISS:      46752
cpu0_STLB LOAD         ACCESS:     314955 HIT:     268203 MISS:      46752
cpu0_STLB RFO          ACCESS:          0 HIT:          0 MISS:          0
cpu0_STLB PREFETCH     ACCESS:          0 HIT:          0 MISS:          0
cpu0_STLB WRITE        ACCESS:          0 HIT:          0 MISS:          0
cpu0_STLB TRANSLATION  ACCESS:          0 HIT:          0 MISS:          0
cpu0_STLB PREFETCH REQUESTED:          0 ISSUED:          0 USEFUL:          0 USELESS:          0
cpu0_STLB AVERAGE MISS LATENCY: 371 cycles

DRAM Statistics

Channel 0 RQ ROW_BUFFER_HIT:     749765
  ROW_BUFFER_MISS:    1993609
 AVG DBUS CONGESTED CYCLE: 3.97
WQ ROW_BUFFER_HIT: Channel 0 
  ROW_BUFFER_MISS:     587659
  FULL:    1227285
