WARNING: physical memory size is smaller than virtual memory size.

*** ChampSim Multicore Out-of-Order Simulator ***
Warmup Instructions: 50000000
Simulation Instructions: 600000000
Number of CPUs: 1
Page size: 4096

Off-chip DRAM Size: 4 GiB Channels: 1 Width: 64-bit Data Race: 3200 MT/s
Heartbeat CPU 0 instructions: 10000000 cycles: 2881042 heartbeat IPC: 3.471 cumulative IPC: 3.471 (Simulation time: 00 hr 00 min 31 sec)
Heartbeat CPU 0 instructions: 20000000 cycles: 5381042 heartbeat IPC: 4 cumulative IPC: 3.717 (Simulation time: 00 hr 01 min 06 sec)
Heartbeat CPU 0 instructions: 30000000 cycles: 7881042 heartbeat IPC: 4 cumulative IPC: 3.807 (Simulation time: 00 hr 01 min 45 sec)
Heartbeat CPU 0 instructions: 40000000 cycles: 10381042 heartbeat IPC: 4 cumulative IPC: 3.853 (Simulation time: 00 hr 02 min 21 sec)
Heartbeat CPU 0 instructions: 50000000 cycles: 12881042 heartbeat IPC: 4 cumulative IPC: 3.882 (Simulation time: 00 hr 02 min 59 sec)
Warmup finished CPU 0 instructions: 50000000 cycles: 12881043 cumulative IPC: 3.882 (Simulation time: 00 hr 02 min 59 sec)
Warmup complete CPU 0 instructions: 50000000 cycles: 12881043 cumulative IPC: 3.882 (Simulation time: 00 hr 02 min 59 sec)
Heartbeat CPU 0 instructions: 60000004 cycles: 15383651 heartbeat IPC: 3.996 cumulative IPC: 3.996 (Simulation time: 00 hr 03 min 41 sec)
Heartbeat CPU 0 instructions: 70000002 cycles: 17886014 heartbeat IPC: 3.996 cumulative IPC: 3.996 (Simulation time: 00 hr 04 min 25 sec)
Heartbeat CPU 0 instructions: 80000002 cycles: 20388879 heartbeat IPC: 3.995 cumulative IPC: 3.996 (Simulation time: 00 hr 05 min 08 sec)
Heartbeat CPU 0 instructions: 90000004 cycles: 22891823 heartbeat IPC: 3.995 cumulative IPC: 3.996 (Simulation time: 00 hr 05 min 53 sec)
Heartbeat CPU 0 instructions: 100000000 cycles: 25395154 heartbeat IPC: 3.995 cumulative IPC: 3.995 (Simulation time: 00 hr 06 min 36 sec)
Heartbeat CPU 0 instructions: 110000002 cycles: 27897560 heartbeat IPC: 3.996 cumulative IPC: 3.996 (Simulation time: 00 hr 07 min 21 sec)
Heartbeat CPU 0 instructions: 120000000 cycles: 30399957 heartbeat IPC: 3.996 cumulative IPC: 3.996 (Simulation time: 00 hr 08 min 05 sec)
Heartbeat CPU 0 instructions: 130000002 cycles: 32902703 heartbeat IPC: 3.996 cumulative IPC: 3.996 (Simulation time: 00 hr 08 min 48 sec)
Heartbeat CPU 0 instructions: 140000004 cycles: 35405112 heartbeat IPC: 3.996 cumulative IPC: 3.996 (Simulation time: 00 hr 09 min 31 sec)
Heartbeat CPU 0 instructions: 150000000 cycles: 37907474 heartbeat IPC: 3.996 cumulative IPC: 3.996 (Simulation time: 00 hr 10 min 12 sec)
Heartbeat CPU 0 instructions: 160000003 cycles: 40409881 heartbeat IPC: 3.996 cumulative IPC: 3.996 (Simulation time: 00 hr 10 min 51 sec)
Heartbeat CPU 0 instructions: 170000002 cycles: 42912345 heartbeat IPC: 3.996 cumulative IPC: 3.996 (Simulation time: 00 hr 11 min 31 sec)
Heartbeat CPU 0 instructions: 180000000 cycles: 45414707 heartbeat IPC: 3.996 cumulative IPC: 3.996 (Simulation time: 00 hr 12 min 10 sec)
Heartbeat CPU 0 instructions: 190000003 cycles: 47917061 heartbeat IPC: 3.996 cumulative IPC: 3.996 (Simulation time: 00 hr 12 min 48 sec)
Heartbeat CPU 0 instructions: 200000000 cycles: 50419513 heartbeat IPC: 3.996 cumulative IPC: 3.996 (Simulation time: 00 hr 13 min 27 sec)
Heartbeat CPU 0 instructions: 210000000 cycles: 52922021 heartbeat IPC: 3.996 cumulative IPC: 3.996 (Simulation time: 00 hr 14 min 04 sec)
Heartbeat CPU 0 instructions: 220000003 cycles: 55424475 heartbeat IPC: 3.996 cumulative IPC: 3.996 (Simulation time: 00 hr 14 min 42 sec)
Heartbeat CPU 0 instructions: 230000001 cycles: 91189946 heartbeat IPC: 0.2796 cumulative IPC: 2.299 (Simulation time: 00 hr 18 min 31 sec)
Heartbeat CPU 0 instructions: 240000002 cycles: 95548567 heartbeat IPC: 2.294 cumulative IPC: 2.298 (Simulation time: 00 hr 19 min 29 sec)
Heartbeat CPU 0 instructions: 250000000 cycles: 99914754 heartbeat IPC: 2.29 cumulative IPC: 2.298 (Simulation time: 00 hr 20 min 31 sec)
Heartbeat CPU 0 instructions: 260000004 cycles: 104316389 heartbeat IPC: 2.272 cumulative IPC: 2.297 (Simulation time: 00 hr 21 min 34 sec)
Heartbeat CPU 0 instructions: 270000003 cycles: 108697052 heartbeat IPC: 2.283 cumulative IPC: 2.296 (Simulation time: 00 hr 22 min 35 sec)
Heartbeat CPU 0 instructions: 280000001 cycles: 113044139 heartbeat IPC: 2.3 cumulative IPC: 2.296 (Simulation time: 00 hr 23 min 34 sec)
Heartbeat CPU 0 instructions: 290000000 cycles: 117424995 heartbeat IPC: 2.283 cumulative IPC: 2.296 (Simulation time: 00 hr 24 min 33 sec)
Heartbeat CPU 0 instructions: 300000003 cycles: 121752937 heartbeat IPC: 2.311 cumulative IPC: 2.296 (Simulation time: 00 hr 25 min 29 sec)
Heartbeat CPU 0 instructions: 310000002 cycles: 126106587 heartbeat IPC: 2.297 cumulative IPC: 2.296 (Simulation time: 00 hr 26 min 24 sec)
Heartbeat CPU 0 instructions: 320000004 cycles: 130453033 heartbeat IPC: 2.301 cumulative IPC: 2.296 (Simulation time: 00 hr 27 min 18 sec)
Heartbeat CPU 0 instructions: 330000002 cycles: 134182562 heartbeat IPC: 2.681 cumulative IPC: 2.308 (Simulation time: 00 hr 28 min 06 sec)
Heartbeat CPU 0 instructions: 340000002 cycles: 137618655 heartbeat IPC: 2.91 cumulative IPC: 2.325 (Simulation time: 00 hr 28 min 51 sec)
Heartbeat CPU 0 instructions: 350000002 cycles: 141008098 heartbeat IPC: 2.95 cumulative IPC: 2.341 (Simulation time: 00 hr 29 min 36 sec)
Heartbeat CPU 0 instructions: 360000000 cycles: 144533929 heartbeat IPC: 2.836 cumulative IPC: 2.355 (Simulation time: 00 hr 30 min 20 sec)
Heartbeat CPU 0 instructions: 370000001 cycles: 147773446 heartbeat IPC: 3.087 cumulative IPC: 2.372 (Simulation time: 00 hr 31 min 03 sec)
Heartbeat CPU 0 instructions: 380000003 cycles: 151271120 heartbeat IPC: 2.859 cumulative IPC: 2.385 (Simulation time: 00 hr 31 min 47 sec)
Heartbeat CPU 0 instructions: 390000002 cycles: 154414396 heartbeat IPC: 3.181 cumulative IPC: 2.402 (Simulation time: 00 hr 32 min 29 sec)
Heartbeat CPU 0 instructions: 400000000 cycles: 157936262 heartbeat IPC: 2.839 cumulative IPC: 2.413 (Simulation time: 00 hr 33 min 14 sec)
Heartbeat CPU 0 instructions: 410000002 cycles: 161279270 heartbeat IPC: 2.991 cumulative IPC: 2.426 (Simulation time: 00 hr 33 min 57 sec)
Heartbeat CPU 0 instructions: 420000000 cycles: 164867734 heartbeat IPC: 2.787 cumulative IPC: 2.434 (Simulation time: 00 hr 34 min 42 sec)
Heartbeat CPU 0 instructions: 430000002 cycles: 167819968 heartbeat IPC: 3.387 cumulative IPC: 2.453 (Simulation time: 00 hr 35 min 22 sec)
Heartbeat CPU 0 instructions: 440000002 cycles: 170981273 heartbeat IPC: 3.163 cumulative IPC: 2.467 (Simulation time: 00 hr 36 min 04 sec)
Heartbeat CPU 0 instructions: 450000000 cycles: 174367192 heartbeat IPC: 2.953 cumulative IPC: 2.477 (Simulation time: 00 hr 36 min 48 sec)
Heartbeat CPU 0 instructions: 460000003 cycles: 177715734 heartbeat IPC: 2.986 cumulative IPC: 2.487 (Simulation time: 00 hr 37 min 33 sec)
Heartbeat CPU 0 instructions: 470000004 cycles: 181213947 heartbeat IPC: 2.859 cumulative IPC: 2.495 (Simulation time: 00 hr 38 min 19 sec)
Heartbeat CPU 0 instructions: 480000000 cycles: 184517138 heartbeat IPC: 3.027 cumulative IPC: 2.505 (Simulation time: 00 hr 39 min 08 sec)
Heartbeat CPU 0 instructions: 490000001 cycles: 187989559 heartbeat IPC: 2.88 cumulative IPC: 2.513 (Simulation time: 00 hr 39 min 57 sec)
Heartbeat CPU 0 instructions: 500000000 cycles: 191494979 heartbeat IPC: 2.853 cumulative IPC: 2.519 (Simulation time: 00 hr 40 min 47 sec)
Heartbeat CPU 0 instructions: 510000002 cycles: 195116768 heartbeat IPC: 2.761 cumulative IPC: 2.524 (Simulation time: 00 hr 41 min 47 sec)
Heartbeat CPU 0 instructions: 520000004 cycles: 263461796 heartbeat IPC: 0.1463 cumulative IPC: 1.876 (Simulation time: 00 hr 51 min 51 sec)
Heartbeat CPU 0 instructions: 530000001 cycles: 390287224 heartbeat IPC: 0.07885 cumulative IPC: 1.272 (Simulation time: 01 hr 10 min 30 sec)
Heartbeat CPU 0 instructions: 540000001 cycles: 419460967 heartbeat IPC: 0.3428 cumulative IPC: 1.205 (Simulation time: 01 hr 15 min 10 sec)
Heartbeat CPU 0 instructions: 550000003 cycles: 448922781 heartbeat IPC: 0.3394 cumulative IPC: 1.147 (Simulation time: 01 hr 20 min 13 sec)
Heartbeat CPU 0 instructions: 560000001 cycles: 478486687 heartbeat IPC: 0.3383 cumulative IPC: 1.095 (Simulation time: 01 hr 25 min 00 sec)
Heartbeat CPU 0 instructions: 570000001 cycles: 507916946 heartbeat IPC: 0.3398 cumulative IPC: 1.05 (Simulation time: 01 hr 29 min 30 sec)
Heartbeat CPU 0 instructions: 580000002 cycles: 538616780 heartbeat IPC: 0.3257 cumulative IPC: 1.008 (Simulation time: 01 hr 34 min 51 sec)
Heartbeat CPU 0 instructions: 590000001 cycles: 569430319 heartbeat IPC: 0.3245 cumulative IPC: 0.9703 (Simulation time: 01 hr 40 min 00 sec)
*** Reached end of trace: (0, "traces/bt.A.champsimtrace")
Heartbeat CPU 0 instructions: 600000001 cycles: 599991313 heartbeat IPC: 0.3272 cumulative IPC: 0.9368 (Simulation time: 01 hr 44 min 31 sec)
Heartbeat CPU 0 instructions: 610000004 cycles: 628425753 heartbeat IPC: 0.3517 cumulative IPC: 0.9098 (Simulation time: 01 hr 47 min 39 sec)
Heartbeat CPU 0 instructions: 620000000 cycles: 630928173 heartbeat IPC: 3.996 cumulative IPC: 0.9223 (Simulation time: 01 hr 48 min 21 sec)
Heartbeat CPU 0 instructions: 630000002 cycles: 633430581 heartbeat IPC: 3.996 cumulative IPC: 0.9347 (Simulation time: 01 hr 48 min 59 sec)
Heartbeat CPU 0 instructions: 640000000 cycles: 635932999 heartbeat IPC: 3.996 cumulative IPC: 0.947 (Simulation time: 01 hr 49 min 38 sec)
Heartbeat CPU 0 instructions: 650000002 cycles: 638435396 heartbeat IPC: 3.996 cumulative IPC: 0.9591 (Simulation time: 01 hr 50 min 16 sec)
Simulation finished CPU 0 instructions: 600000002 cycles: 625554354 cumulative IPC: 0.9591 (Simulation time: 01 hr 50 min 16 sec)
Simulation complete CPU 0 instructions: 600000002 cycles: 625554354 cumulative IPC: 0.9591 (Simulation time: 01 hr 50 min 16 sec)

ChampSim completed all CPUs

=== Simulation ===
CPU 0 runs traces/bt.A.champsimtrace
Region of Interest Statistics

CPU 0 cumulative IPC: 0.9591 instructions: 600000002 cycles: 625554354
CPU 0 Branch Prediction Accuracy: 99.29% MPKI: 0.1288 Average ROB Occupancy at Mispredict: 279.8
Branch type MPKI
BRANCH_DIRECT_JUMP: 5e-06
BRANCH_INDIRECT: 7.83e-05
BRANCH_CONDITIONAL: 0.129
BRANCH_DIRECT_CALL: 6.67e-06
BRANCH_INDIRECT_CALL: 3.67e-05
BRANCH_RETURN: 2.33e-05

LLC TOTAL        ACCESS:    7361896 HIT:    3565649 MISS:    3796247
LLC LOAD         ACCESS:    2240271 HIT:    1116018 MISS:    1124253
LLC RFO          ACCESS:     889446 HIT:       6961 MISS:     882485
LLC PREFETCH     ACCESS:    2240271 HIT:     474102 MISS:    1766169
LLC WRITE        ACCESS:    1988536 HIT:    1967123 MISS:      21413
LLC TRANSLATION  ACCESS:       3372 HIT:       1445 MISS:       1927
LLC PREFETCH REQUESTED:    2240271 ISSUED:    2240271 USEFUL:    1472449 USELESS:      26355
LLC AVERAGE MISS LATENCY: 1156 cycles
cpu0_DTLB TOTAL        ACCESS:  128566752 HIT:  127809124 MISS:     757628
cpu0_DTLB LOAD         ACCESS:  128566752 HIT:  127809124 MISS:     757628
cpu0_DTLB RFO          ACCESS:          0 HIT:          0 MISS:          0
cpu0_DTLB PREFETCH     ACCESS:          0 HIT:          0 MISS:          0
cpu0_DTLB WRITE        ACCESS:          0 HIT:          0 MISS:          0
cpu0_DTLB TRANSLATION  ACCESS:          0 HIT:          0 MISS:          0
cpu0_DTLB PREFETCH REQUESTED:          0 ISSUED:          0 USEFUL:          0 USELESS:          0
cpu0_DTLB AVERAGE MISS LATENCY: 15.48 cycles
cpu0_ITLB TOTAL        ACCESS:     141634 HIT:     141384 MISS:        250
cpu0_ITLB LOAD         ACCESS:     141634 HIT:     141384 MISS:        250
cpu0_ITLB RFO          ACCESS:          0 HIT:          0 MISS:          0
cpu0_ITLB PREFETCH     ACCESS:          0 HIT:          0 MISS:          0
cpu0_ITLB WRITE        ACCESS:          0 HIT:          0 MISS:          0
cpu0_ITLB TRANSLATION  ACCESS:          0 HIT:          0 MISS:          0
cpu0_ITLB PREFETCH REQUESTED:          0 ISSUED:          0 USEFUL:          0 USELESS:          0
cpu0_ITLB AVERAGE MISS LATENCY: 335.2 cycles
cpu0_L1D TOTAL        ACCESS:  196772807 HIT:  183231867 MISS:   13540940
cpu0_L1D LOAD         ACCESS:  162090531 HIT:  152693703 MISS:    9396828
cpu0_L1D RFO          ACCESS:          0 HIT:          0 MISS:          0
cpu0_L1D PREFETCH     ACCESS:          0 HIT:          0 MISS:          0
cpu0_L1D WRITE        ACCESS:   34635501 HIT:   30508498 MISS:    4127003
cpu0_L1D TRANSLATION  ACCESS:      46775 HIT:      29666 MISS:      17109
cpu0_L1D PREFETCH REQUESTED:          0 ISSUED:          0 USEFUL:          0 USELESS:          0
cpu0_L1D AVERAGE MISS LATENCY: 165.7 cycles
cpu0_L1I TOTAL        ACCESS:     191014 HIT:     188281 MISS:       2733
cpu0_L1I LOAD         ACCESS:     191014 HIT:     188281 MISS:       2733
cpu0_L1I RFO          ACCESS:          0 HIT:          0 MISS:          0
cpu0_L1I PREFETCH     ACCESS:          0 HIT:          0 MISS:          0
cpu0_L1I WRITE        ACCESS:          0 HIT:          0 MISS:          0
cpu0_L1I TRANSLATION  ACCESS:          0 HIT:          0 MISS:          0
cpu0_L1I PREFETCH REQUESTED:          0 ISSUED:          0 USEFUL:          0 USELESS:          0
cpu0_L1I AVERAGE MISS LATENCY: 496.4 cycles
cpu0_L2C TOTAL        ACCESS:    5265860 HIT:    2132278 MISS:    3133582
cpu0_L2C LOAD         ACCESS:    2359730 HIT:     119422 MISS:    2240308
cpu0_L2C RFO          ACCESS:     889973 HIT:        527 MISS:     889446
cpu0_L2C PREFETCH     ACCESS:          0 HIT:          0 MISS:          0
cpu0_L2C WRITE        ACCESS:    1999053 HIT:    1998597 MISS:        456
cpu0_L2C TRANSLATION  ACCESS:      17104 HIT:      13732 MISS:       3372
cpu0_L2C PREFETCH REQUESTED:          0 ISSUED:          0 USEFUL:          0 USELESS:          0
cpu0_L2C AVERAGE MISS LATENCY: 934.6 cycles
cpu0_STLB TOTAL        ACCESS:     311377 HIT:     264625 MISS:      46752
cpu0_STLB LOAD         ACCESS:     311377 HIT:     264625 MISS:      46752
cpu0_STLB RFO          ACCESS:          0 HIT:          0 MISS:          0
cpu0_STLB PREFETCH     ACCESS:          0 HIT:          0 MISS:          0
cpu0_STLB WRITE        ACCESS:          0 HIT:          0 MISS:          0
cpu0_STLB TRANSLATION  ACCESS:          0 HIT:          0 MISS:          0
cpu0_STLB PREFETCH REQUESTED:          0 ISSUED:          0 USEFUL:          0 USELESS:          0
cpu0_STLB AVERAGE MISS LATENCY: 333.2 cycles

DRAM Statistics

Channel 0 RQ ROW_BUFFER_HIT:     732190
  ROW_BUFFER_MISS:    1950349
 AVG DBUS CONGESTED CYCLE: 3.98
WQ ROW_BUFFER_HIT: Channel 0 
  ROW_BUFFER_MISS:     269902
  FULL:    1465932
