WARNING: physical memory size is smaller than virtual memory size.

*** ChampSim Multicore Out-of-Order Simulator ***
Warmup Instructions: 50000000
Simulation Instructions: 600000000
Number of CPUs: 1
Page size: 4096

Off-chip DRAM Size: 4 GiB Channels: 1 Width: 64-bit Data Race: 3200 MT/s
Heartbeat CPU 0 instructions: 10000000 cycles: 2881042 heartbeat IPC: 3.471 cumulative IPC: 3.471 (Simulation time: 00 hr 00 min 55 sec)
Heartbeat CPU 0 instructions: 20000000 cycles: 5381042 heartbeat IPC: 4 cumulative IPC: 3.717 (Simulation time: 00 hr 01 min 40 sec)
Heartbeat CPU 0 instructions: 30000000 cycles: 7881042 heartbeat IPC: 4 cumulative IPC: 3.807 (Simulation time: 00 hr 02 min 25 sec)
Heartbeat CPU 0 instructions: 40000000 cycles: 10381042 heartbeat IPC: 4 cumulative IPC: 3.853 (Simulation time: 00 hr 03 min 08 sec)
Heartbeat CPU 0 instructions: 50000000 cycles: 12881042 heartbeat IPC: 4 cumulative IPC: 3.882 (Simulation time: 00 hr 03 min 51 sec)
Warmup finished CPU 0 instructions: 50000000 cycles: 12881043 cumulative IPC: 3.882 (Simulation time: 00 hr 03 min 51 sec)
Warmup complete CPU 0 instructions: 50000000 cycles: 12881043 cumulative IPC: 3.882 (Simulation time: 00 hr 03 min 51 sec)
Heartbeat CPU 0 instructions: 60000004 cycles: 15383364 heartbeat IPC: 3.996 cumulative IPC: 3.996 (Simulation time: 00 hr 04 min 42 sec)
Heartbeat CPU 0 instructions: 70000002 cycles: 17885682 heartbeat IPC: 3.996 cumulative IPC: 3.996 (Simulation time: 00 hr 05 min 36 sec)
Heartbeat CPU 0 instructions: 80000002 cycles: 20388169 heartbeat IPC: 3.996 cumulative IPC: 3.996 (Simulation time: 00 hr 06 min 28 sec)
Heartbeat CPU 0 instructions: 90000004 cycles: 22890945 heartbeat IPC: 3.996 cumulative IPC: 3.996 (Simulation time: 00 hr 07 min 19 sec)
Heartbeat CPU 0 instructions: 100000000 cycles: 25393502 heartbeat IPC: 3.996 cumulative IPC: 3.996 (Simulation time: 00 hr 08 min 10 sec)
Heartbeat CPU 0 instructions: 110000002 cycles: 27895976 heartbeat IPC: 3.996 cumulative IPC: 3.996 (Simulation time: 00 hr 09 min 01 sec)
Heartbeat CPU 0 instructions: 120000000 cycles: 30400057 heartbeat IPC: 3.993 cumulative IPC: 3.996 (Simulation time: 00 hr 09 min 56 sec)
Heartbeat CPU 0 instructions: 130000002 cycles: 32902827 heartbeat IPC: 3.996 cumulative IPC: 3.996 (Simulation time: 00 hr 10 min 57 sec)
Heartbeat CPU 0 instructions: 140000004 cycles: 35406855 heartbeat IPC: 3.994 cumulative IPC: 3.995 (Simulation time: 00 hr 11 min 56 sec)
Heartbeat CPU 0 instructions: 150000000 cycles: 37909217 heartbeat IPC: 3.996 cumulative IPC: 3.995 (Simulation time: 00 hr 12 min 52 sec)
Heartbeat CPU 0 instructions: 160000003 cycles: 40411747 heartbeat IPC: 3.996 cumulative IPC: 3.996 (Simulation time: 00 hr 13 min 48 sec)
Heartbeat CPU 0 instructions: 170000002 cycles: 42914848 heartbeat IPC: 3.995 cumulative IPC: 3.995 (Simulation time: 00 hr 14 min 40 sec)
Heartbeat CPU 0 instructions: 180000000 cycles: 45417211 heartbeat IPC: 3.996 cumulative IPC: 3.996 (Simulation time: 00 hr 15 min 34 sec)
Heartbeat CPU 0 instructions: 190000003 cycles: 47919879 heartbeat IPC: 3.996 cumulative IPC: 3.996 (Simulation time: 00 hr 16 min 31 sec)
Heartbeat CPU 0 instructions: 200000000 cycles: 50422428 heartbeat IPC: 3.996 cumulative IPC: 3.996 (Simulation time: 00 hr 17 min 28 sec)
Heartbeat CPU 0 instructions: 210000000 cycles: 52925050 heartbeat IPC: 3.996 cumulative IPC: 3.996 (Simulation time: 00 hr 18 min 23 sec)
Heartbeat CPU 0 instructions: 220000003 cycles: 55427414 heartbeat IPC: 3.996 cumulative IPC: 3.996 (Simulation time: 00 hr 19 min 16 sec)
Heartbeat CPU 0 instructions: 230000001 cycles: 88163765 heartbeat IPC: 0.3055 cumulative IPC: 2.391 (Simulation time: 00 hr 23 min 16 sec)
Heartbeat CPU 0 instructions: 240000002 cycles: 94354538 heartbeat IPC: 1.615 cumulative IPC: 2.332 (Simulation time: 00 hr 24 min 26 sec)
Heartbeat CPU 0 instructions: 250000000 cycles: 100524084 heartbeat IPC: 1.621 cumulative IPC: 2.282 (Simulation time: 00 hr 25 min 31 sec)
Heartbeat CPU 0 instructions: 260000004 cycles: 106432488 heartbeat IPC: 1.693 cumulative IPC: 2.245 (Simulation time: 00 hr 26 min 50 sec)
Heartbeat CPU 0 instructions: 270000003 cycles: 112415045 heartbeat IPC: 1.672 cumulative IPC: 2.21 (Simulation time: 00 hr 28 min 24 sec)
Heartbeat CPU 0 instructions: 280000001 cycles: 118502280 heartbeat IPC: 1.643 cumulative IPC: 2.178 (Simulation time: 00 hr 29 min 50 sec)
Heartbeat CPU 0 instructions: 290000000 cycles: 124897043 heartbeat IPC: 1.564 cumulative IPC: 2.143 (Simulation time: 00 hr 31 min 23 sec)
Heartbeat CPU 0 instructions: 300000003 cycles: 131548749 heartbeat IPC: 1.503 cumulative IPC: 2.107 (Simulation time: 00 hr 32 min 56 sec)
Heartbeat CPU 0 instructions: 310000001 cycles: 137521485 heartbeat IPC: 1.674 cumulative IPC: 2.086 (Simulation time: 00 hr 34 min 21 sec)
Heartbeat CPU 0 instructions: 320000003 cycles: 142920873 heartbeat IPC: 1.852 cumulative IPC: 2.076 (Simulation time: 00 hr 35 min 43 sec)
Heartbeat CPU 0 instructions: 330000002 cycles: 145478283 heartbeat IPC: 3.91 cumulative IPC: 2.112 (Simulation time: 00 hr 36 min 38 sec)
Heartbeat CPU 0 instructions: 340000002 cycles: 148060246 heartbeat IPC: 3.873 cumulative IPC: 2.145 (Simulation time: 00 hr 37 min 32 sec)
Heartbeat CPU 0 instructions: 350000002 cycles: 152645792 heartbeat IPC: 2.181 cumulative IPC: 2.146 (Simulation time: 00 hr 38 min 48 sec)
Heartbeat CPU 0 instructions: 360000000 cycles: 159355640 heartbeat IPC: 1.49 cumulative IPC: 2.116 (Simulation time: 00 hr 40 min 24 sec)
Heartbeat CPU 0 instructions: 370000001 cycles: 166198396 heartbeat IPC: 1.461 cumulative IPC: 2.087 (Simulation time: 00 hr 42 min 01 sec)
Heartbeat CPU 0 instructions: 380000003 cycles: 172218782 heartbeat IPC: 1.661 cumulative IPC: 2.071 (Simulation time: 00 hr 44 min 22 sec)
Heartbeat CPU 0 instructions: 390000002 cycles: 176912258 heartbeat IPC: 2.131 cumulative IPC: 2.073 (Simulation time: 00 hr 46 min 16 sec)
Heartbeat CPU 0 instructions: 400000000 cycles: 182731697 heartbeat IPC: 1.718 cumulative IPC: 2.061 (Simulation time: 00 hr 48 min 31 sec)
Heartbeat CPU 0 instructions: 410000003 cycles: 189353020 heartbeat IPC: 1.51 cumulative IPC: 2.04 (Simulation time: 00 hr 50 min 40 sec)
Heartbeat CPU 0 instructions: 420000000 cycles: 193688391 heartbeat IPC: 2.307 cumulative IPC: 2.046 (Simulation time: 00 hr 51 min 40 sec)
Heartbeat CPU 0 instructions: 430000001 cycles: 198485944 heartbeat IPC: 2.084 cumulative IPC: 2.047 (Simulation time: 00 hr 52 min 43 sec)
Heartbeat CPU 0 instructions: 440000002 cycles: 203339751 heartbeat IPC: 2.06 cumulative IPC: 2.048 (Simulation time: 00 hr 53 min 48 sec)
Heartbeat CPU 0 instructions: 450000000 cycles: 208178527 heartbeat IPC: 2.067 cumulative IPC: 2.048 (Simulation time: 00 hr 54 min 51 sec)
Heartbeat CPU 0 instructions: 460000003 cycles: 212986844 heartbeat IPC: 2.08 cumulative IPC: 2.049 (Simulation time: 00 hr 55 min 55 sec)
Heartbeat CPU 0 instructions: 470000004 cycles: 217875709 heartbeat IPC: 2.045 cumulative IPC: 2.049 (Simulation time: 00 hr 57 min 07 sec)
Heartbeat CPU 0 instructions: 480000000 cycles: 222688047 heartbeat IPC: 2.078 cumulative IPC: 2.05 (Simulation time: 00 hr 58 min 16 sec)
Heartbeat CPU 0 instructions: 490000001 cycles: 227478419 heartbeat IPC: 2.088 cumulative IPC: 2.05 (Simulation time: 00 hr 59 min 27 sec)
Heartbeat CPU 0 instructions: 500000001 cycles: 232339109 heartbeat IPC: 2.057 cumulative IPC: 2.051 (Simulation time: 01 hr 00 min 56 sec)
Heartbeat CPU 0 instructions: 510000002 cycles: 237154335 heartbeat IPC: 2.077 cumulative IPC: 2.051 (Simulation time: 01 hr 02 min 33 sec)
Heartbeat CPU 0 instructions: 520000001 cycles: 292045882 heartbeat IPC: 0.1822 cumulative IPC: 1.684 (Simulation time: 01 hr 16 min 33 sec)
Heartbeat CPU 0 instructions: 530000001 cycles: 413757201 heartbeat IPC: 0.08216 cumulative IPC: 1.197 (Simulation time: 01 hr 44 min 51 sec)
Heartbeat CPU 0 instructions: 540000002 cycles: 443661291 heartbeat IPC: 0.3344 cumulative IPC: 1.137 (Simulation time: 01 hr 52 min 02 sec)
Heartbeat CPU 0 instructions: 550000003 cycles: 472609323 heartbeat IPC: 0.3454 cumulative IPC: 1.088 (Simulation time: 01 hr 58 min 57 sec)
Heartbeat CPU 0 instructions: 560000001 cycles: 501163832 heartbeat IPC: 0.3502 cumulative IPC: 1.044 (Simulation time: 02 hr 05 min 13 sec)
Heartbeat CPU 0 instructions: 570000000 cycles: 530273673 heartbeat IPC: 0.3435 cumulative IPC: 1.005 (Simulation time: 02 hr 11 min 35 sec)
Heartbeat CPU 0 instructions: 580000002 cycles: 552855288 heartbeat IPC: 0.4428 cumulative IPC: 0.9815 (Simulation time: 02 hr 16 min 52 sec)
Heartbeat CPU 0 instructions: 590000001 cycles: 581861570 heartbeat IPC: 0.3448 cumulative IPC: 0.9491 (Simulation time: 02 hr 23 min 30 sec)
*** Reached end of trace: (0, "traces/bt.A.champsimtrace")
Heartbeat CPU 0 instructions: 600000002 cycles: 610506123 heartbeat IPC: 0.3491 cumulative IPC: 0.9203 (Simulation time: 02 hr 30 min 00 sec)
Heartbeat CPU 0 instructions: 610000004 cycles: 638262385 heartbeat IPC: 0.3603 cumulative IPC: 0.8955 (Simulation time: 02 hr 34 min 38 sec)
Heartbeat CPU 0 instructions: 620000000 cycles: 640764805 heartbeat IPC: 3.996 cumulative IPC: 0.9078 (Simulation time: 02 hr 35 min 40 sec)
Heartbeat CPU 0 instructions: 630000002 cycles: 643267213 heartbeat IPC: 3.996 cumulative IPC: 0.9201 (Simulation time: 02 hr 36 min 46 sec)
Heartbeat CPU 0 instructions: 640000000 cycles: 645769621 heartbeat IPC: 3.996 cumulative IPC: 0.9322 (Simulation time: 02 hr 37 min 43 sec)
Heartbeat CPU 0 instructions: 650000002 cycles: 648272129 heartbeat IPC: 3.996 cumulative IPC: 0.9443 (Simulation time: 02 hr 38 min 40 sec)
Simulation finished CPU 0 instructions: 600000002 cycles: 635391087 cumulative IPC: 0.9443 (Simulation time: 02 hr 38 min 40 sec)
Simulation complete CPU 0 instructions: 600000002 cycles: 635391087 cumulative IPC: 0.9443 (Simulation time: 02 hr 38 min 40 sec)

ChampSim completed all CPUs

=== Simulation ===
CPU 0 runs traces/bt.A.champsimtrace
Region of Interest Statistics

CPU 0 cumulative IPC: 0.9443 instructions: 600000002 cycles: 635391087
CPU 0 Branch Prediction Accuracy: 99.29% MPKI: 0.1296 Average ROB Occupancy at Mispredict: 279.4
Branch type MPKI
BRANCH_DIRECT_JUMP: 5e-06
BRANCH_INDIRECT: 7.83e-05
BRANCH_CONDITIONAL: 0.129
BRANCH_DIRECT_CALL: 6.67e-06
BRANCH_INDIRECT_CALL: 3.67e-05
BRANCH_RETURN: 2.33e-05

LLC TOTAL        ACCESS:    5121818 HIT:    2123722 MISS:    2998096
LLC LOAD         ACCESS:    2240394 HIT:     685967 MISS:    1554427
LLC RFO          ACCESS:     889449 HIT:      62073 MISS:     827376
LLC PREFETCH     ACCESS:          0 HIT:          0 MISS:          0
LLC WRITE        ACCESS:    1988599 HIT:    1374607 MISS:     613992
LLC TRANSLATION  ACCESS:       3376 HIT:       1075 MISS:       2301
LLC PREFETCH REQUESTED:          0 ISSUED:          0 USEFUL:          0 USELESS:          0
LLC AVERAGE MISS LATENCY: 991.1 cycles
cpu0_DTLB TOTAL        ACCESS:  127044987 HIT:  126278164 MISS:     766823
cpu0_DTLB LOAD         ACCESS:  127044987 HIT:  126278164 MISS:     766823
cpu0_DTLB RFO          ACCESS:          0 HIT:          0 MISS:          0
cpu0_DTLB PREFETCH     ACCESS:          0 HIT:          0 MISS:          0
cpu0_DTLB WRITE        ACCESS:          0 HIT:          0 MISS:          0
cpu0_DTLB TRANSLATION  ACCESS:          0 HIT:          0 MISS:          0
cpu0_DTLB PREFETCH REQUESTED:          0 ISSUED:          0 USEFUL:          0 USELESS:          0
cpu0_DTLB AVERAGE MISS LATENCY: 14.11 cycles
cpu0_ITLB TOTAL        ACCESS:     144041 HIT:     143796 MISS:        245
cpu0_ITLB LOAD         ACCESS:     144041 HIT:     143796 MISS:        245
cpu0_ITLB RFO          ACCESS:          0 HIT:          0 MISS:          0
cpu0_ITLB PREFETCH     ACCESS:          0 HIT:          0 MISS:          0
cpu0_ITLB WRITE        ACCESS:          0 HIT:          0 MISS:          0
cpu0_ITLB TRANSLATION  ACCESS:          0 HIT:          0 MISS:          0
cpu0_ITLB PREFETCH REQUESTED:          0 ISSUED:          0 USEFUL:          0 USELESS:          0
cpu0_ITLB AVERAGE MISS LATENCY: 294 cycles
cpu0_L1D TOTAL        ACCESS:  194425989 HIT:  180566913 MISS:   13859076
cpu0_L1D LOAD         ACCESS:  159743745 HIT:  149905107 MISS:    9838638
cpu0_L1D RFO          ACCESS:          0 HIT:          0 MISS:          0
cpu0_L1D PREFETCH     ACCESS:          0 HIT:          0 MISS:          0
cpu0_L1D WRITE        ACCESS:   34635468 HIT:   30632129 MISS:    4003339
cpu0_L1D TRANSLATION  ACCESS:      46776 HIT:      29677 MISS:      17099
cpu0_L1D PREFETCH REQUESTED:          0 ISSUED:          0 USEFUL:          0 USELESS:          0
cpu0_L1D AVERAGE MISS LATENCY: 158.8 cycles
cpu0_L1I TOTAL        ACCESS:     193116 HIT:     190328 MISS:       2788
cpu0_L1I LOAD         ACCESS:     193116 HIT:     190328 MISS:       2788
cpu0_L1I RFO          ACCESS:          0 HIT:          0 MISS:          0
cpu0_L1I PREFETCH     ACCESS:          0 HIT:          0 MISS:          0
cpu0_L1I WRITE        ACCESS:          0 HIT:          0 MISS:          0
cpu0_L1I TRANSLATION  ACCESS:          0 HIT:          0 MISS:          0
cpu0_L1I PREFETCH REQUESTED:          0 ISSUED:          0 USEFUL:          0 USELESS:          0
cpu0_L1I AVERAGE MISS LATENCY: 542.9 cycles
cpu0_L2C TOTAL        ACCESS:    5270761 HIT:    2137049 MISS:    3133712
cpu0_L2C LOAD         ACCESS:    2364656 HIT:     124223 MISS:    2240433
cpu0_L2C RFO          ACCESS:     889977 HIT:        528 MISS:     889449
cpu0_L2C PREFETCH     ACCESS:          0 HIT:          0 MISS:          0
cpu0_L2C WRITE        ACCESS:    1999033 HIT:    1998579 MISS:        454
cpu0_L2C TRANSLATION  ACCESS:      17095 HIT:      13719 MISS:       3376
cpu0_L2C PREFETCH REQUESTED:          0 ISSUED:          0 USEFUL:          0 USELESS:          0
cpu0_L2C AVERAGE MISS LATENCY: 969 cycles
cpu0_STLB TOTAL        ACCESS:     311248 HIT:     264495 MISS:      46753
cpu0_STLB LOAD         ACCESS:     311248 HIT:     264495 MISS:      46753
cpu0_STLB RFO          ACCESS:          0 HIT:          0 MISS:          0
cpu0_STLB PREFETCH     ACCESS:          0 HIT:          0 MISS:          0
cpu0_STLB WRITE        ACCESS:          0 HIT:          0 MISS:          0
cpu0_STLB TRANSLATION  ACCESS:          0 HIT:          0 MISS:          0
cpu0_STLB PREFETCH REQUESTED:          0 ISSUED:          0 USEFUL:          0 USELESS:          0
cpu0_STLB AVERAGE MISS LATENCY: 301.5 cycles

DRAM Statistics

Channel 0 RQ ROW_BUFFER_HIT:     683998
  ROW_BUFFER_MISS:    1700058
 AVG DBUS CONGESTED CYCLE: 3.969
WQ ROW_BUFFER_HIT: Channel 0 
  ROW_BUFFER_MISS:     443783
  FULL:    1064741
