WARNING: physical memory size is smaller than virtual memory size.

*** ChampSim Multicore Out-of-Order Simulator ***
Warmup Instructions: 50000000
Simulation Instructions: 600000000
Number of CPUs: 1
Page size: 4096

Off-chip DRAM Size: 4 GiB Channels: 1 Width: 64-bit Data Race: 3200 MT/s
Heartbeat CPU 0 instructions: 10000000 cycles: 2881042 heartbeat IPC: 3.471 cumulative IPC: 3.471 (Simulation time: 00 hr 00 min 38 sec)
Heartbeat CPU 0 instructions: 20000000 cycles: 5381042 heartbeat IPC: 4 cumulative IPC: 3.717 (Simulation time: 00 hr 01 min 11 sec)
Heartbeat CPU 0 instructions: 30000000 cycles: 7881042 heartbeat IPC: 4 cumulative IPC: 3.807 (Simulation time: 00 hr 01 min 44 sec)
Heartbeat CPU 0 instructions: 40000000 cycles: 10381042 heartbeat IPC: 4 cumulative IPC: 3.853 (Simulation time: 00 hr 02 min 18 sec)
Heartbeat CPU 0 instructions: 50000000 cycles: 12881042 heartbeat IPC: 4 cumulative IPC: 3.882 (Simulation time: 00 hr 02 min 51 sec)
Warmup finished CPU 0 instructions: 50000000 cycles: 12881043 cumulative IPC: 3.882 (Simulation time: 00 hr 02 min 51 sec)
Warmup complete CPU 0 instructions: 50000000 cycles: 12881043 cumulative IPC: 3.882 (Simulation time: 00 hr 02 min 51 sec)
Heartbeat CPU 0 instructions: 60000004 cycles: 15383651 heartbeat IPC: 3.996 cumulative IPC: 3.996 (Simulation time: 00 hr 03 min 32 sec)
Heartbeat CPU 0 instructions: 70000002 cycles: 17886014 heartbeat IPC: 3.996 cumulative IPC: 3.996 (Simulation time: 00 hr 04 min 10 sec)
Heartbeat CPU 0 instructions: 80000002 cycles: 20388420 heartbeat IPC: 3.996 cumulative IPC: 3.996 (Simulation time: 00 hr 04 min 48 sec)
Heartbeat CPU 0 instructions: 90000004 cycles: 22890843 heartbeat IPC: 3.996 cumulative IPC: 3.996 (Simulation time: 00 hr 05 min 26 sec)
Heartbeat CPU 0 instructions: 100000000 cycles: 25393248 heartbeat IPC: 3.996 cumulative IPC: 3.996 (Simulation time: 00 hr 06 min 05 sec)
Heartbeat CPU 0 instructions: 110000002 cycles: 27895654 heartbeat IPC: 3.996 cumulative IPC: 3.996 (Simulation time: 00 hr 06 min 43 sec)
Heartbeat CPU 0 instructions: 120000000 cycles: 30398051 heartbeat IPC: 3.996 cumulative IPC: 3.996 (Simulation time: 00 hr 07 min 21 sec)
Heartbeat CPU 0 instructions: 130000002 cycles: 32900458 heartbeat IPC: 3.996 cumulative IPC: 3.996 (Simulation time: 00 hr 07 min 59 sec)
Heartbeat CPU 0 instructions: 140000004 cycles: 35402867 heartbeat IPC: 3.996 cumulative IPC: 3.996 (Simulation time: 00 hr 08 min 36 sec)
Heartbeat CPU 0 instructions: 150000000 cycles: 37905229 heartbeat IPC: 3.996 cumulative IPC: 3.996 (Simulation time: 00 hr 09 min 15 sec)
Heartbeat CPU 0 instructions: 160000003 cycles: 40407636 heartbeat IPC: 3.996 cumulative IPC: 3.996 (Simulation time: 00 hr 09 min 51 sec)
Heartbeat CPU 0 instructions: 170000002 cycles: 42910100 heartbeat IPC: 3.996 cumulative IPC: 3.996 (Simulation time: 00 hr 10 min 28 sec)
Heartbeat CPU 0 instructions: 180000000 cycles: 45412462 heartbeat IPC: 3.996 cumulative IPC: 3.996 (Simulation time: 00 hr 11 min 04 sec)
Heartbeat CPU 0 instructions: 190000003 cycles: 47914943 heartbeat IPC: 3.996 cumulative IPC: 3.996 (Simulation time: 00 hr 11 min 41 sec)
Heartbeat CPU 0 instructions: 200000000 cycles: 50417395 heartbeat IPC: 3.996 cumulative IPC: 3.996 (Simulation time: 00 hr 12 min 17 sec)
Heartbeat CPU 0 instructions: 210000000 cycles: 52919800 heartbeat IPC: 3.996 cumulative IPC: 3.996 (Simulation time: 00 hr 12 min 54 sec)
Heartbeat CPU 0 instructions: 220000003 cycles: 55422254 heartbeat IPC: 3.996 cumulative IPC: 3.996 (Simulation time: 00 hr 13 min 30 sec)
Heartbeat CPU 0 instructions: 230000001 cycles: 91467775 heartbeat IPC: 0.2774 cumulative IPC: 2.29 (Simulation time: 00 hr 17 min 13 sec)
Heartbeat CPU 0 instructions: 240000002 cycles: 97484826 heartbeat IPC: 1.662 cumulative IPC: 2.246 (Simulation time: 00 hr 18 min 18 sec)
Heartbeat CPU 0 instructions: 250000000 cycles: 103504978 heartbeat IPC: 1.661 cumulative IPC: 2.207 (Simulation time: 00 hr 19 min 24 sec)
Heartbeat CPU 0 instructions: 260000004 cycles: 109543758 heartbeat IPC: 1.656 cumulative IPC: 2.173 (Simulation time: 00 hr 20 min 30 sec)
Heartbeat CPU 0 instructions: 270000003 cycles: 115608801 heartbeat IPC: 1.649 cumulative IPC: 2.142 (Simulation time: 00 hr 21 min 35 sec)
Heartbeat CPU 0 instructions: 280000001 cycles: 121697926 heartbeat IPC: 1.642 cumulative IPC: 2.114 (Simulation time: 00 hr 22 min 43 sec)
Heartbeat CPU 0 instructions: 290000000 cycles: 127775328 heartbeat IPC: 1.645 cumulative IPC: 2.089 (Simulation time: 00 hr 23 min 49 sec)
Heartbeat CPU 0 instructions: 300000003 cycles: 133837117 heartbeat IPC: 1.65 cumulative IPC: 2.067 (Simulation time: 00 hr 24 min 53 sec)
Heartbeat CPU 0 instructions: 310000001 cycles: 139920599 heartbeat IPC: 1.644 cumulative IPC: 2.047 (Simulation time: 00 hr 26 min 00 sec)
Heartbeat CPU 0 instructions: 320000002 cycles: 145992212 heartbeat IPC: 1.647 cumulative IPC: 2.028 (Simulation time: 00 hr 27 min 06 sec)
Heartbeat CPU 0 instructions: 330000004 cycles: 152411940 heartbeat IPC: 1.558 cumulative IPC: 2.007 (Simulation time: 00 hr 28 min 16 sec)
Heartbeat CPU 0 instructions: 340000002 cycles: 158923240 heartbeat IPC: 1.536 cumulative IPC: 1.986 (Simulation time: 00 hr 29 min 24 sec)
Heartbeat CPU 0 instructions: 350000002 cycles: 165481070 heartbeat IPC: 1.525 cumulative IPC: 1.966 (Simulation time: 00 hr 30 min 34 sec)
Heartbeat CPU 0 instructions: 360000000 cycles: 172081890 heartbeat IPC: 1.515 cumulative IPC: 1.947 (Simulation time: 00 hr 31 min 43 sec)
Heartbeat CPU 0 instructions: 370000001 cycles: 178600229 heartbeat IPC: 1.534 cumulative IPC: 1.931 (Simulation time: 00 hr 32 min 53 sec)
Heartbeat CPU 0 instructions: 380000003 cycles: 185229288 heartbeat IPC: 1.509 cumulative IPC: 1.915 (Simulation time: 00 hr 34 min 03 sec)
Heartbeat CPU 0 instructions: 390000004 cycles: 191675713 heartbeat IPC: 1.551 cumulative IPC: 1.902 (Simulation time: 00 hr 35 min 10 sec)
Heartbeat CPU 0 instructions: 400000000 cycles: 198248548 heartbeat IPC: 1.521 cumulative IPC: 1.888 (Simulation time: 00 hr 36 min 18 sec)
Heartbeat CPU 0 instructions: 410000003 cycles: 204774729 heartbeat IPC: 1.532 cumulative IPC: 1.876 (Simulation time: 00 hr 37 min 26 sec)
Heartbeat CPU 0 instructions: 420000000 cycles: 211291488 heartbeat IPC: 1.535 cumulative IPC: 1.865 (Simulation time: 00 hr 38 min 34 sec)
Heartbeat CPU 0 instructions: 430000001 cycles: 216898637 heartbeat IPC: 1.783 cumulative IPC: 1.863 (Simulation time: 00 hr 39 min 34 sec)
Heartbeat CPU 0 instructions: 440000002 cycles: 222950294 heartbeat IPC: 1.652 cumulative IPC: 1.857 (Simulation time: 00 hr 40 min 39 sec)
Heartbeat CPU 0 instructions: 450000000 cycles: 229517967 heartbeat IPC: 1.523 cumulative IPC: 1.846 (Simulation time: 00 hr 41 min 46 sec)
Heartbeat CPU 0 instructions: 460000003 cycles: 236142470 heartbeat IPC: 1.51 cumulative IPC: 1.836 (Simulation time: 00 hr 42 min 56 sec)
Heartbeat CPU 0 instructions: 470000004 cycles: 242767011 heartbeat IPC: 1.51 cumulative IPC: 1.827 (Simulation time: 00 hr 44 min 05 sec)
Heartbeat CPU 0 instructions: 480000000 cycles: 249379999 heartbeat IPC: 1.512 cumulative IPC: 1.818 (Simulation time: 00 hr 45 min 13 sec)
Heartbeat CPU 0 instructions: 490000001 cycles: 255967967 heartbeat IPC: 1.518 cumulative IPC: 1.81 (Simulation time: 00 hr 46 min 21 sec)
Heartbeat CPU 0 instructions: 500000001 cycles: 262626366 heartbeat IPC: 1.502 cumulative IPC: 1.802 (Simulation time: 00 hr 47 min 30 sec)
Heartbeat CPU 0 instructions: 510000002 cycles: 269204886 heartbeat IPC: 1.52 cumulative IPC: 1.795 (Simulation time: 00 hr 48 min 39 sec)
Heartbeat CPU 0 instructions: 520000001 cycles: 335066017 heartbeat IPC: 0.1518 cumulative IPC: 1.459 (Simulation time: 00 hr 57 min 09 sec)
Heartbeat CPU 0 instructions: 530000001 cycles: 449245057 heartbeat IPC: 0.08758 cumulative IPC: 1.1 (Simulation time: 01 hr 11 min 39 sec)
Heartbeat CPU 0 instructions: 540000002 cycles: 478913165 heartbeat IPC: 0.3371 cumulative IPC: 1.051 (Simulation time: 01 hr 15 min 44 sec)
Heartbeat CPU 0 instructions: 550000003 cycles: 509411204 heartbeat IPC: 0.3279 cumulative IPC: 1.007 (Simulation time: 01 hr 19 min 58 sec)
Heartbeat CPU 0 instructions: 560000001 cycles: 540021127 heartbeat IPC: 0.3267 cumulative IPC: 0.9675 (Simulation time: 01 hr 24 min 10 sec)
Heartbeat CPU 0 instructions: 570000000 cycles: 570445144 heartbeat IPC: 0.3287 cumulative IPC: 0.9326 (Simulation time: 01 hr 28 min 20 sec)
Heartbeat CPU 0 instructions: 580000002 cycles: 601431181 heartbeat IPC: 0.3227 cumulative IPC: 0.9005 (Simulation time: 01 hr 32 min 29 sec)
Heartbeat CPU 0 instructions: 590000001 cycles: 632520986 heartbeat IPC: 0.3216 cumulative IPC: 0.8715 (Simulation time: 01 hr 36 min 38 sec)
*** Reached end of trace: (0, "traces/bt.A.champsimtrace")
Heartbeat CPU 0 instructions: 600000002 cycles: 663346759 heartbeat IPC: 0.3244 cumulative IPC: 0.8455 (Simulation time: 01 hr 40 min 48 sec)
Heartbeat CPU 0 instructions: 610000004 cycles: 692500579 heartbeat IPC: 0.343 cumulative IPC: 0.824 (Simulation time: 01 hr 43 min 36 sec)
Heartbeat CPU 0 instructions: 620000000 cycles: 695003616 heartbeat IPC: 3.995 cumulative IPC: 0.8356 (Simulation time: 01 hr 44 min 13 sec)
Heartbeat CPU 0 instructions: 630000002 cycles: 697506024 heartbeat IPC: 3.996 cumulative IPC: 0.8472 (Simulation time: 01 hr 44 min 49 sec)
Heartbeat CPU 0 instructions: 640000000 cycles: 700008432 heartbeat IPC: 3.996 cumulative IPC: 0.8586 (Simulation time: 01 hr 45 min 28 sec)
Heartbeat CPU 0 instructions: 650000002 cycles: 702510929 heartbeat IPC: 3.996 cumulative IPC: 0.87 (Simulation time: 01 hr 46 min 04 sec)
Simulation finished CPU 0 instructions: 600000002 cycles: 689629887 cumulative IPC: 0.87 (Simulation time: 01 hr 46 min 04 sec)
Simulation complete CPU 0 instructions: 600000002 cycles: 689629887 cumulative IPC: 0.87 (Simulation time: 01 hr 46 min 04 sec)

ChampSim completed all CPUs

=== Simulation ===
CPU 0 runs traces/bt.A.champsimtrace
Region of Interest Statistics

CPU 0 cumulative IPC: 0.87 instructions: 600000002 cycles: 689629887
CPU 0 Branch Prediction Accuracy: 99.29% MPKI: 0.1288 Average ROB Occupancy at Mispredict: 280.2
Branch type MPKI
BRANCH_DIRECT_JUMP: 5e-06
BRANCH_INDIRECT: 7.83e-05
BRANCH_CONDITIONAL: 0.129
BRANCH_DIRECT_CALL: 6.67e-06
BRANCH_INDIRECT_CALL: 3.67e-05
BRANCH_RETURN: 2.33e-05

LLC TOTAL        ACCESS:    5121801 HIT:    2479011 MISS:    2642790
LLC LOAD         ACCESS:    2240372 HIT:     488837 MISS:    1751535
LLC RFO          ACCESS:     889446 HIT:       6944 MISS:     882502
LLC PREFETCH     ACCESS:          0 HIT:          0 MISS:          0
LLC WRITE        ACCESS:    1988607 HIT:    1981654 MISS:       6953
LLC TRANSLATION  ACCESS:       3376 HIT:       1576 MISS:       1800
LLC PREFETCH REQUESTED:          0 ISSUED:          0 USEFUL:          0 USELESS:          0
LLC AVERAGE MISS LATENCY: 1227 cycles
cpu0_DTLB TOTAL        ACCESS:  126763334 HIT:  125998243 MISS:     765091
cpu0_DTLB LOAD         ACCESS:  126763334 HIT:  125998243 MISS:     765091
cpu0_DTLB RFO          ACCESS:          0 HIT:          0 MISS:          0
cpu0_DTLB PREFETCH     ACCESS:          0 HIT:          0 MISS:          0
cpu0_DTLB WRITE        ACCESS:          0 HIT:          0 MISS:          0
cpu0_DTLB TRANSLATION  ACCESS:          0 HIT:          0 MISS:          0
cpu0_DTLB PREFETCH REQUESTED:          0 ISSUED:          0 USEFUL:          0 USELESS:          0
cpu0_DTLB AVERAGE MISS LATENCY: 14.9 cycles
cpu0_ITLB TOTAL        ACCESS:     145085 HIT:     144835 MISS:        250
cpu0_ITLB LOAD         ACCESS:     145085 HIT:     144835 MISS:        250
cpu0_ITLB RFO          ACCESS:          0 HIT:          0 MISS:          0
cpu0_ITLB PREFETCH     ACCESS:          0 HIT:          0 MISS:          0
cpu0_ITLB WRITE        ACCESS:          0 HIT:          0 MISS:          0
cpu0_ITLB TRANSLATION  ACCESS:          0 HIT:          0 MISS:          0
cpu0_ITLB PREFETCH REQUESTED:          0 ISSUED:          0 USEFUL:          0 USELESS:          0
cpu0_ITLB AVERAGE MISS LATENCY: 311 cycles
cpu0_L1D TOTAL        ACCESS:  194057655 HIT:  180002711 MISS:   14054944
cpu0_L1D LOAD         ACCESS:  159375359 HIT:  149439764 MISS:    9935595
cpu0_L1D RFO          ACCESS:          0 HIT:          0 MISS:          0
cpu0_L1D PREFETCH     ACCESS:          0 HIT:          0 MISS:          0
cpu0_L1D WRITE        ACCESS:   34635520 HIT:   30533284 MISS:    4102236
cpu0_L1D TRANSLATION  ACCESS:      46776 HIT:      29663 MISS:      17113
cpu0_L1D PREFETCH REQUESTED:          0 ISSUED:          0 USEFUL:          0 USELESS:          0
cpu0_L1D AVERAGE MISS LATENCY: 172.9 cycles
cpu0_L1I TOTAL        ACCESS:     194815 HIT:     192049 MISS:       2766
cpu0_L1I LOAD         ACCESS:     194815 HIT:     192049 MISS:       2766
cpu0_L1I RFO          ACCESS:          0 HIT:          0 MISS:          0
cpu0_L1I PREFETCH     ACCESS:          0 HIT:          0 MISS:          0
cpu0_L1I WRITE        ACCESS:          0 HIT:          0 MISS:          0
cpu0_L1I TRANSLATION  ACCESS:          0 HIT:          0 MISS:          0
cpu0_L1I PREFETCH REQUESTED:          0 ISSUED:          0 USEFUL:          0 USELESS:          0
cpu0_L1I AVERAGE MISS LATENCY: 525.7 cycles
cpu0_L2C TOTAL        ACCESS:    5272209 HIT:    2138516 MISS:    3133693
cpu0_L2C LOAD         ACCESS:    2366088 HIT:     125673 MISS:    2240415
cpu0_L2C RFO          ACCESS:     889974 HIT:        528 MISS:     889446
cpu0_L2C PREFETCH     ACCESS:          0 HIT:          0 MISS:          0
cpu0_L2C WRITE        ACCESS:    1999038 HIT:    1998582 MISS:        456
cpu0_L2C TRANSLATION  ACCESS:      17109 HIT:      13733 MISS:       3376
cpu0_L2C PREFETCH REQUESTED:          0 ISSUED:          0 USEFUL:          0 USELESS:          0
cpu0_L2C AVERAGE MISS LATENCY: 1056 cycles
cpu0_STLB TOTAL        ACCESS:     311445 HIT:     264692 MISS:      46753
cpu0_STLB LOAD         ACCESS:     311445 HIT:     264692 MISS:      46753
cpu0_STLB RFO          ACCESS:          0 HIT:          0 MISS:          0
cpu0_STLB PREFETCH     ACCESS:          0 HIT:          0 MISS:          0
cpu0_STLB WRITE        ACCESS:          0 HIT:          0 MISS:          0
cpu0_STLB TRANSLATION  ACCESS:          0 HIT:          0 MISS:          0
cpu0_STLB PREFETCH REQUESTED:          0 ISSUED:          0 USEFUL:          0 USELESS:          0
cpu0_STLB AVERAGE MISS LATENCY: 319.2 cycles

DRAM Statistics

Channel 0 RQ ROW_BUFFER_HIT:     674480
  ROW_BUFFER_MISS:    1961330
 AVG DBUS CONGESTED CYCLE: 3.975
WQ ROW_BUFFER_HIT: Channel 0 
  ROW_BUFFER_MISS:     340352
  FULL:    1391290
