WARNING: physical memory size is smaller than virtual memory size.

*** ChampSim Multicore Out-of-Order Simulator ***
Warmup Instructions: 50000000
Simulation Instructions: 600000000
Number of CPUs: 1
Page size: 4096

Off-chip DRAM Size: 4 GiB Channels: 1 Width: 64-bit Data Race: 3200 MT/s
Heartbeat CPU 0 instructions: 10000000 cycles: 2500202 heartbeat IPC: 4 cumulative IPC: 4 (Simulation time: 00 hr 00 min 26 sec)
Heartbeat CPU 0 instructions: 20000000 cycles: 5000202 heartbeat IPC: 4 cumulative IPC: 4 (Simulation time: 00 hr 00 min 52 sec)
Heartbeat CPU 0 instructions: 30000000 cycles: 7500202 heartbeat IPC: 4 cumulative IPC: 4 (Simulation time: 00 hr 01 min 20 sec)
Heartbeat CPU 0 instructions: 40000000 cycles: 10000202 heartbeat IPC: 4 cumulative IPC: 4 (Simulation time: 00 hr 01 min 50 sec)
Heartbeat CPU 0 instructions: 50000000 cycles: 12500202 heartbeat IPC: 4 cumulative IPC: 4 (Simulation time: 00 hr 02 min 21 sec)
Warmup finished CPU 0 instructions: 50000000 cycles: 12500203 cumulative IPC: 4 (Simulation time: 00 hr 02 min 21 sec)
Warmup complete CPU 0 instructions: 50000000 cycles: 12500203 cumulative IPC: 4 (Simulation time: 00 hr 02 min 21 sec)
Heartbeat CPU 0 instructions: 60000002 cycles: 15738900 heartbeat IPC: 3.088 cumulative IPC: 3.088 (Simulation time: 00 hr 03 min 01 sec)
Heartbeat CPU 0 instructions: 70000002 cycles: 18393199 heartbeat IPC: 3.767 cumulative IPC: 3.394 (Simulation time: 00 hr 03 min 37 sec)
Heartbeat CPU 0 instructions: 80000003 cycles: 21045421 heartbeat IPC: 3.77 cumulative IPC: 3.511 (Simulation time: 00 hr 04 min 16 sec)
Heartbeat CPU 0 instructions: 90000004 cycles: 23697620 heartbeat IPC: 3.77 cumulative IPC: 3.572 (Simulation time: 00 hr 04 min 55 sec)
Heartbeat CPU 0 instructions: 100000003 cycles: 26351808 heartbeat IPC: 3.768 cumulative IPC: 3.61 (Simulation time: 00 hr 05 min 36 sec)
Heartbeat CPU 0 instructions: 110000000 cycles: 29004512 heartbeat IPC: 3.77 cumulative IPC: 3.635 (Simulation time: 00 hr 06 min 16 sec)
Heartbeat CPU 0 instructions: 120000000 cycles: 31656513 heartbeat IPC: 3.771 cumulative IPC: 3.654 (Simulation time: 00 hr 06 min 55 sec)
Heartbeat CPU 0 instructions: 130000000 cycles: 34308758 heartbeat IPC: 3.77 cumulative IPC: 3.668 (Simulation time: 00 hr 07 min 32 sec)
Heartbeat CPU 0 instructions: 140000001 cycles: 36960946 heartbeat IPC: 3.77 cumulative IPC: 3.679 (Simulation time: 00 hr 08 min 09 sec)
Heartbeat CPU 0 instructions: 150000003 cycles: 39613175 heartbeat IPC: 3.77 cumulative IPC: 3.688 (Simulation time: 00 hr 08 min 47 sec)
Heartbeat CPU 0 instructions: 160000003 cycles: 42267971 heartbeat IPC: 3.767 cumulative IPC: 3.695 (Simulation time: 00 hr 09 min 25 sec)
Heartbeat CPU 0 instructions: 170000001 cycles: 44919912 heartbeat IPC: 3.771 cumulative IPC: 3.701 (Simulation time: 00 hr 10 min 05 sec)
Heartbeat CPU 0 instructions: 180000001 cycles: 47572081 heartbeat IPC: 3.77 cumulative IPC: 3.707 (Simulation time: 00 hr 10 min 42 sec)
Heartbeat CPU 0 instructions: 190000002 cycles: 50225787 heartbeat IPC: 3.768 cumulative IPC: 3.711 (Simulation time: 00 hr 11 min 19 sec)
Heartbeat CPU 0 instructions: 200000001 cycles: 52878007 heartbeat IPC: 3.77 cumulative IPC: 3.715 (Simulation time: 00 hr 11 min 55 sec)
Heartbeat CPU 0 instructions: 210000000 cycles: 55532500 heartbeat IPC: 3.767 cumulative IPC: 3.718 (Simulation time: 00 hr 12 min 31 sec)
Heartbeat CPU 0 instructions: 220000001 cycles: 58184526 heartbeat IPC: 3.771 cumulative IPC: 3.721 (Simulation time: 00 hr 13 min 08 sec)
Heartbeat CPU 0 instructions: 230000002 cycles: 60836742 heartbeat IPC: 3.77 cumulative IPC: 3.724 (Simulation time: 00 hr 13 min 48 sec)
Heartbeat CPU 0 instructions: 240000004 cycles: 63489026 heartbeat IPC: 3.77 cumulative IPC: 3.726 (Simulation time: 00 hr 14 min 28 sec)
Heartbeat CPU 0 instructions: 250000000 cycles: 66143466 heartbeat IPC: 3.767 cumulative IPC: 3.728 (Simulation time: 00 hr 15 min 07 sec)
Heartbeat CPU 0 instructions: 260000000 cycles: 68795805 heartbeat IPC: 3.77 cumulative IPC: 3.73 (Simulation time: 00 hr 15 min 45 sec)
Heartbeat CPU 0 instructions: 270000002 cycles: 71447812 heartbeat IPC: 3.771 cumulative IPC: 3.732 (Simulation time: 00 hr 16 min 20 sec)
Heartbeat CPU 0 instructions: 280000003 cycles: 74100056 heartbeat IPC: 3.77 cumulative IPC: 3.734 (Simulation time: 00 hr 16 min 56 sec)
Heartbeat CPU 0 instructions: 290000002 cycles: 76752333 heartbeat IPC: 3.77 cumulative IPC: 3.735 (Simulation time: 00 hr 17 min 34 sec)
Heartbeat CPU 0 instructions: 300000000 cycles: 79407358 heartbeat IPC: 3.766 cumulative IPC: 3.737 (Simulation time: 00 hr 18 min 09 sec)
Heartbeat CPU 0 instructions: 310000002 cycles: 82059360 heartbeat IPC: 3.771 cumulative IPC: 3.738 (Simulation time: 00 hr 18 min 45 sec)
Heartbeat CPU 0 instructions: 320000004 cycles: 84711401 heartbeat IPC: 3.771 cumulative IPC: 3.739 (Simulation time: 00 hr 19 min 22 sec)
Heartbeat CPU 0 instructions: 330000000 cycles: 87363590 heartbeat IPC: 3.77 cumulative IPC: 3.74 (Simulation time: 00 hr 19 min 58 sec)
Heartbeat CPU 0 instructions: 340000002 cycles: 90016312 heartbeat IPC: 3.77 cumulative IPC: 3.741 (Simulation time: 00 hr 20 min 35 sec)
Heartbeat CPU 0 instructions: 350000002 cycles: 92668428 heartbeat IPC: 3.771 cumulative IPC: 3.742 (Simulation time: 00 hr 21 min 14 sec)
Heartbeat CPU 0 instructions: 360000001 cycles: 95322882 heartbeat IPC: 3.767 cumulative IPC: 3.743 (Simulation time: 00 hr 21 min 54 sec)
Heartbeat CPU 0 instructions: 370000004 cycles: 97974859 heartbeat IPC: 3.771 cumulative IPC: 3.744 (Simulation time: 00 hr 22 min 31 sec)
Heartbeat CPU 0 instructions: 380000000 cycles: 100627036 heartbeat IPC: 3.77 cumulative IPC: 3.745 (Simulation time: 00 hr 23 min 07 sec)
Heartbeat CPU 0 instructions: 390000003 cycles: 103279383 heartbeat IPC: 3.77 cumulative IPC: 3.745 (Simulation time: 00 hr 23 min 43 sec)
Heartbeat CPU 0 instructions: 400000000 cycles: 105933885 heartbeat IPC: 3.767 cumulative IPC: 3.746 (Simulation time: 00 hr 24 min 19 sec)
Heartbeat CPU 0 instructions: 410000000 cycles: 108586222 heartbeat IPC: 3.77 cumulative IPC: 3.747 (Simulation time: 00 hr 24 min 55 sec)
Heartbeat CPU 0 instructions: 420000001 cycles: 111238308 heartbeat IPC: 3.771 cumulative IPC: 3.747 (Simulation time: 00 hr 25 min 34 sec)
Heartbeat CPU 0 instructions: 430000003 cycles: 113890629 heartbeat IPC: 3.77 cumulative IPC: 3.748 (Simulation time: 00 hr 26 min 12 sec)
Heartbeat CPU 0 instructions: 440000003 cycles: 116542971 heartbeat IPC: 3.77 cumulative IPC: 3.748 (Simulation time: 00 hr 26 min 52 sec)
Heartbeat CPU 0 instructions: 450000004 cycles: 119198279 heartbeat IPC: 3.766 cumulative IPC: 3.749 (Simulation time: 00 hr 27 min 35 sec)
Heartbeat CPU 0 instructions: 460000001 cycles: 121850293 heartbeat IPC: 3.771 cumulative IPC: 3.749 (Simulation time: 00 hr 28 min 16 sec)
Heartbeat CPU 0 instructions: 470000002 cycles: 124502392 heartbeat IPC: 3.771 cumulative IPC: 3.75 (Simulation time: 00 hr 28 min 55 sec)
Heartbeat CPU 0 instructions: 480000001 cycles: 127154743 heartbeat IPC: 3.77 cumulative IPC: 3.75 (Simulation time: 00 hr 29 min 33 sec)
Heartbeat CPU 0 instructions: 490000000 cycles: 129808113 heartbeat IPC: 3.769 cumulative IPC: 3.751 (Simulation time: 00 hr 30 min 11 sec)
Heartbeat CPU 0 instructions: 500000002 cycles: 132462664 heartbeat IPC: 3.767 cumulative IPC: 3.751 (Simulation time: 00 hr 30 min 50 sec)
Heartbeat CPU 0 instructions: 510000003 cycles: 135114673 heartbeat IPC: 3.771 cumulative IPC: 3.752 (Simulation time: 00 hr 31 min 27 sec)
Heartbeat CPU 0 instructions: 520000004 cycles: 137766805 heartbeat IPC: 3.771 cumulative IPC: 3.752 (Simulation time: 00 hr 32 min 05 sec)
Heartbeat CPU 0 instructions: 530000000 cycles: 140419115 heartbeat IPC: 3.77 cumulative IPC: 3.752 (Simulation time: 00 hr 32 min 42 sec)
Heartbeat CPU 0 instructions: 540000000 cycles: 143073561 heartbeat IPC: 3.767 cumulative IPC: 3.753 (Simulation time: 00 hr 33 min 20 sec)
Heartbeat CPU 0 instructions: 550000003 cycles: 145725672 heartbeat IPC: 3.771 cumulative IPC: 3.753 (Simulation time: 00 hr 33 min 58 sec)
Heartbeat CPU 0 instructions: 560000003 cycles: 148378489 heartbeat IPC: 3.77 cumulative IPC: 3.753 (Simulation time: 00 hr 34 min 36 sec)
Heartbeat CPU 0 instructions: 570000004 cycles: 151030475 heartbeat IPC: 3.771 cumulative IPC: 3.754 (Simulation time: 00 hr 35 min 11 sec)
Heartbeat CPU 0 instructions: 580000000 cycles: 153682770 heartbeat IPC: 3.77 cumulative IPC: 3.754 (Simulation time: 00 hr 35 min 47 sec)
Heartbeat CPU 0 instructions: 590000002 cycles: 156335041 heartbeat IPC: 3.77 cumulative IPC: 3.754 (Simulation time: 00 hr 36 min 23 sec)
*** Reached end of trace: (0, "traces/convolution.champsimtrace")
Heartbeat CPU 0 instructions: 600000000 cycles: 158995925 heartbeat IPC: 3.758 cumulative IPC: 3.754 (Simulation time: 00 hr 36 min 59 sec)
Heartbeat CPU 0 instructions: 610000002 cycles: 183554682 heartbeat IPC: 0.4072 cumulative IPC: 3.274 (Simulation time: 00 hr 40 min 14 sec)
Heartbeat CPU 0 instructions: 620000001 cycles: 205138742 heartbeat IPC: 0.4633 cumulative IPC: 2.959 (Simulation time: 00 hr 43 min 12 sec)
Heartbeat CPU 0 instructions: 630000001 cycles: 217710255 heartbeat IPC: 0.7954 cumulative IPC: 2.826 (Simulation time: 00 hr 45 min 04 sec)
Heartbeat CPU 0 instructions: 640000004 cycles: 228361490 heartbeat IPC: 0.9389 cumulative IPC: 2.733 (Simulation time: 00 hr 46 min 42 sec)
Heartbeat CPU 0 instructions: 650000001 cycles: 238831776 heartbeat IPC: 0.9551 cumulative IPC: 2.651 (Simulation time: 00 hr 48 min 17 sec)
Simulation finished CPU 0 instructions: 600000001 cycles: 226331574 cumulative IPC: 2.651 (Simulation time: 00 hr 48 min 17 sec)
Simulation complete CPU 0 instructions: 600000001 cycles: 226331574 cumulative IPC: 2.651 (Simulation time: 00 hr 48 min 17 sec)

ChampSim completed all CPUs

=== Simulation ===
CPU 0 runs traces/convolution.champsimtrace
Region of Interest Statistics

CPU 0 cumulative IPC: 2.651 instructions: 600000001 cycles: 226331574
CPU 0 Branch Prediction Accuracy: 99.47% MPKI: 0.9507 Average ROB Occupancy at Mispredict: 68.95
Branch type MPKI
BRANCH_DIRECT_JUMP: 0.000107
BRANCH_INDIRECT: 4.17e-05
BRANCH_CONDITIONAL: 0.95
BRANCH_DIRECT_CALL: 0.000103
BRANCH_INDIRECT_CALL: 8.33e-06
BRANCH_RETURN: 1.83e-05

LLC TOTAL        ACCESS:    1183000 HIT:     535866 MISS:     647134
LLC LOAD         ACCESS:       2886 HIT:          6 MISS:       2880
LLC RFO          ACCESS:     535121 HIT:         63 MISS:     535058
LLC PREFETCH     ACCESS:          0 HIT:          0 MISS:          0
LLC WRITE        ACCESS:     535169 HIT:     535147 MISS:         22
LLC TRANSLATION  ACCESS:     109824 HIT:        650 MISS:     109174
LLC PREFETCH REQUESTED:          0 ISSUED:          0 USEFUL:          0 USELESS:          0
LLC AVERAGE MISS LATENCY: 1014 cycles
cpu0_DTLB TOTAL        ACCESS:  120040442 HIT:  119686604 MISS:     353838
cpu0_DTLB LOAD         ACCESS:  120040442 HIT:  119686604 MISS:     353838
cpu0_DTLB RFO          ACCESS:          0 HIT:          0 MISS:          0
cpu0_DTLB PREFETCH     ACCESS:          0 HIT:          0 MISS:          0
cpu0_DTLB WRITE        ACCESS:          0 HIT:          0 MISS:          0
cpu0_DTLB TRANSLATION  ACCESS:          0 HIT:          0 MISS:          0
cpu0_DTLB PREFETCH REQUESTED:          0 ISSUED:          0 USEFUL:          0 USELESS:          0
cpu0_DTLB AVERAGE MISS LATENCY: 655.3 cycles
cpu0_ITLB TOTAL        ACCESS:       2025 HIT:       1993 MISS:         32
cpu0_ITLB LOAD         ACCESS:       2025 HIT:       1993 MISS:         32
cpu0_ITLB RFO          ACCESS:          0 HIT:          0 MISS:          0
cpu0_ITLB PREFETCH     ACCESS:          0 HIT:          0 MISS:          0
cpu0_ITLB WRITE        ACCESS:          0 HIT:          0 MISS:          0
cpu0_ITLB TRANSLATION  ACCESS:          0 HIT:          0 MISS:          0
cpu0_ITLB PREFETCH REQUESTED:          0 ISSUED:          0 USEFUL:          0 USELESS:          0
cpu0_ITLB AVERAGE MISS LATENCY: 790.3 cycles
cpu0_L1D TOTAL        ACCESS:  161172079 HIT:  155019738 MISS:    6152341
cpu0_L1D LOAD         ACCESS:   88954529 HIT:   88948538 MISS:       5991
cpu0_L1D RFO          ACCESS:          0 HIT:          0 MISS:          0
cpu0_L1D PREFETCH     ACCESS:          0 HIT:          0 MISS:          0
cpu0_L1D WRITE        ACCESS:   72036890 HIT:   66032805 MISS:    6004085
cpu0_L1D TRANSLATION  ACCESS:     180660 HIT:      38395 MISS:     142265
cpu0_L1D PREFETCH REQUESTED:          0 ISSUED:          0 USEFUL:          0 USELESS:          0
cpu0_L1D AVERAGE MISS LATENCY: 82.07 cycles
cpu0_L1I TOTAL        ACCESS:       2323 HIT:       1008 MISS:       1315
cpu0_L1I LOAD         ACCESS:       2323 HIT:       1008 MISS:       1315
cpu0_L1I RFO          ACCESS:          0 HIT:          0 MISS:          0
cpu0_L1I PREFETCH     ACCESS:          0 HIT:          0 MISS:          0
cpu0_L1I WRITE        ACCESS:          0 HIT:          0 MISS:          0
cpu0_L1I TRANSLATION  ACCESS:          0 HIT:          0 MISS:          0
cpu0_L1I PREFETCH REQUESTED:          0 ISSUED:          0 USEFUL:          0 USELESS:          0
cpu0_L1I AVERAGE MISS LATENCY: 689.8 cycles
cpu0_L2C TOTAL        ACCESS:    1190803 HIT:     542954 MISS:     647849
cpu0_L2C LOAD         ACCESS:       3312 HIT:        426 MISS:       2886
cpu0_L2C RFO          ACCESS:     538107 HIT:       2986 MISS:     535121
cpu0_L2C PREFETCH     ACCESS:          0 HIT:          0 MISS:          0
cpu0_L2C WRITE        ACCESS:     538222 HIT:     538205 MISS:         17
cpu0_L2C TRANSLATION  ACCESS:     111162 HIT:       1337 MISS:     109825
cpu0_L2C PREFETCH REQUESTED:          0 ISSUED:          0 USEFUL:          0 USELESS:          0
cpu0_L2C AVERAGE MISS LATENCY: 1034 cycles
cpu0_STLB TOTAL        ACCESS:     156150 HIT:         45 MISS:     156105
cpu0_STLB LOAD         ACCESS:     156150 HIT:         45 MISS:     156105
cpu0_STLB RFO          ACCESS:          0 HIT:          0 MISS:          0
cpu0_STLB PREFETCH     ACCESS:          0 HIT:          0 MISS:          0
cpu0_STLB WRITE        ACCESS:          0 HIT:          0 MISS:          0
cpu0_STLB TRANSLATION  ACCESS:          0 HIT:          0 MISS:          0
cpu0_STLB PREFETCH REQUESTED:          0 ISSUED:          0 USEFUL:          0 USELESS:          0
cpu0_STLB AVERAGE MISS LATENCY: 1695 cycles

DRAM Statistics

Channel 0 RQ ROW_BUFFER_HIT:     141206
  ROW_BUFFER_MISS:     505900
 AVG DBUS CONGESTED CYCLE: 3.979
WQ ROW_BUFFER_HIT: Channel 0 
  ROW_BUFFER_MISS:     100028
  FULL:     435042
