WARNING: physical memory size is smaller than virtual memory size.

*** ChampSim Multicore Out-of-Order Simulator ***
Warmup Instructions: 50000000
Simulation Instructions: 600000000
Number of CPUs: 1
Page size: 4096

Off-chip DRAM Size: 4 GiB Channels: 1 Width: 64-bit Data Race: 3200 MT/s
Heartbeat CPU 0 instructions: 10000002 cycles: 2500202 heartbeat IPC: 4 cumulative IPC: 4 (Simulation time: 00 hr 00 min 37 sec)
Heartbeat CPU 0 instructions: 20000002 cycles: 5000202 heartbeat IPC: 4 cumulative IPC: 4 (Simulation time: 00 hr 01 min 15 sec)
Heartbeat CPU 0 instructions: 30000002 cycles: 7500202 heartbeat IPC: 4 cumulative IPC: 4 (Simulation time: 00 hr 01 min 54 sec)
Heartbeat CPU 0 instructions: 40000002 cycles: 10000202 heartbeat IPC: 4 cumulative IPC: 4 (Simulation time: 00 hr 02 min 33 sec)
Heartbeat CPU 0 instructions: 50000002 cycles: 12500202 heartbeat IPC: 4 cumulative IPC: 4 (Simulation time: 00 hr 03 min 12 sec)
Warmup finished CPU 0 instructions: 50000002 cycles: 12500203 cumulative IPC: 4 (Simulation time: 00 hr 03 min 12 sec)
Warmup complete CPU 0 instructions: 50000002 cycles: 12500203 cumulative IPC: 4 (Simulation time: 00 hr 03 min 12 sec)
Heartbeat CPU 0 instructions: 60000004 cycles: 15735373 heartbeat IPC: 3.091 cumulative IPC: 3.091 (Simulation time: 00 hr 04 min 01 sec)
Heartbeat CPU 0 instructions: 70000000 cycles: 18390437 heartbeat IPC: 3.766 cumulative IPC: 3.395 (Simulation time: 00 hr 04 min 43 sec)
Heartbeat CPU 0 instructions: 80000003 cycles: 21041445 heartbeat IPC: 3.772 cumulative IPC: 3.512 (Simulation time: 00 hr 05 min 22 sec)
Heartbeat CPU 0 instructions: 90000004 cycles: 23697596 heartbeat IPC: 3.765 cumulative IPC: 3.572 (Simulation time: 00 hr 05 min 57 sec)
Heartbeat CPU 0 instructions: 100000004 cycles: 26351641 heartbeat IPC: 3.768 cumulative IPC: 3.61 (Simulation time: 00 hr 06 min 32 sec)
Heartbeat CPU 0 instructions: 110000004 cycles: 29001159 heartbeat IPC: 3.774 cumulative IPC: 3.636 (Simulation time: 00 hr 07 min 06 sec)
Heartbeat CPU 0 instructions: 120000000 cycles: 31653674 heartbeat IPC: 3.77 cumulative IPC: 3.655 (Simulation time: 00 hr 07 min 41 sec)
Heartbeat CPU 0 instructions: 130000000 cycles: 34303194 heartbeat IPC: 3.774 cumulative IPC: 3.669 (Simulation time: 00 hr 08 min 15 sec)
Heartbeat CPU 0 instructions: 140000004 cycles: 36957951 heartbeat IPC: 3.767 cumulative IPC: 3.68 (Simulation time: 00 hr 08 min 48 sec)
Heartbeat CPU 0 instructions: 150000004 cycles: 39609249 heartbeat IPC: 3.772 cumulative IPC: 3.689 (Simulation time: 00 hr 09 min 22 sec)
Heartbeat CPU 0 instructions: 160000000 cycles: 42257696 heartbeat IPC: 3.776 cumulative IPC: 3.697 (Simulation time: 00 hr 09 min 55 sec)
Heartbeat CPU 0 instructions: 170000000 cycles: 44912021 heartbeat IPC: 3.767 cumulative IPC: 3.702 (Simulation time: 00 hr 10 min 28 sec)
Heartbeat CPU 0 instructions: 180000000 cycles: 47564703 heartbeat IPC: 3.77 cumulative IPC: 3.707 (Simulation time: 00 hr 11 min 01 sec)
Heartbeat CPU 0 instructions: 190000000 cycles: 50220467 heartbeat IPC: 3.765 cumulative IPC: 3.712 (Simulation time: 00 hr 11 min 34 sec)
Heartbeat CPU 0 instructions: 200000003 cycles: 52871877 heartbeat IPC: 3.772 cumulative IPC: 3.715 (Simulation time: 00 hr 12 min 06 sec)
Heartbeat CPU 0 instructions: 210000004 cycles: 55527182 heartbeat IPC: 3.766 cumulative IPC: 3.719 (Simulation time: 00 hr 12 min 37 sec)
Heartbeat CPU 0 instructions: 220000004 cycles: 58182300 heartbeat IPC: 3.766 cumulative IPC: 3.721 (Simulation time: 00 hr 13 min 08 sec)
Heartbeat CPU 0 instructions: 230000000 cycles: 60832911 heartbeat IPC: 3.773 cumulative IPC: 3.724 (Simulation time: 00 hr 13 min 39 sec)
Heartbeat CPU 0 instructions: 240000000 cycles: 63484132 heartbeat IPC: 3.772 cumulative IPC: 3.727 (Simulation time: 00 hr 14 min 10 sec)
Heartbeat CPU 0 instructions: 250000003 cycles: 66135514 heartbeat IPC: 3.772 cumulative IPC: 3.729 (Simulation time: 00 hr 14 min 40 sec)
Heartbeat CPU 0 instructions: 260000004 cycles: 68789637 heartbeat IPC: 3.768 cumulative IPC: 3.731 (Simulation time: 00 hr 15 min 11 sec)
Heartbeat CPU 0 instructions: 270000004 cycles: 71448688 heartbeat IPC: 3.761 cumulative IPC: 3.732 (Simulation time: 00 hr 15 min 42 sec)
Heartbeat CPU 0 instructions: 280000000 cycles: 74105008 heartbeat IPC: 3.765 cumulative IPC: 3.733 (Simulation time: 00 hr 16 min 13 sec)
Heartbeat CPU 0 instructions: 290000000 cycles: 76759256 heartbeat IPC: 3.768 cumulative IPC: 3.735 (Simulation time: 00 hr 16 min 44 sec)
Heartbeat CPU 0 instructions: 300000001 cycles: 79410518 heartbeat IPC: 3.772 cumulative IPC: 3.736 (Simulation time: 00 hr 17 min 15 sec)
Heartbeat CPU 0 instructions: 310000004 cycles: 82060534 heartbeat IPC: 3.774 cumulative IPC: 3.738 (Simulation time: 00 hr 17 min 46 sec)
Heartbeat CPU 0 instructions: 320000003 cycles: 84712928 heartbeat IPC: 3.77 cumulative IPC: 3.739 (Simulation time: 00 hr 18 min 16 sec)
Heartbeat CPU 0 instructions: 330000004 cycles: 87363325 heartbeat IPC: 3.773 cumulative IPC: 3.74 (Simulation time: 00 hr 18 min 47 sec)
Heartbeat CPU 0 instructions: 340000004 cycles: 90014299 heartbeat IPC: 3.772 cumulative IPC: 3.741 (Simulation time: 00 hr 19 min 18 sec)
Heartbeat CPU 0 instructions: 350000000 cycles: 92665299 heartbeat IPC: 3.772 cumulative IPC: 3.742 (Simulation time: 00 hr 19 min 49 sec)
Heartbeat CPU 0 instructions: 360000000 cycles: 95316664 heartbeat IPC: 3.772 cumulative IPC: 3.743 (Simulation time: 00 hr 20 min 20 sec)
Heartbeat CPU 0 instructions: 370000004 cycles: 97975925 heartbeat IPC: 3.76 cumulative IPC: 3.744 (Simulation time: 00 hr 20 min 51 sec)
Heartbeat CPU 0 instructions: 380000004 cycles: 100628025 heartbeat IPC: 3.771 cumulative IPC: 3.745 (Simulation time: 00 hr 21 min 21 sec)
Heartbeat CPU 0 instructions: 390000004 cycles: 103282188 heartbeat IPC: 3.768 cumulative IPC: 3.745 (Simulation time: 00 hr 21 min 52 sec)
Heartbeat CPU 0 instructions: 400000000 cycles: 105931936 heartbeat IPC: 3.774 cumulative IPC: 3.746 (Simulation time: 00 hr 22 min 22 sec)
Heartbeat CPU 0 instructions: 410000000 cycles: 108585342 heartbeat IPC: 3.769 cumulative IPC: 3.747 (Simulation time: 00 hr 22 min 53 sec)
Heartbeat CPU 0 instructions: 420000004 cycles: 111242807 heartbeat IPC: 3.763 cumulative IPC: 3.747 (Simulation time: 00 hr 23 min 25 sec)
Heartbeat CPU 0 instructions: 430000004 cycles: 113896616 heartbeat IPC: 3.768 cumulative IPC: 3.748 (Simulation time: 00 hr 23 min 56 sec)
Heartbeat CPU 0 instructions: 440000004 cycles: 116549091 heartbeat IPC: 3.77 cumulative IPC: 3.748 (Simulation time: 00 hr 24 min 27 sec)
Heartbeat CPU 0 instructions: 450000004 cycles: 119197936 heartbeat IPC: 3.775 cumulative IPC: 3.749 (Simulation time: 00 hr 24 min 58 sec)
Heartbeat CPU 0 instructions: 460000004 cycles: 121856218 heartbeat IPC: 3.762 cumulative IPC: 3.749 (Simulation time: 00 hr 25 min 28 sec)
Heartbeat CPU 0 instructions: 470000000 cycles: 124505738 heartbeat IPC: 3.774 cumulative IPC: 3.75 (Simulation time: 00 hr 25 min 59 sec)
Heartbeat CPU 0 instructions: 480000000 cycles: 127159975 heartbeat IPC: 3.768 cumulative IPC: 3.75 (Simulation time: 00 hr 26 min 30 sec)
Heartbeat CPU 0 instructions: 490000004 cycles: 129814643 heartbeat IPC: 3.767 cumulative IPC: 3.751 (Simulation time: 00 hr 27 min 00 sec)
Heartbeat CPU 0 instructions: 500000004 cycles: 132465694 heartbeat IPC: 3.772 cumulative IPC: 3.751 (Simulation time: 00 hr 27 min 31 sec)
Heartbeat CPU 0 instructions: 510000004 cycles: 135115939 heartbeat IPC: 3.773 cumulative IPC: 3.752 (Simulation time: 00 hr 28 min 01 sec)
Heartbeat CPU 0 instructions: 520000000 cycles: 137767205 heartbeat IPC: 3.772 cumulative IPC: 3.752 (Simulation time: 00 hr 28 min 32 sec)
Heartbeat CPU 0 instructions: 530000000 cycles: 140424200 heartbeat IPC: 3.764 cumulative IPC: 3.752 (Simulation time: 00 hr 29 min 03 sec)
Heartbeat CPU 0 instructions: 540000004 cycles: 143073903 heartbeat IPC: 3.774 cumulative IPC: 3.753 (Simulation time: 00 hr 29 min 33 sec)
Heartbeat CPU 0 instructions: 550000004 cycles: 145732499 heartbeat IPC: 3.761 cumulative IPC: 3.753 (Simulation time: 00 hr 30 min 04 sec)
Heartbeat CPU 0 instructions: 560000000 cycles: 148380805 heartbeat IPC: 3.776 cumulative IPC: 3.753 (Simulation time: 00 hr 30 min 35 sec)
Heartbeat CPU 0 instructions: 570000000 cycles: 151029986 heartbeat IPC: 3.775 cumulative IPC: 3.754 (Simulation time: 00 hr 31 min 06 sec)
Heartbeat CPU 0 instructions: 580000000 cycles: 153681929 heartbeat IPC: 3.771 cumulative IPC: 3.754 (Simulation time: 00 hr 31 min 37 sec)
Heartbeat CPU 0 instructions: 590000000 cycles: 156335123 heartbeat IPC: 3.769 cumulative IPC: 3.754 (Simulation time: 00 hr 32 min 08 sec)
*** Reached end of trace: (0, "traces/convolution.champsimtrace")
Heartbeat CPU 0 instructions: 600000000 cycles: 158994630 heartbeat IPC: 3.76 cumulative IPC: 3.754 (Simulation time: 00 hr 32 min 40 sec)
Heartbeat CPU 0 instructions: 610000004 cycles: 181448327 heartbeat IPC: 0.4454 cumulative IPC: 3.315 (Simulation time: 00 hr 35 min 11 sec)
Heartbeat CPU 0 instructions: 620000000 cycles: 201206700 heartbeat IPC: 0.5061 cumulative IPC: 3.021 (Simulation time: 00 hr 37 min 28 sec)
Heartbeat CPU 0 instructions: 630000003 cycles: 205834931 heartbeat IPC: 2.161 cumulative IPC: 3 (Simulation time: 00 hr 38 min 13 sec)
Heartbeat CPU 0 instructions: 640000002 cycles: 216087151 heartbeat IPC: 0.9754 cumulative IPC: 2.898 (Simulation time: 00 hr 39 min 25 sec)
Heartbeat CPU 0 instructions: 650000002 cycles: 226838825 heartbeat IPC: 0.9301 cumulative IPC: 2.799 (Simulation time: 00 hr 40 min 32 sec)
Simulation finished CPU 0 instructions: 600000000 cycles: 214338623 cumulative IPC: 2.799 (Simulation time: 00 hr 40 min 32 sec)
Simulation complete CPU 0 instructions: 600000000 cycles: 214338623 cumulative IPC: 2.799 (Simulation time: 00 hr 40 min 32 sec)

ChampSim completed all CPUs

=== Simulation ===
CPU 0 runs traces/convolution.champsimtrace
Region of Interest Statistics

CPU 0 cumulative IPC: 2.799 instructions: 600000000 cycles: 214338623
CPU 0 Branch Prediction Accuracy: 99.5% MPKI: 0.9609 Average ROB Occupancy at Mispredict: 97.74
Branch type MPKI
BRANCH_DIRECT_JUMP: 1e-05
BRANCH_INDIRECT: 4.67e-05
BRANCH_CONDITIONAL: 0.961
BRANCH_DIRECT_CALL: 6.67e-06
BRANCH_INDIRECT_CALL: 8.33e-06
BRANCH_RETURN: 2.17e-05

LLC TOTAL        ACCESS:    1192648 HIT:     202247 MISS:     990401
LLC LOAD         ACCESS:       2894 HIT:       1315 MISS:       1579
LLC RFO          ACCESS:     539056 HIT:      30819 MISS:     508237
LLC PREFETCH     ACCESS:       2066 HIT:       2024 MISS:         42
LLC WRITE        ACCESS:     539113 HIT:     137923 MISS:     401190
LLC TRANSLATION  ACCESS:     109519 HIT:      30166 MISS:      79353
LLC PREFETCH REQUESTED:       2066 ISSUED:       2066 USEFUL:         11 USELESS:         21
LLC AVERAGE MISS LATENCY: 624.8 cycles
cpu0_DTLB TOTAL        ACCESS:  121071617 HIT:  120756237 MISS:     315380
cpu0_DTLB LOAD         ACCESS:  121071617 HIT:  120756237 MISS:     315380
cpu0_DTLB RFO          ACCESS:          0 HIT:          0 MISS:          0
cpu0_DTLB PREFETCH     ACCESS:          0 HIT:          0 MISS:          0
cpu0_DTLB WRITE        ACCESS:          0 HIT:          0 MISS:          0
cpu0_DTLB TRANSLATION  ACCESS:          0 HIT:          0 MISS:          0
cpu0_DTLB PREFETCH REQUESTED:          0 ISSUED:          0 USEFUL:          0 USELESS:          0
cpu0_DTLB AVERAGE MISS LATENCY: 657.4 cycles
cpu0_ITLB TOTAL        ACCESS:       2009 HIT:       1955 MISS:         54
cpu0_ITLB LOAD         ACCESS:       2009 HIT:       1955 MISS:         54
cpu0_ITLB RFO          ACCESS:          0 HIT:          0 MISS:          0
cpu0_ITLB PREFETCH     ACCESS:          0 HIT:          0 MISS:          0
cpu0_ITLB WRITE        ACCESS:          0 HIT:          0 MISS:          0
cpu0_ITLB TRANSLATION  ACCESS:          0 HIT:          0 MISS:          0
cpu0_ITLB PREFETCH REQUESTED:          0 ISSUED:          0 USEFUL:          0 USELESS:          0
cpu0_ITLB AVERAGE MISS LATENCY: 584.2 cycles
cpu0_L1D TOTAL        ACCESS:  152894852 HIT:  146708556 MISS:    6186296
cpu0_L1D LOAD         ACCESS:   79945925 HIT:   79939992 MISS:       5933
cpu0_L1D RFO          ACCESS:          0 HIT:          0 MISS:          0
cpu0_L1D PREFETCH     ACCESS:          0 HIT:          0 MISS:          0
cpu0_L1D WRITE        ACCESS:   72768407 HIT:   66734255 MISS:    6034152
cpu0_L1D TRANSLATION  ACCESS:     180520 HIT:      34309 MISS:     146211
cpu0_L1D PREFETCH REQUESTED:          0 ISSUED:          0 USEFUL:          0 USELESS:          0
cpu0_L1D AVERAGE MISS LATENCY: 79.93 cycles
cpu0_L1I TOTAL        ACCESS:       2307 HIT:       1013 MISS:       1294
cpu0_L1I LOAD         ACCESS:       2307 HIT:       1013 MISS:       1294
cpu0_L1I RFO          ACCESS:          0 HIT:          0 MISS:          0
cpu0_L1I PREFETCH     ACCESS:          0 HIT:          0 MISS:          0
cpu0_L1I WRITE        ACCESS:          0 HIT:          0 MISS:          0
cpu0_L1I TRANSLATION  ACCESS:          0 HIT:          0 MISS:          0
cpu0_L1I PREFETCH REQUESTED:          0 ISSUED:          0 USEFUL:          0 USELESS:          0
cpu0_L1I AVERAGE MISS LATENCY: 570.2 cycles
cpu0_L2C TOTAL        ACCESS:    1198873 HIT:     547381 MISS:     651492
cpu0_L2C LOAD         ACCESS:       3322 HIT:        428 MISS:       2894
cpu0_L2C RFO          ACCESS:     542293 HIT:       3235 MISS:     539058
cpu0_L2C PREFETCH     ACCESS:          0 HIT:          0 MISS:          0
cpu0_L2C WRITE        ACCESS:     542547 HIT:     542526 MISS:         21
cpu0_L2C TRANSLATION  ACCESS:     110711 HIT:       1192 MISS:     109519
cpu0_L2C PREFETCH REQUESTED:          0 ISSUED:          0 USEFUL:          0 USELESS:          0
cpu0_L2C AVERAGE MISS LATENCY: 970.7 cycles
cpu0_STLB TOTAL        ACCESS:     156215 HIT:         41 MISS:     156174
cpu0_STLB LOAD         ACCESS:     156215 HIT:         41 MISS:     156174
cpu0_STLB RFO          ACCESS:          0 HIT:          0 MISS:          0
cpu0_STLB PREFETCH     ACCESS:          0 HIT:          0 MISS:          0
cpu0_STLB WRITE        ACCESS:          0 HIT:          0 MISS:          0
cpu0_STLB TRANSLATION  ACCESS:          0 HIT:          0 MISS:          0
cpu0_STLB PREFETCH REQUESTED:          0 ISSUED:          0 USEFUL:          0 USELESS:          0
cpu0_STLB AVERAGE MISS LATENCY: 1472 cycles

DRAM Statistics

Channel 0 RQ ROW_BUFFER_HIT:     128571
  ROW_BUFFER_MISS:     460622
 AVG DBUS CONGESTED CYCLE: 3.979
WQ ROW_BUFFER_HIT: Channel 0 
  ROW_BUFFER_MISS:     106750
  FULL:     401487
