WARNING: physical memory size is smaller than virtual memory size.

*** ChampSim Multicore Out-of-Order Simulator ***
Warmup Instructions: 50000000
Simulation Instructions: 600000000
Number of CPUs: 1
Page size: 4096

CPU 0 Tage branch predictor
Off-chip DRAM Size: 4 GiB Channels: 1 Width: 64-bit Data Race: 3200 MT/s
Heartbeat CPU 0 instructions: 10000000 cycles: 2500202 heartbeat IPC: 4 cumulative IPC: 4 (Simulation time: 00 hr 01 min 22 sec)
Heartbeat CPU 0 instructions: 20000000 cycles: 5000202 heartbeat IPC: 4 cumulative IPC: 4 (Simulation time: 00 hr 02 min 44 sec)
Heartbeat CPU 0 instructions: 30000000 cycles: 7500202 heartbeat IPC: 4 cumulative IPC: 4 (Simulation time: 00 hr 04 min 03 sec)
Heartbeat CPU 0 instructions: 40000000 cycles: 10000202 heartbeat IPC: 4 cumulative IPC: 4 (Simulation time: 00 hr 05 min 27 sec)
Heartbeat CPU 0 instructions: 50000000 cycles: 12500202 heartbeat IPC: 4 cumulative IPC: 4 (Simulation time: 00 hr 06 min 55 sec)
Warmup finished CPU 0 instructions: 50000000 cycles: 12500203 cumulative IPC: 4 (Simulation time: 00 hr 06 min 55 sec)
Warmup complete CPU 0 instructions: 50000000 cycles: 12500203 cumulative IPC: 4 (Simulation time: 00 hr 06 min 55 sec)
Heartbeat CPU 0 instructions: 60000002 cycles: 15590838 heartbeat IPC: 3.236 cumulative IPC: 3.236 (Simulation time: 00 hr 08 min 34 sec)
Heartbeat CPU 0 instructions: 70000002 cycles: 18096460 heartbeat IPC: 3.991 cumulative IPC: 3.574 (Simulation time: 00 hr 10 min 04 sec)
Heartbeat CPU 0 instructions: 80000003 cycles: 20605777 heartbeat IPC: 3.985 cumulative IPC: 3.701 (Simulation time: 00 hr 11 min 40 sec)
Heartbeat CPU 0 instructions: 90000004 cycles: 23113892 heartbeat IPC: 3.987 cumulative IPC: 3.769 (Simulation time: 00 hr 13 min 16 sec)
Heartbeat CPU 0 instructions: 100000003 cycles: 25620140 heartbeat IPC: 3.99 cumulative IPC: 3.811 (Simulation time: 00 hr 15 min 04 sec)
Heartbeat CPU 0 instructions: 110000000 cycles: 28127088 heartbeat IPC: 3.989 cumulative IPC: 3.84 (Simulation time: 00 hr 16 min 42 sec)
Heartbeat CPU 0 instructions: 120000000 cycles: 30633417 heartbeat IPC: 3.99 cumulative IPC: 3.86 (Simulation time: 00 hr 18 min 17 sec)
Heartbeat CPU 0 instructions: 130000000 cycles: 33136901 heartbeat IPC: 3.994 cumulative IPC: 3.877 (Simulation time: 00 hr 19 min 49 sec)
Heartbeat CPU 0 instructions: 140000001 cycles: 35645748 heartbeat IPC: 3.986 cumulative IPC: 3.888 (Simulation time: 00 hr 21 min 23 sec)
Heartbeat CPU 0 instructions: 150000003 cycles: 38149779 heartbeat IPC: 3.994 cumulative IPC: 3.899 (Simulation time: 00 hr 22 min 56 sec)
Heartbeat CPU 0 instructions: 160000003 cycles: 40655004 heartbeat IPC: 3.992 cumulative IPC: 3.907 (Simulation time: 00 hr 24 min 33 sec)
Heartbeat CPU 0 instructions: 170000000 cycles: 43159539 heartbeat IPC: 3.993 cumulative IPC: 3.914 (Simulation time: 00 hr 26 min 10 sec)
Heartbeat CPU 0 instructions: 180000001 cycles: 45664297 heartbeat IPC: 3.992 cumulative IPC: 3.92 (Simulation time: 00 hr 27 min 50 sec)
Heartbeat CPU 0 instructions: 190000002 cycles: 48167385 heartbeat IPC: 3.995 cumulative IPC: 3.925 (Simulation time: 00 hr 30 min 08 sec)
Heartbeat CPU 0 instructions: 200000002 cycles: 50677210 heartbeat IPC: 3.984 cumulative IPC: 3.929 (Simulation time: 00 hr 32 min 44 sec)
Heartbeat CPU 0 instructions: 210000000 cycles: 53184050 heartbeat IPC: 3.989 cumulative IPC: 3.933 (Simulation time: 00 hr 35 min 01 sec)
Heartbeat CPU 0 instructions: 220000001 cycles: 55694256 heartbeat IPC: 3.984 cumulative IPC: 3.936 (Simulation time: 00 hr 36 min 50 sec)
Heartbeat CPU 0 instructions: 230000002 cycles: 58207164 heartbeat IPC: 3.979 cumulative IPC: 3.938 (Simulation time: 00 hr 37 min 38 sec)
Heartbeat CPU 0 instructions: 240000004 cycles: 60713900 heartbeat IPC: 3.989 cumulative IPC: 3.941 (Simulation time: 00 hr 38 min 38 sec)
Heartbeat CPU 0 instructions: 250000000 cycles: 63224622 heartbeat IPC: 3.983 cumulative IPC: 3.943 (Simulation time: 00 hr 39 min 40 sec)
Heartbeat CPU 0 instructions: 260000000 cycles: 65736073 heartbeat IPC: 3.982 cumulative IPC: 3.945 (Simulation time: 00 hr 40 min 46 sec)
Heartbeat CPU 0 instructions: 270000002 cycles: 68246205 heartbeat IPC: 3.984 cumulative IPC: 3.946 (Simulation time: 00 hr 41 min 54 sec)
Heartbeat CPU 0 instructions: 280000003 cycles: 70756713 heartbeat IPC: 3.983 cumulative IPC: 3.948 (Simulation time: 00 hr 43 min 00 sec)
Heartbeat CPU 0 instructions: 290000000 cycles: 73263629 heartbeat IPC: 3.989 cumulative IPC: 3.95 (Simulation time: 00 hr 44 min 01 sec)
Heartbeat CPU 0 instructions: 300000000 cycles: 75775573 heartbeat IPC: 3.981 cumulative IPC: 3.951 (Simulation time: 00 hr 45 min 05 sec)
Heartbeat CPU 0 instructions: 310000002 cycles: 78284173 heartbeat IPC: 3.986 cumulative IPC: 3.952 (Simulation time: 00 hr 46 min 04 sec)
Heartbeat CPU 0 instructions: 320000004 cycles: 80792520 heartbeat IPC: 3.987 cumulative IPC: 3.954 (Simulation time: 00 hr 47 min 02 sec)
Heartbeat CPU 0 instructions: 330000000 cycles: 83300317 heartbeat IPC: 3.988 cumulative IPC: 3.955 (Simulation time: 00 hr 48 min 05 sec)
Heartbeat CPU 0 instructions: 340000002 cycles: 85810271 heartbeat IPC: 3.984 cumulative IPC: 3.956 (Simulation time: 00 hr 49 min 10 sec)
Heartbeat CPU 0 instructions: 350000002 cycles: 88319878 heartbeat IPC: 3.985 cumulative IPC: 3.957 (Simulation time: 00 hr 50 min 14 sec)
Heartbeat CPU 0 instructions: 360000000 cycles: 90828437 heartbeat IPC: 3.986 cumulative IPC: 3.958 (Simulation time: 00 hr 51 min 18 sec)
Heartbeat CPU 0 instructions: 370000004 cycles: 93335290 heartbeat IPC: 3.989 cumulative IPC: 3.959 (Simulation time: 00 hr 52 min 02 sec)
Heartbeat CPU 0 instructions: 380000000 cycles: 95849708 heartbeat IPC: 3.977 cumulative IPC: 3.959 (Simulation time: 00 hr 52 min 44 sec)
Heartbeat CPU 0 instructions: 390000000 cycles: 98353468 heartbeat IPC: 3.994 cumulative IPC: 3.96 (Simulation time: 00 hr 53 min 26 sec)
Heartbeat CPU 0 instructions: 400000000 cycles: 100858349 heartbeat IPC: 3.992 cumulative IPC: 3.961 (Simulation time: 00 hr 54 min 08 sec)
Heartbeat CPU 0 instructions: 410000000 cycles: 103366065 heartbeat IPC: 3.988 cumulative IPC: 3.962 (Simulation time: 00 hr 54 min 50 sec)
Heartbeat CPU 0 instructions: 420000001 cycles: 105869607 heartbeat IPC: 3.994 cumulative IPC: 3.963 (Simulation time: 00 hr 55 min 32 sec)
Heartbeat CPU 0 instructions: 430000003 cycles: 108374066 heartbeat IPC: 3.993 cumulative IPC: 3.964 (Simulation time: 00 hr 56 min 15 sec)
Heartbeat CPU 0 instructions: 440000003 cycles: 110886100 heartbeat IPC: 3.981 cumulative IPC: 3.964 (Simulation time: 00 hr 56 min 56 sec)
Heartbeat CPU 0 instructions: 450000004 cycles: 113395302 heartbeat IPC: 3.985 cumulative IPC: 3.965 (Simulation time: 00 hr 57 min 38 sec)
Heartbeat CPU 0 instructions: 460000001 cycles: 115905384 heartbeat IPC: 3.984 cumulative IPC: 3.965 (Simulation time: 00 hr 58 min 22 sec)
Heartbeat CPU 0 instructions: 470000002 cycles: 118412124 heartbeat IPC: 3.989 cumulative IPC: 3.966 (Simulation time: 00 hr 59 min 04 sec)
Heartbeat CPU 0 instructions: 480000001 cycles: 120919492 heartbeat IPC: 3.988 cumulative IPC: 3.966 (Simulation time: 00 hr 59 min 48 sec)
Heartbeat CPU 0 instructions: 490000000 cycles: 123429154 heartbeat IPC: 3.985 cumulative IPC: 3.967 (Simulation time: 01 hr 00 min 30 sec)
Heartbeat CPU 0 instructions: 500000002 cycles: 125946078 heartbeat IPC: 3.973 cumulative IPC: 3.967 (Simulation time: 01 hr 01 min 11 sec)
Heartbeat CPU 0 instructions: 510000003 cycles: 128452131 heartbeat IPC: 3.99 cumulative IPC: 3.967 (Simulation time: 01 hr 01 min 52 sec)
Heartbeat CPU 0 instructions: 520000004 cycles: 130958126 heartbeat IPC: 3.99 cumulative IPC: 3.968 (Simulation time: 01 hr 02 min 34 sec)
Heartbeat CPU 0 instructions: 530000000 cycles: 133467846 heartbeat IPC: 3.985 cumulative IPC: 3.968 (Simulation time: 01 hr 03 min 15 sec)
Heartbeat CPU 0 instructions: 540000000 cycles: 135982637 heartbeat IPC: 3.976 cumulative IPC: 3.968 (Simulation time: 01 hr 03 min 57 sec)
Heartbeat CPU 0 instructions: 550000002 cycles: 138491803 heartbeat IPC: 3.985 cumulative IPC: 3.969 (Simulation time: 01 hr 04 min 39 sec)
Heartbeat CPU 0 instructions: 560000003 cycles: 141003612 heartbeat IPC: 3.981 cumulative IPC: 3.969 (Simulation time: 01 hr 05 min 31 sec)
Heartbeat CPU 0 instructions: 570000004 cycles: 143515134 heartbeat IPC: 3.982 cumulative IPC: 3.969 (Simulation time: 01 hr 06 min 20 sec)
Heartbeat CPU 0 instructions: 580000000 cycles: 146023805 heartbeat IPC: 3.986 cumulative IPC: 3.969 (Simulation time: 01 hr 07 min 08 sec)
Heartbeat CPU 0 instructions: 590000002 cycles: 148536600 heartbeat IPC: 3.98 cumulative IPC: 3.97 (Simulation time: 01 hr 07 min 55 sec)
*** Reached end of trace: (0, "traces/convolution.champsimtrace")
Heartbeat CPU 0 instructions: 600000000 cycles: 151049186 heartbeat IPC: 3.98 cumulative IPC: 3.97 (Simulation time: 01 hr 08 min 43 sec)
Heartbeat CPU 0 instructions: 610000002 cycles: 173452179 heartbeat IPC: 0.4464 cumulative IPC: 3.479 (Simulation time: 01 hr 12 min 00 sec)
Heartbeat CPU 0 instructions: 620000001 cycles: 193347652 heartbeat IPC: 0.5026 cumulative IPC: 3.152 (Simulation time: 01 hr 14 min 54 sec)
Heartbeat CPU 0 instructions: 630000001 cycles: 198000535 heartbeat IPC: 2.149 cumulative IPC: 3.127 (Simulation time: 01 hr 15 min 57 sec)
Heartbeat CPU 0 instructions: 640000004 cycles: 208246274 heartbeat IPC: 0.976 cumulative IPC: 3.014 (Simulation time: 01 hr 17 min 40 sec)
Heartbeat CPU 0 instructions: 650000001 cycles: 219069135 heartbeat IPC: 0.924 cumulative IPC: 2.905 (Simulation time: 01 hr 19 min 24 sec)
Simulation finished CPU 0 instructions: 600000001 cycles: 206568933 cumulative IPC: 2.905 (Simulation time: 01 hr 19 min 24 sec)
Simulation complete CPU 0 instructions: 600000001 cycles: 206568933 cumulative IPC: 2.905 (Simulation time: 01 hr 19 min 24 sec)

ChampSim completed all CPUs

=== Simulation ===
CPU 0 runs traces/convolution.champsimtrace
Region of Interest Statistics

CPU 0 cumulative IPC: 2.905 instructions: 600000001 cycles: 206568933
CPU 0 Branch Prediction Accuracy: 100% MPKI: 0.002858 Average ROB Occupancy at Mispredict: 78.55
Branch type MPKI
BRANCH_DIRECT_JUMP: 0.000107
BRANCH_INDIRECT: 4.17e-05
BRANCH_CONDITIONAL: 0.00258
BRANCH_DIRECT_CALL: 0.000103
BRANCH_INDIRECT_CALL: 8.33e-06
BRANCH_RETURN: 1.83e-05

LLC TOTAL        ACCESS:    1182681 HIT:     240025 MISS:     942656
LLC LOAD         ACCESS:       2886 HIT:        783 MISS:       2103
LLC RFO          ACCESS:     535122 HIT:      30846 MISS:     504276
LLC PREFETCH     ACCESS:          0 HIT:          0 MISS:          0
LLC WRITE        ACCESS:     535172 HIT:     177756 MISS:     357416
LLC TRANSLATION  ACCESS:     109501 HIT:      30640 MISS:      78861
LLC PREFETCH REQUESTED:          0 ISSUED:          0 USEFUL:          0 USELESS:          0
LLC AVERAGE MISS LATENCY: 651.3 cycles
cpu0_DTLB TOTAL        ACCESS:  113390287 HIT:  113075119 MISS:     315168
cpu0_DTLB LOAD         ACCESS:  113390287 HIT:  113075119 MISS:     315168
cpu0_DTLB RFO          ACCESS:          0 HIT:          0 MISS:          0
cpu0_DTLB PREFETCH     ACCESS:          0 HIT:          0 MISS:          0
cpu0_DTLB WRITE        ACCESS:          0 HIT:          0 MISS:          0
cpu0_DTLB TRANSLATION  ACCESS:          0 HIT:          0 MISS:          0
cpu0_DTLB PREFETCH REQUESTED:          0 ISSUED:          0 USEFUL:          0 USELESS:          0
cpu0_DTLB AVERAGE MISS LATENCY: 661.4 cycles
cpu0_ITLB TOTAL        ACCESS:       2126 HIT:       2092 MISS:         34
cpu0_ITLB LOAD         ACCESS:       2126 HIT:       2092 MISS:         34
cpu0_ITLB RFO          ACCESS:          0 HIT:          0 MISS:          0
cpu0_ITLB PREFETCH     ACCESS:          0 HIT:          0 MISS:          0
cpu0_ITLB WRITE        ACCESS:          0 HIT:          0 MISS:          0
cpu0_ITLB TRANSLATION  ACCESS:          0 HIT:          0 MISS:          0
cpu0_ITLB PREFETCH REQUESTED:          0 ISSUED:          0 USEFUL:          0 USELESS:          0
cpu0_ITLB AVERAGE MISS LATENCY: 666.2 cycles
cpu0_L1D TOTAL        ACCESS:  146551491 HIT:  140405949 MISS:    6145542
cpu0_L1D LOAD         ACCESS:   74371240 HIT:   74363246 MISS:       7994
cpu0_L1D RFO          ACCESS:          0 HIT:          0 MISS:          0
cpu0_L1D PREFETCH     ACCESS:          0 HIT:          0 MISS:          0
cpu0_L1D WRITE        ACCESS:   71999790 HIT:   66009071 MISS:    5990719
cpu0_L1D TRANSLATION  ACCESS:     180461 HIT:      33632 MISS:     146829
cpu0_L1D PREFETCH REQUESTED:          0 ISSUED:          0 USEFUL:          0 USELESS:          0
cpu0_L1D AVERAGE MISS LATENCY: 80.94 cycles
cpu0_L1I TOTAL        ACCESS:       2485 HIT:       1019 MISS:       1466
cpu0_L1I LOAD         ACCESS:       2485 HIT:       1019 MISS:       1466
cpu0_L1I RFO          ACCESS:          0 HIT:          0 MISS:          0
cpu0_L1I PREFETCH     ACCESS:          0 HIT:          0 MISS:          0
cpu0_L1I WRITE        ACCESS:          0 HIT:          0 MISS:          0
cpu0_L1I TRANSLATION  ACCESS:          0 HIT:          0 MISS:          0
cpu0_L1I PREFETCH REQUESTED:          0 ISSUED:          0 USEFUL:          0 USELESS:          0
cpu0_L1I AVERAGE MISS LATENCY: 470.1 cycles
cpu0_L2C TOTAL        ACCESS:    1192957 HIT:     545431 MISS:     647526
cpu0_L2C LOAD         ACCESS:       3311 HIT:        425 MISS:       2886
cpu0_L2C RFO          ACCESS:     539184 HIT:       4062 MISS:     535122
cpu0_L2C PREFETCH     ACCESS:          0 HIT:          0 MISS:          0
cpu0_L2C WRITE        ACCESS:     539622 HIT:     539606 MISS:         16
cpu0_L2C TRANSLATION  ACCESS:     110840 HIT:       1338 MISS:     109502
cpu0_L2C PREFETCH REQUESTED:          0 ISSUED:          0 USEFUL:          0 USELESS:          0
cpu0_L2C AVERAGE MISS LATENCY: 969.1 cycles
cpu0_STLB TOTAL        ACCESS:     156149 HIT:         43 MISS:     156106
cpu0_STLB LOAD         ACCESS:     156149 HIT:         43 MISS:     156106
cpu0_STLB RFO          ACCESS:          0 HIT:          0 MISS:          0
cpu0_STLB PREFETCH     ACCESS:          0 HIT:          0 MISS:          0
cpu0_STLB WRITE        ACCESS:          0 HIT:          0 MISS:          0
cpu0_STLB TRANSLATION  ACCESS:          0 HIT:          0 MISS:          0
cpu0_STLB PREFETCH REQUESTED:          0 ISSUED:          0 USEFUL:          0 USELESS:          0
cpu0_STLB AVERAGE MISS LATENCY: 1480 cycles

DRAM Statistics

Channel 0 RQ ROW_BUFFER_HIT:     127922
  ROW_BUFFER_MISS:     457313
 AVG DBUS CONGESTED CYCLE: 3.979
WQ ROW_BUFFER_HIT: Channel 0 
  ROW_BUFFER_MISS:     113421
  FULL:     390852
