WARNING: physical memory size is smaller than virtual memory size.

*** ChampSim Multicore Out-of-Order Simulator ***
Warmup Instructions: 50000000
Simulation Instructions: 600000000
Number of CPUs: 1
Page size: 4096

Off-chip DRAM Size: 4 GiB Channels: 1 Width: 64-bit Data Race: 3200 MT/s
Heartbeat CPU 0 instructions: 10000002 cycles: 2500202 heartbeat IPC: 4 cumulative IPC: 4 (Simulation time: 00 hr 00 min 38 sec)
Heartbeat CPU 0 instructions: 20000002 cycles: 5000202 heartbeat IPC: 4 cumulative IPC: 4 (Simulation time: 00 hr 01 min 22 sec)
Heartbeat CPU 0 instructions: 30000002 cycles: 7500202 heartbeat IPC: 4 cumulative IPC: 4 (Simulation time: 00 hr 02 min 00 sec)
Heartbeat CPU 0 instructions: 40000002 cycles: 10000202 heartbeat IPC: 4 cumulative IPC: 4 (Simulation time: 00 hr 02 min 39 sec)
Heartbeat CPU 0 instructions: 50000002 cycles: 12500202 heartbeat IPC: 4 cumulative IPC: 4 (Simulation time: 00 hr 03 min 16 sec)
Warmup finished CPU 0 instructions: 50000002 cycles: 12500203 cumulative IPC: 4 (Simulation time: 00 hr 03 min 16 sec)
Warmup complete CPU 0 instructions: 50000002 cycles: 12500203 cumulative IPC: 4 (Simulation time: 00 hr 03 min 16 sec)
Heartbeat CPU 0 instructions: 60000004 cycles: 15780608 heartbeat IPC: 3.048 cumulative IPC: 3.048 (Simulation time: 00 hr 04 min 02 sec)
Heartbeat CPU 0 instructions: 70000000 cycles: 18481292 heartbeat IPC: 3.703 cumulative IPC: 3.344 (Simulation time: 00 hr 04 min 41 sec)
Heartbeat CPU 0 instructions: 80000003 cycles: 21183245 heartbeat IPC: 3.701 cumulative IPC: 3.455 (Simulation time: 00 hr 05 min 17 sec)
Heartbeat CPU 0 instructions: 90000004 cycles: 23891741 heartbeat IPC: 3.692 cumulative IPC: 3.511 (Simulation time: 00 hr 05 min 52 sec)
Heartbeat CPU 0 instructions: 100000004 cycles: 26591020 heartbeat IPC: 3.705 cumulative IPC: 3.548 (Simulation time: 00 hr 06 min 27 sec)
Heartbeat CPU 0 instructions: 110000004 cycles: 29289200 heartbeat IPC: 3.706 cumulative IPC: 3.574 (Simulation time: 00 hr 07 min 02 sec)
Heartbeat CPU 0 instructions: 120000000 cycles: 31990165 heartbeat IPC: 3.702 cumulative IPC: 3.592 (Simulation time: 00 hr 07 min 36 sec)
Heartbeat CPU 0 instructions: 130000000 cycles: 34688284 heartbeat IPC: 3.706 cumulative IPC: 3.606 (Simulation time: 00 hr 08 min 10 sec)
Heartbeat CPU 0 instructions: 140000004 cycles: 37389870 heartbeat IPC: 3.702 cumulative IPC: 3.616 (Simulation time: 00 hr 08 min 44 sec)
Heartbeat CPU 0 instructions: 150000004 cycles: 40091253 heartbeat IPC: 3.702 cumulative IPC: 3.624 (Simulation time: 00 hr 09 min 17 sec)
Heartbeat CPU 0 instructions: 160000000 cycles: 42785848 heartbeat IPC: 3.711 cumulative IPC: 3.632 (Simulation time: 00 hr 09 min 51 sec)
Heartbeat CPU 0 instructions: 170000000 cycles: 45488861 heartbeat IPC: 3.7 cumulative IPC: 3.638 (Simulation time: 00 hr 10 min 24 sec)
Heartbeat CPU 0 instructions: 180000000 cycles: 48188037 heartbeat IPC: 3.705 cumulative IPC: 3.643 (Simulation time: 00 hr 10 min 56 sec)
Heartbeat CPU 0 instructions: 190000000 cycles: 50888503 heartbeat IPC: 3.703 cumulative IPC: 3.647 (Simulation time: 00 hr 11 min 27 sec)
Heartbeat CPU 0 instructions: 200000003 cycles: 53585388 heartbeat IPC: 3.708 cumulative IPC: 3.651 (Simulation time: 00 hr 11 min 58 sec)
Heartbeat CPU 0 instructions: 210000004 cycles: 56287219 heartbeat IPC: 3.701 cumulative IPC: 3.654 (Simulation time: 00 hr 12 min 29 sec)
Heartbeat CPU 0 instructions: 220000004 cycles: 58990282 heartbeat IPC: 3.7 cumulative IPC: 3.657 (Simulation time: 00 hr 13 min 00 sec)
Heartbeat CPU 0 instructions: 230000000 cycles: 61688875 heartbeat IPC: 3.706 cumulative IPC: 3.659 (Simulation time: 00 hr 13 min 32 sec)
Heartbeat CPU 0 instructions: 240000000 cycles: 64388085 heartbeat IPC: 3.705 cumulative IPC: 3.662 (Simulation time: 00 hr 14 min 03 sec)
Heartbeat CPU 0 instructions: 250000003 cycles: 67091660 heartbeat IPC: 3.699 cumulative IPC: 3.664 (Simulation time: 00 hr 14 min 35 sec)
Heartbeat CPU 0 instructions: 260000004 cycles: 69799171 heartbeat IPC: 3.693 cumulative IPC: 3.665 (Simulation time: 00 hr 15 min 06 sec)
Heartbeat CPU 0 instructions: 270000004 cycles: 72505165 heartbeat IPC: 3.695 cumulative IPC: 3.666 (Simulation time: 00 hr 15 min 37 sec)
Heartbeat CPU 0 instructions: 280000000 cycles: 75208660 heartbeat IPC: 3.699 cumulative IPC: 3.668 (Simulation time: 00 hr 16 min 09 sec)
Heartbeat CPU 0 instructions: 290000000 cycles: 77908449 heartbeat IPC: 3.704 cumulative IPC: 3.669 (Simulation time: 00 hr 16 min 40 sec)
Heartbeat CPU 0 instructions: 300000001 cycles: 80612162 heartbeat IPC: 3.699 cumulative IPC: 3.67 (Simulation time: 00 hr 17 min 11 sec)
Heartbeat CPU 0 instructions: 310000004 cycles: 83308954 heartbeat IPC: 3.708 cumulative IPC: 3.672 (Simulation time: 00 hr 17 min 41 sec)
Heartbeat CPU 0 instructions: 320000003 cycles: 86012591 heartbeat IPC: 3.699 cumulative IPC: 3.673 (Simulation time: 00 hr 18 min 12 sec)
Heartbeat CPU 0 instructions: 330000004 cycles: 88713060 heartbeat IPC: 3.703 cumulative IPC: 3.674 (Simulation time: 00 hr 18 min 43 sec)
Heartbeat CPU 0 instructions: 340000004 cycles: 91412199 heartbeat IPC: 3.705 cumulative IPC: 3.675 (Simulation time: 00 hr 19 min 14 sec)
Heartbeat CPU 0 instructions: 350000000 cycles: 94115153 heartbeat IPC: 3.7 cumulative IPC: 3.676 (Simulation time: 00 hr 19 min 45 sec)
Heartbeat CPU 0 instructions: 360000000 cycles: 96813632 heartbeat IPC: 3.706 cumulative IPC: 3.677 (Simulation time: 00 hr 20 min 16 sec)
Heartbeat CPU 0 instructions: 370000004 cycles: 99516801 heartbeat IPC: 3.699 cumulative IPC: 3.677 (Simulation time: 00 hr 20 min 47 sec)
Heartbeat CPU 0 instructions: 380000004 cycles: 102219019 heartbeat IPC: 3.701 cumulative IPC: 3.678 (Simulation time: 00 hr 21 min 18 sec)
Heartbeat CPU 0 instructions: 390000004 cycles: 104922245 heartbeat IPC: 3.699 cumulative IPC: 3.679 (Simulation time: 00 hr 21 min 49 sec)
Heartbeat CPU 0 instructions: 400000000 cycles: 107621656 heartbeat IPC: 3.705 cumulative IPC: 3.68 (Simulation time: 00 hr 22 min 20 sec)
Heartbeat CPU 0 instructions: 410000000 cycles: 110319725 heartbeat IPC: 3.706 cumulative IPC: 3.68 (Simulation time: 00 hr 22 min 52 sec)
Heartbeat CPU 0 instructions: 420000004 cycles: 113027777 heartbeat IPC: 3.693 cumulative IPC: 3.681 (Simulation time: 00 hr 23 min 23 sec)
Heartbeat CPU 0 instructions: 430000004 cycles: 115728108 heartbeat IPC: 3.703 cumulative IPC: 3.681 (Simulation time: 00 hr 23 min 54 sec)
Heartbeat CPU 0 instructions: 440000004 cycles: 118426300 heartbeat IPC: 3.706 cumulative IPC: 3.682 (Simulation time: 00 hr 24 min 25 sec)
Heartbeat CPU 0 instructions: 450000004 cycles: 121122351 heartbeat IPC: 3.709 cumulative IPC: 3.682 (Simulation time: 00 hr 24 min 56 sec)
Heartbeat CPU 0 instructions: 460000004 cycles: 123821793 heartbeat IPC: 3.704 cumulative IPC: 3.683 (Simulation time: 00 hr 25 min 27 sec)
Heartbeat CPU 0 instructions: 470000000 cycles: 126521701 heartbeat IPC: 3.704 cumulative IPC: 3.684 (Simulation time: 00 hr 25 min 57 sec)
Heartbeat CPU 0 instructions: 480000000 cycles: 129220547 heartbeat IPC: 3.705 cumulative IPC: 3.684 (Simulation time: 00 hr 26 min 28 sec)
Heartbeat CPU 0 instructions: 490000004 cycles: 131922874 heartbeat IPC: 3.701 cumulative IPC: 3.684 (Simulation time: 00 hr 26 min 59 sec)
Heartbeat CPU 0 instructions: 500000004 cycles: 134620610 heartbeat IPC: 3.707 cumulative IPC: 3.685 (Simulation time: 00 hr 27 min 30 sec)
Heartbeat CPU 0 instructions: 510000004 cycles: 137320275 heartbeat IPC: 3.704 cumulative IPC: 3.685 (Simulation time: 00 hr 28 min 00 sec)
Heartbeat CPU 0 instructions: 520000000 cycles: 140021451 heartbeat IPC: 3.702 cumulative IPC: 3.686 (Simulation time: 00 hr 28 min 31 sec)
Heartbeat CPU 0 instructions: 530000000 cycles: 142725185 heartbeat IPC: 3.699 cumulative IPC: 3.686 (Simulation time: 00 hr 29 min 02 sec)
Heartbeat CPU 0 instructions: 540000004 cycles: 145423768 heartbeat IPC: 3.706 cumulative IPC: 3.686 (Simulation time: 00 hr 29 min 33 sec)
Heartbeat CPU 0 instructions: 550000004 cycles: 148128285 heartbeat IPC: 3.698 cumulative IPC: 3.687 (Simulation time: 00 hr 30 min 04 sec)
Heartbeat CPU 0 instructions: 560000000 cycles: 150824584 heartbeat IPC: 3.709 cumulative IPC: 3.687 (Simulation time: 00 hr 30 min 36 sec)
Heartbeat CPU 0 instructions: 570000000 cycles: 153522751 heartbeat IPC: 3.706 cumulative IPC: 3.687 (Simulation time: 00 hr 31 min 06 sec)
Heartbeat CPU 0 instructions: 580000000 cycles: 156225275 heartbeat IPC: 3.7 cumulative IPC: 3.688 (Simulation time: 00 hr 31 min 37 sec)
Heartbeat CPU 0 instructions: 590000000 cycles: 158926437 heartbeat IPC: 3.702 cumulative IPC: 3.688 (Simulation time: 00 hr 32 min 08 sec)
*** Reached end of trace: (0, "traces/convolution.champsimtrace")
Heartbeat CPU 0 instructions: 600000000 cycles: 161633880 heartbeat IPC: 3.694 cumulative IPC: 3.688 (Simulation time: 00 hr 32 min 39 sec)
Heartbeat CPU 0 instructions: 610000004 cycles: 184067824 heartbeat IPC: 0.4458 cumulative IPC: 3.264 (Simulation time: 00 hr 35 min 09 sec)
Heartbeat CPU 0 instructions: 620000000 cycles: 203820301 heartbeat IPC: 0.5063 cumulative IPC: 2.979 (Simulation time: 00 hr 37 min 25 sec)
Heartbeat CPU 0 instructions: 630000003 cycles: 208454038 heartbeat IPC: 2.158 cumulative IPC: 2.96 (Simulation time: 00 hr 38 min 07 sec)
Heartbeat CPU 0 instructions: 640000002 cycles: 218670631 heartbeat IPC: 0.9788 cumulative IPC: 2.862 (Simulation time: 00 hr 39 min 14 sec)
Heartbeat CPU 0 instructions: 650000004 cycles: 229440330 heartbeat IPC: 0.9285 cumulative IPC: 2.766 (Simulation time: 00 hr 40 min 18 sec)
Simulation finished CPU 0 instructions: 600000002 cycles: 216940128 cumulative IPC: 2.766 (Simulation time: 00 hr 40 min 18 sec)
Simulation complete CPU 0 instructions: 600000002 cycles: 216940128 cumulative IPC: 2.766 (Simulation time: 00 hr 40 min 18 sec)

ChampSim completed all CPUs

=== Simulation ===
CPU 0 runs traces/convolution.champsimtrace
Region of Interest Statistics

CPU 0 cumulative IPC: 2.766 instructions: 600000002 cycles: 216940128
CPU 0 Branch Prediction Accuracy: 99.34% MPKI: 1.278 Average ROB Occupancy at Mispredict: 84.64
Branch type MPKI
BRANCH_DIRECT_JUMP: 1e-05
BRANCH_INDIRECT: 4.67e-05
BRANCH_CONDITIONAL: 1.28
BRANCH_DIRECT_CALL: 6.67e-06
BRANCH_INDIRECT_CALL: 8.33e-06
BRANCH_RETURN: 2.17e-05

LLC TOTAL        ACCESS:    1192654 HIT:     202233 MISS:     990421
LLC LOAD         ACCESS:       2888 HIT:       1328 MISS:       1560
LLC RFO          ACCESS:     539060 HIT:      30792 MISS:     508268
LLC PREFETCH     ACCESS:       2076 HIT:       2035 MISS:         41
LLC WRITE        ACCESS:     539110 HIT:     137903 MISS:     401207
LLC TRANSLATION  ACCESS:     109520 HIT:      30175 MISS:      79345
LLC PREFETCH REQUESTED:       2076 ISSUED:       2076 USEFUL:         10 USELESS:         21
LLC AVERAGE MISS LATENCY: 623.4 cycles
cpu0_DTLB TOTAL        ACCESS:  123166948 HIT:  122851929 MISS:     315019
cpu0_DTLB LOAD         ACCESS:  123166948 HIT:  122851929 MISS:     315019
cpu0_DTLB RFO          ACCESS:          0 HIT:          0 MISS:          0
cpu0_DTLB PREFETCH     ACCESS:          0 HIT:          0 MISS:          0
cpu0_DTLB WRITE        ACCESS:          0 HIT:          0 MISS:          0
cpu0_DTLB TRANSLATION  ACCESS:          0 HIT:          0 MISS:          0
cpu0_DTLB PREFETCH REQUESTED:          0 ISSUED:          0 USEFUL:          0 USELESS:          0
cpu0_DTLB AVERAGE MISS LATENCY: 658 cycles
cpu0_ITLB TOTAL        ACCESS:       2020 HIT:       1961 MISS:         59
cpu0_ITLB LOAD         ACCESS:       2020 HIT:       1961 MISS:         59
cpu0_ITLB RFO          ACCESS:          0 HIT:          0 MISS:          0
cpu0_ITLB PREFETCH     ACCESS:          0 HIT:          0 MISS:          0
cpu0_ITLB WRITE        ACCESS:          0 HIT:          0 MISS:          0
cpu0_ITLB TRANSLATION  ACCESS:          0 HIT:          0 MISS:          0
cpu0_ITLB PREFETCH REQUESTED:          0 ISSUED:          0 USEFUL:          0 USELESS:          0
cpu0_ITLB AVERAGE MISS LATENCY: 576 cycles
cpu0_L1D TOTAL        ACCESS:  155386004 HIT:  149210262 MISS:    6175742
cpu0_L1D LOAD         ACCESS:   82435043 HIT:   82428893 MISS:       6150
cpu0_L1D RFO          ACCESS:          0 HIT:          0 MISS:          0
cpu0_L1D PREFETCH     ACCESS:          0 HIT:          0 MISS:          0
cpu0_L1D WRITE        ACCESS:   72770439 HIT:   66747080 MISS:    6023359
cpu0_L1D TRANSLATION  ACCESS:     180522 HIT:      34289 MISS:     146233
cpu0_L1D PREFETCH REQUESTED:          0 ISSUED:          0 USEFUL:          0 USELESS:          0
cpu0_L1D AVERAGE MISS LATENCY: 79.52 cycles
cpu0_L1I TOTAL        ACCESS:       2361 HIT:       1055 MISS:       1306
cpu0_L1I LOAD         ACCESS:       2361 HIT:       1055 MISS:       1306
cpu0_L1I RFO          ACCESS:          0 HIT:          0 MISS:          0
cpu0_L1I PREFETCH     ACCESS:          0 HIT:          0 MISS:          0
cpu0_L1I WRITE        ACCESS:          0 HIT:          0 MISS:          0
cpu0_L1I TRANSLATION  ACCESS:          0 HIT:          0 MISS:          0
cpu0_L1I PREFETCH REQUESTED:          0 ISSUED:          0 USEFUL:          0 USELESS:          0
cpu0_L1I AVERAGE MISS LATENCY: 548.2 cycles
cpu0_L2C TOTAL        ACCESS:    1198862 HIT:     547373 MISS:     651489
cpu0_L2C LOAD         ACCESS:       3320 HIT:        432 MISS:       2888
cpu0_L2C RFO          ACCESS:     542283 HIT:       3223 MISS:     539060
cpu0_L2C PREFETCH     ACCESS:          0 HIT:          0 MISS:          0
cpu0_L2C WRITE        ACCESS:     542541 HIT:     542520 MISS:         21
cpu0_L2C TRANSLATION  ACCESS:     110718 HIT:       1198 MISS:     109520
cpu0_L2C PREFETCH REQUESTED:          0 ISSUED:          0 USEFUL:          0 USELESS:          0
cpu0_L2C AVERAGE MISS LATENCY: 968.6 cycles
cpu0_STLB TOTAL        ACCESS:     156213 HIT:         39 MISS:     156174
cpu0_STLB LOAD         ACCESS:     156213 HIT:         39 MISS:     156174
cpu0_STLB RFO          ACCESS:          0 HIT:          0 MISS:          0
cpu0_STLB PREFETCH     ACCESS:          0 HIT:          0 MISS:          0
cpu0_STLB WRITE        ACCESS:          0 HIT:          0 MISS:          0
cpu0_STLB TRANSLATION  ACCESS:          0 HIT:          0 MISS:          0
cpu0_STLB PREFETCH REQUESTED:          0 ISSUED:          0 USEFUL:          0 USELESS:          0
cpu0_STLB AVERAGE MISS LATENCY: 1472 cycles

DRAM Statistics

Channel 0 RQ ROW_BUFFER_HIT:     128783
  ROW_BUFFER_MISS:     460412
 AVG DBUS CONGESTED CYCLE: 3.978
WQ ROW_BUFFER_HIT: Channel 0 
  ROW_BUFFER_MISS:     107011
  FULL:     401253
