WARNING: physical memory size is smaller than virtual memory size.

*** ChampSim Multicore Out-of-Order Simulator ***
Warmup Instructions: 50000000
Simulation Instructions: 600000000
Number of CPUs: 1
Page size: 4096

Off-chip DRAM Size: 4 GiB Channels: 1 Width: 64-bit Data Race: 3200 MT/s
Heartbeat CPU 0 instructions: 10000000 cycles: 2500202 heartbeat IPC: 4 cumulative IPC: 4 (Simulation time: 00 hr 00 min 33 sec)
Heartbeat CPU 0 instructions: 20000000 cycles: 5000202 heartbeat IPC: 4 cumulative IPC: 4 (Simulation time: 00 hr 01 min 08 sec)
Heartbeat CPU 0 instructions: 30000000 cycles: 7500202 heartbeat IPC: 4 cumulative IPC: 4 (Simulation time: 00 hr 01 min 43 sec)
Heartbeat CPU 0 instructions: 40000000 cycles: 10000202 heartbeat IPC: 4 cumulative IPC: 4 (Simulation time: 00 hr 02 min 19 sec)
Heartbeat CPU 0 instructions: 50000000 cycles: 12500202 heartbeat IPC: 4 cumulative IPC: 4 (Simulation time: 00 hr 02 min 58 sec)
Warmup finished CPU 0 instructions: 50000000 cycles: 12500203 cumulative IPC: 4 (Simulation time: 00 hr 02 min 58 sec)
Warmup complete CPU 0 instructions: 50000000 cycles: 12500203 cumulative IPC: 4 (Simulation time: 00 hr 02 min 58 sec)
Heartbeat CPU 0 instructions: 60000002 cycles: 15732316 heartbeat IPC: 3.094 cumulative IPC: 3.094 (Simulation time: 00 hr 03 min 39 sec)
Heartbeat CPU 0 instructions: 70000002 cycles: 18387595 heartbeat IPC: 3.766 cumulative IPC: 3.397 (Simulation time: 00 hr 04 min 19 sec)
Heartbeat CPU 0 instructions: 80000003 cycles: 21047039 heartbeat IPC: 3.76 cumulative IPC: 3.51 (Simulation time: 00 hr 04 min 59 sec)
Heartbeat CPU 0 instructions: 90000004 cycles: 23703208 heartbeat IPC: 3.765 cumulative IPC: 3.57 (Simulation time: 00 hr 05 min 41 sec)
Heartbeat CPU 0 instructions: 100000003 cycles: 26361670 heartbeat IPC: 3.762 cumulative IPC: 3.607 (Simulation time: 00 hr 06 min 20 sec)
Heartbeat CPU 0 instructions: 110000000 cycles: 29018404 heartbeat IPC: 3.764 cumulative IPC: 3.632 (Simulation time: 00 hr 07 min 01 sec)
Heartbeat CPU 0 instructions: 120000000 cycles: 31676652 heartbeat IPC: 3.762 cumulative IPC: 3.65 (Simulation time: 00 hr 07 min 38 sec)
Heartbeat CPU 0 instructions: 130000000 cycles: 34332935 heartbeat IPC: 3.765 cumulative IPC: 3.664 (Simulation time: 00 hr 08 min 19 sec)
Heartbeat CPU 0 instructions: 140000001 cycles: 36992104 heartbeat IPC: 3.761 cumulative IPC: 3.675 (Simulation time: 00 hr 09 min 02 sec)
Heartbeat CPU 0 instructions: 150000003 cycles: 39646916 heartbeat IPC: 3.767 cumulative IPC: 3.684 (Simulation time: 00 hr 09 min 41 sec)
Heartbeat CPU 0 instructions: 160000003 cycles: 42301700 heartbeat IPC: 3.767 cumulative IPC: 3.691 (Simulation time: 00 hr 10 min 18 sec)
Heartbeat CPU 0 instructions: 170000001 cycles: 44957174 heartbeat IPC: 3.766 cumulative IPC: 3.697 (Simulation time: 00 hr 10 min 57 sec)
Heartbeat CPU 0 instructions: 180000001 cycles: 47612357 heartbeat IPC: 3.766 cumulative IPC: 3.702 (Simulation time: 00 hr 11 min 36 sec)
Heartbeat CPU 0 instructions: 190000002 cycles: 50265658 heartbeat IPC: 3.769 cumulative IPC: 3.707 (Simulation time: 00 hr 12 min 15 sec)
Heartbeat CPU 0 instructions: 200000001 cycles: 52922142 heartbeat IPC: 3.764 cumulative IPC: 3.711 (Simulation time: 00 hr 12 min 52 sec)
Heartbeat CPU 0 instructions: 210000000 cycles: 55577905 heartbeat IPC: 3.765 cumulative IPC: 3.714 (Simulation time: 00 hr 13 min 28 sec)
Heartbeat CPU 0 instructions: 220000001 cycles: 58240137 heartbeat IPC: 3.756 cumulative IPC: 3.717 (Simulation time: 00 hr 14 min 04 sec)
Heartbeat CPU 0 instructions: 230000002 cycles: 60902038 heartbeat IPC: 3.757 cumulative IPC: 3.719 (Simulation time: 00 hr 14 min 41 sec)
Heartbeat CPU 0 instructions: 240000004 cycles: 63556314 heartbeat IPC: 3.768 cumulative IPC: 3.721 (Simulation time: 00 hr 15 min 18 sec)
Heartbeat CPU 0 instructions: 250000000 cycles: 66216681 heartbeat IPC: 3.759 cumulative IPC: 3.723 (Simulation time: 00 hr 15 min 54 sec)
Heartbeat CPU 0 instructions: 260000000 cycles: 68872540 heartbeat IPC: 3.765 cumulative IPC: 3.725 (Simulation time: 00 hr 16 min 30 sec)
Heartbeat CPU 0 instructions: 270000002 cycles: 71531112 heartbeat IPC: 3.761 cumulative IPC: 3.727 (Simulation time: 00 hr 17 min 19 sec)
Heartbeat CPU 0 instructions: 280000003 cycles: 74193590 heartbeat IPC: 3.756 cumulative IPC: 3.728 (Simulation time: 00 hr 18 min 10 sec)
Heartbeat CPU 0 instructions: 290000002 cycles: 76851445 heartbeat IPC: 3.762 cumulative IPC: 3.73 (Simulation time: 00 hr 19 min 06 sec)
Heartbeat CPU 0 instructions: 300000000 cycles: 79509279 heartbeat IPC: 3.762 cumulative IPC: 3.731 (Simulation time: 00 hr 20 min 05 sec)
Heartbeat CPU 0 instructions: 310000002 cycles: 82171307 heartbeat IPC: 3.757 cumulative IPC: 3.732 (Simulation time: 00 hr 20 min 56 sec)
Heartbeat CPU 0 instructions: 320000004 cycles: 84829337 heartbeat IPC: 3.762 cumulative IPC: 3.733 (Simulation time: 00 hr 21 min 50 sec)
Heartbeat CPU 0 instructions: 330000000 cycles: 87487820 heartbeat IPC: 3.762 cumulative IPC: 3.734 (Simulation time: 00 hr 22 min 46 sec)
Heartbeat CPU 0 instructions: 340000002 cycles: 90144297 heartbeat IPC: 3.764 cumulative IPC: 3.735 (Simulation time: 00 hr 23 min 35 sec)
Heartbeat CPU 0 instructions: 350000002 cycles: 92801106 heartbeat IPC: 3.764 cumulative IPC: 3.736 (Simulation time: 00 hr 24 min 24 sec)
Heartbeat CPU 0 instructions: 360000001 cycles: 95459991 heartbeat IPC: 3.761 cumulative IPC: 3.737 (Simulation time: 00 hr 25 min 14 sec)
Heartbeat CPU 0 instructions: 370000004 cycles: 98115418 heartbeat IPC: 3.766 cumulative IPC: 3.738 (Simulation time: 00 hr 26 min 08 sec)
Heartbeat CPU 0 instructions: 380000000 cycles: 100776885 heartbeat IPC: 3.757 cumulative IPC: 3.738 (Simulation time: 00 hr 26 min 57 sec)
Heartbeat CPU 0 instructions: 390000003 cycles: 103431228 heartbeat IPC: 3.767 cumulative IPC: 3.739 (Simulation time: 00 hr 27 min 46 sec)
Heartbeat CPU 0 instructions: 400000000 cycles: 106092014 heartbeat IPC: 3.758 cumulative IPC: 3.74 (Simulation time: 00 hr 28 min 35 sec)
Heartbeat CPU 0 instructions: 410000000 cycles: 108752387 heartbeat IPC: 3.759 cumulative IPC: 3.74 (Simulation time: 00 hr 29 min 24 sec)
Heartbeat CPU 0 instructions: 420000001 cycles: 111406879 heartbeat IPC: 3.767 cumulative IPC: 3.741 (Simulation time: 00 hr 30 min 13 sec)
Heartbeat CPU 0 instructions: 430000003 cycles: 114062145 heartbeat IPC: 3.766 cumulative IPC: 3.742 (Simulation time: 00 hr 31 min 01 sec)
Heartbeat CPU 0 instructions: 440000003 cycles: 116727540 heartbeat IPC: 3.752 cumulative IPC: 3.742 (Simulation time: 00 hr 31 min 49 sec)
Heartbeat CPU 0 instructions: 450000004 cycles: 119387549 heartbeat IPC: 3.759 cumulative IPC: 3.742 (Simulation time: 00 hr 32 min 41 sec)
Heartbeat CPU 0 instructions: 460000001 cycles: 122048153 heartbeat IPC: 3.759 cumulative IPC: 3.743 (Simulation time: 00 hr 33 min 33 sec)
Heartbeat CPU 0 instructions: 470000002 cycles: 124704828 heartbeat IPC: 3.764 cumulative IPC: 3.743 (Simulation time: 00 hr 34 min 22 sec)
Heartbeat CPU 0 instructions: 480000001 cycles: 127360998 heartbeat IPC: 3.765 cumulative IPC: 3.744 (Simulation time: 00 hr 34 min 57 sec)
Heartbeat CPU 0 instructions: 490000000 cycles: 130020649 heartbeat IPC: 3.76 cumulative IPC: 3.744 (Simulation time: 00 hr 35 min 31 sec)
Heartbeat CPU 0 instructions: 500000002 cycles: 132688256 heartbeat IPC: 3.749 cumulative IPC: 3.744 (Simulation time: 00 hr 36 min 07 sec)
Heartbeat CPU 0 instructions: 510000003 cycles: 135346821 heartbeat IPC: 3.761 cumulative IPC: 3.745 (Simulation time: 00 hr 36 min 41 sec)
Heartbeat CPU 0 instructions: 520000004 cycles: 138005655 heartbeat IPC: 3.761 cumulative IPC: 3.745 (Simulation time: 00 hr 37 min 16 sec)
Heartbeat CPU 0 instructions: 530000000 cycles: 140660555 heartbeat IPC: 3.767 cumulative IPC: 3.745 (Simulation time: 00 hr 37 min 51 sec)
Heartbeat CPU 0 instructions: 540000000 cycles: 143327101 heartbeat IPC: 3.75 cumulative IPC: 3.745 (Simulation time: 00 hr 38 min 25 sec)
Heartbeat CPU 0 instructions: 550000003 cycles: 145983381 heartbeat IPC: 3.765 cumulative IPC: 3.746 (Simulation time: 00 hr 39 min 02 sec)
Heartbeat CPU 0 instructions: 560000003 cycles: 148641136 heartbeat IPC: 3.763 cumulative IPC: 3.746 (Simulation time: 00 hr 39 min 40 sec)
Heartbeat CPU 0 instructions: 570000004 cycles: 151298857 heartbeat IPC: 3.763 cumulative IPC: 3.746 (Simulation time: 00 hr 40 min 17 sec)
Heartbeat CPU 0 instructions: 580000000 cycles: 153957089 heartbeat IPC: 3.762 cumulative IPC: 3.747 (Simulation time: 00 hr 40 min 52 sec)
Heartbeat CPU 0 instructions: 590000002 cycles: 156616779 heartbeat IPC: 3.76 cumulative IPC: 3.747 (Simulation time: 00 hr 41 min 27 sec)
*** Reached end of trace: (0, "traces/convolution.champsimtrace")
Heartbeat CPU 0 instructions: 600000000 cycles: 159278161 heartbeat IPC: 3.757 cumulative IPC: 3.747 (Simulation time: 00 hr 42 min 05 sec)
Heartbeat CPU 0 instructions: 610000002 cycles: 181791329 heartbeat IPC: 0.4442 cumulative IPC: 3.308 (Simulation time: 00 hr 45 min 00 sec)
Heartbeat CPU 0 instructions: 620000001 cycles: 201690429 heartbeat IPC: 0.5025 cumulative IPC: 3.013 (Simulation time: 00 hr 48 min 56 sec)
Heartbeat CPU 0 instructions: 630000001 cycles: 206340398 heartbeat IPC: 2.151 cumulative IPC: 2.992 (Simulation time: 00 hr 49 min 51 sec)
Heartbeat CPU 0 instructions: 640000004 cycles: 216557098 heartbeat IPC: 0.9788 cumulative IPC: 2.891 (Simulation time: 00 hr 51 min 29 sec)
Heartbeat CPU 0 instructions: 650000001 cycles: 227307610 heartbeat IPC: 0.9302 cumulative IPC: 2.793 (Simulation time: 00 hr 53 min 06 sec)
Simulation finished CPU 0 instructions: 600000001 cycles: 214807408 cumulative IPC: 2.793 (Simulation time: 00 hr 53 min 06 sec)
Simulation complete CPU 0 instructions: 600000001 cycles: 214807408 cumulative IPC: 2.793 (Simulation time: 00 hr 53 min 06 sec)

ChampSim completed all CPUs

=== Simulation ===
CPU 0 runs traces/convolution.champsimtrace
Region of Interest Statistics

CPU 0 cumulative IPC: 2.793 instructions: 600000001 cycles: 214807408
CPU 0 Branch Prediction Accuracy: 99.47% MPKI: 0.9507 Average ROB Occupancy at Mispredict: 69.2
Branch type MPKI
BRANCH_DIRECT_JUMP: 0.000107
BRANCH_INDIRECT: 4.17e-05
BRANCH_CONDITIONAL: 0.95
BRANCH_DIRECT_CALL: 0.000103
BRANCH_INDIRECT_CALL: 8.33e-06
BRANCH_RETURN: 1.83e-05

LLC TOTAL        ACCESS:    1184768 HIT:     240893 MISS:     943875
LLC LOAD         ACCESS:       2888 HIT:       1042 MISS:       1846
LLC RFO          ACCESS:     535119 HIT:      30545 MISS:     504574
LLC PREFETCH     ACCESS:       2084 HIT:       1184 MISS:        900
LLC WRITE        ACCESS:     535169 HIT:     177513 MISS:     357656
LLC TRANSLATION  ACCESS:     109508 HIT:      30609 MISS:      78899
LLC PREFETCH REQUESTED:       2084 ISSUED:       2084 USEFUL:        475 USELESS:         27
LLC AVERAGE MISS LATENCY: 643.6 cycles
cpu0_DTLB TOTAL        ACCESS:  120371703 HIT:  120056732 MISS:     314971
cpu0_DTLB LOAD         ACCESS:  120371703 HIT:  120056732 MISS:     314971
cpu0_DTLB RFO          ACCESS:          0 HIT:          0 MISS:          0
cpu0_DTLB PREFETCH     ACCESS:          0 HIT:          0 MISS:          0
cpu0_DTLB WRITE        ACCESS:          0 HIT:          0 MISS:          0
cpu0_DTLB TRANSLATION  ACCESS:          0 HIT:          0 MISS:          0
cpu0_DTLB PREFETCH REQUESTED:          0 ISSUED:          0 USEFUL:          0 USELESS:          0
cpu0_DTLB AVERAGE MISS LATENCY: 661.9 cycles
cpu0_ITLB TOTAL        ACCESS:       2016 HIT:       1984 MISS:         32
cpu0_ITLB LOAD         ACCESS:       2016 HIT:       1984 MISS:         32
cpu0_ITLB RFO          ACCESS:          0 HIT:          0 MISS:          0
cpu0_ITLB PREFETCH     ACCESS:          0 HIT:          0 MISS:          0
cpu0_ITLB WRITE        ACCESS:          0 HIT:          0 MISS:          0
cpu0_ITLB TRANSLATION  ACCESS:          0 HIT:          0 MISS:          0
cpu0_ITLB PREFETCH REQUESTED:          0 ISSUED:          0 USEFUL:          0 USELESS:          0
cpu0_ITLB AVERAGE MISS LATENCY: 734.5 cycles
cpu0_L1D TOTAL        ACCESS:  161408931 HIT:  155285516 MISS:    6123415
cpu0_L1D LOAD         ACCESS:   89137019 HIT:   89130859 MISS:       6160
cpu0_L1D RFO          ACCESS:          0 HIT:          0 MISS:          0
cpu0_L1D PREFETCH     ACCESS:          0 HIT:          0 MISS:          0
cpu0_L1D WRITE        ACCESS:   72091447 HIT:   66121001 MISS:    5970446
cpu0_L1D TRANSLATION  ACCESS:     180465 HIT:      33656 MISS:     146809
cpu0_L1D PREFETCH REQUESTED:          0 ISSUED:          0 USEFUL:          0 USELESS:          0
cpu0_L1D AVERAGE MISS LATENCY: 78.92 cycles
cpu0_L1I TOTAL        ACCESS:       2314 HIT:       1010 MISS:       1304
cpu0_L1I LOAD         ACCESS:       2314 HIT:       1010 MISS:       1304
cpu0_L1I RFO          ACCESS:          0 HIT:          0 MISS:          0
cpu0_L1I PREFETCH     ACCESS:          0 HIT:          0 MISS:          0
cpu0_L1I WRITE        ACCESS:          0 HIT:          0 MISS:          0
cpu0_L1I TRANSLATION  ACCESS:          0 HIT:          0 MISS:          0
cpu0_L1I PREFETCH REQUESTED:          0 ISSUED:          0 USEFUL:          0 USELESS:          0
cpu0_L1I AVERAGE MISS LATENCY: 540.1 cycles
cpu0_L2C TOTAL        ACCESS:    1190363 HIT:     542829 MISS:     647534
cpu0_L2C LOAD         ACCESS:       3314 HIT:        426 MISS:       2888
cpu0_L2C RFO          ACCESS:     537997 HIT:       2878 MISS:     535119
cpu0_L2C PREFETCH     ACCESS:          0 HIT:          0 MISS:          0
cpu0_L2C WRITE        ACCESS:     538207 HIT:     538189 MISS:         18
cpu0_L2C TRANSLATION  ACCESS:     110845 HIT:       1336 MISS:     109509
cpu0_L2C PREFETCH REQUESTED:          0 ISSUED:          0 USEFUL:          0 USELESS:          0
cpu0_L2C AVERAGE MISS LATENCY: 958.5 cycles
cpu0_STLB TOTAL        ACCESS:     156157 HIT:         50 MISS:     156107
cpu0_STLB LOAD         ACCESS:     156157 HIT:         50 MISS:     156107
cpu0_STLB RFO          ACCESS:          0 HIT:          0 MISS:          0
cpu0_STLB PREFETCH     ACCESS:          0 HIT:          0 MISS:          0
cpu0_STLB WRITE        ACCESS:          0 HIT:          0 MISS:          0
cpu0_STLB TRANSLATION  ACCESS:          0 HIT:          0 MISS:          0
cpu0_STLB PREFETCH REQUESTED:          0 ISSUED:          0 USEFUL:          0 USELESS:          0
cpu0_STLB AVERAGE MISS LATENCY: 1480 cycles

DRAM Statistics

Channel 0 RQ ROW_BUFFER_HIT:     128337
  ROW_BUFFER_MISS:     457320
 AVG DBUS CONGESTED CYCLE: 3.977
WQ ROW_BUFFER_HIT: Channel 0 
  ROW_BUFFER_MISS:     113868
  FULL:     390661
