WARNING: physical memory size is smaller than virtual memory size.

*** ChampSim Multicore Out-of-Order Simulator ***
Warmup Instructions: 50000000
Simulation Instructions: 600000000
Number of CPUs: 1
Page size: 4096

Off-chip DRAM Size: 4 GiB Channels: 1 Width: 64-bit Data Race: 3200 MT/s
Heartbeat CPU 0 instructions: 10000001 cycles: 2500202 heartbeat IPC: 4 cumulative IPC: 4 (Simulation time: 00 hr 00 min 38 sec)
Heartbeat CPU 0 instructions: 20000001 cycles: 5000202 heartbeat IPC: 4 cumulative IPC: 4 (Simulation time: 00 hr 01 min 13 sec)
Heartbeat CPU 0 instructions: 30000001 cycles: 7500202 heartbeat IPC: 4 cumulative IPC: 4 (Simulation time: 00 hr 01 min 50 sec)
Heartbeat CPU 0 instructions: 40000001 cycles: 10000202 heartbeat IPC: 4 cumulative IPC: 4 (Simulation time: 00 hr 02 min 28 sec)
Heartbeat CPU 0 instructions: 50000001 cycles: 12500202 heartbeat IPC: 4 cumulative IPC: 4 (Simulation time: 00 hr 03 min 03 sec)
Warmup finished CPU 0 instructions: 50000001 cycles: 12500203 cumulative IPC: 4 (Simulation time: 00 hr 03 min 03 sec)
Warmup complete CPU 0 instructions: 50000001 cycles: 12500203 cumulative IPC: 4 (Simulation time: 00 hr 03 min 03 sec)
Heartbeat CPU 0 instructions: 60000001 cycles: 15793419 heartbeat IPC: 3.037 cumulative IPC: 3.037 (Simulation time: 00 hr 03 min 49 sec)
Heartbeat CPU 0 instructions: 70000001 cycles: 18507590 heartbeat IPC: 3.684 cumulative IPC: 3.329 (Simulation time: 00 hr 04 min 32 sec)
Heartbeat CPU 0 instructions: 80000003 cycles: 21223353 heartbeat IPC: 3.682 cumulative IPC: 3.439 (Simulation time: 00 hr 05 min 12 sec)
Heartbeat CPU 0 instructions: 90000004 cycles: 23937166 heartbeat IPC: 3.685 cumulative IPC: 3.497 (Simulation time: 00 hr 05 min 52 sec)
Heartbeat CPU 0 instructions: 100000000 cycles: 26650973 heartbeat IPC: 3.685 cumulative IPC: 3.533 (Simulation time: 00 hr 06 min 33 sec)
Heartbeat CPU 0 instructions: 110000001 cycles: 29364436 heartbeat IPC: 3.685 cumulative IPC: 3.558 (Simulation time: 00 hr 07 min 12 sec)
Heartbeat CPU 0 instructions: 120000000 cycles: 32077963 heartbeat IPC: 3.685 cumulative IPC: 3.575 (Simulation time: 00 hr 07 min 52 sec)
Heartbeat CPU 0 instructions: 130000004 cycles: 34794265 heartbeat IPC: 3.681 cumulative IPC: 3.588 (Simulation time: 00 hr 08 min 31 sec)
Heartbeat CPU 0 instructions: 140000002 cycles: 37508110 heartbeat IPC: 3.685 cumulative IPC: 3.599 (Simulation time: 00 hr 09 min 11 sec)
Heartbeat CPU 0 instructions: 150000002 cycles: 40221903 heartbeat IPC: 3.685 cumulative IPC: 3.607 (Simulation time: 00 hr 09 min 53 sec)
Heartbeat CPU 0 instructions: 160000003 cycles: 42935416 heartbeat IPC: 3.685 cumulative IPC: 3.614 (Simulation time: 00 hr 10 min 32 sec)
Heartbeat CPU 0 instructions: 170000000 cycles: 45648902 heartbeat IPC: 3.685 cumulative IPC: 3.62 (Simulation time: 00 hr 11 min 12 sec)
Heartbeat CPU 0 instructions: 180000001 cycles: 48362671 heartbeat IPC: 3.685 cumulative IPC: 3.625 (Simulation time: 00 hr 11 min 51 sec)
Heartbeat CPU 0 instructions: 190000001 cycles: 51080033 heartbeat IPC: 3.68 cumulative IPC: 3.629 (Simulation time: 00 hr 12 min 31 sec)
Heartbeat CPU 0 instructions: 200000004 cycles: 53793898 heartbeat IPC: 3.685 cumulative IPC: 3.633 (Simulation time: 00 hr 13 min 09 sec)
Heartbeat CPU 0 instructions: 210000004 cycles: 56507572 heartbeat IPC: 3.685 cumulative IPC: 3.636 (Simulation time: 00 hr 13 min 47 sec)
Heartbeat CPU 0 instructions: 220000001 cycles: 59221219 heartbeat IPC: 3.685 cumulative IPC: 3.639 (Simulation time: 00 hr 14 min 24 sec)
Heartbeat CPU 0 instructions: 230000001 cycles: 61936039 heartbeat IPC: 3.683 cumulative IPC: 3.641 (Simulation time: 00 hr 15 min 01 sec)
Heartbeat CPU 0 instructions: 240000000 cycles: 64651264 heartbeat IPC: 3.683 cumulative IPC: 3.643 (Simulation time: 00 hr 15 min 38 sec)
Heartbeat CPU 0 instructions: 250000004 cycles: 67364977 heartbeat IPC: 3.685 cumulative IPC: 3.645 (Simulation time: 00 hr 16 min 15 sec)
Heartbeat CPU 0 instructions: 260000000 cycles: 70078451 heartbeat IPC: 3.685 cumulative IPC: 3.647 (Simulation time: 00 hr 16 min 50 sec)
Heartbeat CPU 0 instructions: 270000002 cycles: 72792174 heartbeat IPC: 3.685 cumulative IPC: 3.649 (Simulation time: 00 hr 17 min 28 sec)
Heartbeat CPU 0 instructions: 280000003 cycles: 75506668 heartbeat IPC: 3.684 cumulative IPC: 3.65 (Simulation time: 00 hr 18 min 05 sec)
Heartbeat CPU 0 instructions: 290000004 cycles: 78220682 heartbeat IPC: 3.685 cumulative IPC: 3.652 (Simulation time: 00 hr 18 min 43 sec)
Heartbeat CPU 0 instructions: 300000000 cycles: 80934357 heartbeat IPC: 3.685 cumulative IPC: 3.653 (Simulation time: 00 hr 19 min 20 sec)
Heartbeat CPU 0 instructions: 310000004 cycles: 83647874 heartbeat IPC: 3.685 cumulative IPC: 3.654 (Simulation time: 00 hr 19 min 57 sec)
Heartbeat CPU 0 instructions: 320000001 cycles: 86361464 heartbeat IPC: 3.685 cumulative IPC: 3.656 (Simulation time: 00 hr 20 min 35 sec)
Heartbeat CPU 0 instructions: 330000001 cycles: 89076231 heartbeat IPC: 3.684 cumulative IPC: 3.656 (Simulation time: 00 hr 21 min 13 sec)
Heartbeat CPU 0 instructions: 340000001 cycles: 91791834 heartbeat IPC: 3.682 cumulative IPC: 3.657 (Simulation time: 00 hr 21 min 51 sec)
Heartbeat CPU 0 instructions: 350000002 cycles: 94505569 heartbeat IPC: 3.685 cumulative IPC: 3.658 (Simulation time: 00 hr 22 min 29 sec)
Heartbeat CPU 0 instructions: 360000001 cycles: 97219075 heartbeat IPC: 3.685 cumulative IPC: 3.659 (Simulation time: 00 hr 23 min 08 sec)
Heartbeat CPU 0 instructions: 370000004 cycles: 99935368 heartbeat IPC: 3.681 cumulative IPC: 3.66 (Simulation time: 00 hr 23 min 46 sec)
Heartbeat CPU 0 instructions: 380000000 cycles: 102649250 heartbeat IPC: 3.685 cumulative IPC: 3.661 (Simulation time: 00 hr 24 min 26 sec)
Heartbeat CPU 0 instructions: 390000001 cycles: 105363148 heartbeat IPC: 3.685 cumulative IPC: 3.661 (Simulation time: 00 hr 25 min 07 sec)
Heartbeat CPU 0 instructions: 400000002 cycles: 108076738 heartbeat IPC: 3.685 cumulative IPC: 3.662 (Simulation time: 00 hr 25 min 50 sec)
Heartbeat CPU 0 instructions: 410000001 cycles: 110790257 heartbeat IPC: 3.685 cumulative IPC: 3.663 (Simulation time: 00 hr 26 min 30 sec)
Heartbeat CPU 0 instructions: 420000003 cycles: 113503919 heartbeat IPC: 3.685 cumulative IPC: 3.663 (Simulation time: 00 hr 27 min 11 sec)
Heartbeat CPU 0 instructions: 430000002 cycles: 116219756 heartbeat IPC: 3.682 cumulative IPC: 3.664 (Simulation time: 00 hr 27 min 50 sec)
Heartbeat CPU 0 instructions: 440000003 cycles: 118933972 heartbeat IPC: 3.684 cumulative IPC: 3.664 (Simulation time: 00 hr 28 min 28 sec)
Heartbeat CPU 0 instructions: 450000004 cycles: 121647446 heartbeat IPC: 3.685 cumulative IPC: 3.665 (Simulation time: 00 hr 29 min 06 sec)
Heartbeat CPU 0 instructions: 460000001 cycles: 124361056 heartbeat IPC: 3.685 cumulative IPC: 3.665 (Simulation time: 00 hr 29 min 43 sec)
Heartbeat CPU 0 instructions: 470000001 cycles: 127074802 heartbeat IPC: 3.685 cumulative IPC: 3.666 (Simulation time: 00 hr 30 min 20 sec)
Heartbeat CPU 0 instructions: 480000004 cycles: 129790692 heartbeat IPC: 3.682 cumulative IPC: 3.666 (Simulation time: 00 hr 31 min 01 sec)
Heartbeat CPU 0 instructions: 490000004 cycles: 132504474 heartbeat IPC: 3.685 cumulative IPC: 3.667 (Simulation time: 00 hr 31 min 46 sec)
Heartbeat CPU 0 instructions: 500000001 cycles: 135218036 heartbeat IPC: 3.685 cumulative IPC: 3.667 (Simulation time: 00 hr 32 min 28 sec)
Heartbeat CPU 0 instructions: 510000000 cycles: 137931580 heartbeat IPC: 3.685 cumulative IPC: 3.667 (Simulation time: 00 hr 33 min 10 sec)
Heartbeat CPU 0 instructions: 520000003 cycles: 140645233 heartbeat IPC: 3.685 cumulative IPC: 3.668 (Simulation time: 00 hr 33 min 50 sec)
Heartbeat CPU 0 instructions: 530000004 cycles: 143362772 heartbeat IPC: 3.68 cumulative IPC: 3.668 (Simulation time: 00 hr 34 min 30 sec)
Heartbeat CPU 0 instructions: 540000000 cycles: 146076487 heartbeat IPC: 3.685 cumulative IPC: 3.668 (Simulation time: 00 hr 35 min 13 sec)
Heartbeat CPU 0 instructions: 550000002 cycles: 148790056 heartbeat IPC: 3.685 cumulative IPC: 3.669 (Simulation time: 00 hr 35 min 53 sec)
Heartbeat CPU 0 instructions: 560000003 cycles: 151504116 heartbeat IPC: 3.685 cumulative IPC: 3.669 (Simulation time: 00 hr 36 min 34 sec)
Heartbeat CPU 0 instructions: 570000002 cycles: 154220246 heartbeat IPC: 3.682 cumulative IPC: 3.669 (Simulation time: 00 hr 37 min 15 sec)
Heartbeat CPU 0 instructions: 580000000 cycles: 156934434 heartbeat IPC: 3.684 cumulative IPC: 3.669 (Simulation time: 00 hr 37 min 56 sec)
Heartbeat CPU 0 instructions: 590000001 cycles: 159648217 heartbeat IPC: 3.685 cumulative IPC: 3.67 (Simulation time: 00 hr 38 min 38 sec)
*** Reached end of trace: (0, "traces/convolution.champsimtrace")
Heartbeat CPU 0 instructions: 600000000 cycles: 162361720 heartbeat IPC: 3.685 cumulative IPC: 3.67 (Simulation time: 00 hr 39 min 20 sec)
Heartbeat CPU 0 instructions: 610000004 cycles: 191002488 heartbeat IPC: 0.3492 cumulative IPC: 3.137 (Simulation time: 00 hr 43 min 32 sec)
Heartbeat CPU 0 instructions: 620000003 cycles: 218238188 heartbeat IPC: 0.3672 cumulative IPC: 2.771 (Simulation time: 00 hr 47 min 36 sec)
Heartbeat CPU 0 instructions: 630000000 cycles: 230516030 heartbeat IPC: 0.8145 cumulative IPC: 2.66 (Simulation time: 00 hr 49 min 40 sec)
Heartbeat CPU 0 instructions: 640000004 cycles: 241689701 heartbeat IPC: 0.895 cumulative IPC: 2.574 (Simulation time: 00 hr 51 min 33 sec)
Heartbeat CPU 0 instructions: 650000000 cycles: 252437278 heartbeat IPC: 0.9304 cumulative IPC: 2.501 (Simulation time: 00 hr 53 min 25 sec)
Simulation finished CPU 0 instructions: 600000001 cycles: 239937077 cumulative IPC: 2.501 (Simulation time: 00 hr 53 min 25 sec)
Simulation complete CPU 0 instructions: 600000001 cycles: 239937077 cumulative IPC: 2.501 (Simulation time: 00 hr 53 min 25 sec)

ChampSim completed all CPUs

=== Simulation ===
CPU 0 runs traces/convolution.champsimtrace
Region of Interest Statistics

CPU 0 cumulative IPC: 2.501 instructions: 600000001 cycles: 239937077
CPU 0 Branch Prediction Accuracy: 99.3% MPKI: 1.265 Average ROB Occupancy at Mispredict: 62.16
Branch type MPKI
BRANCH_DIRECT_JUMP: 0.000107
BRANCH_INDIRECT: 4e-05
BRANCH_CONDITIONAL: 1.26
BRANCH_DIRECT_CALL: 0.000103
BRANCH_INDIRECT_CALL: 8.33e-06
BRANCH_RETURN: 1.83e-05

LLC TOTAL        ACCESS:    1186116 HIT:     517857 MISS:     668259
LLC LOAD         ACCESS:       2891 HIT:       2230 MISS:        661
LLC RFO          ACCESS:     535120 HIT:       1478 MISS:     533642
LLC PREFETCH     ACCESS:       2891 HIT:       2118 MISS:        773
LLC WRITE        ACCESS:     535169 HIT:     511109 MISS:      24060
LLC TRANSLATION  ACCESS:     110045 HIT:        922 MISS:     109123
LLC PREFETCH REQUESTED:       2891 ISSUED:       2891 USEFUL:        470 USELESS:         93
LLC AVERAGE MISS LATENCY: 1083 cycles
cpu0_DTLB TOTAL        ACCESS:  120841527 HIT:  120488810 MISS:     352717
cpu0_DTLB LOAD         ACCESS:  120841527 HIT:  120488810 MISS:     352717
cpu0_DTLB RFO          ACCESS:          0 HIT:          0 MISS:          0
cpu0_DTLB PREFETCH     ACCESS:          0 HIT:          0 MISS:          0
cpu0_DTLB WRITE        ACCESS:          0 HIT:          0 MISS:          0
cpu0_DTLB TRANSLATION  ACCESS:          0 HIT:          0 MISS:          0
cpu0_DTLB PREFETCH REQUESTED:          0 ISSUED:          0 USEFUL:          0 USELESS:          0
cpu0_DTLB AVERAGE MISS LATENCY: 787.2 cycles
cpu0_ITLB TOTAL        ACCESS:       1995 HIT:       1958 MISS:         37
cpu0_ITLB LOAD         ACCESS:       1995 HIT:       1958 MISS:         37
cpu0_ITLB RFO          ACCESS:          0 HIT:          0 MISS:          0
cpu0_ITLB PREFETCH     ACCESS:          0 HIT:          0 MISS:          0
cpu0_ITLB WRITE        ACCESS:          0 HIT:          0 MISS:          0
cpu0_ITLB TRANSLATION  ACCESS:          0 HIT:          0 MISS:          0
cpu0_ITLB PREFETCH REQUESTED:          0 ISSUED:          0 USEFUL:          0 USELESS:          0
cpu0_ITLB AVERAGE MISS LATENCY: 237.4 cycles
cpu0_L1D TOTAL        ACCESS:  159865204 HIT:  153709282 MISS:    6155922
cpu0_L1D LOAD         ACCESS:   87645906 HIT:   87639346 MISS:       6560
cpu0_L1D RFO          ACCESS:          0 HIT:          0 MISS:          0
cpu0_L1D PREFETCH     ACCESS:          0 HIT:          0 MISS:          0
cpu0_L1D WRITE        ACCESS:   72038450 HIT:   66031614 MISS:    6006836
cpu0_L1D TRANSLATION  ACCESS:     180848 HIT:      38322 MISS:     142526
cpu0_L1D PREFETCH REQUESTED:          0 ISSUED:          0 USEFUL:          0 USELESS:          0
cpu0_L1D AVERAGE MISS LATENCY: 91.54 cycles
cpu0_L1I TOTAL        ACCESS:       2322 HIT:       1061 MISS:       1261
cpu0_L1I LOAD         ACCESS:       2322 HIT:       1061 MISS:       1261
cpu0_L1I RFO          ACCESS:          0 HIT:          0 MISS:          0
cpu0_L1I PREFETCH     ACCESS:          0 HIT:          0 MISS:          0
cpu0_L1I WRITE        ACCESS:          0 HIT:          0 MISS:          0
cpu0_L1I TRANSLATION  ACCESS:          0 HIT:          0 MISS:          0
cpu0_L1I PREFETCH REQUESTED:          0 ISSUED:          0 USEFUL:          0 USELESS:          0
cpu0_L1I AVERAGE MISS LATENCY: 112.7 cycles
cpu0_L2C TOTAL        ACCESS:    1190024 HIT:     541950 MISS:     648074
cpu0_L2C LOAD         ACCESS:       3309 HIT:        418 MISS:       2891
cpu0_L2C RFO          ACCESS:     537639 HIT:       2518 MISS:     535121
cpu0_L2C PREFETCH     ACCESS:          0 HIT:          0 MISS:          0
cpu0_L2C WRITE        ACCESS:     537747 HIT:     537730 MISS:         17
cpu0_L2C TRANSLATION  ACCESS:     111329 HIT:       1284 MISS:     110045
cpu0_L2C PREFETCH REQUESTED:          0 ISSUED:          0 USEFUL:          0 USELESS:          0
cpu0_L2C AVERAGE MISS LATENCY: 1137 cycles
cpu0_STLB TOTAL        ACCESS:     156150 HIT:         54 MISS:     156096
cpu0_STLB LOAD         ACCESS:     156150 HIT:         54 MISS:     156096
cpu0_STLB RFO          ACCESS:          0 HIT:          0 MISS:          0
cpu0_STLB PREFETCH     ACCESS:          0 HIT:          0 MISS:          0
cpu0_STLB WRITE        ACCESS:          0 HIT:          0 MISS:          0
cpu0_STLB TRANSLATION  ACCESS:          0 HIT:          0 MISS:          0
cpu0_STLB PREFETCH REQUESTED:          0 ISSUED:          0 USEFUL:          0 USELESS:          0
cpu0_STLB AVERAGE MISS LATENCY: 1992 cycles

DRAM Statistics

Channel 0 RQ ROW_BUFFER_HIT:     140356
  ROW_BUFFER_MISS:     503321
 AVG DBUS CONGESTED CYCLE: 3.987
WQ ROW_BUFFER_HIT: Channel 0 
  ROW_BUFFER_MISS:       6830
  FULL:     525481
