WARNING: physical memory size is smaller than virtual memory size.

*** ChampSim Multicore Out-of-Order Simulator ***
Warmup Instructions: 50000000
Simulation Instructions: 600000000
Number of CPUs: 1
Page size: 4096

Off-chip DRAM Size: 4 GiB Channels: 1 Width: 64-bit Data Race: 3200 MT/s
Heartbeat CPU 0 instructions: 10000000 cycles: 2500202 heartbeat IPC: 4 cumulative IPC: 4 (Simulation time: 00 hr 00 min 32 sec)
Heartbeat CPU 0 instructions: 20000000 cycles: 5000202 heartbeat IPC: 4 cumulative IPC: 4 (Simulation time: 00 hr 01 min 07 sec)
Heartbeat CPU 0 instructions: 30000000 cycles: 7500202 heartbeat IPC: 4 cumulative IPC: 4 (Simulation time: 00 hr 01 min 43 sec)
Heartbeat CPU 0 instructions: 40000000 cycles: 10000202 heartbeat IPC: 4 cumulative IPC: 4 (Simulation time: 00 hr 02 min 15 sec)
Heartbeat CPU 0 instructions: 50000000 cycles: 12500202 heartbeat IPC: 4 cumulative IPC: 4 (Simulation time: 00 hr 02 min 47 sec)
Warmup finished CPU 0 instructions: 50000000 cycles: 12500203 cumulative IPC: 4 (Simulation time: 00 hr 02 min 47 sec)
Warmup complete CPU 0 instructions: 50000000 cycles: 12500203 cumulative IPC: 4 (Simulation time: 00 hr 02 min 47 sec)
Heartbeat CPU 0 instructions: 60000002 cycles: 15761229 heartbeat IPC: 3.067 cumulative IPC: 3.067 (Simulation time: 00 hr 03 min 25 sec)
Heartbeat CPU 0 instructions: 70000002 cycles: 18415522 heartbeat IPC: 3.767 cumulative IPC: 3.381 (Simulation time: 00 hr 04 min 01 sec)
Heartbeat CPU 0 instructions: 80000003 cycles: 21067744 heartbeat IPC: 3.77 cumulative IPC: 3.502 (Simulation time: 00 hr 04 min 37 sec)
Heartbeat CPU 0 instructions: 90000004 cycles: 23719943 heartbeat IPC: 3.77 cumulative IPC: 3.565 (Simulation time: 00 hr 05 min 14 sec)
Heartbeat CPU 0 instructions: 100000003 cycles: 26374991 heartbeat IPC: 3.766 cumulative IPC: 3.604 (Simulation time: 00 hr 05 min 52 sec)
Heartbeat CPU 0 instructions: 110000000 cycles: 29027724 heartbeat IPC: 3.77 cumulative IPC: 3.63 (Simulation time: 00 hr 06 min 30 sec)
Heartbeat CPU 0 instructions: 120000000 cycles: 31679725 heartbeat IPC: 3.771 cumulative IPC: 3.65 (Simulation time: 00 hr 07 min 07 sec)
Heartbeat CPU 0 instructions: 130000000 cycles: 34331970 heartbeat IPC: 3.77 cumulative IPC: 3.664 (Simulation time: 00 hr 07 min 45 sec)
Heartbeat CPU 0 instructions: 140000001 cycles: 36984158 heartbeat IPC: 3.77 cumulative IPC: 3.676 (Simulation time: 00 hr 08 min 23 sec)
Heartbeat CPU 0 instructions: 150000003 cycles: 39636387 heartbeat IPC: 3.77 cumulative IPC: 3.685 (Simulation time: 00 hr 08 min 59 sec)
Heartbeat CPU 0 instructions: 160000003 cycles: 42290304 heartbeat IPC: 3.768 cumulative IPC: 3.693 (Simulation time: 00 hr 09 min 36 sec)
Heartbeat CPU 0 instructions: 170000001 cycles: 44942245 heartbeat IPC: 3.771 cumulative IPC: 3.699 (Simulation time: 00 hr 10 min 12 sec)
Heartbeat CPU 0 instructions: 180000001 cycles: 47594414 heartbeat IPC: 3.77 cumulative IPC: 3.704 (Simulation time: 00 hr 10 min 48 sec)
Heartbeat CPU 0 instructions: 190000002 cycles: 50247837 heartbeat IPC: 3.769 cumulative IPC: 3.709 (Simulation time: 00 hr 11 min 26 sec)
Heartbeat CPU 0 instructions: 200000001 cycles: 52900057 heartbeat IPC: 3.77 cumulative IPC: 3.713 (Simulation time: 00 hr 12 min 06 sec)
Heartbeat CPU 0 instructions: 210000000 cycles: 55554710 heartbeat IPC: 3.767 cumulative IPC: 3.716 (Simulation time: 00 hr 12 min 41 sec)
Heartbeat CPU 0 instructions: 220000001 cycles: 58207339 heartbeat IPC: 3.77 cumulative IPC: 3.719 (Simulation time: 00 hr 13 min 19 sec)
Heartbeat CPU 0 instructions: 230000002 cycles: 60859555 heartbeat IPC: 3.77 cumulative IPC: 3.722 (Simulation time: 00 hr 13 min 56 sec)
Heartbeat CPU 0 instructions: 240000004 cycles: 63511839 heartbeat IPC: 3.77 cumulative IPC: 3.725 (Simulation time: 00 hr 14 min 34 sec)
Heartbeat CPU 0 instructions: 250000000 cycles: 66166588 heartbeat IPC: 3.767 cumulative IPC: 3.727 (Simulation time: 00 hr 15 min 10 sec)
Heartbeat CPU 0 instructions: 260000000 cycles: 68820917 heartbeat IPC: 3.767 cumulative IPC: 3.729 (Simulation time: 00 hr 15 min 46 sec)
Heartbeat CPU 0 instructions: 270000002 cycles: 71472924 heartbeat IPC: 3.771 cumulative IPC: 3.731 (Simulation time: 00 hr 16 min 22 sec)
Heartbeat CPU 0 instructions: 280000003 cycles: 74125168 heartbeat IPC: 3.77 cumulative IPC: 3.732 (Simulation time: 00 hr 16 min 57 sec)
Heartbeat CPU 0 instructions: 290000002 cycles: 76777445 heartbeat IPC: 3.77 cumulative IPC: 3.734 (Simulation time: 00 hr 17 min 32 sec)
Heartbeat CPU 0 instructions: 300000000 cycles: 79431463 heartbeat IPC: 3.768 cumulative IPC: 3.735 (Simulation time: 00 hr 18 min 09 sec)
Heartbeat CPU 0 instructions: 310000002 cycles: 82083465 heartbeat IPC: 3.771 cumulative IPC: 3.737 (Simulation time: 00 hr 18 min 45 sec)
Heartbeat CPU 0 instructions: 320000004 cycles: 84735506 heartbeat IPC: 3.771 cumulative IPC: 3.738 (Simulation time: 00 hr 19 min 22 sec)
Heartbeat CPU 0 instructions: 330000000 cycles: 87387695 heartbeat IPC: 3.77 cumulative IPC: 3.739 (Simulation time: 00 hr 19 min 57 sec)
Heartbeat CPU 0 instructions: 340000002 cycles: 90040417 heartbeat IPC: 3.77 cumulative IPC: 3.74 (Simulation time: 00 hr 20 min 35 sec)
Heartbeat CPU 0 instructions: 350000002 cycles: 92692533 heartbeat IPC: 3.771 cumulative IPC: 3.741 (Simulation time: 00 hr 21 min 10 sec)
Heartbeat CPU 0 instructions: 360000001 cycles: 95347055 heartbeat IPC: 3.767 cumulative IPC: 3.742 (Simulation time: 00 hr 21 min 46 sec)
Heartbeat CPU 0 instructions: 370000004 cycles: 97999032 heartbeat IPC: 3.771 cumulative IPC: 3.743 (Simulation time: 00 hr 22 min 23 sec)
Heartbeat CPU 0 instructions: 380000000 cycles: 100651209 heartbeat IPC: 3.77 cumulative IPC: 3.744 (Simulation time: 00 hr 22 min 58 sec)
Heartbeat CPU 0 instructions: 390000003 cycles: 103303556 heartbeat IPC: 3.77 cumulative IPC: 3.744 (Simulation time: 00 hr 23 min 32 sec)
Heartbeat CPU 0 instructions: 400000000 cycles: 105958478 heartbeat IPC: 3.767 cumulative IPC: 3.745 (Simulation time: 00 hr 24 min 09 sec)
Heartbeat CPU 0 instructions: 410000000 cycles: 108610814 heartbeat IPC: 3.77 cumulative IPC: 3.746 (Simulation time: 00 hr 24 min 44 sec)
Heartbeat CPU 0 instructions: 420000001 cycles: 111262900 heartbeat IPC: 3.771 cumulative IPC: 3.746 (Simulation time: 00 hr 25 min 18 sec)
Heartbeat CPU 0 instructions: 430000003 cycles: 113915221 heartbeat IPC: 3.77 cumulative IPC: 3.747 (Simulation time: 00 hr 25 min 53 sec)
Heartbeat CPU 0 instructions: 440000003 cycles: 116567563 heartbeat IPC: 3.77 cumulative IPC: 3.748 (Simulation time: 00 hr 26 min 27 sec)
Heartbeat CPU 0 instructions: 450000004 cycles: 119221073 heartbeat IPC: 3.769 cumulative IPC: 3.748 (Simulation time: 00 hr 27 min 02 sec)
Heartbeat CPU 0 instructions: 460000001 cycles: 121873087 heartbeat IPC: 3.771 cumulative IPC: 3.749 (Simulation time: 00 hr 27 min 36 sec)
Heartbeat CPU 0 instructions: 470000002 cycles: 124525313 heartbeat IPC: 3.77 cumulative IPC: 3.749 (Simulation time: 00 hr 28 min 10 sec)
Heartbeat CPU 0 instructions: 480000001 cycles: 127177664 heartbeat IPC: 3.77 cumulative IPC: 3.75 (Simulation time: 00 hr 28 min 45 sec)
Heartbeat CPU 0 instructions: 490000000 cycles: 129830354 heartbeat IPC: 3.77 cumulative IPC: 3.75 (Simulation time: 00 hr 29 min 20 sec)
Heartbeat CPU 0 instructions: 500000002 cycles: 132485221 heartbeat IPC: 3.767 cumulative IPC: 3.75 (Simulation time: 00 hr 29 min 56 sec)
Heartbeat CPU 0 instructions: 510000003 cycles: 135137230 heartbeat IPC: 3.771 cumulative IPC: 3.751 (Simulation time: 00 hr 30 min 30 sec)
Heartbeat CPU 0 instructions: 520000004 cycles: 137789362 heartbeat IPC: 3.771 cumulative IPC: 3.751 (Simulation time: 00 hr 31 min 03 sec)
Heartbeat CPU 0 instructions: 530000000 cycles: 140441672 heartbeat IPC: 3.77 cumulative IPC: 3.752 (Simulation time: 00 hr 31 min 37 sec)
Heartbeat CPU 0 instructions: 540000000 cycles: 143096177 heartbeat IPC: 3.767 cumulative IPC: 3.752 (Simulation time: 00 hr 32 min 12 sec)
Heartbeat CPU 0 instructions: 550000003 cycles: 145748615 heartbeat IPC: 3.77 cumulative IPC: 3.752 (Simulation time: 00 hr 32 min 48 sec)
Heartbeat CPU 0 instructions: 560000003 cycles: 148401080 heartbeat IPC: 3.77 cumulative IPC: 3.753 (Simulation time: 00 hr 33 min 23 sec)
Heartbeat CPU 0 instructions: 570000004 cycles: 151053066 heartbeat IPC: 3.771 cumulative IPC: 3.753 (Simulation time: 00 hr 33 min 58 sec)
Heartbeat CPU 0 instructions: 580000000 cycles: 153705361 heartbeat IPC: 3.77 cumulative IPC: 3.753 (Simulation time: 00 hr 34 min 33 sec)
Heartbeat CPU 0 instructions: 590000002 cycles: 156357632 heartbeat IPC: 3.77 cumulative IPC: 3.754 (Simulation time: 00 hr 35 min 08 sec)
*** Reached end of trace: (0, "traces/convolution.champsimtrace")
Heartbeat CPU 0 instructions: 600000000 cycles: 159017386 heartbeat IPC: 3.76 cumulative IPC: 3.754 (Simulation time: 00 hr 35 min 47 sec)
Heartbeat CPU 0 instructions: 610000002 cycles: 183407829 heartbeat IPC: 0.41 cumulative IPC: 3.277 (Simulation time: 00 hr 39 min 19 sec)
Heartbeat CPU 0 instructions: 620000001 cycles: 204616671 heartbeat IPC: 0.4715 cumulative IPC: 2.967 (Simulation time: 00 hr 42 min 30 sec)
Heartbeat CPU 0 instructions: 630000001 cycles: 217558541 heartbeat IPC: 0.7727 cumulative IPC: 2.828 (Simulation time: 00 hr 44 min 36 sec)
Heartbeat CPU 0 instructions: 640000004 cycles: 228324814 heartbeat IPC: 0.9288 cumulative IPC: 2.734 (Simulation time: 00 hr 46 min 23 sec)
Heartbeat CPU 0 instructions: 650000001 cycles: 238896306 heartbeat IPC: 0.9459 cumulative IPC: 2.65 (Simulation time: 00 hr 48 min 05 sec)
Simulation finished CPU 0 instructions: 600000001 cycles: 226396104 cumulative IPC: 2.65 (Simulation time: 00 hr 48 min 05 sec)
Simulation complete CPU 0 instructions: 600000001 cycles: 226396104 cumulative IPC: 2.65 (Simulation time: 00 hr 48 min 05 sec)

ChampSim completed all CPUs

=== Simulation ===
CPU 0 runs traces/convolution.champsimtrace
Region of Interest Statistics

CPU 0 cumulative IPC: 2.65 instructions: 600000001 cycles: 226396104
CPU 0 Branch Prediction Accuracy: 99.47% MPKI: 0.9507 Average ROB Occupancy at Mispredict: 68.92
Branch type MPKI
BRANCH_DIRECT_JUMP: 0.000107
BRANCH_INDIRECT: 4.17e-05
BRANCH_CONDITIONAL: 0.95
BRANCH_DIRECT_CALL: 0.000103
BRANCH_INDIRECT_CALL: 8.33e-06
BRANCH_RETURN: 1.83e-05

LLC TOTAL        ACCESS:    1185902 HIT:     441540 MISS:     744362
LLC LOAD         ACCESS:       2887 HIT:        871 MISS:       2016
LLC RFO          ACCESS:     535120 HIT:         93 MISS:     535027
LLC PREFETCH     ACCESS:       2887 HIT:        278 MISS:       2609
LLC WRITE        ACCESS:     535166 HIT:     439650 MISS:      95516
LLC TRANSLATION  ACCESS:     109842 HIT:        648 MISS:     109194
LLC PREFETCH REQUESTED:       2887 ISSUED:       2887 USEFUL:       1653 USELESS:        359
LLC AVERAGE MISS LATENCY: 922.1 cycles
cpu0_DTLB TOTAL        ACCESS:  120039682 HIT:  119686209 MISS:     353473
cpu0_DTLB LOAD         ACCESS:  120039682 HIT:  119686209 MISS:     353473
cpu0_DTLB RFO          ACCESS:          0 HIT:          0 MISS:          0
cpu0_DTLB PREFETCH     ACCESS:          0 HIT:          0 MISS:          0
cpu0_DTLB WRITE        ACCESS:          0 HIT:          0 MISS:          0
cpu0_DTLB TRANSLATION  ACCESS:          0 HIT:          0 MISS:          0
cpu0_DTLB PREFETCH REQUESTED:          0 ISSUED:          0 USEFUL:          0 USELESS:          0
cpu0_DTLB AVERAGE MISS LATENCY: 662.3 cycles
cpu0_ITLB TOTAL        ACCESS:       2011 HIT:       1979 MISS:         32
cpu0_ITLB LOAD         ACCESS:       2011 HIT:       1979 MISS:         32
cpu0_ITLB RFO          ACCESS:          0 HIT:          0 MISS:          0
cpu0_ITLB PREFETCH     ACCESS:          0 HIT:          0 MISS:          0
cpu0_ITLB WRITE        ACCESS:          0 HIT:          0 MISS:          0
cpu0_ITLB TRANSLATION  ACCESS:          0 HIT:          0 MISS:          0
cpu0_ITLB PREFETCH REQUESTED:          0 ISSUED:          0 USEFUL:          0 USELESS:          0
cpu0_ITLB AVERAGE MISS LATENCY: 980.7 cycles
cpu0_L1D TOTAL        ACCESS:  161170799 HIT:  154997768 MISS:    6173031
cpu0_L1D LOAD         ACCESS:   88954809 HIT:   88948883 MISS:       5926
cpu0_L1D RFO          ACCESS:          0 HIT:          0 MISS:          0
cpu0_L1D PREFETCH     ACCESS:          0 HIT:          0 MISS:          0
cpu0_L1D WRITE        ACCESS:   72035337 HIT:   66010448 MISS:    6024889
cpu0_L1D TRANSLATION  ACCESS:     180653 HIT:      38437 MISS:     142216
cpu0_L1D PREFETCH REQUESTED:          0 ISSUED:          0 USEFUL:          0 USELESS:          0
cpu0_L1D AVERAGE MISS LATENCY: 86.3 cycles
cpu0_L1I TOTAL        ACCESS:       2311 HIT:       1007 MISS:       1304
cpu0_L1I LOAD         ACCESS:       2311 HIT:       1007 MISS:       1304
cpu0_L1I RFO          ACCESS:          0 HIT:          0 MISS:          0
cpu0_L1I PREFETCH     ACCESS:          0 HIT:          0 MISS:          0
cpu0_L1I WRITE        ACCESS:          0 HIT:          0 MISS:          0
cpu0_L1I TRANSLATION  ACCESS:          0 HIT:          0 MISS:          0
cpu0_L1I PREFETCH REQUESTED:          0 ISSUED:          0 USEFUL:          0 USELESS:          0
cpu0_L1I AVERAGE MISS LATENCY: 726.6 cycles
cpu0_L2C TOTAL        ACCESS:    1190821 HIT:     542955 MISS:     647866
cpu0_L2C LOAD         ACCESS:       3313 HIT:        426 MISS:       2887
cpu0_L2C RFO          ACCESS:     538102 HIT:       2982 MISS:     535120
cpu0_L2C PREFETCH     ACCESS:          0 HIT:          0 MISS:          0
cpu0_L2C WRITE        ACCESS:     538219 HIT:     538202 MISS:         17
cpu0_L2C TRANSLATION  ACCESS:     111187 HIT:       1345 MISS:     109842
cpu0_L2C PREFETCH REQUESTED:          0 ISSUED:          0 USEFUL:          0 USELESS:          0
cpu0_L2C AVERAGE MISS LATENCY: 1078 cycles
cpu0_STLB TOTAL        ACCESS:     156154 HIT:         45 MISS:     156109
cpu0_STLB LOAD         ACCESS:     156154 HIT:         45 MISS:     156109
cpu0_STLB RFO          ACCESS:          0 HIT:          0 MISS:          0
cpu0_STLB PREFETCH     ACCESS:          0 HIT:          0 MISS:          0
cpu0_STLB WRITE        ACCESS:          0 HIT:          0 MISS:          0
cpu0_STLB TRANSLATION  ACCESS:          0 HIT:          0 MISS:          0
cpu0_STLB PREFETCH REQUESTED:          0 ISSUED:          0 USEFUL:          0 USELESS:          0
cpu0_STLB AVERAGE MISS LATENCY: 1713 cycles

DRAM Statistics

Channel 0 RQ ROW_BUFFER_HIT:     142608
  ROW_BUFFER_MISS:     504862
 AVG DBUS CONGESTED CYCLE: 3.983
WQ ROW_BUFFER_HIT: Channel 0 
  ROW_BUFFER_MISS:      61111
  FULL:     474305
