WARNING: physical memory size is smaller than virtual memory size.

*** ChampSim Multicore Out-of-Order Simulator ***
Warmup Instructions: 50000000
Simulation Instructions: 600000000
Number of CPUs: 1
Page size: 4096

Off-chip DRAM Size: 4 GiB Channels: 1 Width: 64-bit Data Race: 3200 MT/s
Heartbeat CPU 0 instructions: 10000000 cycles: 2500202 heartbeat IPC: 4 cumulative IPC: 4 (Simulation time: 00 hr 00 min 33 sec)
Heartbeat CPU 0 instructions: 20000000 cycles: 5000202 heartbeat IPC: 4 cumulative IPC: 4 (Simulation time: 00 hr 01 min 05 sec)
Heartbeat CPU 0 instructions: 30000000 cycles: 7500202 heartbeat IPC: 4 cumulative IPC: 4 (Simulation time: 00 hr 01 min 39 sec)
Heartbeat CPU 0 instructions: 40000000 cycles: 10000202 heartbeat IPC: 4 cumulative IPC: 4 (Simulation time: 00 hr 02 min 11 sec)
Heartbeat CPU 0 instructions: 50000000 cycles: 12500202 heartbeat IPC: 4 cumulative IPC: 4 (Simulation time: 00 hr 02 min 44 sec)
Warmup finished CPU 0 instructions: 50000000 cycles: 12500203 cumulative IPC: 4 (Simulation time: 00 hr 02 min 44 sec)
Warmup complete CPU 0 instructions: 50000000 cycles: 12500203 cumulative IPC: 4 (Simulation time: 00 hr 02 min 44 sec)
Heartbeat CPU 0 instructions: 60000002 cycles: 15791992 heartbeat IPC: 3.038 cumulative IPC: 3.038 (Simulation time: 00 hr 03 min 23 sec)
Heartbeat CPU 0 instructions: 70000002 cycles: 18498635 heartbeat IPC: 3.695 cumulative IPC: 3.334 (Simulation time: 00 hr 04 min 02 sec)
Heartbeat CPU 0 instructions: 80000003 cycles: 21202232 heartbeat IPC: 3.699 cumulative IPC: 3.447 (Simulation time: 00 hr 04 min 45 sec)
Heartbeat CPU 0 instructions: 90000004 cycles: 23905795 heartbeat IPC: 3.699 cumulative IPC: 3.507 (Simulation time: 00 hr 05 min 21 sec)
Heartbeat CPU 0 instructions: 100000003 cycles: 26611796 heartbeat IPC: 3.695 cumulative IPC: 3.543 (Simulation time: 00 hr 05 min 58 sec)
Heartbeat CPU 0 instructions: 110000000 cycles: 29322222 heartbeat IPC: 3.689 cumulative IPC: 3.567 (Simulation time: 00 hr 06 min 34 sec)
Heartbeat CPU 0 instructions: 120000000 cycles: 32030426 heartbeat IPC: 3.692 cumulative IPC: 3.584 (Simulation time: 00 hr 07 min 11 sec)
Heartbeat CPU 0 instructions: 130000000 cycles: 34742025 heartbeat IPC: 3.688 cumulative IPC: 3.597 (Simulation time: 00 hr 07 min 48 sec)
Heartbeat CPU 0 instructions: 140000001 cycles: 37449996 heartbeat IPC: 3.693 cumulative IPC: 3.607 (Simulation time: 00 hr 08 min 24 sec)
Heartbeat CPU 0 instructions: 150000003 cycles: 40154739 heartbeat IPC: 3.697 cumulative IPC: 3.616 (Simulation time: 00 hr 09 min 04 sec)
Heartbeat CPU 0 instructions: 160000003 cycles: 42861216 heartbeat IPC: 3.695 cumulative IPC: 3.623 (Simulation time: 00 hr 09 min 41 sec)
Heartbeat CPU 0 instructions: 170000001 cycles: 45567764 heartbeat IPC: 3.695 cumulative IPC: 3.629 (Simulation time: 00 hr 10 min 19 sec)
Heartbeat CPU 0 instructions: 180000001 cycles: 48271345 heartbeat IPC: 3.699 cumulative IPC: 3.634 (Simulation time: 00 hr 10 min 56 sec)
Heartbeat CPU 0 instructions: 190000002 cycles: 50975775 heartbeat IPC: 3.698 cumulative IPC: 3.639 (Simulation time: 00 hr 11 min 33 sec)
Heartbeat CPU 0 instructions: 200000001 cycles: 53682522 heartbeat IPC: 3.694 cumulative IPC: 3.642 (Simulation time: 00 hr 12 min 14 sec)
Heartbeat CPU 0 instructions: 210000000 cycles: 56392986 heartbeat IPC: 3.689 cumulative IPC: 3.645 (Simulation time: 00 hr 12 min 52 sec)
Heartbeat CPU 0 instructions: 220000001 cycles: 59105075 heartbeat IPC: 3.687 cumulative IPC: 3.648 (Simulation time: 00 hr 13 min 30 sec)
Heartbeat CPU 0 instructions: 230000002 cycles: 61813604 heartbeat IPC: 3.692 cumulative IPC: 3.65 (Simulation time: 00 hr 14 min 08 sec)
Heartbeat CPU 0 instructions: 240000004 cycles: 64520985 heartbeat IPC: 3.694 cumulative IPC: 3.652 (Simulation time: 00 hr 14 min 46 sec)
Heartbeat CPU 0 instructions: 250000000 cycles: 67232389 heartbeat IPC: 3.688 cumulative IPC: 3.654 (Simulation time: 00 hr 15 min 23 sec)
Heartbeat CPU 0 instructions: 260000000 cycles: 69939705 heartbeat IPC: 3.694 cumulative IPC: 3.656 (Simulation time: 00 hr 16 min 02 sec)
Heartbeat CPU 0 instructions: 270000002 cycles: 72644835 heartbeat IPC: 3.697 cumulative IPC: 3.658 (Simulation time: 00 hr 16 min 39 sec)
Heartbeat CPU 0 instructions: 280000003 cycles: 75354089 heartbeat IPC: 3.691 cumulative IPC: 3.659 (Simulation time: 00 hr 17 min 14 sec)
Heartbeat CPU 0 instructions: 290000003 cycles: 78064097 heartbeat IPC: 3.69 cumulative IPC: 3.661 (Simulation time: 00 hr 17 min 49 sec)
Heartbeat CPU 0 instructions: 300000000 cycles: 80772340 heartbeat IPC: 3.692 cumulative IPC: 3.662 (Simulation time: 00 hr 18 min 26 sec)
Heartbeat CPU 0 instructions: 310000002 cycles: 83476474 heartbeat IPC: 3.698 cumulative IPC: 3.663 (Simulation time: 00 hr 19 min 02 sec)
Heartbeat CPU 0 instructions: 320000004 cycles: 86182079 heartbeat IPC: 3.696 cumulative IPC: 3.664 (Simulation time: 00 hr 19 min 37 sec)
Heartbeat CPU 0 instructions: 330000000 cycles: 88890499 heartbeat IPC: 3.692 cumulative IPC: 3.665 (Simulation time: 00 hr 20 min 12 sec)
Heartbeat CPU 0 instructions: 340000002 cycles: 91598720 heartbeat IPC: 3.692 cumulative IPC: 3.666 (Simulation time: 00 hr 20 min 50 sec)
Heartbeat CPU 0 instructions: 350000002 cycles: 94305938 heartbeat IPC: 3.694 cumulative IPC: 3.667 (Simulation time: 00 hr 21 min 26 sec)
Heartbeat CPU 0 instructions: 360000001 cycles: 97015889 heartbeat IPC: 3.69 cumulative IPC: 3.668 (Simulation time: 00 hr 22 min 01 sec)
Heartbeat CPU 0 instructions: 370000004 cycles: 99723777 heartbeat IPC: 3.693 cumulative IPC: 3.669 (Simulation time: 00 hr 22 min 38 sec)
Heartbeat CPU 0 instructions: 380000000 cycles: 102431804 heartbeat IPC: 3.693 cumulative IPC: 3.669 (Simulation time: 00 hr 23 min 14 sec)
Heartbeat CPU 0 instructions: 390000004 cycles: 105138928 heartbeat IPC: 3.694 cumulative IPC: 3.67 (Simulation time: 00 hr 23 min 49 sec)
Heartbeat CPU 0 instructions: 400000000 cycles: 107847017 heartbeat IPC: 3.693 cumulative IPC: 3.671 (Simulation time: 00 hr 24 min 25 sec)
Heartbeat CPU 0 instructions: 410000000 cycles: 110558053 heartbeat IPC: 3.689 cumulative IPC: 3.671 (Simulation time: 00 hr 25 min 01 sec)
Heartbeat CPU 0 instructions: 420000001 cycles: 113262991 heartbeat IPC: 3.697 cumulative IPC: 3.672 (Simulation time: 00 hr 25 min 37 sec)
Heartbeat CPU 0 instructions: 430000003 cycles: 115969853 heartbeat IPC: 3.694 cumulative IPC: 3.673 (Simulation time: 00 hr 26 min 12 sec)
Heartbeat CPU 0 instructions: 440000003 cycles: 118681552 heartbeat IPC: 3.688 cumulative IPC: 3.673 (Simulation time: 00 hr 26 min 48 sec)
Heartbeat CPU 0 instructions: 450000004 cycles: 121395808 heartbeat IPC: 3.684 cumulative IPC: 3.673 (Simulation time: 00 hr 27 min 23 sec)
Heartbeat CPU 0 instructions: 460000001 cycles: 124104135 heartbeat IPC: 3.692 cumulative IPC: 3.674 (Simulation time: 00 hr 27 min 57 sec)
Heartbeat CPU 0 instructions: 470000002 cycles: 126811556 heartbeat IPC: 3.694 cumulative IPC: 3.674 (Simulation time: 00 hr 28 min 33 sec)
Heartbeat CPU 0 instructions: 480000001 cycles: 129519814 heartbeat IPC: 3.692 cumulative IPC: 3.675 (Simulation time: 00 hr 29 min 08 sec)
Heartbeat CPU 0 instructions: 490000000 cycles: 132233273 heartbeat IPC: 3.685 cumulative IPC: 3.675 (Simulation time: 00 hr 29 min 42 sec)
Heartbeat CPU 0 instructions: 500000002 cycles: 134946769 heartbeat IPC: 3.685 cumulative IPC: 3.675 (Simulation time: 00 hr 30 min 18 sec)
Heartbeat CPU 0 instructions: 510000003 cycles: 137651175 heartbeat IPC: 3.698 cumulative IPC: 3.676 (Simulation time: 00 hr 30 min 53 sec)
Heartbeat CPU 0 instructions: 520000004 cycles: 140355067 heartbeat IPC: 3.698 cumulative IPC: 3.676 (Simulation time: 00 hr 31 min 29 sec)
Heartbeat CPU 0 instructions: 530000000 cycles: 143059191 heartbeat IPC: 3.698 cumulative IPC: 3.676 (Simulation time: 00 hr 32 min 04 sec)
Heartbeat CPU 0 instructions: 540000000 cycles: 145764774 heartbeat IPC: 3.696 cumulative IPC: 3.677 (Simulation time: 00 hr 32 min 40 sec)
Heartbeat CPU 0 instructions: 550000003 cycles: 148470615 heartbeat IPC: 3.696 cumulative IPC: 3.677 (Simulation time: 00 hr 33 min 14 sec)
Heartbeat CPU 0 instructions: 560000003 cycles: 151175790 heartbeat IPC: 3.697 cumulative IPC: 3.678 (Simulation time: 00 hr 33 min 50 sec)
Heartbeat CPU 0 instructions: 570000004 cycles: 153881977 heartbeat IPC: 3.695 cumulative IPC: 3.678 (Simulation time: 00 hr 34 min 25 sec)
Heartbeat CPU 0 instructions: 580000000 cycles: 156590599 heartbeat IPC: 3.692 cumulative IPC: 3.678 (Simulation time: 00 hr 35 min 00 sec)
Heartbeat CPU 0 instructions: 590000002 cycles: 159297393 heartbeat IPC: 3.694 cumulative IPC: 3.679 (Simulation time: 00 hr 35 min 35 sec)
*** Reached end of trace: (0, "traces/convolution.champsimtrace")
Heartbeat CPU 0 instructions: 600000000 cycles: 162010296 heartbeat IPC: 3.686 cumulative IPC: 3.679 (Simulation time: 00 hr 36 min 10 sec)
Heartbeat CPU 0 instructions: 610000004 cycles: 184740155 heartbeat IPC: 0.44 cumulative IPC: 3.251 (Simulation time: 00 hr 39 min 04 sec)
Heartbeat CPU 0 instructions: 620000001 cycles: 205542339 heartbeat IPC: 0.4807 cumulative IPC: 2.953 (Simulation time: 00 hr 41 min 48 sec)
Heartbeat CPU 0 instructions: 630000001 cycles: 216433443 heartbeat IPC: 0.9182 cumulative IPC: 2.844 (Simulation time: 00 hr 43 min 23 sec)
Heartbeat CPU 0 instructions: 640000004 cycles: 227514760 heartbeat IPC: 0.9024 cumulative IPC: 2.744 (Simulation time: 00 hr 45 min 05 sec)
Heartbeat CPU 0 instructions: 650000001 cycles: 241899921 heartbeat IPC: 0.6952 cumulative IPC: 2.616 (Simulation time: 00 hr 47 min 09 sec)
Simulation finished CPU 0 instructions: 600000001 cycles: 229399719 cumulative IPC: 2.616 (Simulation time: 00 hr 47 min 09 sec)
Simulation complete CPU 0 instructions: 600000001 cycles: 229399719 cumulative IPC: 2.616 (Simulation time: 00 hr 47 min 09 sec)

ChampSim completed all CPUs

=== Simulation ===
CPU 0 runs traces/convolution.champsimtrace
Region of Interest Statistics

CPU 0 cumulative IPC: 2.616 instructions: 600000001 cycles: 229399719
CPU 0 Branch Prediction Accuracy: 99.3% MPKI: 1.265 Average ROB Occupancy at Mispredict: 64.09
Branch type MPKI
BRANCH_DIRECT_JUMP: 0.000107
BRANCH_INDIRECT: 4.17e-05
BRANCH_CONDITIONAL: 1.26
BRANCH_DIRECT_CALL: 0.000103
BRANCH_INDIRECT_CALL: 8.33e-06
BRANCH_RETURN: 1.83e-05

LLC TOTAL        ACCESS:    1186860 HIT:     203502 MISS:     983358
LLC LOAD         ACCESS:       2889 HIT:        859 MISS:       2030
LLC RFO          ACCESS:     535119 HIT:        835 MISS:     534284
LLC PREFETCH     ACCESS:       2889 HIT:        282 MISS:       2607
LLC WRITE        ACCESS:     535171 HIT:     199650 MISS:     335521
LLC TRANSLATION  ACCESS:     110792 HIT:       1876 MISS:     108916
LLC PREFETCH REQUESTED:       2889 ISSUED:       2889 USEFUL:       1676 USELESS:        133
LLC AVERAGE MISS LATENCY: 708.7 cycles
cpu0_DTLB TOTAL        ACCESS:  121573271 HIT:  121222790 MISS:     350481
cpu0_DTLB LOAD         ACCESS:  121573271 HIT:  121222790 MISS:     350481
cpu0_DTLB RFO          ACCESS:          0 HIT:          0 MISS:          0
cpu0_DTLB PREFETCH     ACCESS:          0 HIT:          0 MISS:          0
cpu0_DTLB WRITE        ACCESS:          0 HIT:          0 MISS:          0
cpu0_DTLB TRANSLATION  ACCESS:          0 HIT:          0 MISS:          0
cpu0_DTLB PREFETCH REQUESTED:          0 ISSUED:          0 USEFUL:          0 USELESS:          0
cpu0_DTLB AVERAGE MISS LATENCY: 659.7 cycles
cpu0_ITLB TOTAL        ACCESS:       2022 HIT:       1988 MISS:         34
cpu0_ITLB LOAD         ACCESS:       2022 HIT:       1988 MISS:         34
cpu0_ITLB RFO          ACCESS:          0 HIT:          0 MISS:          0
cpu0_ITLB PREFETCH     ACCESS:          0 HIT:          0 MISS:          0
cpu0_ITLB WRITE        ACCESS:          0 HIT:          0 MISS:          0
cpu0_ITLB TRANSLATION  ACCESS:          0 HIT:          0 MISS:          0
cpu0_ITLB PREFETCH REQUESTED:          0 ISSUED:          0 USEFUL:          0 USELESS:          0
cpu0_ITLB AVERAGE MISS LATENCY: 680.2 cycles
cpu0_L1D TOTAL        ACCESS:  162710468 HIT:  156564463 MISS:    6146005
cpu0_L1D LOAD         ACCESS:   90489622 HIT:   90483451 MISS:       6171
cpu0_L1D RFO          ACCESS:          0 HIT:          0 MISS:          0
cpu0_L1D PREFETCH     ACCESS:          0 HIT:          0 MISS:          0
cpu0_L1D WRITE        ACCESS:   72039324 HIT:   66042534 MISS:    5996790
cpu0_L1D TRANSLATION  ACCESS:     181522 HIT:      38478 MISS:     143044
cpu0_L1D PREFETCH REQUESTED:          0 ISSUED:          0 USEFUL:          0 USELESS:          0
cpu0_L1D AVERAGE MISS LATENCY: 88.38 cycles
cpu0_L1I TOTAL        ACCESS:       2337 HIT:       1019 MISS:       1318
cpu0_L1I LOAD         ACCESS:       2337 HIT:       1019 MISS:       1318
cpu0_L1I RFO          ACCESS:          0 HIT:          0 MISS:          0
cpu0_L1I PREFETCH     ACCESS:          0 HIT:          0 MISS:          0
cpu0_L1I WRITE        ACCESS:          0 HIT:          0 MISS:          0
cpu0_L1I TRANSLATION  ACCESS:          0 HIT:          0 MISS:          0
cpu0_L1I PREFETCH REQUESTED:          0 ISSUED:          0 USEFUL:          0 USELESS:          0
cpu0_L1I AVERAGE MISS LATENCY: 580 cycles
cpu0_L2C TOTAL        ACCESS:    1192078 HIT:     543261 MISS:     648817
cpu0_L2C LOAD         ACCESS:       3313 HIT:        424 MISS:       2889
cpu0_L2C RFO          ACCESS:     538102 HIT:       2983 MISS:     535119
cpu0_L2C PREFETCH     ACCESS:          0 HIT:          0 MISS:          0
cpu0_L2C WRITE        ACCESS:     538228 HIT:     538211 MISS:         17
cpu0_L2C TRANSLATION  ACCESS:     112435 HIT:       1643 MISS:     110792
cpu0_L2C PREFETCH REQUESTED:          0 ISSUED:          0 USEFUL:          0 USELESS:          0
cpu0_L2C AVERAGE MISS LATENCY: 1092 cycles
cpu0_STLB TOTAL        ACCESS:     156155 HIT:         47 MISS:     156108
cpu0_STLB LOAD         ACCESS:     156155 HIT:         47 MISS:     156108
cpu0_STLB RFO          ACCESS:          0 HIT:          0 MISS:          0
cpu0_STLB PREFETCH     ACCESS:          0 HIT:          0 MISS:          0
cpu0_STLB WRITE        ACCESS:          0 HIT:          0 MISS:          0
cpu0_STLB TRANSLATION  ACCESS:          0 HIT:          0 MISS:          0
cpu0_STLB PREFETCH REQUESTED:          0 ISSUED:          0 USEFUL:          0 USELESS:          0
cpu0_STLB AVERAGE MISS LATENCY: 1706 cycles

DRAM Statistics

Channel 0 RQ ROW_BUFFER_HIT:     147900
  ROW_BUFFER_MISS:     498525
 AVG DBUS CONGESTED CYCLE: 3.978
WQ ROW_BUFFER_HIT: Channel 0 
  ROW_BUFFER_MISS:     106135
  FULL:     426650
Final OPTGen Hits: 396
Final OPTGen Access: 14342
Final OPTGEN Hit Rate: 2.76113
