WARNING: physical memory size is smaller than virtual memory size.

*** ChampSim Multicore Out-of-Order Simulator ***
Warmup Instructions: 50000000
Simulation Instructions: 600000000
Number of CPUs: 1
Page size: 4096

CPU 0 Tage branch predictor
Off-chip DRAM Size: 4 GiB Channels: 1 Width: 64-bit Data Race: 3200 MT/s
Heartbeat CPU 0 instructions: 10000002 cycles: 2500202 heartbeat IPC: 4 cumulative IPC: 4 (Simulation time: 00 hr 00 min 47 sec)
Heartbeat CPU 0 instructions: 20000002 cycles: 5000202 heartbeat IPC: 4 cumulative IPC: 4 (Simulation time: 00 hr 01 min 35 sec)
Heartbeat CPU 0 instructions: 30000002 cycles: 7500202 heartbeat IPC: 4 cumulative IPC: 4 (Simulation time: 00 hr 02 min 18 sec)
Heartbeat CPU 0 instructions: 40000002 cycles: 10000202 heartbeat IPC: 4 cumulative IPC: 4 (Simulation time: 00 hr 02 min 59 sec)
Heartbeat CPU 0 instructions: 50000002 cycles: 12500202 heartbeat IPC: 4 cumulative IPC: 4 (Simulation time: 00 hr 03 min 36 sec)
Warmup finished CPU 0 instructions: 50000002 cycles: 12500203 cumulative IPC: 4 (Simulation time: 00 hr 03 min 36 sec)
Warmup complete CPU 0 instructions: 50000002 cycles: 12500203 cumulative IPC: 4 (Simulation time: 00 hr 03 min 36 sec)
Heartbeat CPU 0 instructions: 60000004 cycles: 15599674 heartbeat IPC: 3.226 cumulative IPC: 3.226 (Simulation time: 00 hr 04 min 22 sec)
Heartbeat CPU 0 instructions: 70000000 cycles: 18113006 heartbeat IPC: 3.979 cumulative IPC: 3.563 (Simulation time: 00 hr 05 min 03 sec)
Heartbeat CPU 0 instructions: 80000003 cycles: 20630683 heartbeat IPC: 3.972 cumulative IPC: 3.69 (Simulation time: 00 hr 05 min 43 sec)
Heartbeat CPU 0 instructions: 90000004 cycles: 23147218 heartbeat IPC: 3.974 cumulative IPC: 3.757 (Simulation time: 00 hr 06 min 23 sec)
Heartbeat CPU 0 instructions: 100000004 cycles: 25663363 heartbeat IPC: 3.974 cumulative IPC: 3.798 (Simulation time: 00 hr 07 min 03 sec)
Heartbeat CPU 0 instructions: 110000004 cycles: 28170504 heartbeat IPC: 3.989 cumulative IPC: 3.829 (Simulation time: 00 hr 07 min 42 sec)
Heartbeat CPU 0 instructions: 120000000 cycles: 30683643 heartbeat IPC: 3.979 cumulative IPC: 3.85 (Simulation time: 00 hr 08 min 21 sec)
Heartbeat CPU 0 instructions: 130000000 cycles: 33192729 heartbeat IPC: 3.986 cumulative IPC: 3.866 (Simulation time: 00 hr 08 min 59 sec)
Heartbeat CPU 0 instructions: 140000004 cycles: 35703101 heartbeat IPC: 3.983 cumulative IPC: 3.879 (Simulation time: 00 hr 09 min 37 sec)
Heartbeat CPU 0 instructions: 150000004 cycles: 38214091 heartbeat IPC: 3.982 cumulative IPC: 3.889 (Simulation time: 00 hr 10 min 13 sec)
Heartbeat CPU 0 instructions: 160000000 cycles: 40719184 heartbeat IPC: 3.992 cumulative IPC: 3.898 (Simulation time: 00 hr 10 min 51 sec)
Heartbeat CPU 0 instructions: 170000000 cycles: 43235096 heartbeat IPC: 3.975 cumulative IPC: 3.904 (Simulation time: 00 hr 11 min 27 sec)
Heartbeat CPU 0 instructions: 180000000 cycles: 45747753 heartbeat IPC: 3.98 cumulative IPC: 3.91 (Simulation time: 00 hr 12 min 04 sec)
Heartbeat CPU 0 instructions: 190000000 cycles: 48265115 heartbeat IPC: 3.972 cumulative IPC: 3.914 (Simulation time: 00 hr 12 min 41 sec)
Heartbeat CPU 0 instructions: 200000003 cycles: 50771617 heartbeat IPC: 3.99 cumulative IPC: 3.919 (Simulation time: 00 hr 13 min 18 sec)
Heartbeat CPU 0 instructions: 210000004 cycles: 53285640 heartbeat IPC: 3.978 cumulative IPC: 3.923 (Simulation time: 00 hr 13 min 54 sec)
Heartbeat CPU 0 instructions: 220000004 cycles: 55797611 heartbeat IPC: 3.981 cumulative IPC: 3.926 (Simulation time: 00 hr 14 min 31 sec)
Heartbeat CPU 0 instructions: 230000000 cycles: 58314558 heartbeat IPC: 3.973 cumulative IPC: 3.929 (Simulation time: 00 hr 15 min 08 sec)
Heartbeat CPU 0 instructions: 240000000 cycles: 60822395 heartbeat IPC: 3.987 cumulative IPC: 3.932 (Simulation time: 00 hr 15 min 44 sec)
Heartbeat CPU 0 instructions: 250000003 cycles: 63335409 heartbeat IPC: 3.979 cumulative IPC: 3.934 (Simulation time: 00 hr 16 min 21 sec)
Heartbeat CPU 0 instructions: 260000004 cycles: 65852129 heartbeat IPC: 3.973 cumulative IPC: 3.936 (Simulation time: 00 hr 16 min 57 sec)
Heartbeat CPU 0 instructions: 270000004 cycles: 68369622 heartbeat IPC: 3.972 cumulative IPC: 3.938 (Simulation time: 00 hr 17 min 33 sec)
Heartbeat CPU 0 instructions: 280000000 cycles: 70884121 heartbeat IPC: 3.977 cumulative IPC: 3.939 (Simulation time: 00 hr 18 min 09 sec)
Heartbeat CPU 0 instructions: 290000000 cycles: 73395739 heartbeat IPC: 3.981 cumulative IPC: 3.941 (Simulation time: 00 hr 18 min 45 sec)
Heartbeat CPU 0 instructions: 300000000 cycles: 75904874 heartbeat IPC: 3.985 cumulative IPC: 3.943 (Simulation time: 00 hr 19 min 20 sec)
Heartbeat CPU 0 instructions: 310000004 cycles: 78415778 heartbeat IPC: 3.983 cumulative IPC: 3.944 (Simulation time: 00 hr 19 min 57 sec)
Heartbeat CPU 0 instructions: 320000003 cycles: 80926130 heartbeat IPC: 3.984 cumulative IPC: 3.946 (Simulation time: 00 hr 20 min 34 sec)
Heartbeat CPU 0 instructions: 330000004 cycles: 83436644 heartbeat IPC: 3.983 cumulative IPC: 3.947 (Simulation time: 00 hr 21 min 11 sec)
Heartbeat CPU 0 instructions: 340000004 cycles: 85946833 heartbeat IPC: 3.984 cumulative IPC: 3.948 (Simulation time: 00 hr 21 min 47 sec)
Heartbeat CPU 0 instructions: 350000000 cycles: 88460402 heartbeat IPC: 3.978 cumulative IPC: 3.949 (Simulation time: 00 hr 22 min 23 sec)
Heartbeat CPU 0 instructions: 360000000 cycles: 90971036 heartbeat IPC: 3.983 cumulative IPC: 3.951 (Simulation time: 00 hr 22 min 59 sec)
Heartbeat CPU 0 instructions: 370000004 cycles: 93485285 heartbeat IPC: 3.977 cumulative IPC: 3.951 (Simulation time: 00 hr 23 min 34 sec)
Heartbeat CPU 0 instructions: 380000004 cycles: 95994465 heartbeat IPC: 3.985 cumulative IPC: 3.952 (Simulation time: 00 hr 24 min 11 sec)
Heartbeat CPU 0 instructions: 390000004 cycles: 98506425 heartbeat IPC: 3.981 cumulative IPC: 3.953 (Simulation time: 00 hr 24 min 50 sec)
Heartbeat CPU 0 instructions: 400000000 cycles: 101013385 heartbeat IPC: 3.989 cumulative IPC: 3.954 (Simulation time: 00 hr 25 min 28 sec)
Heartbeat CPU 0 instructions: 410000000 cycles: 103521254 heartbeat IPC: 3.987 cumulative IPC: 3.955 (Simulation time: 00 hr 26 min 06 sec)
Heartbeat CPU 0 instructions: 420000004 cycles: 106034887 heartbeat IPC: 3.978 cumulative IPC: 3.956 (Simulation time: 00 hr 26 min 43 sec)
Heartbeat CPU 0 instructions: 430000004 cycles: 108550028 heartbeat IPC: 3.976 cumulative IPC: 3.956 (Simulation time: 00 hr 27 min 19 sec)
Heartbeat CPU 0 instructions: 440000004 cycles: 111060687 heartbeat IPC: 3.983 cumulative IPC: 3.957 (Simulation time: 00 hr 27 min 56 sec)
Heartbeat CPU 0 instructions: 450000004 cycles: 113568847 heartbeat IPC: 3.987 cumulative IPC: 3.958 (Simulation time: 00 hr 28 min 32 sec)
Heartbeat CPU 0 instructions: 460000004 cycles: 116082955 heartbeat IPC: 3.978 cumulative IPC: 3.958 (Simulation time: 00 hr 29 min 09 sec)
Heartbeat CPU 0 instructions: 470000000 cycles: 118592160 heartbeat IPC: 3.985 cumulative IPC: 3.959 (Simulation time: 00 hr 29 min 45 sec)
Heartbeat CPU 0 instructions: 480000000 cycles: 121097989 heartbeat IPC: 3.991 cumulative IPC: 3.96 (Simulation time: 00 hr 30 min 21 sec)
Heartbeat CPU 0 instructions: 490000004 cycles: 123610656 heartbeat IPC: 3.98 cumulative IPC: 3.96 (Simulation time: 00 hr 30 min 58 sec)
Heartbeat CPU 0 instructions: 500000004 cycles: 126119978 heartbeat IPC: 3.985 cumulative IPC: 3.961 (Simulation time: 00 hr 31 min 35 sec)
Heartbeat CPU 0 instructions: 510000004 cycles: 128627031 heartbeat IPC: 3.989 cumulative IPC: 3.961 (Simulation time: 00 hr 32 min 12 sec)
Heartbeat CPU 0 instructions: 520000000 cycles: 131141021 heartbeat IPC: 3.978 cumulative IPC: 3.962 (Simulation time: 00 hr 32 min 48 sec)
Heartbeat CPU 0 instructions: 530000000 cycles: 133658777 heartbeat IPC: 3.972 cumulative IPC: 3.962 (Simulation time: 00 hr 33 min 24 sec)
Heartbeat CPU 0 instructions: 540000004 cycles: 136165717 heartbeat IPC: 3.989 cumulative IPC: 3.962 (Simulation time: 00 hr 34 min 00 sec)
Heartbeat CPU 0 instructions: 550000004 cycles: 138675658 heartbeat IPC: 3.984 cumulative IPC: 3.963 (Simulation time: 00 hr 34 min 37 sec)
Heartbeat CPU 0 instructions: 560000000 cycles: 141181806 heartbeat IPC: 3.99 cumulative IPC: 3.963 (Simulation time: 00 hr 35 min 13 sec)
Heartbeat CPU 0 instructions: 570000000 cycles: 143686604 heartbeat IPC: 3.992 cumulative IPC: 3.964 (Simulation time: 00 hr 35 min 49 sec)
Heartbeat CPU 0 instructions: 580000000 cycles: 146196131 heartbeat IPC: 3.985 cumulative IPC: 3.964 (Simulation time: 00 hr 36 min 23 sec)
Heartbeat CPU 0 instructions: 590000000 cycles: 148707879 heartbeat IPC: 3.981 cumulative IPC: 3.965 (Simulation time: 00 hr 36 min 55 sec)
*** Reached end of trace: (0, "traces/convolution.champsimtrace")
Heartbeat CPU 0 instructions: 600000000 cycles: 151227913 heartbeat IPC: 3.968 cumulative IPC: 3.965 (Simulation time: 00 hr 37 min 26 sec)
Heartbeat CPU 0 instructions: 610000004 cycles: 173583957 heartbeat IPC: 0.4473 cumulative IPC: 3.476 (Simulation time: 00 hr 39 min 19 sec)
Heartbeat CPU 0 instructions: 620000000 cycles: 193338929 heartbeat IPC: 0.5062 cumulative IPC: 3.152 (Simulation time: 00 hr 40 min 31 sec)
Heartbeat CPU 0 instructions: 630000003 cycles: 198007833 heartbeat IPC: 2.142 cumulative IPC: 3.127 (Simulation time: 00 hr 40 min 56 sec)
Heartbeat CPU 0 instructions: 640000002 cycles: 208252878 heartbeat IPC: 0.9761 cumulative IPC: 3.014 (Simulation time: 00 hr 41 min 34 sec)
Heartbeat CPU 0 instructions: 650000004 cycles: 219008852 heartbeat IPC: 0.9297 cumulative IPC: 2.905 (Simulation time: 00 hr 42 min 12 sec)
Simulation finished CPU 0 instructions: 600000002 cycles: 206508650 cumulative IPC: 2.905 (Simulation time: 00 hr 42 min 12 sec)
Simulation complete CPU 0 instructions: 600000002 cycles: 206508650 cumulative IPC: 2.905 (Simulation time: 00 hr 42 min 12 sec)

ChampSim completed all CPUs

=== Simulation ===
CPU 0 runs traces/convolution.champsimtrace
Region of Interest Statistics

CPU 0 cumulative IPC: 2.905 instructions: 600000002 cycles: 206508650
CPU 0 Branch Prediction Accuracy: 100% MPKI: 0.002727 Average ROB Occupancy at Mispredict: 81.24
Branch type MPKI
BRANCH_DIRECT_JUMP: 1e-05
BRANCH_INDIRECT: 4.67e-05
BRANCH_CONDITIONAL: 0.00263
BRANCH_DIRECT_CALL: 6.67e-06
BRANCH_INDIRECT_CALL: 8.33e-06
BRANCH_RETURN: 2.17e-05

LLC TOTAL        ACCESS:    1192637 HIT:     202883 MISS:     989754
LLC LOAD         ACCESS:       2892 HIT:       1312 MISS:       1580
LLC RFO          ACCESS:     539059 HIT:      30822 MISS:     508237
LLC PREFETCH     ACCESS:       2053 HIT:       2015 MISS:         38
LLC WRITE        ACCESS:     539114 HIT:     138565 MISS:     400549
LLC TRANSLATION  ACCESS:     109519 HIT:      30169 MISS:      79350
LLC PREFETCH REQUESTED:       2053 ISSUED:       2053 USEFUL:         11 USELESS:         21
LLC AVERAGE MISS LATENCY: 633.7 cycles
cpu0_DTLB TOTAL        ACCESS:  108724325 HIT:  108409005 MISS:     315320
cpu0_DTLB LOAD         ACCESS:  108724325 HIT:  108409005 MISS:     315320
cpu0_DTLB RFO          ACCESS:          0 HIT:          0 MISS:          0
cpu0_DTLB PREFETCH     ACCESS:          0 HIT:          0 MISS:          0
cpu0_DTLB WRITE        ACCESS:          0 HIT:          0 MISS:          0
cpu0_DTLB TRANSLATION  ACCESS:          0 HIT:          0 MISS:          0
cpu0_DTLB PREFETCH REQUESTED:          0 ISSUED:          0 USEFUL:          0 USELESS:          0
cpu0_DTLB AVERAGE MISS LATENCY: 657.9 cycles
cpu0_ITLB TOTAL        ACCESS:       2077 HIT:       2020 MISS:         57
cpu0_ITLB LOAD         ACCESS:       2077 HIT:       2020 MISS:         57
cpu0_ITLB RFO          ACCESS:          0 HIT:          0 MISS:          0
cpu0_ITLB PREFETCH     ACCESS:          0 HIT:          0 MISS:          0
cpu0_ITLB WRITE        ACCESS:          0 HIT:          0 MISS:          0
cpu0_ITLB TRANSLATION  ACCESS:          0 HIT:          0 MISS:          0
cpu0_ITLB PREFETCH REQUESTED:          0 ISSUED:          0 USEFUL:          0 USELESS:          0
cpu0_ITLB AVERAGE MISS LATENCY: 600 cycles
cpu0_L1D TOTAL        ACCESS:  142639963 HIT:  136434178 MISS:    6205785
cpu0_L1D LOAD         ACCESS:   69781169 HIT:   69773468 MISS:       7701
cpu0_L1D RFO          ACCESS:          0 HIT:          0 MISS:          0
cpu0_L1D PREFETCH     ACCESS:          0 HIT:          0 MISS:          0
cpu0_L1D WRITE        ACCESS:   72678273 HIT:   66626413 MISS:    6051860
cpu0_L1D TRANSLATION  ACCESS:     180521 HIT:      34297 MISS:     146224
cpu0_L1D PREFETCH REQUESTED:          0 ISSUED:          0 USEFUL:          0 USELESS:          0
cpu0_L1D AVERAGE MISS LATENCY: 82.12 cycles
cpu0_L1I TOTAL        ACCESS:       2428 HIT:        996 MISS:       1432
cpu0_L1I LOAD         ACCESS:       2428 HIT:        996 MISS:       1432
cpu0_L1I RFO          ACCESS:          0 HIT:          0 MISS:          0
cpu0_L1I PREFETCH     ACCESS:          0 HIT:          0 MISS:          0
cpu0_L1I WRITE        ACCESS:          0 HIT:          0 MISS:          0
cpu0_L1I TRANSLATION  ACCESS:          0 HIT:          0 MISS:          0
cpu0_L1I PREFETCH REQUESTED:          0 ISSUED:          0 USEFUL:          0 USELESS:          0
cpu0_L1I AVERAGE MISS LATENCY: 536.3 cycles
cpu0_L2C TOTAL        ACCESS:    1201621 HIT:     550131 MISS:     651490
cpu0_L2C LOAD         ACCESS:       3320 HIT:        428 MISS:       2892
cpu0_L2C RFO          ACCESS:     543618 HIT:       4559 MISS:     539059
cpu0_L2C PREFETCH     ACCESS:          0 HIT:          0 MISS:          0
cpu0_L2C WRITE        ACCESS:     543966 HIT:     543946 MISS:         20
cpu0_L2C TRANSLATION  ACCESS:     110717 HIT:       1198 MISS:     109519
cpu0_L2C PREFETCH REQUESTED:          0 ISSUED:          0 USEFUL:          0 USELESS:          0
cpu0_L2C AVERAGE MISS LATENCY: 983.6 cycles
cpu0_STLB TOTAL        ACCESS:     156215 HIT:         42 MISS:     156173
cpu0_STLB LOAD         ACCESS:     156215 HIT:         42 MISS:     156173
cpu0_STLB RFO          ACCESS:          0 HIT:          0 MISS:          0
cpu0_STLB PREFETCH     ACCESS:          0 HIT:          0 MISS:          0
cpu0_STLB WRITE        ACCESS:          0 HIT:          0 MISS:          0
cpu0_STLB TRANSLATION  ACCESS:          0 HIT:          0 MISS:          0
cpu0_STLB PREFETCH REQUESTED:          0 ISSUED:          0 USEFUL:          0 USELESS:          0
cpu0_STLB AVERAGE MISS LATENCY: 1473 cycles

DRAM Statistics

Channel 0 RQ ROW_BUFFER_HIT:     128541
  ROW_BUFFER_MISS:     460646
 AVG DBUS CONGESTED CYCLE: 3.981
WQ ROW_BUFFER_HIT: Channel 0 
  ROW_BUFFER_MISS:     106366
  FULL:     401863
