WARNING: physical memory size is smaller than virtual memory size.

*** ChampSim Multicore Out-of-Order Simulator ***
Warmup Instructions: 50000000
Simulation Instructions: 600000000
Number of CPUs: 1
Page size: 4096

CPU 0 Tage branch predictor
Off-chip DRAM Size: 4 GiB Channels: 1 Width: 64-bit Data Race: 3200 MT/s
Heartbeat CPU 0 instructions: 10000000 cycles: 2500202 heartbeat IPC: 4 cumulative IPC: 4 (Simulation time: 00 hr 00 min 39 sec)
Heartbeat CPU 0 instructions: 20000000 cycles: 5000202 heartbeat IPC: 4 cumulative IPC: 4 (Simulation time: 00 hr 01 min 21 sec)
Heartbeat CPU 0 instructions: 30000000 cycles: 7500202 heartbeat IPC: 4 cumulative IPC: 4 (Simulation time: 00 hr 01 min 58 sec)
Heartbeat CPU 0 instructions: 40000000 cycles: 10000202 heartbeat IPC: 4 cumulative IPC: 4 (Simulation time: 00 hr 02 min 37 sec)
Heartbeat CPU 0 instructions: 50000000 cycles: 12500202 heartbeat IPC: 4 cumulative IPC: 4 (Simulation time: 00 hr 03 min 14 sec)
Warmup finished CPU 0 instructions: 50000000 cycles: 12500203 cumulative IPC: 4 (Simulation time: 00 hr 03 min 14 sec)
Warmup complete CPU 0 instructions: 50000000 cycles: 12500203 cumulative IPC: 4 (Simulation time: 00 hr 03 min 14 sec)
Heartbeat CPU 0 instructions: 60000002 cycles: 15568891 heartbeat IPC: 3.259 cumulative IPC: 3.259 (Simulation time: 00 hr 04 min 04 sec)
Heartbeat CPU 0 instructions: 70000002 cycles: 18070632 heartbeat IPC: 3.997 cumulative IPC: 3.59 (Simulation time: 00 hr 04 min 55 sec)
Heartbeat CPU 0 instructions: 80000003 cycles: 20570654 heartbeat IPC: 4 cumulative IPC: 3.717 (Simulation time: 00 hr 05 min 37 sec)
Heartbeat CPU 0 instructions: 90000004 cycles: 23070675 heartbeat IPC: 4 cumulative IPC: 3.784 (Simulation time: 00 hr 06 min 19 sec)
Heartbeat CPU 0 instructions: 100000003 cycles: 25573086 heartbeat IPC: 3.996 cumulative IPC: 3.825 (Simulation time: 00 hr 06 min 59 sec)
Heartbeat CPU 0 instructions: 110000000 cycles: 28073567 heartbeat IPC: 3.999 cumulative IPC: 3.853 (Simulation time: 00 hr 07 min 39 sec)
Heartbeat CPU 0 instructions: 120000000 cycles: 30573591 heartbeat IPC: 4 cumulative IPC: 3.873 (Simulation time: 00 hr 08 min 18 sec)
Heartbeat CPU 0 instructions: 130000000 cycles: 33073614 heartbeat IPC: 4 cumulative IPC: 3.889 (Simulation time: 00 hr 08 min 57 sec)
Heartbeat CPU 0 instructions: 140000001 cycles: 35573651 heartbeat IPC: 4 cumulative IPC: 3.901 (Simulation time: 00 hr 09 min 37 sec)
Heartbeat CPU 0 instructions: 150000003 cycles: 38073673 heartbeat IPC: 4 cumulative IPC: 3.91 (Simulation time: 00 hr 10 min 15 sec)
Heartbeat CPU 0 instructions: 160000004 cycles: 40576629 heartbeat IPC: 3.995 cumulative IPC: 3.918 (Simulation time: 00 hr 10 min 53 sec)
Heartbeat CPU 0 instructions: 170000001 cycles: 43076656 heartbeat IPC: 4 cumulative IPC: 3.925 (Simulation time: 00 hr 11 min 30 sec)
Heartbeat CPU 0 instructions: 180000001 cycles: 45576677 heartbeat IPC: 4 cumulative IPC: 3.93 (Simulation time: 00 hr 12 min 08 sec)
Heartbeat CPU 0 instructions: 190000002 cycles: 48077535 heartbeat IPC: 3.999 cumulative IPC: 3.935 (Simulation time: 00 hr 12 min 45 sec)
Heartbeat CPU 0 instructions: 200000001 cycles: 50577556 heartbeat IPC: 4 cumulative IPC: 3.939 (Simulation time: 00 hr 13 min 22 sec)
Heartbeat CPU 0 instructions: 210000000 cycles: 53079732 heartbeat IPC: 3.997 cumulative IPC: 3.943 (Simulation time: 00 hr 13 min 59 sec)
Heartbeat CPU 0 instructions: 220000001 cycles: 55579775 heartbeat IPC: 4 cumulative IPC: 3.946 (Simulation time: 00 hr 14 min 36 sec)
Heartbeat CPU 0 instructions: 230000002 cycles: 58079796 heartbeat IPC: 4 cumulative IPC: 3.949 (Simulation time: 00 hr 15 min 13 sec)
Heartbeat CPU 0 instructions: 240000004 cycles: 60579834 heartbeat IPC: 4 cumulative IPC: 3.952 (Simulation time: 00 hr 15 min 49 sec)
Heartbeat CPU 0 instructions: 250000000 cycles: 63082673 heartbeat IPC: 3.995 cumulative IPC: 3.954 (Simulation time: 00 hr 16 min 26 sec)
Heartbeat CPU 0 instructions: 260000000 cycles: 65584255 heartbeat IPC: 3.997 cumulative IPC: 3.956 (Simulation time: 00 hr 17 min 03 sec)
Heartbeat CPU 0 instructions: 270000002 cycles: 68084276 heartbeat IPC: 4 cumulative IPC: 3.958 (Simulation time: 00 hr 17 min 39 sec)
Heartbeat CPU 0 instructions: 280000003 cycles: 70584315 heartbeat IPC: 4 cumulative IPC: 3.96 (Simulation time: 00 hr 18 min 16 sec)
Heartbeat CPU 0 instructions: 290000000 cycles: 73084335 heartbeat IPC: 4 cumulative IPC: 3.961 (Simulation time: 00 hr 18 min 51 sec)
Heartbeat CPU 0 instructions: 300000000 cycles: 75587457 heartbeat IPC: 3.995 cumulative IPC: 3.963 (Simulation time: 00 hr 19 min 28 sec)
Heartbeat CPU 0 instructions: 310000002 cycles: 78087494 heartbeat IPC: 4 cumulative IPC: 3.964 (Simulation time: 00 hr 20 min 04 sec)
Heartbeat CPU 0 instructions: 320000004 cycles: 80587516 heartbeat IPC: 4 cumulative IPC: 3.965 (Simulation time: 00 hr 20 min 40 sec)
Heartbeat CPU 0 instructions: 330000000 cycles: 83087537 heartbeat IPC: 4 cumulative IPC: 3.967 (Simulation time: 00 hr 21 min 16 sec)
Heartbeat CPU 0 instructions: 340000002 cycles: 85588424 heartbeat IPC: 3.999 cumulative IPC: 3.968 (Simulation time: 00 hr 21 min 51 sec)
Heartbeat CPU 0 instructions: 350000002 cycles: 88088446 heartbeat IPC: 4 cumulative IPC: 3.969 (Simulation time: 00 hr 22 min 27 sec)
Heartbeat CPU 0 instructions: 360000000 cycles: 90591038 heartbeat IPC: 3.996 cumulative IPC: 3.97 (Simulation time: 00 hr 23 min 03 sec)
Heartbeat CPU 0 instructions: 370000004 cycles: 93091082 heartbeat IPC: 4 cumulative IPC: 3.971 (Simulation time: 00 hr 23 min 40 sec)
Heartbeat CPU 0 instructions: 380000000 cycles: 95591102 heartbeat IPC: 4 cumulative IPC: 3.972 (Simulation time: 00 hr 24 min 15 sec)
Heartbeat CPU 0 instructions: 390000000 cycles: 98091124 heartbeat IPC: 4 cumulative IPC: 3.972 (Simulation time: 00 hr 24 min 49 sec)
Heartbeat CPU 0 instructions: 400000000 cycles: 100594056 heartbeat IPC: 3.995 cumulative IPC: 3.973 (Simulation time: 00 hr 25 min 23 sec)
Heartbeat CPU 0 instructions: 410000000 cycles: 103094529 heartbeat IPC: 3.999 cumulative IPC: 3.974 (Simulation time: 00 hr 25 min 57 sec)
Heartbeat CPU 0 instructions: 420000001 cycles: 105594551 heartbeat IPC: 4 cumulative IPC: 3.974 (Simulation time: 00 hr 26 min 31 sec)
Heartbeat CPU 0 instructions: 430000003 cycles: 108094572 heartbeat IPC: 4 cumulative IPC: 3.975 (Simulation time: 00 hr 27 min 06 sec)
Heartbeat CPU 0 instructions: 440000003 cycles: 110594594 heartbeat IPC: 4 cumulative IPC: 3.976 (Simulation time: 00 hr 27 min 40 sec)
Heartbeat CPU 0 instructions: 450000000 cycles: 113096550 heartbeat IPC: 3.997 cumulative IPC: 3.976 (Simulation time: 00 hr 28 min 13 sec)
Heartbeat CPU 0 instructions: 460000002 cycles: 115596571 heartbeat IPC: 4 cumulative IPC: 3.977 (Simulation time: 00 hr 28 min 46 sec)
Heartbeat CPU 0 instructions: 470000002 cycles: 118096592 heartbeat IPC: 4 cumulative IPC: 3.977 (Simulation time: 00 hr 29 min 19 sec)
Heartbeat CPU 0 instructions: 480000002 cycles: 120596614 heartbeat IPC: 4 cumulative IPC: 3.978 (Simulation time: 00 hr 29 min 54 sec)
Heartbeat CPU 0 instructions: 490000000 cycles: 123097083 heartbeat IPC: 3.999 cumulative IPC: 3.978 (Simulation time: 00 hr 30 min 25 sec)
Heartbeat CPU 0 instructions: 500000002 cycles: 125599829 heartbeat IPC: 3.996 cumulative IPC: 3.979 (Simulation time: 00 hr 31 min 00 sec)
Heartbeat CPU 0 instructions: 510000003 cycles: 128099850 heartbeat IPC: 4 cumulative IPC: 3.979 (Simulation time: 00 hr 31 min 33 sec)
Heartbeat CPU 0 instructions: 520000004 cycles: 130599871 heartbeat IPC: 4 cumulative IPC: 3.98 (Simulation time: 00 hr 32 min 06 sec)
Heartbeat CPU 0 instructions: 530000000 cycles: 133099914 heartbeat IPC: 4 cumulative IPC: 3.98 (Simulation time: 00 hr 32 min 37 sec)
Heartbeat CPU 0 instructions: 540000001 cycles: 135603285 heartbeat IPC: 3.995 cumulative IPC: 3.98 (Simulation time: 00 hr 33 min 07 sec)
Heartbeat CPU 0 instructions: 550000002 cycles: 138103305 heartbeat IPC: 4 cumulative IPC: 3.981 (Simulation time: 00 hr 33 min 37 sec)
Heartbeat CPU 0 instructions: 560000003 cycles: 140603771 heartbeat IPC: 3.999 cumulative IPC: 3.981 (Simulation time: 00 hr 34 min 06 sec)
Heartbeat CPU 0 instructions: 570000004 cycles: 143103793 heartbeat IPC: 4 cumulative IPC: 3.982 (Simulation time: 00 hr 34 min 31 sec)
Heartbeat CPU 0 instructions: 580000000 cycles: 145603815 heartbeat IPC: 4 cumulative IPC: 3.982 (Simulation time: 00 hr 34 min 57 sec)
Heartbeat CPU 0 instructions: 590000002 cycles: 148103852 heartbeat IPC: 4 cumulative IPC: 3.982 (Simulation time: 00 hr 35 min 22 sec)
*** Reached end of trace: (0, "traces/convolution.champsimtrace")
Heartbeat CPU 0 instructions: 600000000 cycles: 150613177 heartbeat IPC: 3.985 cumulative IPC: 3.982 (Simulation time: 00 hr 35 min 46 sec)
Heartbeat CPU 0 instructions: 610000002 cycles: 179053654 heartbeat IPC: 0.3516 cumulative IPC: 3.362 (Simulation time: 00 hr 37 min 40 sec)
Heartbeat CPU 0 instructions: 620000001 cycles: 205102767 heartbeat IPC: 0.3839 cumulative IPC: 2.959 (Simulation time: 00 hr 39 min 04 sec)
Heartbeat CPU 0 instructions: 630000001 cycles: 216498833 heartbeat IPC: 0.8775 cumulative IPC: 2.843 (Simulation time: 00 hr 39 min 44 sec)
Heartbeat CPU 0 instructions: 640000004 cycles: 226401173 heartbeat IPC: 1.01 cumulative IPC: 2.758 (Simulation time: 00 hr 40 min 20 sec)
Heartbeat CPU 0 instructions: 650000001 cycles: 236796583 heartbeat IPC: 0.962 cumulative IPC: 2.675 (Simulation time: 00 hr 40 min 58 sec)
Simulation finished CPU 0 instructions: 600000001 cycles: 224296381 cumulative IPC: 2.675 (Simulation time: 00 hr 40 min 58 sec)
Simulation complete CPU 0 instructions: 600000001 cycles: 224296381 cumulative IPC: 2.675 (Simulation time: 00 hr 40 min 58 sec)

ChampSim completed all CPUs

=== Simulation ===
CPU 0 runs traces/convolution.champsimtrace
Region of Interest Statistics

CPU 0 cumulative IPC: 2.675 instructions: 600000001 cycles: 224296381
CPU 0 Branch Prediction Accuracy: 100% MPKI: 0.002858 Average ROB Occupancy at Mispredict: 79.12
Branch type MPKI
BRANCH_DIRECT_JUMP: 0.000107
BRANCH_INDIRECT: 4.17e-05
BRANCH_CONDITIONAL: 0.00258
BRANCH_DIRECT_CALL: 0.000103
BRANCH_INDIRECT_CALL: 8.33e-06
BRANCH_RETURN: 1.83e-05

LLC TOTAL        ACCESS:    1185095 HIT:     533724 MISS:     651371
LLC LOAD         ACCESS:       2887 HIT:        578 MISS:       2309
LLC RFO          ACCESS:     535122 HIT:         89 MISS:     535033
LLC PREFETCH     ACCESS:       2095 HIT:        555 MISS:       1540
LLC WRITE        ACCESS:     535170 HIT:     531908 MISS:       3262
LLC TRANSLATION  ACCESS:     109821 HIT:        594 MISS:     109227
LLC PREFETCH REQUESTED:       2095 ISSUED:       2095 USEFUL:        787 USELESS:         45
LLC AVERAGE MISS LATENCY: 1079 cycles
cpu0_DTLB TOTAL        ACCESS:  113112078 HIT:  112758800 MISS:     353278
cpu0_DTLB LOAD         ACCESS:  113112078 HIT:  112758800 MISS:     353278
cpu0_DTLB RFO          ACCESS:          0 HIT:          0 MISS:          0
cpu0_DTLB PREFETCH     ACCESS:          0 HIT:          0 MISS:          0
cpu0_DTLB WRITE        ACCESS:          0 HIT:          0 MISS:          0
cpu0_DTLB TRANSLATION  ACCESS:          0 HIT:          0 MISS:          0
cpu0_DTLB PREFETCH REQUESTED:          0 ISSUED:          0 USEFUL:          0 USELESS:          0
cpu0_DTLB AVERAGE MISS LATENCY: 744.8 cycles
cpu0_ITLB TOTAL        ACCESS:       2127 HIT:       2092 MISS:         35
cpu0_ITLB LOAD         ACCESS:       2127 HIT:       2092 MISS:         35
cpu0_ITLB RFO          ACCESS:          0 HIT:          0 MISS:          0
cpu0_ITLB PREFETCH     ACCESS:          0 HIT:          0 MISS:          0
cpu0_ITLB WRITE        ACCESS:          0 HIT:          0 MISS:          0
cpu0_ITLB TRANSLATION  ACCESS:          0 HIT:          0 MISS:          0
cpu0_ITLB PREFETCH REQUESTED:          0 ISSUED:          0 USEFUL:          0 USELESS:          0
cpu0_ITLB AVERAGE MISS LATENCY: 707.5 cycles
cpu0_L1D TOTAL        ACCESS:  146347345 HIT:  140152967 MISS:    6194378
cpu0_L1D LOAD         ACCESS:   74194778 HIT:   74186755 MISS:       8023
cpu0_L1D RFO          ACCESS:          0 HIT:          0 MISS:          0
cpu0_L1D PREFETCH     ACCESS:          0 HIT:          0 MISS:          0
cpu0_L1D WRITE        ACCESS:   71971901 HIT:   65927892 MISS:    6044009
cpu0_L1D TRANSLATION  ACCESS:     180666 HIT:      38320 MISS:     142346
cpu0_L1D PREFETCH REQUESTED:          0 ISSUED:          0 USEFUL:          0 USELESS:          0
cpu0_L1D AVERAGE MISS LATENCY: 88.83 cycles
cpu0_L1I TOTAL        ACCESS:       2489 HIT:       1007 MISS:       1482
cpu0_L1I LOAD         ACCESS:       2489 HIT:       1007 MISS:       1482
cpu0_L1I RFO          ACCESS:          0 HIT:          0 MISS:          0
cpu0_L1I PREFETCH     ACCESS:          0 HIT:          0 MISS:          0
cpu0_L1I WRITE        ACCESS:          0 HIT:          0 MISS:          0
cpu0_L1I TRANSLATION  ACCESS:          0 HIT:          0 MISS:          0
cpu0_L1I PREFETCH REQUESTED:          0 ISSUED:          0 USEFUL:          0 USELESS:          0
cpu0_L1I AVERAGE MISS LATENCY: 644.5 cycles
cpu0_L2C TOTAL        ACCESS:    1193369 HIT:     545523 MISS:     647846
cpu0_L2C LOAD         ACCESS:       3311 HIT:        424 MISS:       2887
cpu0_L2C RFO          ACCESS:     539244 HIT:       4122 MISS:     535122
cpu0_L2C PREFETCH     ACCESS:          0 HIT:          0 MISS:          0
cpu0_L2C WRITE        ACCESS:     539636 HIT:     539621 MISS:         15
cpu0_L2C TRANSLATION  ACCESS:     111178 HIT:       1356 MISS:     109822
cpu0_L2C PREFETCH REQUESTED:          0 ISSUED:          0 USEFUL:          0 USELESS:          0
cpu0_L2C AVERAGE MISS LATENCY: 1105 cycles
cpu0_STLB TOTAL        ACCESS:     156163 HIT:         51 MISS:     156112
cpu0_STLB LOAD         ACCESS:     156163 HIT:         51 MISS:     156112
cpu0_STLB RFO          ACCESS:          0 HIT:          0 MISS:          0
cpu0_STLB PREFETCH     ACCESS:          0 HIT:          0 MISS:          0
cpu0_STLB WRITE        ACCESS:          0 HIT:          0 MISS:          0
cpu0_STLB TRANSLATION  ACCESS:          0 HIT:          0 MISS:          0
cpu0_STLB PREFETCH REQUESTED:          0 ISSUED:          0 USEFUL:          0 USELESS:          0
cpu0_STLB AVERAGE MISS LATENCY: 1882 cycles

DRAM Statistics

Channel 0 RQ ROW_BUFFER_HIT:     141523
  ROW_BUFFER_MISS:     505666
 AVG DBUS CONGESTED CYCLE: 3.982
WQ ROW_BUFFER_HIT: Channel 0 
  ROW_BUFFER_MISS:      55340
  FULL:     479471
