WARNING: physical memory size is smaller than virtual memory size.

*** ChampSim Multicore Out-of-Order Simulator ***
Warmup Instructions: 50000000
Simulation Instructions: 600000000
Number of CPUs: 1
Page size: 4096

CPU 0 Tage branch predictor
Off-chip DRAM Size: 4 GiB Channels: 1 Width: 64-bit Data Race: 3200 MT/s
Heartbeat CPU 0 instructions: 10000000 cycles: 2500202 heartbeat IPC: 4 cumulative IPC: 4 (Simulation time: 00 hr 00 min 56 sec)
Heartbeat CPU 0 instructions: 20000000 cycles: 5000202 heartbeat IPC: 4 cumulative IPC: 4 (Simulation time: 00 hr 01 min 49 sec)
Heartbeat CPU 0 instructions: 30000000 cycles: 7500202 heartbeat IPC: 4 cumulative IPC: 4 (Simulation time: 00 hr 02 min 46 sec)
Heartbeat CPU 0 instructions: 40000000 cycles: 10000202 heartbeat IPC: 4 cumulative IPC: 4 (Simulation time: 00 hr 03 min 39 sec)
Heartbeat CPU 0 instructions: 50000000 cycles: 12500202 heartbeat IPC: 4 cumulative IPC: 4 (Simulation time: 00 hr 04 min 30 sec)
Warmup finished CPU 0 instructions: 50000000 cycles: 12500203 cumulative IPC: 4 (Simulation time: 00 hr 04 min 30 sec)
Warmup complete CPU 0 instructions: 50000000 cycles: 12500203 cumulative IPC: 4 (Simulation time: 00 hr 04 min 30 sec)
Heartbeat CPU 0 instructions: 60000002 cycles: 15565521 heartbeat IPC: 3.262 cumulative IPC: 3.262 (Simulation time: 00 hr 05 min 34 sec)
Heartbeat CPU 0 instructions: 70000002 cycles: 18067462 heartbeat IPC: 3.997 cumulative IPC: 3.592 (Simulation time: 00 hr 06 min 30 sec)
Heartbeat CPU 0 instructions: 80000003 cycles: 20567484 heartbeat IPC: 4 cumulative IPC: 3.719 (Simulation time: 00 hr 07 min 27 sec)
Heartbeat CPU 0 instructions: 90000004 cycles: 23067505 heartbeat IPC: 4 cumulative IPC: 3.785 (Simulation time: 00 hr 08 min 25 sec)
Heartbeat CPU 0 instructions: 100000003 cycles: 25569432 heartbeat IPC: 3.997 cumulative IPC: 3.826 (Simulation time: 00 hr 09 min 21 sec)
Heartbeat CPU 0 instructions: 110000000 cycles: 28069453 heartbeat IPC: 4 cumulative IPC: 3.854 (Simulation time: 00 hr 10 min 21 sec)
Heartbeat CPU 0 instructions: 120000000 cycles: 30569476 heartbeat IPC: 4 cumulative IPC: 3.874 (Simulation time: 00 hr 11 min 25 sec)
Heartbeat CPU 0 instructions: 130000000 cycles: 33069499 heartbeat IPC: 4 cumulative IPC: 3.889 (Simulation time: 00 hr 12 min 05 sec)
Heartbeat CPU 0 instructions: 140000001 cycles: 35569536 heartbeat IPC: 4 cumulative IPC: 3.901 (Simulation time: 00 hr 12 min 46 sec)
Heartbeat CPU 0 instructions: 150000003 cycles: 38069558 heartbeat IPC: 4 cumulative IPC: 3.911 (Simulation time: 00 hr 13 min 27 sec)
Heartbeat CPU 0 instructions: 160000004 cycles: 40572972 heartbeat IPC: 3.995 cumulative IPC: 3.918 (Simulation time: 00 hr 14 min 10 sec)
Heartbeat CPU 0 instructions: 170000001 cycles: 43072999 heartbeat IPC: 4 cumulative IPC: 3.925 (Simulation time: 00 hr 14 min 51 sec)
Heartbeat CPU 0 instructions: 180000001 cycles: 45573020 heartbeat IPC: 4 cumulative IPC: 3.931 (Simulation time: 00 hr 15 min 32 sec)
Heartbeat CPU 0 instructions: 190000002 cycles: 48073042 heartbeat IPC: 4 cumulative IPC: 3.936 (Simulation time: 00 hr 16 min 18 sec)
Heartbeat CPU 0 instructions: 200000001 cycles: 50573064 heartbeat IPC: 4 cumulative IPC: 3.94 (Simulation time: 00 hr 17 min 03 sec)
Heartbeat CPU 0 instructions: 210000000 cycles: 53075035 heartbeat IPC: 3.997 cumulative IPC: 3.943 (Simulation time: 00 hr 17 min 47 sec)
Heartbeat CPU 0 instructions: 220000001 cycles: 55575078 heartbeat IPC: 4 cumulative IPC: 3.947 (Simulation time: 00 hr 18 min 30 sec)
Heartbeat CPU 0 instructions: 230000002 cycles: 58075099 heartbeat IPC: 4 cumulative IPC: 3.95 (Simulation time: 00 hr 19 min 14 sec)
Heartbeat CPU 0 instructions: 240000004 cycles: 60575137 heartbeat IPC: 4 cumulative IPC: 3.952 (Simulation time: 00 hr 19 min 57 sec)
Heartbeat CPU 0 instructions: 250000000 cycles: 63077485 heartbeat IPC: 3.996 cumulative IPC: 3.954 (Simulation time: 00 hr 20 min 38 sec)
Heartbeat CPU 0 instructions: 260000000 cycles: 65577513 heartbeat IPC: 4 cumulative IPC: 3.956 (Simulation time: 00 hr 21 min 19 sec)
Heartbeat CPU 0 instructions: 270000002 cycles: 68077534 heartbeat IPC: 4 cumulative IPC: 3.958 (Simulation time: 00 hr 22 min 03 sec)
Heartbeat CPU 0 instructions: 280000003 cycles: 70577573 heartbeat IPC: 4 cumulative IPC: 3.96 (Simulation time: 00 hr 22 min 45 sec)
Heartbeat CPU 0 instructions: 290000000 cycles: 73077593 heartbeat IPC: 4 cumulative IPC: 3.962 (Simulation time: 00 hr 23 min 49 sec)
Heartbeat CPU 0 instructions: 300000000 cycles: 75579721 heartbeat IPC: 3.997 cumulative IPC: 3.963 (Simulation time: 00 hr 25 min 25 sec)
Heartbeat CPU 0 instructions: 310000002 cycles: 78079758 heartbeat IPC: 4 cumulative IPC: 3.965 (Simulation time: 00 hr 26 min 10 sec)
Heartbeat CPU 0 instructions: 320000004 cycles: 80579780 heartbeat IPC: 4 cumulative IPC: 3.966 (Simulation time: 00 hr 26 min 54 sec)
Heartbeat CPU 0 instructions: 330000000 cycles: 83079801 heartbeat IPC: 4 cumulative IPC: 3.967 (Simulation time: 00 hr 27 min 37 sec)
Heartbeat CPU 0 instructions: 340000002 cycles: 85579823 heartbeat IPC: 4 cumulative IPC: 3.968 (Simulation time: 00 hr 28 min 22 sec)
Heartbeat CPU 0 instructions: 350000002 cycles: 88079845 heartbeat IPC: 4 cumulative IPC: 3.969 (Simulation time: 00 hr 29 min 08 sec)
Heartbeat CPU 0 instructions: 360000000 cycles: 90582052 heartbeat IPC: 3.996 cumulative IPC: 3.97 (Simulation time: 00 hr 29 min 50 sec)
Heartbeat CPU 0 instructions: 370000004 cycles: 93082096 heartbeat IPC: 4 cumulative IPC: 3.971 (Simulation time: 00 hr 30 min 33 sec)
Heartbeat CPU 0 instructions: 380000000 cycles: 95582116 heartbeat IPC: 4 cumulative IPC: 3.972 (Simulation time: 00 hr 31 min 38 sec)
Heartbeat CPU 0 instructions: 390000000 cycles: 98082138 heartbeat IPC: 4 cumulative IPC: 3.973 (Simulation time: 00 hr 32 min 22 sec)
Heartbeat CPU 0 instructions: 400000000 cycles: 100584757 heartbeat IPC: 3.996 cumulative IPC: 3.973 (Simulation time: 00 hr 33 min 10 sec)
Heartbeat CPU 0 instructions: 410000000 cycles: 103084787 heartbeat IPC: 4 cumulative IPC: 3.974 (Simulation time: 00 hr 34 min 03 sec)
Heartbeat CPU 0 instructions: 420000001 cycles: 105584809 heartbeat IPC: 4 cumulative IPC: 3.975 (Simulation time: 00 hr 34 min 51 sec)
Heartbeat CPU 0 instructions: 430000003 cycles: 108084830 heartbeat IPC: 4 cumulative IPC: 3.976 (Simulation time: 00 hr 35 min 34 sec)
Heartbeat CPU 0 instructions: 440000003 cycles: 110584852 heartbeat IPC: 4 cumulative IPC: 3.976 (Simulation time: 00 hr 36 min 20 sec)
Heartbeat CPU 0 instructions: 450000000 cycles: 113087938 heartbeat IPC: 3.995 cumulative IPC: 3.977 (Simulation time: 00 hr 37 min 07 sec)
Heartbeat CPU 0 instructions: 460000002 cycles: 115587959 heartbeat IPC: 4 cumulative IPC: 3.977 (Simulation time: 00 hr 37 min 57 sec)
Heartbeat CPU 0 instructions: 470000002 cycles: 118087980 heartbeat IPC: 4 cumulative IPC: 3.978 (Simulation time: 00 hr 38 min 46 sec)
Heartbeat CPU 0 instructions: 480000002 cycles: 120588002 heartbeat IPC: 4 cumulative IPC: 3.978 (Simulation time: 00 hr 39 min 36 sec)
Heartbeat CPU 0 instructions: 490000000 cycles: 123088027 heartbeat IPC: 4 cumulative IPC: 3.979 (Simulation time: 00 hr 40 min 31 sec)
Heartbeat CPU 0 instructions: 500000002 cycles: 125590377 heartbeat IPC: 3.996 cumulative IPC: 3.979 (Simulation time: 00 hr 41 min 20 sec)
Heartbeat CPU 0 instructions: 510000003 cycles: 128090398 heartbeat IPC: 4 cumulative IPC: 3.98 (Simulation time: 00 hr 42 min 11 sec)
Heartbeat CPU 0 instructions: 520000004 cycles: 130590419 heartbeat IPC: 4 cumulative IPC: 3.98 (Simulation time: 00 hr 43 min 00 sec)
Heartbeat CPU 0 instructions: 530000000 cycles: 133090462 heartbeat IPC: 4 cumulative IPC: 3.98 (Simulation time: 00 hr 43 min 53 sec)
Heartbeat CPU 0 instructions: 540000001 cycles: 135592949 heartbeat IPC: 3.996 cumulative IPC: 3.981 (Simulation time: 00 hr 44 min 50 sec)
Heartbeat CPU 0 instructions: 550000002 cycles: 138092969 heartbeat IPC: 4 cumulative IPC: 3.981 (Simulation time: 00 hr 45 min 43 sec)
Heartbeat CPU 0 instructions: 560000003 cycles: 140592992 heartbeat IPC: 4 cumulative IPC: 3.981 (Simulation time: 00 hr 46 min 28 sec)
Heartbeat CPU 0 instructions: 570000004 cycles: 143093014 heartbeat IPC: 4 cumulative IPC: 3.982 (Simulation time: 00 hr 47 min 16 sec)
Heartbeat CPU 0 instructions: 580000000 cycles: 145593036 heartbeat IPC: 4 cumulative IPC: 3.982 (Simulation time: 00 hr 48 min 15 sec)
Heartbeat CPU 0 instructions: 590000002 cycles: 148093073 heartbeat IPC: 4 cumulative IPC: 3.983 (Simulation time: 00 hr 49 min 08 sec)
*** Reached end of trace: (0, "traces/convolution.champsimtrace")
Heartbeat CPU 0 instructions: 600000000 cycles: 150601836 heartbeat IPC: 3.986 cumulative IPC: 3.983 (Simulation time: 00 hr 50 min 02 sec)
Heartbeat CPU 0 instructions: 610000002 cycles: 174547533 heartbeat IPC: 0.4176 cumulative IPC: 3.456 (Simulation time: 00 hr 53 min 43 sec)
Heartbeat CPU 0 instructions: 620000001 cycles: 196084657 heartbeat IPC: 0.4643 cumulative IPC: 3.105 (Simulation time: 00 hr 57 min 20 sec)
Heartbeat CPU 0 instructions: 630000001 cycles: 208620063 heartbeat IPC: 0.7977 cumulative IPC: 2.957 (Simulation time: 00 hr 59 min 21 sec)
Heartbeat CPU 0 instructions: 640000004 cycles: 219188360 heartbeat IPC: 0.9462 cumulative IPC: 2.855 (Simulation time: 01 hr 01 min 07 sec)
Heartbeat CPU 0 instructions: 650000001 cycles: 229645331 heartbeat IPC: 0.9563 cumulative IPC: 2.763 (Simulation time: 01 hr 02 min 44 sec)
Simulation finished CPU 0 instructions: 600000001 cycles: 217145129 cumulative IPC: 2.763 (Simulation time: 01 hr 02 min 44 sec)
Simulation complete CPU 0 instructions: 600000001 cycles: 217145129 cumulative IPC: 2.763 (Simulation time: 01 hr 02 min 44 sec)

ChampSim completed all CPUs

=== Simulation ===
CPU 0 runs traces/convolution.champsimtrace
Region of Interest Statistics

CPU 0 cumulative IPC: 2.763 instructions: 600000001 cycles: 217145129
CPU 0 Branch Prediction Accuracy: 100% MPKI: 0.002858 Average ROB Occupancy at Mispredict: 77.23
Branch type MPKI
BRANCH_DIRECT_JUMP: 0.000107
BRANCH_INDIRECT: 4.17e-05
BRANCH_CONDITIONAL: 0.00258
BRANCH_DIRECT_CALL: 0.000103
BRANCH_INDIRECT_CALL: 8.33e-06
BRANCH_RETURN: 1.83e-05

LLC TOTAL        ACCESS:    1185860 HIT:     536942 MISS:     648918
LLC LOAD         ACCESS:       2886 HIT:        793 MISS:       2093
LLC RFO          ACCESS:     535121 HIT:         74 MISS:     535047
LLC PREFETCH     ACCESS:       2886 HIT:        278 MISS:       2608
LLC WRITE        ACCESS:     535169 HIT:     535148 MISS:         21
LLC TRANSLATION  ACCESS:     109798 HIT:        649 MISS:     109149
LLC PREFETCH REQUESTED:       2886 ISSUED:       2886 USEFUL:       1414 USELESS:        350
LLC AVERAGE MISS LATENCY: 1018 cycles
cpu0_DTLB TOTAL        ACCESS:  113106893 HIT:  112752969 MISS:     353924
cpu0_DTLB LOAD         ACCESS:  113106893 HIT:  112752969 MISS:     353924
cpu0_DTLB RFO          ACCESS:          0 HIT:          0 MISS:          0
cpu0_DTLB PREFETCH     ACCESS:          0 HIT:          0 MISS:          0
cpu0_DTLB WRITE        ACCESS:          0 HIT:          0 MISS:          0
cpu0_DTLB TRANSLATION  ACCESS:          0 HIT:          0 MISS:          0
cpu0_DTLB PREFETCH REQUESTED:          0 ISSUED:          0 USEFUL:          0 USELESS:          0
cpu0_DTLB AVERAGE MISS LATENCY: 652.4 cycles
cpu0_ITLB TOTAL        ACCESS:       2098 HIT:       2064 MISS:         34
cpu0_ITLB LOAD         ACCESS:       2098 HIT:       2064 MISS:         34
cpu0_ITLB RFO          ACCESS:          0 HIT:          0 MISS:          0
cpu0_ITLB PREFETCH     ACCESS:          0 HIT:          0 MISS:          0
cpu0_ITLB WRITE        ACCESS:          0 HIT:          0 MISS:          0
cpu0_ITLB TRANSLATION  ACCESS:          0 HIT:          0 MISS:          0
cpu0_ITLB PREFETCH REQUESTED:          0 ISSUED:          0 USEFUL:          0 USELESS:          0
cpu0_ITLB AVERAGE MISS LATENCY: 974.7 cycles
cpu0_L1D TOTAL        ACCESS:  146340674 HIT:  140169092 MISS:    6171582
cpu0_L1D LOAD         ACCESS:   74187402 HIT:   74179747 MISS:       7655
cpu0_L1D RFO          ACCESS:          0 HIT:          0 MISS:          0
cpu0_L1D PREFETCH     ACCESS:          0 HIT:          0 MISS:          0
cpu0_L1D WRITE        ACCESS:   71972630 HIT:   65950933 MISS:    6021697
cpu0_L1D TRANSLATION  ACCESS:     180642 HIT:      38412 MISS:     142230
cpu0_L1D PREFETCH REQUESTED:          0 ISSUED:          0 USEFUL:          0 USELESS:          0
cpu0_L1D AVERAGE MISS LATENCY: 83.31 cycles
cpu0_L1I TOTAL        ACCESS:       2454 HIT:        998 MISS:       1456
cpu0_L1I LOAD         ACCESS:       2454 HIT:        998 MISS:       1456
cpu0_L1I RFO          ACCESS:          0 HIT:          0 MISS:          0
cpu0_L1I PREFETCH     ACCESS:          0 HIT:          0 MISS:          0
cpu0_L1I WRITE        ACCESS:          0 HIT:          0 MISS:          0
cpu0_L1I TRANSLATION  ACCESS:          0 HIT:          0 MISS:          0
cpu0_L1I PREFETCH REQUESTED:          0 ISSUED:          0 USEFUL:          0 USELESS:          0
cpu0_L1I AVERAGE MISS LATENCY: 623.4 cycles
cpu0_L2C TOTAL        ACCESS:    1193268 HIT:     545447 MISS:     647821
cpu0_L2C LOAD         ACCESS:       3311 HIT:        425 MISS:       2886
cpu0_L2C RFO          ACCESS:     539189 HIT:       4068 MISS:     535121
cpu0_L2C PREFETCH     ACCESS:          0 HIT:          0 MISS:          0
cpu0_L2C WRITE        ACCESS:     539637 HIT:     539622 MISS:         15
cpu0_L2C TRANSLATION  ACCESS:     111131 HIT:       1332 MISS:     109799
cpu0_L2C PREFETCH REQUESTED:          0 ISSUED:          0 USEFUL:          0 USELESS:          0
cpu0_L2C AVERAGE MISS LATENCY: 1038 cycles
cpu0_STLB TOTAL        ACCESS:     156151 HIT:         44 MISS:     156107
cpu0_STLB LOAD         ACCESS:     156151 HIT:         44 MISS:     156107
cpu0_STLB RFO          ACCESS:          0 HIT:          0 MISS:          0
cpu0_STLB PREFETCH     ACCESS:          0 HIT:          0 MISS:          0
cpu0_STLB WRITE        ACCESS:          0 HIT:          0 MISS:          0
cpu0_STLB TRANSLATION  ACCESS:          0 HIT:          0 MISS:          0
cpu0_STLB PREFETCH REQUESTED:          0 ISSUED:          0 USEFUL:          0 USELESS:          0
cpu0_STLB AVERAGE MISS LATENCY: 1688 cycles

DRAM Statistics

Channel 0 RQ ROW_BUFFER_HIT:     141983
  ROW_BUFFER_MISS:     505449
 AVG DBUS CONGESTED CYCLE: 3.982
WQ ROW_BUFFER_HIT: Channel 0 
  ROW_BUFFER_MISS:     100408
  FULL:     434648
