WARNING: physical memory size is smaller than virtual memory size.

*** ChampSim Multicore Out-of-Order Simulator ***
Warmup Instructions: 50000000
Simulation Instructions: 600000000
Number of CPUs: 1
Page size: 4096

Off-chip DRAM Size: 4 GiB Channels: 1 Width: 64-bit Data Race: 3200 MT/s
Heartbeat CPU 0 instructions: 10000002 cycles: 2500202 heartbeat IPC: 4 cumulative IPC: 4 (Simulation time: 00 hr 00 min 30 sec)
Heartbeat CPU 0 instructions: 20000002 cycles: 5000202 heartbeat IPC: 4 cumulative IPC: 4 (Simulation time: 00 hr 01 min 02 sec)
Heartbeat CPU 0 instructions: 30000002 cycles: 7500202 heartbeat IPC: 4 cumulative IPC: 4 (Simulation time: 00 hr 01 min 39 sec)
Heartbeat CPU 0 instructions: 40000002 cycles: 10000202 heartbeat IPC: 4 cumulative IPC: 4 (Simulation time: 00 hr 02 min 15 sec)
Heartbeat CPU 0 instructions: 50000002 cycles: 12500202 heartbeat IPC: 4 cumulative IPC: 4 (Simulation time: 00 hr 03 min 01 sec)
Warmup finished CPU 0 instructions: 50000002 cycles: 12500203 cumulative IPC: 4 (Simulation time: 00 hr 03 min 01 sec)
Warmup complete CPU 0 instructions: 50000002 cycles: 12500203 cumulative IPC: 4 (Simulation time: 00 hr 03 min 01 sec)
Heartbeat CPU 0 instructions: 60000004 cycles: 15722990 heartbeat IPC: 3.103 cumulative IPC: 3.103 (Simulation time: 00 hr 04 min 02 sec)
Heartbeat CPU 0 instructions: 70000000 cycles: 18368388 heartbeat IPC: 3.78 cumulative IPC: 3.408 (Simulation time: 00 hr 04 min 58 sec)
Heartbeat CPU 0 instructions: 80000003 cycles: 21015297 heartbeat IPC: 3.778 cumulative IPC: 3.523 (Simulation time: 00 hr 05 min 57 sec)
Heartbeat CPU 0 instructions: 90000004 cycles: 23660714 heartbeat IPC: 3.78 cumulative IPC: 3.584 (Simulation time: 00 hr 06 min 52 sec)
Heartbeat CPU 0 instructions: 100000004 cycles: 26306143 heartbeat IPC: 3.78 cumulative IPC: 3.622 (Simulation time: 00 hr 07 min 49 sec)
Heartbeat CPU 0 instructions: 110000004 cycles: 28951558 heartbeat IPC: 3.78 cumulative IPC: 3.647 (Simulation time: 00 hr 08 min 53 sec)
Heartbeat CPU 0 instructions: 120000000 cycles: 31600826 heartbeat IPC: 3.775 cumulative IPC: 3.665 (Simulation time: 00 hr 10 min 02 sec)
Heartbeat CPU 0 instructions: 130000000 cycles: 34246518 heartbeat IPC: 3.78 cumulative IPC: 3.679 (Simulation time: 00 hr 11 min 02 sec)
Heartbeat CPU 0 instructions: 140000004 cycles: 36891979 heartbeat IPC: 3.78 cumulative IPC: 3.69 (Simulation time: 00 hr 12 min 08 sec)
Heartbeat CPU 0 instructions: 150000004 cycles: 39537327 heartbeat IPC: 3.78 cumulative IPC: 3.699 (Simulation time: 00 hr 13 min 12 sec)
Heartbeat CPU 0 instructions: 160000000 cycles: 42182706 heartbeat IPC: 3.78 cumulative IPC: 3.706 (Simulation time: 00 hr 14 min 13 sec)
Heartbeat CPU 0 instructions: 170000000 cycles: 44827874 heartbeat IPC: 3.78 cumulative IPC: 3.712 (Simulation time: 00 hr 15 min 12 sec)
Heartbeat CPU 0 instructions: 180000000 cycles: 47477947 heartbeat IPC: 3.773 cumulative IPC: 3.717 (Simulation time: 00 hr 16 min 10 sec)
Heartbeat CPU 0 instructions: 190000000 cycles: 50125272 heartbeat IPC: 3.777 cumulative IPC: 3.721 (Simulation time: 00 hr 17 min 08 sec)
Heartbeat CPU 0 instructions: 200000003 cycles: 52770611 heartbeat IPC: 3.78 cumulative IPC: 3.725 (Simulation time: 00 hr 18 min 04 sec)
Heartbeat CPU 0 instructions: 210000004 cycles: 55415995 heartbeat IPC: 3.78 cumulative IPC: 3.728 (Simulation time: 00 hr 19 min 02 sec)
Heartbeat CPU 0 instructions: 220000004 cycles: 58063552 heartbeat IPC: 3.777 cumulative IPC: 3.731 (Simulation time: 00 hr 19 min 59 sec)
Heartbeat CPU 0 instructions: 230000000 cycles: 60710861 heartbeat IPC: 3.777 cumulative IPC: 3.734 (Simulation time: 00 hr 20 min 53 sec)
Heartbeat CPU 0 instructions: 240000000 cycles: 63356325 heartbeat IPC: 3.78 cumulative IPC: 3.736 (Simulation time: 00 hr 21 min 47 sec)
Heartbeat CPU 0 instructions: 250000003 cycles: 66001668 heartbeat IPC: 3.78 cumulative IPC: 3.738 (Simulation time: 00 hr 22 min 44 sec)
Heartbeat CPU 0 instructions: 260000004 cycles: 68646933 heartbeat IPC: 3.78 cumulative IPC: 3.74 (Simulation time: 00 hr 23 min 45 sec)
Heartbeat CPU 0 instructions: 270000004 cycles: 71296016 heartbeat IPC: 3.775 cumulative IPC: 3.742 (Simulation time: 00 hr 24 min 41 sec)
Heartbeat CPU 0 instructions: 280000000 cycles: 73941728 heartbeat IPC: 3.78 cumulative IPC: 3.743 (Simulation time: 00 hr 25 min 40 sec)
Heartbeat CPU 0 instructions: 290000000 cycles: 76587072 heartbeat IPC: 3.78 cumulative IPC: 3.745 (Simulation time: 00 hr 26 min 40 sec)
Heartbeat CPU 0 instructions: 300000001 cycles: 79232476 heartbeat IPC: 3.78 cumulative IPC: 3.746 (Simulation time: 00 hr 27 min 38 sec)
Heartbeat CPU 0 instructions: 310000004 cycles: 81877744 heartbeat IPC: 3.78 cumulative IPC: 3.748 (Simulation time: 00 hr 28 min 36 sec)
Heartbeat CPU 0 instructions: 320000003 cycles: 84527809 heartbeat IPC: 3.773 cumulative IPC: 3.749 (Simulation time: 00 hr 29 min 35 sec)
Heartbeat CPU 0 instructions: 330000004 cycles: 87173152 heartbeat IPC: 3.78 cumulative IPC: 3.75 (Simulation time: 00 hr 30 min 35 sec)
Heartbeat CPU 0 instructions: 340000004 cycles: 89818619 heartbeat IPC: 3.78 cumulative IPC: 3.751 (Simulation time: 00 hr 31 min 34 sec)
Heartbeat CPU 0 instructions: 350000000 cycles: 92463902 heartbeat IPC: 3.78 cumulative IPC: 3.752 (Simulation time: 00 hr 32 min 37 sec)
Heartbeat CPU 0 instructions: 360000000 cycles: 95109196 heartbeat IPC: 3.78 cumulative IPC: 3.753 (Simulation time: 00 hr 33 min 35 sec)
Heartbeat CPU 0 instructions: 370000004 cycles: 97756896 heartbeat IPC: 3.777 cumulative IPC: 3.753 (Simulation time: 00 hr 34 min 35 sec)
Heartbeat CPU 0 instructions: 380000004 cycles: 100402789 heartbeat IPC: 3.779 cumulative IPC: 3.754 (Simulation time: 00 hr 35 min 35 sec)
Heartbeat CPU 0 instructions: 390000004 cycles: 103048167 heartbeat IPC: 3.78 cumulative IPC: 3.755 (Simulation time: 00 hr 36 min 35 sec)
Heartbeat CPU 0 instructions: 400000000 cycles: 105693596 heartbeat IPC: 3.78 cumulative IPC: 3.756 (Simulation time: 00 hr 37 min 33 sec)
Heartbeat CPU 0 instructions: 410000000 cycles: 108338842 heartbeat IPC: 3.78 cumulative IPC: 3.756 (Simulation time: 00 hr 38 min 30 sec)
Heartbeat CPU 0 instructions: 420000004 cycles: 110985966 heartbeat IPC: 3.778 cumulative IPC: 3.757 (Simulation time: 00 hr 39 min 25 sec)
Heartbeat CPU 0 instructions: 430000004 cycles: 113632739 heartbeat IPC: 3.778 cumulative IPC: 3.757 (Simulation time: 00 hr 40 min 08 sec)
Heartbeat CPU 0 instructions: 440000004 cycles: 116278070 heartbeat IPC: 3.78 cumulative IPC: 3.758 (Simulation time: 00 hr 40 min 52 sec)
Heartbeat CPU 0 instructions: 450000004 cycles: 118923446 heartbeat IPC: 3.78 cumulative IPC: 3.759 (Simulation time: 00 hr 41 min 35 sec)
Heartbeat CPU 0 instructions: 460000004 cycles: 121571409 heartbeat IPC: 3.776 cumulative IPC: 3.759 (Simulation time: 00 hr 42 min 18 sec)
Heartbeat CPU 0 instructions: 470000000 cycles: 124217638 heartbeat IPC: 3.779 cumulative IPC: 3.759 (Simulation time: 00 hr 43 min 06 sec)
Heartbeat CPU 0 instructions: 480000000 cycles: 126862989 heartbeat IPC: 3.78 cumulative IPC: 3.76 (Simulation time: 00 hr 43 min 59 sec)
Heartbeat CPU 0 instructions: 490000004 cycles: 129508401 heartbeat IPC: 3.78 cumulative IPC: 3.76 (Simulation time: 00 hr 44 min 49 sec)
Heartbeat CPU 0 instructions: 500000004 cycles: 132153717 heartbeat IPC: 3.78 cumulative IPC: 3.761 (Simulation time: 00 hr 45 min 35 sec)
Heartbeat CPU 0 instructions: 510000004 cycles: 134802821 heartbeat IPC: 3.775 cumulative IPC: 3.761 (Simulation time: 00 hr 46 min 21 sec)
Heartbeat CPU 0 instructions: 520000000 cycles: 137449337 heartbeat IPC: 3.779 cumulative IPC: 3.762 (Simulation time: 00 hr 47 min 06 sec)
Heartbeat CPU 0 instructions: 530000000 cycles: 140094689 heartbeat IPC: 3.78 cumulative IPC: 3.762 (Simulation time: 00 hr 47 min 50 sec)
Heartbeat CPU 0 instructions: 540000004 cycles: 142740161 heartbeat IPC: 3.78 cumulative IPC: 3.762 (Simulation time: 00 hr 48 min 34 sec)
Heartbeat CPU 0 instructions: 550000004 cycles: 145385440 heartbeat IPC: 3.78 cumulative IPC: 3.763 (Simulation time: 00 hr 49 min 18 sec)
Heartbeat CPU 0 instructions: 560000000 cycles: 148034637 heartbeat IPC: 3.775 cumulative IPC: 3.763 (Simulation time: 00 hr 50 min 00 sec)
Heartbeat CPU 0 instructions: 570000000 cycles: 150681414 heartbeat IPC: 3.778 cumulative IPC: 3.763 (Simulation time: 00 hr 50 min 42 sec)
Heartbeat CPU 0 instructions: 580000000 cycles: 153326723 heartbeat IPC: 3.78 cumulative IPC: 3.763 (Simulation time: 00 hr 51 min 24 sec)
Heartbeat CPU 0 instructions: 590000000 cycles: 155972070 heartbeat IPC: 3.78 cumulative IPC: 3.764 (Simulation time: 00 hr 52 min 06 sec)
*** Reached end of trace: (0, "traces/convolution.champsimtrace")
Heartbeat CPU 0 instructions: 600000000 cycles: 158624997 heartbeat IPC: 3.769 cumulative IPC: 3.764 (Simulation time: 00 hr 52 min 48 sec)
Heartbeat CPU 0 instructions: 610000004 cycles: 184280236 heartbeat IPC: 0.3898 cumulative IPC: 3.26 (Simulation time: 00 hr 57 min 01 sec)
Heartbeat CPU 0 instructions: 620000000 cycles: 207548780 heartbeat IPC: 0.4298 cumulative IPC: 2.922 (Simulation time: 01 hr 00 min 56 sec)
Heartbeat CPU 0 instructions: 630000003 cycles: 217958862 heartbeat IPC: 0.9606 cumulative IPC: 2.823 (Simulation time: 01 hr 02 min 56 sec)
Heartbeat CPU 0 instructions: 640000002 cycles: 228309958 heartbeat IPC: 0.9661 cumulative IPC: 2.734 (Simulation time: 01 hr 04 min 51 sec)
Heartbeat CPU 0 instructions: 650000004 cycles: 238609416 heartbeat IPC: 0.9709 cumulative IPC: 2.654 (Simulation time: 01 hr 06 min 42 sec)
Simulation finished CPU 0 instructions: 600000002 cycles: 226109214 cumulative IPC: 2.654 (Simulation time: 01 hr 06 min 42 sec)
Simulation complete CPU 0 instructions: 600000002 cycles: 226109214 cumulative IPC: 2.654 (Simulation time: 01 hr 06 min 42 sec)

ChampSim completed all CPUs

=== Simulation ===
CPU 0 runs traces/convolution.champsimtrace
Region of Interest Statistics

CPU 0 cumulative IPC: 2.654 instructions: 600000002 cycles: 226109214
CPU 0 Branch Prediction Accuracy: 99.5% MPKI: 0.9609 Average ROB Occupancy at Mispredict: 97.51
Branch type MPKI
BRANCH_DIRECT_JUMP: 1e-05
BRANCH_INDIRECT: 4.67e-05
BRANCH_CONDITIONAL: 0.961
BRANCH_DIRECT_CALL: 6.67e-06
BRANCH_INDIRECT_CALL: 8.33e-06
BRANCH_RETURN: 2.17e-05

LLC TOTAL        ACCESS:    1194797 HIT:     243900 MISS:     950897
LLC LOAD         ACCESS:       2894 HIT:        904 MISS:       1990
LLC RFO          ACCESS:     539059 HIT:        165 MISS:     538894
LLC PREFETCH     ACCESS:       2894 HIT:        291 MISS:       2603
LLC WRITE        ACCESS:     539106 HIT:     242518 MISS:     296588
LLC TRANSLATION  ACCESS:     110844 HIT:         22 MISS:     110822
LLC PREFETCH REQUESTED:       2894 ISSUED:       2894 USEFUL:       1654 USELESS:        251
LLC AVERAGE MISS LATENCY: 697 cycles
cpu0_DTLB TOTAL        ACCESS:  120772032 HIT:  120419924 MISS:     352108
cpu0_DTLB LOAD         ACCESS:  120772032 HIT:  120419924 MISS:     352108
cpu0_DTLB RFO          ACCESS:          0 HIT:          0 MISS:          0
cpu0_DTLB PREFETCH     ACCESS:          0 HIT:          0 MISS:          0
cpu0_DTLB WRITE        ACCESS:          0 HIT:          0 MISS:          0
cpu0_DTLB TRANSLATION  ACCESS:          0 HIT:          0 MISS:          0
cpu0_DTLB PREFETCH REQUESTED:          0 ISSUED:          0 USEFUL:          0 USELESS:          0
cpu0_DTLB AVERAGE MISS LATENCY: 681.6 cycles
cpu0_ITLB TOTAL        ACCESS:       1999 HIT:       1944 MISS:         55
cpu0_ITLB LOAD         ACCESS:       1999 HIT:       1944 MISS:         55
cpu0_ITLB RFO          ACCESS:          0 HIT:          0 MISS:          0
cpu0_ITLB PREFETCH     ACCESS:          0 HIT:          0 MISS:          0
cpu0_ITLB WRITE        ACCESS:          0 HIT:          0 MISS:          0
cpu0_ITLB TRANSLATION  ACCESS:          0 HIT:          0 MISS:          0
cpu0_ITLB PREFETCH REQUESTED:          0 ISSUED:          0 USEFUL:          0 USELESS:          0
cpu0_ITLB AVERAGE MISS LATENCY: 1121 cycles
cpu0_L1D TOTAL        ACCESS:  152674408 HIT:  146428432 MISS:    6245976
cpu0_L1D LOAD         ACCESS:   79778676 HIT:   79772721 MISS:       5955
cpu0_L1D RFO          ACCESS:          0 HIT:          0 MISS:          0
cpu0_L1D PREFETCH     ACCESS:          0 HIT:          0 MISS:          0
cpu0_L1D WRITE        ACCESS:   72714052 HIT:   66616811 MISS:    6097241
cpu0_L1D TRANSLATION  ACCESS:     181680 HIT:      38900 MISS:     142780
cpu0_L1D PREFETCH REQUESTED:          0 ISSUED:          0 USEFUL:          0 USELESS:          0
cpu0_L1D AVERAGE MISS LATENCY: 81.24 cycles
cpu0_L1I TOTAL        ACCESS:       2298 HIT:       1024 MISS:       1274
cpu0_L1I LOAD         ACCESS:       2298 HIT:       1024 MISS:       1274
cpu0_L1I RFO          ACCESS:          0 HIT:          0 MISS:          0
cpu0_L1I PREFETCH     ACCESS:          0 HIT:          0 MISS:          0
cpu0_L1I WRITE        ACCESS:          0 HIT:          0 MISS:          0
cpu0_L1I TRANSLATION  ACCESS:          0 HIT:          0 MISS:          0
cpu0_L1I PREFETCH REQUESTED:          0 ISSUED:          0 USEFUL:          0 USELESS:          0
cpu0_L1I AVERAGE MISS LATENCY: 1010 cycles
cpu0_L2C TOTAL        ACCESS:    1200640 HIT:     547826 MISS:     652814
cpu0_L2C LOAD         ACCESS:       3321 HIT:        427 MISS:       2894
cpu0_L2C RFO          ACCESS:     542391 HIT:       3332 MISS:     539059
cpu0_L2C PREFETCH     ACCESS:          0 HIT:          0 MISS:          0
cpu0_L2C WRITE        ACCESS:     542550 HIT:     542533 MISS:         17
cpu0_L2C TRANSLATION  ACCESS:     112378 HIT:       1534 MISS:     110844
cpu0_L2C PREFETCH REQUESTED:          0 ISSUED:          0 USEFUL:          0 USELESS:          0
cpu0_L2C AVERAGE MISS LATENCY: 1032 cycles
cpu0_STLB TOTAL        ACCESS:     156217 HIT:         41 MISS:     156176
cpu0_STLB LOAD         ACCESS:     156217 HIT:         41 MISS:     156176
cpu0_STLB RFO          ACCESS:          0 HIT:          0 MISS:          0
cpu0_STLB PREFETCH     ACCESS:          0 HIT:          0 MISS:          0
cpu0_STLB WRITE        ACCESS:          0 HIT:          0 MISS:          0
cpu0_STLB TRANSLATION  ACCESS:          0 HIT:          0 MISS:          0
cpu0_STLB PREFETCH REQUESTED:          0 ISSUED:          0 USEFUL:          0 USELESS:          0
cpu0_STLB AVERAGE MISS LATENCY: 1732 cycles

DRAM Statistics

Channel 0 RQ ROW_BUFFER_HIT:     142808
  ROW_BUFFER_MISS:     510133
 AVG DBUS CONGESTED CYCLE: 3.979
WQ ROW_BUFFER_HIT: Channel 0 
  ROW_BUFFER_MISS:      77165
  FULL:     457224
