WARNING: physical memory size is smaller than virtual memory size.

*** ChampSim Multicore Out-of-Order Simulator ***
Warmup Instructions: 50000000
Simulation Instructions: 600000000
Number of CPUs: 1
Page size: 4096

Off-chip DRAM Size: 4 GiB Channels: 1 Width: 64-bit Data Race: 3200 MT/s
Heartbeat CPU 0 instructions: 10000002 cycles: 2500202 heartbeat IPC: 4 cumulative IPC: 4 (Simulation time: 00 hr 00 min 41 sec)
Heartbeat CPU 0 instructions: 20000002 cycles: 5000202 heartbeat IPC: 4 cumulative IPC: 4 (Simulation time: 00 hr 01 min 29 sec)
Heartbeat CPU 0 instructions: 30000002 cycles: 7500202 heartbeat IPC: 4 cumulative IPC: 4 (Simulation time: 00 hr 02 min 16 sec)
Heartbeat CPU 0 instructions: 40000002 cycles: 10000202 heartbeat IPC: 4 cumulative IPC: 4 (Simulation time: 00 hr 03 min 06 sec)
Heartbeat CPU 0 instructions: 50000002 cycles: 12500202 heartbeat IPC: 4 cumulative IPC: 4 (Simulation time: 00 hr 03 min 55 sec)
Warmup finished CPU 0 instructions: 50000002 cycles: 12500203 cumulative IPC: 4 (Simulation time: 00 hr 03 min 55 sec)
Warmup complete CPU 0 instructions: 50000002 cycles: 12500203 cumulative IPC: 4 (Simulation time: 00 hr 03 min 55 sec)
Heartbeat CPU 0 instructions: 60000004 cycles: 15724642 heartbeat IPC: 3.101 cumulative IPC: 3.101 (Simulation time: 00 hr 04 min 56 sec)
Heartbeat CPU 0 instructions: 70000000 cycles: 18370040 heartbeat IPC: 3.78 cumulative IPC: 3.407 (Simulation time: 00 hr 05 min 52 sec)
Heartbeat CPU 0 instructions: 80000003 cycles: 21017411 heartbeat IPC: 3.777 cumulative IPC: 3.522 (Simulation time: 00 hr 06 min 59 sec)
Heartbeat CPU 0 instructions: 90000004 cycles: 23662828 heartbeat IPC: 3.78 cumulative IPC: 3.583 (Simulation time: 00 hr 08 min 07 sec)
Heartbeat CPU 0 instructions: 100000004 cycles: 26308257 heartbeat IPC: 3.78 cumulative IPC: 3.621 (Simulation time: 00 hr 09 min 08 sec)
Heartbeat CPU 0 instructions: 110000004 cycles: 28954091 heartbeat IPC: 3.78 cumulative IPC: 3.647 (Simulation time: 00 hr 10 min 12 sec)
Heartbeat CPU 0 instructions: 120000000 cycles: 31602860 heartbeat IPC: 3.775 cumulative IPC: 3.664 (Simulation time: 00 hr 11 min 17 sec)
Heartbeat CPU 0 instructions: 130000000 cycles: 34248552 heartbeat IPC: 3.78 cumulative IPC: 3.678 (Simulation time: 00 hr 12 min 18 sec)
Heartbeat CPU 0 instructions: 140000004 cycles: 36894013 heartbeat IPC: 3.78 cumulative IPC: 3.689 (Simulation time: 00 hr 13 min 18 sec)
Heartbeat CPU 0 instructions: 150000004 cycles: 39539361 heartbeat IPC: 3.78 cumulative IPC: 3.698 (Simulation time: 00 hr 14 min 19 sec)
Heartbeat CPU 0 instructions: 160000000 cycles: 42184740 heartbeat IPC: 3.78 cumulative IPC: 3.706 (Simulation time: 00 hr 15 min 18 sec)
Heartbeat CPU 0 instructions: 170000000 cycles: 44829908 heartbeat IPC: 3.78 cumulative IPC: 3.712 (Simulation time: 00 hr 16 min 16 sec)
Heartbeat CPU 0 instructions: 180000000 cycles: 47477452 heartbeat IPC: 3.777 cumulative IPC: 3.717 (Simulation time: 00 hr 17 min 13 sec)
Heartbeat CPU 0 instructions: 190000000 cycles: 50125080 heartbeat IPC: 3.777 cumulative IPC: 3.721 (Simulation time: 00 hr 18 min 09 sec)
Heartbeat CPU 0 instructions: 200000003 cycles: 52770419 heartbeat IPC: 3.78 cumulative IPC: 3.725 (Simulation time: 00 hr 19 min 04 sec)
Heartbeat CPU 0 instructions: 210000004 cycles: 55415803 heartbeat IPC: 3.78 cumulative IPC: 3.728 (Simulation time: 00 hr 19 min 59 sec)
Heartbeat CPU 0 instructions: 220000004 cycles: 58063450 heartbeat IPC: 3.777 cumulative IPC: 3.731 (Simulation time: 00 hr 20 min 55 sec)
Heartbeat CPU 0 instructions: 230000000 cycles: 60710731 heartbeat IPC: 3.777 cumulative IPC: 3.734 (Simulation time: 00 hr 21 min 57 sec)
Heartbeat CPU 0 instructions: 240000000 cycles: 63356195 heartbeat IPC: 3.78 cumulative IPC: 3.736 (Simulation time: 00 hr 22 min 52 sec)
Heartbeat CPU 0 instructions: 250000003 cycles: 66001538 heartbeat IPC: 3.78 cumulative IPC: 3.738 (Simulation time: 00 hr 23 min 52 sec)
Heartbeat CPU 0 instructions: 260000004 cycles: 68646803 heartbeat IPC: 3.78 cumulative IPC: 3.74 (Simulation time: 00 hr 24 min 52 sec)
Heartbeat CPU 0 instructions: 270000004 cycles: 71295187 heartbeat IPC: 3.776 cumulative IPC: 3.742 (Simulation time: 00 hr 25 min 52 sec)
Heartbeat CPU 0 instructions: 280000000 cycles: 73940898 heartbeat IPC: 3.78 cumulative IPC: 3.743 (Simulation time: 00 hr 26 min 50 sec)
Heartbeat CPU 0 instructions: 290000000 cycles: 76586242 heartbeat IPC: 3.78 cumulative IPC: 3.745 (Simulation time: 00 hr 27 min 47 sec)
Heartbeat CPU 0 instructions: 300000001 cycles: 79231646 heartbeat IPC: 3.78 cumulative IPC: 3.746 (Simulation time: 00 hr 28 min 45 sec)
Heartbeat CPU 0 instructions: 310000004 cycles: 81876914 heartbeat IPC: 3.78 cumulative IPC: 3.748 (Simulation time: 00 hr 29 min 42 sec)
Heartbeat CPU 0 instructions: 320000003 cycles: 84526969 heartbeat IPC: 3.774 cumulative IPC: 3.749 (Simulation time: 00 hr 30 min 44 sec)
Heartbeat CPU 0 instructions: 330000004 cycles: 87172312 heartbeat IPC: 3.78 cumulative IPC: 3.75 (Simulation time: 00 hr 31 min 42 sec)
Heartbeat CPU 0 instructions: 340000004 cycles: 89817779 heartbeat IPC: 3.78 cumulative IPC: 3.751 (Simulation time: 00 hr 32 min 41 sec)
Heartbeat CPU 0 instructions: 350000000 cycles: 92463062 heartbeat IPC: 3.78 cumulative IPC: 3.752 (Simulation time: 00 hr 33 min 40 sec)
Heartbeat CPU 0 instructions: 360000000 cycles: 95108356 heartbeat IPC: 3.78 cumulative IPC: 3.753 (Simulation time: 00 hr 34 min 39 sec)
Heartbeat CPU 0 instructions: 370000004 cycles: 97756531 heartbeat IPC: 3.776 cumulative IPC: 3.753 (Simulation time: 00 hr 35 min 38 sec)
Heartbeat CPU 0 instructions: 380000004 cycles: 100402423 heartbeat IPC: 3.779 cumulative IPC: 3.754 (Simulation time: 00 hr 36 min 35 sec)
Heartbeat CPU 0 instructions: 390000004 cycles: 103047801 heartbeat IPC: 3.78 cumulative IPC: 3.755 (Simulation time: 00 hr 37 min 31 sec)
Heartbeat CPU 0 instructions: 400000000 cycles: 105693230 heartbeat IPC: 3.78 cumulative IPC: 3.756 (Simulation time: 00 hr 38 min 15 sec)
Heartbeat CPU 0 instructions: 410000000 cycles: 108338476 heartbeat IPC: 3.78 cumulative IPC: 3.756 (Simulation time: 00 hr 39 min 00 sec)
Heartbeat CPU 0 instructions: 420000004 cycles: 110985721 heartbeat IPC: 3.778 cumulative IPC: 3.757 (Simulation time: 00 hr 39 min 43 sec)
Heartbeat CPU 0 instructions: 430000004 cycles: 113631395 heartbeat IPC: 3.78 cumulative IPC: 3.757 (Simulation time: 00 hr 40 min 26 sec)
Heartbeat CPU 0 instructions: 440000004 cycles: 116276726 heartbeat IPC: 3.78 cumulative IPC: 3.758 (Simulation time: 00 hr 41 min 11 sec)
Heartbeat CPU 0 instructions: 450000004 cycles: 118922102 heartbeat IPC: 3.78 cumulative IPC: 3.759 (Simulation time: 00 hr 42 min 03 sec)
Heartbeat CPU 0 instructions: 460000004 cycles: 121569514 heartbeat IPC: 3.777 cumulative IPC: 3.759 (Simulation time: 00 hr 42 min 52 sec)
Heartbeat CPU 0 instructions: 470000000 cycles: 124216723 heartbeat IPC: 3.778 cumulative IPC: 3.76 (Simulation time: 00 hr 43 min 39 sec)
Heartbeat CPU 0 instructions: 480000000 cycles: 126862074 heartbeat IPC: 3.78 cumulative IPC: 3.76 (Simulation time: 00 hr 44 min 24 sec)
Heartbeat CPU 0 instructions: 490000004 cycles: 129507486 heartbeat IPC: 3.78 cumulative IPC: 3.76 (Simulation time: 00 hr 45 min 10 sec)
Heartbeat CPU 0 instructions: 500000004 cycles: 132152802 heartbeat IPC: 3.78 cumulative IPC: 3.761 (Simulation time: 00 hr 45 min 54 sec)
Heartbeat CPU 0 instructions: 510000004 cycles: 134801906 heartbeat IPC: 3.775 cumulative IPC: 3.761 (Simulation time: 00 hr 46 min 38 sec)
Heartbeat CPU 0 instructions: 520000000 cycles: 137448422 heartbeat IPC: 3.779 cumulative IPC: 3.762 (Simulation time: 00 hr 47 min 21 sec)
Heartbeat CPU 0 instructions: 530000000 cycles: 140093774 heartbeat IPC: 3.78 cumulative IPC: 3.762 (Simulation time: 00 hr 48 min 03 sec)
Heartbeat CPU 0 instructions: 540000004 cycles: 142739246 heartbeat IPC: 3.78 cumulative IPC: 3.762 (Simulation time: 00 hr 48 min 45 sec)
Heartbeat CPU 0 instructions: 550000004 cycles: 145384525 heartbeat IPC: 3.78 cumulative IPC: 3.763 (Simulation time: 00 hr 49 min 28 sec)
Heartbeat CPU 0 instructions: 560000000 cycles: 148034207 heartbeat IPC: 3.774 cumulative IPC: 3.763 (Simulation time: 00 hr 50 min 10 sec)
Heartbeat CPU 0 instructions: 570000000 cycles: 150680984 heartbeat IPC: 3.778 cumulative IPC: 3.763 (Simulation time: 00 hr 50 min 52 sec)
Heartbeat CPU 0 instructions: 580000000 cycles: 153326293 heartbeat IPC: 3.78 cumulative IPC: 3.764 (Simulation time: 00 hr 51 min 38 sec)
Heartbeat CPU 0 instructions: 590000000 cycles: 155971640 heartbeat IPC: 3.78 cumulative IPC: 3.764 (Simulation time: 00 hr 52 min 22 sec)
*** Reached end of trace: (0, "traces/convolution.champsimtrace")
Heartbeat CPU 0 instructions: 600000000 cycles: 158623836 heartbeat IPC: 3.77 cumulative IPC: 3.764 (Simulation time: 00 hr 53 min 14 sec)
Heartbeat CPU 0 instructions: 610000004 cycles: 184396475 heartbeat IPC: 0.388 cumulative IPC: 3.258 (Simulation time: 00 hr 57 min 34 sec)
Heartbeat CPU 0 instructions: 620000000 cycles: 207609887 heartbeat IPC: 0.4308 cumulative IPC: 2.921 (Simulation time: 01 hr 01 min 28 sec)
Heartbeat CPU 0 instructions: 630000001 cycles: 218041899 heartbeat IPC: 0.9586 cumulative IPC: 2.822 (Simulation time: 01 hr 03 min 24 sec)
Heartbeat CPU 0 instructions: 640000002 cycles: 228386147 heartbeat IPC: 0.9667 cumulative IPC: 2.733 (Simulation time: 01 hr 05 min 17 sec)
Heartbeat CPU 0 instructions: 650000004 cycles: 238720464 heartbeat IPC: 0.9677 cumulative IPC: 2.652 (Simulation time: 01 hr 07 min 15 sec)
Simulation finished CPU 0 instructions: 600000002 cycles: 226220262 cumulative IPC: 2.652 (Simulation time: 01 hr 07 min 15 sec)
Simulation complete CPU 0 instructions: 600000002 cycles: 226220262 cumulative IPC: 2.652 (Simulation time: 01 hr 07 min 15 sec)

ChampSim completed all CPUs

=== Simulation ===
CPU 0 runs traces/convolution.champsimtrace
Region of Interest Statistics

CPU 0 cumulative IPC: 2.652 instructions: 600000002 cycles: 226220262
CPU 0 Branch Prediction Accuracy: 99.5% MPKI: 0.9609 Average ROB Occupancy at Mispredict: 97.52
Branch type MPKI
BRANCH_DIRECT_JUMP: 1e-05
BRANCH_INDIRECT: 4.67e-05
BRANCH_CONDITIONAL: 0.961
BRANCH_DIRECT_CALL: 6.67e-06
BRANCH_INDIRECT_CALL: 8.33e-06
BRANCH_RETURN: 2.17e-05

LLC TOTAL        ACCESS:    1193974 HIT:     243876 MISS:     950098
LLC LOAD         ACCESS:       2894 HIT:        611 MISS:       2283
LLC RFO          ACCESS:     539059 HIT:        165 MISS:     538894
LLC PREFETCH     ACCESS:       2104 HIT:        558 MISS:       1546
LLC WRITE        ACCESS:     539108 HIT:     242520 MISS:     296588
LLC TRANSLATION  ACCESS:     110809 HIT:         22 MISS:     110787
LLC PREFETCH REQUESTED:       2104 ISSUED:       2104 USEFUL:        810 USELESS:         20
LLC AVERAGE MISS LATENCY: 696.9 cycles
cpu0_DTLB TOTAL        ACCESS:  120773927 HIT:  120421646 MISS:     352281
cpu0_DTLB LOAD         ACCESS:  120773927 HIT:  120421646 MISS:     352281
cpu0_DTLB RFO          ACCESS:          0 HIT:          0 MISS:          0
cpu0_DTLB PREFETCH     ACCESS:          0 HIT:          0 MISS:          0
cpu0_DTLB WRITE        ACCESS:          0 HIT:          0 MISS:          0
cpu0_DTLB TRANSLATION  ACCESS:          0 HIT:          0 MISS:          0
cpu0_DTLB PREFETCH REQUESTED:          0 ISSUED:          0 USEFUL:          0 USELESS:          0
cpu0_DTLB AVERAGE MISS LATENCY: 681.2 cycles
cpu0_ITLB TOTAL        ACCESS:       2013 HIT:       1958 MISS:         55
cpu0_ITLB LOAD         ACCESS:       2013 HIT:       1958 MISS:         55
cpu0_ITLB RFO          ACCESS:          0 HIT:          0 MISS:          0
cpu0_ITLB PREFETCH     ACCESS:          0 HIT:          0 MISS:          0
cpu0_ITLB WRITE        ACCESS:          0 HIT:          0 MISS:          0
cpu0_ITLB TRANSLATION  ACCESS:          0 HIT:          0 MISS:          0
cpu0_ITLB PREFETCH REQUESTED:          0 ISSUED:          0 USEFUL:          0 USELESS:          0
cpu0_ITLB AVERAGE MISS LATENCY: 935.2 cycles
cpu0_L1D TOTAL        ACCESS:  152675972 HIT:  146429406 MISS:    6246566
cpu0_L1D LOAD         ACCESS:   79780378 HIT:   79774019 MISS:       6359
cpu0_L1D RFO          ACCESS:          0 HIT:          0 MISS:          0
cpu0_L1D PREFETCH     ACCESS:          0 HIT:          0 MISS:          0
cpu0_L1D WRITE        ACCESS:   72713963 HIT:   66616451 MISS:    6097512
cpu0_L1D TRANSLATION  ACCESS:     181631 HIT:      38936 MISS:     142695
cpu0_L1D PREFETCH REQUESTED:          0 ISSUED:          0 USEFUL:          0 USELESS:          0
cpu0_L1D AVERAGE MISS LATENCY: 81.25 cycles
cpu0_L1I TOTAL        ACCESS:       2315 HIT:       1005 MISS:       1310
cpu0_L1I LOAD         ACCESS:       2315 HIT:       1005 MISS:       1310
cpu0_L1I RFO          ACCESS:          0 HIT:          0 MISS:          0
cpu0_L1I PREFETCH     ACCESS:          0 HIT:          0 MISS:          0
cpu0_L1I WRITE        ACCESS:          0 HIT:          0 MISS:          0
cpu0_L1I TRANSLATION  ACCESS:          0 HIT:          0 MISS:          0
cpu0_L1I PREFETCH REQUESTED:          0 ISSUED:          0 USEFUL:          0 USELESS:          0
cpu0_L1I AVERAGE MISS LATENCY: 1060 cycles
cpu0_L2C TOTAL        ACCESS:    1200597 HIT:     547817 MISS:     652780
cpu0_L2C LOAD         ACCESS:       3321 HIT:        427 MISS:       2894
cpu0_L2C RFO          ACCESS:     542400 HIT:       3340 MISS:     539060
cpu0_L2C PREFETCH     ACCESS:          0 HIT:          0 MISS:          0
cpu0_L2C WRITE        ACCESS:     542554 HIT:     542537 MISS:         17
cpu0_L2C TRANSLATION  ACCESS:     112322 HIT:       1513 MISS:     110809
cpu0_L2C PREFETCH REQUESTED:          0 ISSUED:          0 USEFUL:          0 USELESS:          0
cpu0_L2C AVERAGE MISS LATENCY: 1033 cycles
cpu0_STLB TOTAL        ACCESS:     156217 HIT:         45 MISS:     156172
cpu0_STLB LOAD         ACCESS:     156217 HIT:         45 MISS:     156172
cpu0_STLB RFO          ACCESS:          0 HIT:          0 MISS:          0
cpu0_STLB PREFETCH     ACCESS:          0 HIT:          0 MISS:          0
cpu0_STLB WRITE        ACCESS:          0 HIT:          0 MISS:          0
cpu0_STLB TRANSLATION  ACCESS:          0 HIT:          0 MISS:          0
cpu0_STLB PREFETCH REQUESTED:          0 ISSUED:          0 USEFUL:          0 USELESS:          0
cpu0_STLB AVERAGE MISS LATENCY: 1731 cycles

DRAM Statistics

Channel 0 RQ ROW_BUFFER_HIT:     142683
  ROW_BUFFER_MISS:     509919
 AVG DBUS CONGESTED CYCLE: 3.979
WQ ROW_BUFFER_HIT: Channel 0 
  ROW_BUFFER_MISS:      77281
  FULL:     456357
