WARNING: physical memory size is smaller than virtual memory size.

*** ChampSim Multicore Out-of-Order Simulator ***
Warmup Instructions: 50000000
Simulation Instructions: 600000000
Number of CPUs: 1
Page size: 4096

Off-chip DRAM Size: 4 GiB Channels: 1 Width: 64-bit Data Race: 3200 MT/s
Heartbeat CPU 0 instructions: 10000000 cycles: 2500202 heartbeat IPC: 4 cumulative IPC: 4 (Simulation time: 00 hr 00 min 32 sec)
Heartbeat CPU 0 instructions: 20000000 cycles: 5000202 heartbeat IPC: 4 cumulative IPC: 4 (Simulation time: 00 hr 01 min 06 sec)
Heartbeat CPU 0 instructions: 30000000 cycles: 7500202 heartbeat IPC: 4 cumulative IPC: 4 (Simulation time: 00 hr 01 min 38 sec)
Heartbeat CPU 0 instructions: 40000000 cycles: 10000202 heartbeat IPC: 4 cumulative IPC: 4 (Simulation time: 00 hr 02 min 10 sec)
Heartbeat CPU 0 instructions: 50000000 cycles: 12500202 heartbeat IPC: 4 cumulative IPC: 4 (Simulation time: 00 hr 02 min 42 sec)
Warmup finished CPU 0 instructions: 50000000 cycles: 12500203 cumulative IPC: 4 (Simulation time: 00 hr 02 min 42 sec)
Warmup complete CPU 0 instructions: 50000000 cycles: 12500203 cumulative IPC: 4 (Simulation time: 00 hr 02 min 42 sec)
Heartbeat CPU 0 instructions: 60000002 cycles: 15770911 heartbeat IPC: 3.057 cumulative IPC: 3.057 (Simulation time: 00 hr 03 min 22 sec)
Heartbeat CPU 0 instructions: 70000002 cycles: 18477104 heartbeat IPC: 3.695 cumulative IPC: 3.346 (Simulation time: 00 hr 04 min 08 sec)
Heartbeat CPU 0 instructions: 80000003 cycles: 21180701 heartbeat IPC: 3.699 cumulative IPC: 3.456 (Simulation time: 00 hr 04 min 55 sec)
Heartbeat CPU 0 instructions: 90000004 cycles: 23884264 heartbeat IPC: 3.699 cumulative IPC: 3.514 (Simulation time: 00 hr 05 min 41 sec)
Heartbeat CPU 0 instructions: 100000003 cycles: 26589478 heartbeat IPC: 3.697 cumulative IPC: 3.549 (Simulation time: 00 hr 06 min 32 sec)
Heartbeat CPU 0 instructions: 110000000 cycles: 29294522 heartbeat IPC: 3.697 cumulative IPC: 3.573 (Simulation time: 00 hr 07 min 15 sec)
Heartbeat CPU 0 instructions: 120000000 cycles: 31997876 heartbeat IPC: 3.699 cumulative IPC: 3.59 (Simulation time: 00 hr 07 min 52 sec)
Heartbeat CPU 0 instructions: 130000000 cycles: 34701497 heartbeat IPC: 3.699 cumulative IPC: 3.603 (Simulation time: 00 hr 08 min 29 sec)
Heartbeat CPU 0 instructions: 140000001 cycles: 37405046 heartbeat IPC: 3.699 cumulative IPC: 3.614 (Simulation time: 00 hr 09 min 06 sec)
Heartbeat CPU 0 instructions: 150000003 cycles: 40108630 heartbeat IPC: 3.699 cumulative IPC: 3.622 (Simulation time: 00 hr 09 min 53 sec)
Heartbeat CPU 0 instructions: 160000003 cycles: 42814274 heartbeat IPC: 3.696 cumulative IPC: 3.629 (Simulation time: 00 hr 10 min 34 sec)
Heartbeat CPU 0 instructions: 170000001 cycles: 45519431 heartbeat IPC: 3.697 cumulative IPC: 3.634 (Simulation time: 00 hr 11 min 14 sec)
Heartbeat CPU 0 instructions: 180000001 cycles: 48223004 heartbeat IPC: 3.699 cumulative IPC: 3.639 (Simulation time: 00 hr 11 min 55 sec)
Heartbeat CPU 0 instructions: 190000002 cycles: 50927363 heartbeat IPC: 3.698 cumulative IPC: 3.643 (Simulation time: 00 hr 12 min 30 sec)
Heartbeat CPU 0 instructions: 200000001 cycles: 53630949 heartbeat IPC: 3.699 cumulative IPC: 3.647 (Simulation time: 00 hr 13 min 06 sec)
Heartbeat CPU 0 instructions: 210000000 cycles: 56338055 heartbeat IPC: 3.694 cumulative IPC: 3.65 (Simulation time: 00 hr 13 min 42 sec)
Heartbeat CPU 0 instructions: 220000001 cycles: 59041753 heartbeat IPC: 3.699 cumulative IPC: 3.653 (Simulation time: 00 hr 14 min 22 sec)
Heartbeat CPU 0 instructions: 230000002 cycles: 61745375 heartbeat IPC: 3.699 cumulative IPC: 3.655 (Simulation time: 00 hr 14 min 58 sec)
Heartbeat CPU 0 instructions: 240000004 cycles: 64449008 heartbeat IPC: 3.699 cumulative IPC: 3.657 (Simulation time: 00 hr 15 min 34 sec)
Heartbeat CPU 0 instructions: 250000000 cycles: 67154801 heartbeat IPC: 3.696 cumulative IPC: 3.659 (Simulation time: 00 hr 16 min 12 sec)
Heartbeat CPU 0 instructions: 260000000 cycles: 69860261 heartbeat IPC: 3.696 cumulative IPC: 3.661 (Simulation time: 00 hr 16 min 48 sec)
Heartbeat CPU 0 instructions: 270000002 cycles: 72563624 heartbeat IPC: 3.699 cumulative IPC: 3.663 (Simulation time: 00 hr 17 min 25 sec)
Heartbeat CPU 0 instructions: 280000003 cycles: 75267249 heartbeat IPC: 3.699 cumulative IPC: 3.664 (Simulation time: 00 hr 18 min 01 sec)
Heartbeat CPU 0 instructions: 290000003 cycles: 77970904 heartbeat IPC: 3.699 cumulative IPC: 3.666 (Simulation time: 00 hr 18 min 39 sec)
Heartbeat CPU 0 instructions: 300000000 cycles: 80677252 heartbeat IPC: 3.695 cumulative IPC: 3.667 (Simulation time: 00 hr 19 min 16 sec)
Heartbeat CPU 0 instructions: 310000002 cycles: 83381591 heartbeat IPC: 3.698 cumulative IPC: 3.668 (Simulation time: 00 hr 19 min 54 sec)
Heartbeat CPU 0 instructions: 320000004 cycles: 86084968 heartbeat IPC: 3.699 cumulative IPC: 3.669 (Simulation time: 00 hr 20 min 31 sec)
Heartbeat CPU 0 instructions: 330000000 cycles: 88788578 heartbeat IPC: 3.699 cumulative IPC: 3.67 (Simulation time: 00 hr 21 min 08 sec)
Heartbeat CPU 0 instructions: 340000002 cycles: 91493761 heartbeat IPC: 3.697 cumulative IPC: 3.671 (Simulation time: 00 hr 21 min 47 sec)
Heartbeat CPU 0 instructions: 350000002 cycles: 94197206 heartbeat IPC: 3.699 cumulative IPC: 3.672 (Simulation time: 00 hr 22 min 25 sec)
Heartbeat CPU 0 instructions: 360000001 cycles: 96902961 heartbeat IPC: 3.696 cumulative IPC: 3.673 (Simulation time: 00 hr 23 min 02 sec)
Heartbeat CPU 0 instructions: 370000004 cycles: 99607388 heartbeat IPC: 3.698 cumulative IPC: 3.674 (Simulation time: 00 hr 23 min 43 sec)
Heartbeat CPU 0 instructions: 380000000 cycles: 102310956 heartbeat IPC: 3.699 cumulative IPC: 3.674 (Simulation time: 00 hr 24 min 27 sec)
Heartbeat CPU 0 instructions: 390000004 cycles: 105014676 heartbeat IPC: 3.699 cumulative IPC: 3.675 (Simulation time: 00 hr 25 min 09 sec)
Heartbeat CPU 0 instructions: 400000000 cycles: 107720415 heartbeat IPC: 3.696 cumulative IPC: 3.676 (Simulation time: 00 hr 25 min 50 sec)
Heartbeat CPU 0 instructions: 410000000 cycles: 110425623 heartbeat IPC: 3.697 cumulative IPC: 3.676 (Simulation time: 00 hr 26 min 26 sec)
Heartbeat CPU 0 instructions: 420000001 cycles: 113129069 heartbeat IPC: 3.699 cumulative IPC: 3.677 (Simulation time: 00 hr 27 min 03 sec)
Heartbeat CPU 0 instructions: 430000003 cycles: 115832777 heartbeat IPC: 3.699 cumulative IPC: 3.677 (Simulation time: 00 hr 27 min 40 sec)
Heartbeat CPU 0 instructions: 440000003 cycles: 118536470 heartbeat IPC: 3.699 cumulative IPC: 3.678 (Simulation time: 00 hr 28 min 17 sec)
Heartbeat CPU 0 instructions: 450000004 cycles: 121242581 heartbeat IPC: 3.695 cumulative IPC: 3.678 (Simulation time: 00 hr 28 min 54 sec)
Heartbeat CPU 0 instructions: 460000001 cycles: 123946286 heartbeat IPC: 3.699 cumulative IPC: 3.679 (Simulation time: 00 hr 29 min 40 sec)
Heartbeat CPU 0 instructions: 470000002 cycles: 126649762 heartbeat IPC: 3.699 cumulative IPC: 3.679 (Simulation time: 00 hr 30 min 22 sec)
Heartbeat CPU 0 instructions: 480000001 cycles: 129353511 heartbeat IPC: 3.699 cumulative IPC: 3.68 (Simulation time: 00 hr 31 min 01 sec)
Heartbeat CPU 0 instructions: 490000000 cycles: 132057811 heartbeat IPC: 3.698 cumulative IPC: 3.68 (Simulation time: 00 hr 31 min 36 sec)
Heartbeat CPU 0 instructions: 500000002 cycles: 134763936 heartbeat IPC: 3.695 cumulative IPC: 3.681 (Simulation time: 00 hr 32 min 14 sec)
Heartbeat CPU 0 instructions: 510000003 cycles: 137468658 heartbeat IPC: 3.697 cumulative IPC: 3.681 (Simulation time: 00 hr 32 min 55 sec)
Heartbeat CPU 0 instructions: 520000004 cycles: 140172130 heartbeat IPC: 3.699 cumulative IPC: 3.681 (Simulation time: 00 hr 33 min 36 sec)
Heartbeat CPU 0 instructions: 530000000 cycles: 142875787 heartbeat IPC: 3.699 cumulative IPC: 3.682 (Simulation time: 00 hr 34 min 12 sec)
Heartbeat CPU 0 instructions: 540000000 cycles: 145581936 heartbeat IPC: 3.695 cumulative IPC: 3.682 (Simulation time: 00 hr 34 min 51 sec)
Heartbeat CPU 0 instructions: 550000003 cycles: 148285634 heartbeat IPC: 3.699 cumulative IPC: 3.682 (Simulation time: 00 hr 35 min 31 sec)
Heartbeat CPU 0 instructions: 560000003 cycles: 150990228 heartbeat IPC: 3.697 cumulative IPC: 3.683 (Simulation time: 00 hr 36 min 12 sec)
Heartbeat CPU 0 instructions: 570000004 cycles: 153693567 heartbeat IPC: 3.699 cumulative IPC: 3.683 (Simulation time: 00 hr 36 min 55 sec)
Heartbeat CPU 0 instructions: 580000000 cycles: 156397271 heartbeat IPC: 3.699 cumulative IPC: 3.683 (Simulation time: 00 hr 37 min 40 sec)
Heartbeat CPU 0 instructions: 590000002 cycles: 159100854 heartbeat IPC: 3.699 cumulative IPC: 3.683 (Simulation time: 00 hr 38 min 17 sec)
*** Reached end of trace: (0, "traces/convolution.champsimtrace")
Heartbeat CPU 0 instructions: 600000000 cycles: 161813413 heartbeat IPC: 3.687 cumulative IPC: 3.684 (Simulation time: 00 hr 38 min 59 sec)
Heartbeat CPU 0 instructions: 610000002 cycles: 186338402 heartbeat IPC: 0.4077 cumulative IPC: 3.221 (Simulation time: 00 hr 42 min 12 sec)
Heartbeat CPU 0 instructions: 620000001 cycles: 207935901 heartbeat IPC: 0.463 cumulative IPC: 2.917 (Simulation time: 00 hr 45 min 11 sec)
Heartbeat CPU 0 instructions: 630000001 cycles: 220372200 heartbeat IPC: 0.8041 cumulative IPC: 2.79 (Simulation time: 00 hr 46 min 58 sec)
Heartbeat CPU 0 instructions: 640000004 cycles: 230984411 heartbeat IPC: 0.9423 cumulative IPC: 2.7 (Simulation time: 00 hr 48 min 33 sec)
Heartbeat CPU 0 instructions: 650000001 cycles: 241491440 heartbeat IPC: 0.9517 cumulative IPC: 2.62 (Simulation time: 00 hr 50 min 05 sec)
Simulation finished CPU 0 instructions: 600000001 cycles: 228991238 cumulative IPC: 2.62 (Simulation time: 00 hr 50 min 05 sec)
Simulation complete CPU 0 instructions: 600000001 cycles: 228991238 cumulative IPC: 2.62 (Simulation time: 00 hr 50 min 05 sec)

ChampSim completed all CPUs

=== Simulation ===
CPU 0 runs traces/convolution.champsimtrace
Region of Interest Statistics

CPU 0 cumulative IPC: 2.62 instructions: 600000001 cycles: 228991238
CPU 0 Branch Prediction Accuracy: 99.3% MPKI: 1.265 Average ROB Occupancy at Mispredict: 63.99
Branch type MPKI
BRANCH_DIRECT_JUMP: 0.000107
BRANCH_INDIRECT: 4.17e-05
BRANCH_CONDITIONAL: 1.26
BRANCH_DIRECT_CALL: 0.000103
BRANCH_INDIRECT_CALL: 8.33e-06
BRANCH_RETURN: 1.83e-05

LLC TOTAL        ACCESS:    1182935 HIT:     535796 MISS:     647139
LLC LOAD         ACCESS:       2887 HIT:          6 MISS:       2881
LLC RFO          ACCESS:     535121 HIT:         62 MISS:     535059
LLC PREFETCH     ACCESS:          0 HIT:          0 MISS:          0
LLC WRITE        ACCESS:     535168 HIT:     535084 MISS:         84
LLC TRANSLATION  ACCESS:     109759 HIT:        644 MISS:     109115
LLC PREFETCH REQUESTED:          0 ISSUED:          0 USEFUL:          0 USELESS:          0
LLC AVERAGE MISS LATENCY: 1011 cycles
cpu0_DTLB TOTAL        ACCESS:  121555232 HIT:  121201809 MISS:     353423
cpu0_DTLB LOAD         ACCESS:  121555232 HIT:  121201809 MISS:     353423
cpu0_DTLB RFO          ACCESS:          0 HIT:          0 MISS:          0
cpu0_DTLB PREFETCH     ACCESS:          0 HIT:          0 MISS:          0
cpu0_DTLB WRITE        ACCESS:          0 HIT:          0 MISS:          0
cpu0_DTLB TRANSLATION  ACCESS:          0 HIT:          0 MISS:          0
cpu0_DTLB PREFETCH REQUESTED:          0 ISSUED:          0 USEFUL:          0 USELESS:          0
cpu0_DTLB AVERAGE MISS LATENCY: 655.9 cycles
cpu0_ITLB TOTAL        ACCESS:       2036 HIT:       2002 MISS:         34
cpu0_ITLB LOAD         ACCESS:       2036 HIT:       2002 MISS:         34
cpu0_ITLB RFO          ACCESS:          0 HIT:          0 MISS:          0
cpu0_ITLB PREFETCH     ACCESS:          0 HIT:          0 MISS:          0
cpu0_ITLB WRITE        ACCESS:          0 HIT:          0 MISS:          0
cpu0_ITLB TRANSLATION  ACCESS:          0 HIT:          0 MISS:          0
cpu0_ITLB PREFETCH REQUESTED:          0 ISSUED:          0 USEFUL:          0 USELESS:          0
cpu0_ITLB AVERAGE MISS LATENCY: 644.3 cycles
cpu0_L1D TOTAL        ACCESS:  162707727 HIT:  156558920 MISS:    6148807
cpu0_L1D LOAD         ACCESS:   90490586 HIT:   90484354 MISS:       6232
cpu0_L1D RFO          ACCESS:          0 HIT:          0 MISS:          0
cpu0_L1D PREFETCH     ACCESS:          0 HIT:          0 MISS:          0
cpu0_L1D WRITE        ACCESS:   72036528 HIT:   66036244 MISS:    6000284
cpu0_L1D TRANSLATION  ACCESS:     180613 HIT:      38322 MISS:     142291
cpu0_L1D PREFETCH REQUESTED:          0 ISSUED:          0 USEFUL:          0 USELESS:          0
cpu0_L1D AVERAGE MISS LATENCY: 81.4 cycles
cpu0_L1I TOTAL        ACCESS:       2354 HIT:       1019 MISS:       1335
cpu0_L1I LOAD         ACCESS:       2354 HIT:       1019 MISS:       1335
cpu0_L1I RFO          ACCESS:          0 HIT:          0 MISS:          0
cpu0_L1I PREFETCH     ACCESS:          0 HIT:          0 MISS:          0
cpu0_L1I WRITE        ACCESS:          0 HIT:          0 MISS:          0
cpu0_L1I TRANSLATION  ACCESS:          0 HIT:          0 MISS:          0
cpu0_L1I PREFETCH REQUESTED:          0 ISSUED:          0 USEFUL:          0 USELESS:          0
cpu0_L1I AVERAGE MISS LATENCY: 654.6 cycles
cpu0_L2C TOTAL        ACCESS:    1190726 HIT:     542941 MISS:     647785
cpu0_L2C LOAD         ACCESS:       3313 HIT:        426 MISS:       2887
cpu0_L2C RFO          ACCESS:     538106 HIT:       2985 MISS:     535121
cpu0_L2C PREFETCH     ACCESS:          0 HIT:          0 MISS:          0
cpu0_L2C WRITE        ACCESS:     538218 HIT:     538201 MISS:         17
cpu0_L2C TRANSLATION  ACCESS:     111089 HIT:       1329 MISS:     109760
cpu0_L2C PREFETCH REQUESTED:          0 ISSUED:          0 USEFUL:          0 USELESS:          0
cpu0_L2C AVERAGE MISS LATENCY: 1031 cycles
cpu0_STLB TOTAL        ACCESS:     156152 HIT:         45 MISS:     156107
cpu0_STLB LOAD         ACCESS:     156152 HIT:         45 MISS:     156107
cpu0_STLB RFO          ACCESS:          0 HIT:          0 MISS:          0
cpu0_STLB PREFETCH     ACCESS:          0 HIT:          0 MISS:          0
cpu0_STLB WRITE        ACCESS:          0 HIT:          0 MISS:          0
cpu0_STLB TRANSLATION  ACCESS:          0 HIT:          0 MISS:          0
cpu0_STLB PREFETCH REQUESTED:          0 ISSUED:          0 USEFUL:          0 USELESS:          0
cpu0_STLB AVERAGE MISS LATENCY: 1694 cycles

DRAM Statistics

Channel 0 RQ ROW_BUFFER_HIT:     141576
  ROW_BUFFER_MISS:     505474
 AVG DBUS CONGESTED CYCLE: 3.979
WQ ROW_BUFFER_HIT: Channel 0 
  ROW_BUFFER_MISS:      99447
  FULL:     435599
