WARNING: physical memory size is smaller than virtual memory size.

*** ChampSim Multicore Out-of-Order Simulator ***
Warmup Instructions: 50000000
Simulation Instructions: 600000000
Number of CPUs: 1
Page size: 4096

Off-chip DRAM Size: 4 GiB Channels: 1 Width: 64-bit Data Race: 3200 MT/s
Heartbeat CPU 0 instructions: 10000000 cycles: 2500202 heartbeat IPC: 4 cumulative IPC: 4 (Simulation time: 00 hr 00 min 34 sec)
Heartbeat CPU 0 instructions: 20000000 cycles: 5000202 heartbeat IPC: 4 cumulative IPC: 4 (Simulation time: 00 hr 01 min 08 sec)
Heartbeat CPU 0 instructions: 30000000 cycles: 7500202 heartbeat IPC: 4 cumulative IPC: 4 (Simulation time: 00 hr 01 min 39 sec)
Heartbeat CPU 0 instructions: 40000000 cycles: 10000202 heartbeat IPC: 4 cumulative IPC: 4 (Simulation time: 00 hr 02 min 11 sec)
Heartbeat CPU 0 instructions: 50000000 cycles: 12500202 heartbeat IPC: 4 cumulative IPC: 4 (Simulation time: 00 hr 02 min 44 sec)
Warmup finished CPU 0 instructions: 50000000 cycles: 12500203 cumulative IPC: 4 (Simulation time: 00 hr 02 min 44 sec)
Warmup complete CPU 0 instructions: 50000000 cycles: 12500203 cumulative IPC: 4 (Simulation time: 00 hr 02 min 44 sec)
Heartbeat CPU 0 instructions: 60000002 cycles: 15793667 heartbeat IPC: 3.036 cumulative IPC: 3.036 (Simulation time: 00 hr 03 min 32 sec)
Heartbeat CPU 0 instructions: 70000002 cycles: 18500715 heartbeat IPC: 3.694 cumulative IPC: 3.333 (Simulation time: 00 hr 04 min 14 sec)
Heartbeat CPU 0 instructions: 80000003 cycles: 21204312 heartbeat IPC: 3.699 cumulative IPC: 3.447 (Simulation time: 00 hr 04 min 56 sec)
Heartbeat CPU 0 instructions: 90000004 cycles: 23907875 heartbeat IPC: 3.699 cumulative IPC: 3.506 (Simulation time: 00 hr 05 min 42 sec)
Heartbeat CPU 0 instructions: 100000003 cycles: 26613380 heartbeat IPC: 3.696 cumulative IPC: 3.543 (Simulation time: 00 hr 06 min 27 sec)
Heartbeat CPU 0 instructions: 110000000 cycles: 29317492 heartbeat IPC: 3.698 cumulative IPC: 3.568 (Simulation time: 00 hr 07 min 16 sec)
Heartbeat CPU 0 instructions: 120000000 cycles: 32020846 heartbeat IPC: 3.699 cumulative IPC: 3.586 (Simulation time: 00 hr 07 min 58 sec)
Heartbeat CPU 0 instructions: 130000000 cycles: 34724517 heartbeat IPC: 3.699 cumulative IPC: 3.6 (Simulation time: 00 hr 08 min 40 sec)
Heartbeat CPU 0 instructions: 140000001 cycles: 37428066 heartbeat IPC: 3.699 cumulative IPC: 3.61 (Simulation time: 00 hr 09 min 16 sec)
Heartbeat CPU 0 instructions: 150000003 cycles: 40131650 heartbeat IPC: 3.699 cumulative IPC: 3.619 (Simulation time: 00 hr 09 min 52 sec)
Heartbeat CPU 0 instructions: 160000003 cycles: 42837314 heartbeat IPC: 3.696 cumulative IPC: 3.626 (Simulation time: 00 hr 10 min 31 sec)
Heartbeat CPU 0 instructions: 170000001 cycles: 45540923 heartbeat IPC: 3.699 cumulative IPC: 3.632 (Simulation time: 00 hr 11 min 09 sec)
Heartbeat CPU 0 instructions: 180000001 cycles: 48244496 heartbeat IPC: 3.699 cumulative IPC: 3.637 (Simulation time: 00 hr 11 min 44 sec)
Heartbeat CPU 0 instructions: 190000002 cycles: 50948855 heartbeat IPC: 3.698 cumulative IPC: 3.641 (Simulation time: 00 hr 12 min 24 sec)
Heartbeat CPU 0 instructions: 200000001 cycles: 53652441 heartbeat IPC: 3.699 cumulative IPC: 3.645 (Simulation time: 00 hr 13 min 01 sec)
Heartbeat CPU 0 instructions: 210000000 cycles: 56357811 heartbeat IPC: 3.696 cumulative IPC: 3.648 (Simulation time: 00 hr 13 min 40 sec)
Heartbeat CPU 0 instructions: 220000001 cycles: 59061509 heartbeat IPC: 3.699 cumulative IPC: 3.651 (Simulation time: 00 hr 14 min 16 sec)
Heartbeat CPU 0 instructions: 230000002 cycles: 61765131 heartbeat IPC: 3.699 cumulative IPC: 3.654 (Simulation time: 00 hr 14 min 54 sec)
Heartbeat CPU 0 instructions: 240000004 cycles: 64468764 heartbeat IPC: 3.699 cumulative IPC: 3.656 (Simulation time: 00 hr 15 min 30 sec)
Heartbeat CPU 0 instructions: 250000000 cycles: 67174256 heartbeat IPC: 3.696 cumulative IPC: 3.658 (Simulation time: 00 hr 16 min 05 sec)
Heartbeat CPU 0 instructions: 260000000 cycles: 69878358 heartbeat IPC: 3.698 cumulative IPC: 3.66 (Simulation time: 00 hr 16 min 40 sec)
Heartbeat CPU 0 instructions: 270000002 cycles: 72581721 heartbeat IPC: 3.699 cumulative IPC: 3.662 (Simulation time: 00 hr 17 min 17 sec)
Heartbeat CPU 0 instructions: 280000003 cycles: 75285346 heartbeat IPC: 3.699 cumulative IPC: 3.663 (Simulation time: 00 hr 17 min 54 sec)
Heartbeat CPU 0 instructions: 290000003 cycles: 77989001 heartbeat IPC: 3.699 cumulative IPC: 3.665 (Simulation time: 00 hr 18 min 32 sec)
Heartbeat CPU 0 instructions: 300000000 cycles: 80694801 heartbeat IPC: 3.696 cumulative IPC: 3.666 (Simulation time: 00 hr 19 min 08 sec)
Heartbeat CPU 0 instructions: 310000002 cycles: 83398048 heartbeat IPC: 3.699 cumulative IPC: 3.667 (Simulation time: 00 hr 19 min 47 sec)
Heartbeat CPU 0 instructions: 320000004 cycles: 86101425 heartbeat IPC: 3.699 cumulative IPC: 3.668 (Simulation time: 00 hr 20 min 23 sec)
Heartbeat CPU 0 instructions: 330000000 cycles: 88805035 heartbeat IPC: 3.699 cumulative IPC: 3.669 (Simulation time: 00 hr 20 min 58 sec)
Heartbeat CPU 0 instructions: 340000002 cycles: 91509812 heartbeat IPC: 3.697 cumulative IPC: 3.67 (Simulation time: 00 hr 21 min 36 sec)
Heartbeat CPU 0 instructions: 350000002 cycles: 94213257 heartbeat IPC: 3.699 cumulative IPC: 3.671 (Simulation time: 00 hr 22 min 12 sec)
Heartbeat CPU 0 instructions: 360000001 cycles: 96920842 heartbeat IPC: 3.693 cumulative IPC: 3.672 (Simulation time: 00 hr 22 min 47 sec)
Heartbeat CPU 0 instructions: 370000004 cycles: 99624561 heartbeat IPC: 3.699 cumulative IPC: 3.673 (Simulation time: 00 hr 23 min 22 sec)
Heartbeat CPU 0 instructions: 380000000 cycles: 102328129 heartbeat IPC: 3.699 cumulative IPC: 3.674 (Simulation time: 00 hr 23 min 57 sec)
Heartbeat CPU 0 instructions: 390000004 cycles: 105031849 heartbeat IPC: 3.699 cumulative IPC: 3.674 (Simulation time: 00 hr 24 min 31 sec)
Heartbeat CPU 0 instructions: 400000000 cycles: 107737483 heartbeat IPC: 3.696 cumulative IPC: 3.675 (Simulation time: 00 hr 25 min 05 sec)
Heartbeat CPU 0 instructions: 410000000 cycles: 110441637 heartbeat IPC: 3.698 cumulative IPC: 3.676 (Simulation time: 00 hr 25 min 41 sec)
Heartbeat CPU 0 instructions: 420000001 cycles: 113145083 heartbeat IPC: 3.699 cumulative IPC: 3.676 (Simulation time: 00 hr 26 min 16 sec)
Heartbeat CPU 0 instructions: 430000003 cycles: 115848791 heartbeat IPC: 3.699 cumulative IPC: 3.677 (Simulation time: 00 hr 26 min 51 sec)
Heartbeat CPU 0 instructions: 440000003 cycles: 118552484 heartbeat IPC: 3.699 cumulative IPC: 3.677 (Simulation time: 00 hr 27 min 27 sec)
Heartbeat CPU 0 instructions: 450000004 cycles: 121258176 heartbeat IPC: 3.696 cumulative IPC: 3.678 (Simulation time: 00 hr 28 min 02 sec)
Heartbeat CPU 0 instructions: 460000001 cycles: 123962206 heartbeat IPC: 3.698 cumulative IPC: 3.678 (Simulation time: 00 hr 28 min 39 sec)
Heartbeat CPU 0 instructions: 470000002 cycles: 126665682 heartbeat IPC: 3.699 cumulative IPC: 3.679 (Simulation time: 00 hr 29 min 15 sec)
Heartbeat CPU 0 instructions: 480000001 cycles: 129369431 heartbeat IPC: 3.699 cumulative IPC: 3.679 (Simulation time: 00 hr 29 min 49 sec)
Heartbeat CPU 0 instructions: 490000000 cycles: 132074545 heartbeat IPC: 3.697 cumulative IPC: 3.68 (Simulation time: 00 hr 30 min 24 sec)
Heartbeat CPU 0 instructions: 500000002 cycles: 134781174 heartbeat IPC: 3.695 cumulative IPC: 3.68 (Simulation time: 00 hr 30 min 58 sec)
Heartbeat CPU 0 instructions: 510000003 cycles: 137484499 heartbeat IPC: 3.699 cumulative IPC: 3.68 (Simulation time: 00 hr 31 min 33 sec)
Heartbeat CPU 0 instructions: 520000004 cycles: 140187971 heartbeat IPC: 3.699 cumulative IPC: 3.681 (Simulation time: 00 hr 32 min 08 sec)
Heartbeat CPU 0 instructions: 530000000 cycles: 142891628 heartbeat IPC: 3.699 cumulative IPC: 3.681 (Simulation time: 00 hr 32 min 44 sec)
Heartbeat CPU 0 instructions: 540000000 cycles: 145597581 heartbeat IPC: 3.696 cumulative IPC: 3.682 (Simulation time: 00 hr 33 min 19 sec)
Heartbeat CPU 0 instructions: 550000003 cycles: 148300965 heartbeat IPC: 3.699 cumulative IPC: 3.682 (Simulation time: 00 hr 33 min 54 sec)
Heartbeat CPU 0 instructions: 560000003 cycles: 151004755 heartbeat IPC: 3.699 cumulative IPC: 3.682 (Simulation time: 00 hr 34 min 30 sec)
Heartbeat CPU 0 instructions: 570000004 cycles: 153708094 heartbeat IPC: 3.699 cumulative IPC: 3.683 (Simulation time: 00 hr 35 min 05 sec)
Heartbeat CPU 0 instructions: 580000000 cycles: 156411798 heartbeat IPC: 3.699 cumulative IPC: 3.683 (Simulation time: 00 hr 35 min 41 sec)
Heartbeat CPU 0 instructions: 590000002 cycles: 159115381 heartbeat IPC: 3.699 cumulative IPC: 3.683 (Simulation time: 00 hr 36 min 17 sec)
*** Reached end of trace: (0, "traces/convolution.champsimtrace")
Heartbeat CPU 0 instructions: 600000000 cycles: 161829023 heartbeat IPC: 3.685 cumulative IPC: 3.683 (Simulation time: 00 hr 37 min 01 sec)
Heartbeat CPU 0 instructions: 610000002 cycles: 185388466 heartbeat IPC: 0.4245 cumulative IPC: 3.239 (Simulation time: 00 hr 40 min 33 sec)
Heartbeat CPU 0 instructions: 620000001 cycles: 206755223 heartbeat IPC: 0.468 cumulative IPC: 2.934 (Simulation time: 00 hr 43 min 48 sec)
Heartbeat CPU 0 instructions: 630000001 cycles: 219862378 heartbeat IPC: 0.7629 cumulative IPC: 2.797 (Simulation time: 00 hr 45 min 55 sec)
Heartbeat CPU 0 instructions: 640000004 cycles: 230487318 heartbeat IPC: 0.9412 cumulative IPC: 2.707 (Simulation time: 00 hr 47 min 38 sec)
Heartbeat CPU 0 instructions: 650000001 cycles: 241093969 heartbeat IPC: 0.9428 cumulative IPC: 2.625 (Simulation time: 00 hr 49 min 16 sec)
Simulation finished CPU 0 instructions: 600000001 cycles: 228593767 cumulative IPC: 2.625 (Simulation time: 00 hr 49 min 16 sec)
Simulation complete CPU 0 instructions: 600000001 cycles: 228593767 cumulative IPC: 2.625 (Simulation time: 00 hr 49 min 16 sec)

ChampSim completed all CPUs

=== Simulation ===
CPU 0 runs traces/convolution.champsimtrace
Region of Interest Statistics

CPU 0 cumulative IPC: 2.625 instructions: 600000001 cycles: 228593767
CPU 0 Branch Prediction Accuracy: 99.3% MPKI: 1.265 Average ROB Occupancy at Mispredict: 63.96
Branch type MPKI
BRANCH_DIRECT_JUMP: 0.000107
BRANCH_INDIRECT: 4.17e-05
BRANCH_CONDITIONAL: 1.26
BRANCH_DIRECT_CALL: 0.000103
BRANCH_INDIRECT_CALL: 8.33e-06
BRANCH_RETURN: 1.83e-05

LLC TOTAL        ACCESS:    1186091 HIT:     426372 MISS:     759719
LLC LOAD         ACCESS:       2888 HIT:        859 MISS:       2029
LLC RFO          ACCESS:     535121 HIT:         97 MISS:     535024
LLC PREFETCH     ACCESS:       2888 HIT:        279 MISS:       2609
LLC WRITE        ACCESS:     535167 HIT:     424523 MISS:     110644
LLC TRANSLATION  ACCESS:     110027 HIT:        614 MISS:     109413
LLC PREFETCH REQUESTED:       2888 ISSUED:       2888 USEFUL:       1647 USELESS:        358
LLC AVERAGE MISS LATENCY: 900.1 cycles
cpu0_DTLB TOTAL        ACCESS:  121556777 HIT:  121203577 MISS:     353200
cpu0_DTLB LOAD         ACCESS:  121556777 HIT:  121203577 MISS:     353200
cpu0_DTLB RFO          ACCESS:          0 HIT:          0 MISS:          0
cpu0_DTLB PREFETCH     ACCESS:          0 HIT:          0 MISS:          0
cpu0_DTLB WRITE        ACCESS:          0 HIT:          0 MISS:          0
cpu0_DTLB TRANSLATION  ACCESS:          0 HIT:          0 MISS:          0
cpu0_DTLB PREFETCH REQUESTED:          0 ISSUED:          0 USEFUL:          0 USELESS:          0
cpu0_DTLB AVERAGE MISS LATENCY: 655.3 cycles
cpu0_ITLB TOTAL        ACCESS:       2019 HIT:       1985 MISS:         34
cpu0_ITLB LOAD         ACCESS:       2019 HIT:       1985 MISS:         34
cpu0_ITLB RFO          ACCESS:          0 HIT:          0 MISS:          0
cpu0_ITLB PREFETCH     ACCESS:          0 HIT:          0 MISS:          0
cpu0_ITLB WRITE        ACCESS:          0 HIT:          0 MISS:          0
cpu0_ITLB TRANSLATION  ACCESS:          0 HIT:          0 MISS:          0
cpu0_ITLB PREFETCH REQUESTED:          0 ISSUED:          0 USEFUL:          0 USELESS:          0
cpu0_ITLB AVERAGE MISS LATENCY: 864.4 cycles
cpu0_L1D TOTAL        ACCESS:  162708916 HIT:  156542763 MISS:    6166153
cpu0_L1D LOAD         ACCESS:   90491716 HIT:   90485501 MISS:       6215
cpu0_L1D RFO          ACCESS:          0 HIT:          0 MISS:          0
cpu0_L1D PREFETCH     ACCESS:          0 HIT:          0 MISS:          0
cpu0_L1D WRITE        ACCESS:   72036401 HIT:   66018892 MISS:    6017509
cpu0_L1D TRANSLATION  ACCESS:     180799 HIT:      38370 MISS:     142429
cpu0_L1D PREFETCH REQUESTED:          0 ISSUED:          0 USEFUL:          0 USELESS:          0
cpu0_L1D AVERAGE MISS LATENCY: 85.69 cycles
cpu0_L1I TOTAL        ACCESS:       2335 HIT:       1022 MISS:       1313
cpu0_L1I LOAD         ACCESS:       2335 HIT:       1022 MISS:       1313
cpu0_L1I RFO          ACCESS:          0 HIT:          0 MISS:          0
cpu0_L1I PREFETCH     ACCESS:          0 HIT:          0 MISS:          0
cpu0_L1I WRITE        ACCESS:          0 HIT:          0 MISS:          0
cpu0_L1I TRANSLATION  ACCESS:          0 HIT:          0 MISS:          0
cpu0_L1I PREFETCH REQUESTED:          0 ISSUED:          0 USEFUL:          0 USELESS:          0
cpu0_L1I AVERAGE MISS LATENCY: 672.8 cycles
cpu0_L2C TOTAL        ACCESS:    1191048 HIT:     542994 MISS:     648054
cpu0_L2C LOAD         ACCESS:       3312 HIT:        424 MISS:       2888
cpu0_L2C RFO          ACCESS:     538083 HIT:       2962 MISS:     535121
cpu0_L2C PREFETCH     ACCESS:          0 HIT:          0 MISS:          0
cpu0_L2C WRITE        ACCESS:     538216 HIT:     538199 MISS:         17
cpu0_L2C TRANSLATION  ACCESS:     111437 HIT:       1409 MISS:     110028
cpu0_L2C PREFETCH REQUESTED:          0 ISSUED:          0 USEFUL:          0 USELESS:          0
cpu0_L2C AVERAGE MISS LATENCY: 1073 cycles
cpu0_STLB TOTAL        ACCESS:     156154 HIT:         47 MISS:     156107
cpu0_STLB LOAD         ACCESS:     156154 HIT:         47 MISS:     156107
cpu0_STLB RFO          ACCESS:          0 HIT:          0 MISS:          0
cpu0_STLB PREFETCH     ACCESS:          0 HIT:          0 MISS:          0
cpu0_STLB WRITE        ACCESS:          0 HIT:          0 MISS:          0
cpu0_STLB TRANSLATION  ACCESS:          0 HIT:          0 MISS:          0
cpu0_STLB PREFETCH REQUESTED:          0 ISSUED:          0 USEFUL:          0 USELESS:          0
cpu0_STLB AVERAGE MISS LATENCY: 1695 cycles

DRAM Statistics

Channel 0 RQ ROW_BUFFER_HIT:     143674
  ROW_BUFFER_MISS:     504007
 AVG DBUS CONGESTED CYCLE: 3.983
WQ ROW_BUFFER_HIT: Channel 0 
  ROW_BUFFER_MISS:      61269
  FULL:     473225
