WARNING: physical memory size is smaller than virtual memory size.

*** ChampSim Multicore Out-of-Order Simulator ***
Warmup Instructions: 50000000
Simulation Instructions: 600000000
Number of CPUs: 1
Page size: 4096

CPU 0 Tage branch predictor
Off-chip DRAM Size: 4 GiB Channels: 1 Width: 64-bit Data Race: 3200 MT/s
Heartbeat CPU 0 instructions: 10000002 cycles: 2500202 heartbeat IPC: 4 cumulative IPC: 4 (Simulation time: 00 hr 00 min 47 sec)
Heartbeat CPU 0 instructions: 20000002 cycles: 5000202 heartbeat IPC: 4 cumulative IPC: 4 (Simulation time: 00 hr 01 min 32 sec)
Heartbeat CPU 0 instructions: 30000002 cycles: 7500202 heartbeat IPC: 4 cumulative IPC: 4 (Simulation time: 00 hr 02 min 19 sec)
Heartbeat CPU 0 instructions: 40000002 cycles: 10000202 heartbeat IPC: 4 cumulative IPC: 4 (Simulation time: 00 hr 03 min 06 sec)
Heartbeat CPU 0 instructions: 50000002 cycles: 12500202 heartbeat IPC: 4 cumulative IPC: 4 (Simulation time: 00 hr 03 min 53 sec)
Warmup finished CPU 0 instructions: 50000002 cycles: 12500203 cumulative IPC: 4 (Simulation time: 00 hr 03 min 53 sec)
Warmup complete CPU 0 instructions: 50000002 cycles: 12500203 cumulative IPC: 4 (Simulation time: 00 hr 03 min 53 sec)
Heartbeat CPU 0 instructions: 60000004 cycles: 15600345 heartbeat IPC: 3.226 cumulative IPC: 3.226 (Simulation time: 00 hr 04 min 48 sec)
Heartbeat CPU 0 instructions: 70000000 cycles: 18115184 heartbeat IPC: 3.976 cumulative IPC: 3.562 (Simulation time: 00 hr 05 min 34 sec)
Heartbeat CPU 0 instructions: 80000003 cycles: 20629187 heartbeat IPC: 3.978 cumulative IPC: 3.69 (Simulation time: 00 hr 06 min 16 sec)
Heartbeat CPU 0 instructions: 90000004 cycles: 23147038 heartbeat IPC: 3.972 cumulative IPC: 3.757 (Simulation time: 00 hr 06 min 57 sec)
Heartbeat CPU 0 instructions: 100000004 cycles: 25658815 heartbeat IPC: 3.981 cumulative IPC: 3.8 (Simulation time: 00 hr 07 min 38 sec)
Heartbeat CPU 0 instructions: 110000004 cycles: 28165536 heartbeat IPC: 3.989 cumulative IPC: 3.83 (Simulation time: 00 hr 08 min 17 sec)
Heartbeat CPU 0 instructions: 120000000 cycles: 30679746 heartbeat IPC: 3.977 cumulative IPC: 3.85 (Simulation time: 00 hr 08 min 57 sec)
Heartbeat CPU 0 instructions: 130000000 cycles: 33189500 heartbeat IPC: 3.984 cumulative IPC: 3.867 (Simulation time: 00 hr 09 min 36 sec)
Heartbeat CPU 0 instructions: 140000004 cycles: 35698078 heartbeat IPC: 3.986 cumulative IPC: 3.88 (Simulation time: 00 hr 10 min 14 sec)
Heartbeat CPU 0 instructions: 150000004 cycles: 38207760 heartbeat IPC: 3.985 cumulative IPC: 3.89 (Simulation time: 00 hr 10 min 53 sec)
Heartbeat CPU 0 instructions: 160000000 cycles: 40713359 heartbeat IPC: 3.991 cumulative IPC: 3.899 (Simulation time: 00 hr 11 min 30 sec)
Heartbeat CPU 0 instructions: 170000000 cycles: 43221640 heartbeat IPC: 3.987 cumulative IPC: 3.906 (Simulation time: 00 hr 12 min 08 sec)
Heartbeat CPU 0 instructions: 180000000 cycles: 45737330 heartbeat IPC: 3.975 cumulative IPC: 3.911 (Simulation time: 00 hr 12 min 44 sec)
Heartbeat CPU 0 instructions: 190000000 cycles: 48253740 heartbeat IPC: 3.974 cumulative IPC: 3.916 (Simulation time: 00 hr 13 min 20 sec)
Heartbeat CPU 0 instructions: 200000003 cycles: 50760242 heartbeat IPC: 3.99 cumulative IPC: 3.921 (Simulation time: 00 hr 13 min 56 sec)
Heartbeat CPU 0 instructions: 210000004 cycles: 53274265 heartbeat IPC: 3.978 cumulative IPC: 3.924 (Simulation time: 00 hr 14 min 33 sec)
Heartbeat CPU 0 instructions: 220000004 cycles: 55787696 heartbeat IPC: 3.979 cumulative IPC: 3.927 (Simulation time: 00 hr 15 min 10 sec)
Heartbeat CPU 0 instructions: 230000000 cycles: 58299501 heartbeat IPC: 3.981 cumulative IPC: 3.93 (Simulation time: 00 hr 15 min 45 sec)
Heartbeat CPU 0 instructions: 240000000 cycles: 60806069 heartbeat IPC: 3.99 cumulative IPC: 3.933 (Simulation time: 00 hr 16 min 22 sec)
Heartbeat CPU 0 instructions: 250000003 cycles: 63316407 heartbeat IPC: 3.984 cumulative IPC: 3.936 (Simulation time: 00 hr 16 min 58 sec)
Heartbeat CPU 0 instructions: 260000004 cycles: 65836237 heartbeat IPC: 3.969 cumulative IPC: 3.937 (Simulation time: 00 hr 17 min 35 sec)
Heartbeat CPU 0 instructions: 270000004 cycles: 68355194 heartbeat IPC: 3.97 cumulative IPC: 3.939 (Simulation time: 00 hr 18 min 11 sec)
Heartbeat CPU 0 instructions: 280000000 cycles: 70870415 heartbeat IPC: 3.976 cumulative IPC: 3.94 (Simulation time: 00 hr 18 min 46 sec)
Heartbeat CPU 0 instructions: 290000000 cycles: 73382578 heartbeat IPC: 3.981 cumulative IPC: 3.942 (Simulation time: 00 hr 19 min 22 sec)
Heartbeat CPU 0 instructions: 300000000 cycles: 75889806 heartbeat IPC: 3.988 cumulative IPC: 3.944 (Simulation time: 00 hr 19 min 59 sec)
Heartbeat CPU 0 instructions: 310000004 cycles: 78399825 heartbeat IPC: 3.984 cumulative IPC: 3.945 (Simulation time: 00 hr 20 min 35 sec)
Heartbeat CPU 0 instructions: 320000003 cycles: 80909440 heartbeat IPC: 3.985 cumulative IPC: 3.947 (Simulation time: 00 hr 21 min 11 sec)
Heartbeat CPU 0 instructions: 330000004 cycles: 83419256 heartbeat IPC: 3.984 cumulative IPC: 3.948 (Simulation time: 00 hr 21 min 47 sec)
Heartbeat CPU 0 instructions: 340000004 cycles: 85927385 heartbeat IPC: 3.987 cumulative IPC: 3.949 (Simulation time: 00 hr 22 min 23 sec)
Heartbeat CPU 0 instructions: 350000000 cycles: 88433591 heartbeat IPC: 3.99 cumulative IPC: 3.951 (Simulation time: 00 hr 22 min 58 sec)
Heartbeat CPU 0 instructions: 360000000 cycles: 90946847 heartbeat IPC: 3.979 cumulative IPC: 3.952 (Simulation time: 00 hr 23 min 34 sec)
Heartbeat CPU 0 instructions: 370000004 cycles: 93464566 heartbeat IPC: 3.972 cumulative IPC: 3.952 (Simulation time: 00 hr 24 min 11 sec)
Heartbeat CPU 0 instructions: 380000004 cycles: 95972604 heartbeat IPC: 3.987 cumulative IPC: 3.953 (Simulation time: 00 hr 24 min 47 sec)
Heartbeat CPU 0 instructions: 390000004 cycles: 98485440 heartbeat IPC: 3.98 cumulative IPC: 3.954 (Simulation time: 00 hr 25 min 23 sec)
Heartbeat CPU 0 instructions: 400000000 cycles: 100995270 heartbeat IPC: 3.984 cumulative IPC: 3.955 (Simulation time: 00 hr 25 min 58 sec)
Heartbeat CPU 0 instructions: 410000000 cycles: 103506302 heartbeat IPC: 3.982 cumulative IPC: 3.956 (Simulation time: 00 hr 26 min 35 sec)
Heartbeat CPU 0 instructions: 420000004 cycles: 106020794 heartbeat IPC: 3.977 cumulative IPC: 3.956 (Simulation time: 00 hr 27 min 11 sec)
Heartbeat CPU 0 instructions: 430000004 cycles: 108533305 heartbeat IPC: 3.98 cumulative IPC: 3.957 (Simulation time: 00 hr 27 min 47 sec)
Heartbeat CPU 0 instructions: 440000004 cycles: 111041342 heartbeat IPC: 3.987 cumulative IPC: 3.958 (Simulation time: 00 hr 28 min 22 sec)
Heartbeat CPU 0 instructions: 450000004 cycles: 113548057 heartbeat IPC: 3.989 cumulative IPC: 3.959 (Simulation time: 00 hr 28 min 58 sec)
Heartbeat CPU 0 instructions: 460000004 cycles: 116060564 heartbeat IPC: 3.98 cumulative IPC: 3.959 (Simulation time: 00 hr 29 min 33 sec)
Heartbeat CPU 0 instructions: 470000000 cycles: 118574624 heartbeat IPC: 3.978 cumulative IPC: 3.959 (Simulation time: 00 hr 30 min 09 sec)
Heartbeat CPU 0 instructions: 480000000 cycles: 121083835 heartbeat IPC: 3.985 cumulative IPC: 3.96 (Simulation time: 00 hr 30 min 46 sec)
Heartbeat CPU 0 instructions: 490000004 cycles: 123592971 heartbeat IPC: 3.985 cumulative IPC: 3.961 (Simulation time: 00 hr 31 min 22 sec)
Heartbeat CPU 0 instructions: 500000004 cycles: 126104202 heartbeat IPC: 3.982 cumulative IPC: 3.961 (Simulation time: 00 hr 31 min 58 sec)
Heartbeat CPU 0 instructions: 510000004 cycles: 128612376 heartbeat IPC: 3.987 cumulative IPC: 3.962 (Simulation time: 00 hr 32 min 34 sec)
Heartbeat CPU 0 instructions: 520000000 cycles: 131127488 heartbeat IPC: 3.976 cumulative IPC: 3.962 (Simulation time: 00 hr 33 min 10 sec)
Heartbeat CPU 0 instructions: 530000000 cycles: 133641097 heartbeat IPC: 3.978 cumulative IPC: 3.962 (Simulation time: 00 hr 33 min 46 sec)
Heartbeat CPU 0 instructions: 540000004 cycles: 136150106 heartbeat IPC: 3.986 cumulative IPC: 3.963 (Simulation time: 00 hr 34 min 21 sec)
Heartbeat CPU 0 instructions: 550000004 cycles: 138664494 heartbeat IPC: 3.977 cumulative IPC: 3.963 (Simulation time: 00 hr 34 min 57 sec)
Heartbeat CPU 0 instructions: 560000000 cycles: 141171347 heartbeat IPC: 3.989 cumulative IPC: 3.964 (Simulation time: 00 hr 35 min 32 sec)
Heartbeat CPU 0 instructions: 570000000 cycles: 143680828 heartbeat IPC: 3.985 cumulative IPC: 3.964 (Simulation time: 00 hr 36 min 08 sec)
Heartbeat CPU 0 instructions: 580000000 cycles: 146193283 heartbeat IPC: 3.98 cumulative IPC: 3.964 (Simulation time: 00 hr 36 min 44 sec)
Heartbeat CPU 0 instructions: 590000000 cycles: 148702292 heartbeat IPC: 3.986 cumulative IPC: 3.965 (Simulation time: 00 hr 37 min 20 sec)
*** Reached end of trace: (0, "traces/convolution.champsimtrace")
Heartbeat CPU 0 instructions: 600000000 cycles: 151215076 heartbeat IPC: 3.98 cumulative IPC: 3.965 (Simulation time: 00 hr 37 min 57 sec)
Heartbeat CPU 0 instructions: 610000004 cycles: 173207072 heartbeat IPC: 0.4547 cumulative IPC: 3.485 (Simulation time: 00 hr 40 min 17 sec)
Heartbeat CPU 0 instructions: 620000000 cycles: 192988002 heartbeat IPC: 0.5055 cumulative IPC: 3.158 (Simulation time: 00 hr 41 min 57 sec)
Heartbeat CPU 0 instructions: 630000001 cycles: 197704177 heartbeat IPC: 2.12 cumulative IPC: 3.132 (Simulation time: 00 hr 42 min 27 sec)
Heartbeat CPU 0 instructions: 640000002 cycles: 207951999 heartbeat IPC: 0.9758 cumulative IPC: 3.019 (Simulation time: 00 hr 43 min 09 sec)
Heartbeat CPU 0 instructions: 650000004 cycles: 218727335 heartbeat IPC: 0.928 cumulative IPC: 2.909 (Simulation time: 00 hr 43 min 49 sec)
Simulation finished CPU 0 instructions: 600000002 cycles: 206227133 cumulative IPC: 2.909 (Simulation time: 00 hr 43 min 49 sec)
Simulation complete CPU 0 instructions: 600000002 cycles: 206227133 cumulative IPC: 2.909 (Simulation time: 00 hr 43 min 49 sec)

ChampSim completed all CPUs

=== Simulation ===
CPU 0 runs traces/convolution.champsimtrace
Region of Interest Statistics

CPU 0 cumulative IPC: 2.909 instructions: 600000002 cycles: 206227133
CPU 0 Branch Prediction Accuracy: 100% MPKI: 0.002727 Average ROB Occupancy at Mispredict: 81.35
Branch type MPKI
BRANCH_DIRECT_JUMP: 1e-05
BRANCH_INDIRECT: 4.67e-05
BRANCH_CONDITIONAL: 0.00263
BRANCH_DIRECT_CALL: 6.67e-06
BRANCH_INDIRECT_CALL: 8.33e-06
BRANCH_RETURN: 2.17e-05

LLC TOTAL        ACCESS:    1193469 HIT:     203333 MISS:     990136
LLC LOAD         ACCESS:       2893 HIT:       2531 MISS:        362
LLC RFO          ACCESS:     539057 HIT:      29866 MISS:     509191
LLC PREFETCH     ACCESS:       2893 HIT:       2557 MISS:        336
LLC WRITE        ACCESS:     539105 HIT:     138580 MISS:     400525
LLC TRANSLATION  ACCESS:     109521 HIT:      29799 MISS:      79722
LLC PREFETCH REQUESTED:       2893 ISSUED:       2893 USEFUL:         18 USELESS:        287
LLC AVERAGE MISS LATENCY: 633.6 cycles
cpu0_DTLB TOTAL        ACCESS:  108718522 HIT:  108402645 MISS:     315877
cpu0_DTLB LOAD         ACCESS:  108718522 HIT:  108402645 MISS:     315877
cpu0_DTLB RFO          ACCESS:          0 HIT:          0 MISS:          0
cpu0_DTLB PREFETCH     ACCESS:          0 HIT:          0 MISS:          0
cpu0_DTLB WRITE        ACCESS:          0 HIT:          0 MISS:          0
cpu0_DTLB TRANSLATION  ACCESS:          0 HIT:          0 MISS:          0
cpu0_DTLB PREFETCH REQUESTED:          0 ISSUED:          0 USEFUL:          0 USELESS:          0
cpu0_DTLB AVERAGE MISS LATENCY: 658.8 cycles
cpu0_ITLB TOTAL        ACCESS:       2049 HIT:       1992 MISS:         57
cpu0_ITLB LOAD         ACCESS:       2049 HIT:       1992 MISS:         57
cpu0_ITLB RFO          ACCESS:          0 HIT:          0 MISS:          0
cpu0_ITLB PREFETCH     ACCESS:          0 HIT:          0 MISS:          0
cpu0_ITLB WRITE        ACCESS:          0 HIT:          0 MISS:          0
cpu0_ITLB TRANSLATION  ACCESS:          0 HIT:          0 MISS:          0
cpu0_ITLB PREFETCH REQUESTED:          0 ISSUED:          0 USEFUL:          0 USELESS:          0
cpu0_ITLB AVERAGE MISS LATENCY: 631.8 cycles
cpu0_L1D TOTAL        ACCESS:  142638266 HIT:  136429066 MISS:    6209200
cpu0_L1D LOAD         ACCESS:   69779178 HIT:   69771790 MISS:       7388
cpu0_L1D RFO          ACCESS:          0 HIT:          0 MISS:          0
cpu0_L1D PREFETCH     ACCESS:          0 HIT:          0 MISS:          0
cpu0_L1D WRITE        ACCESS:   72678568 HIT:   66622913 MISS:    6055655
cpu0_L1D TRANSLATION  ACCESS:     180520 HIT:      34363 MISS:     146157
cpu0_L1D PREFETCH REQUESTED:          0 ISSUED:          0 USEFUL:          0 USELESS:          0
cpu0_L1D AVERAGE MISS LATENCY: 81.91 cycles
cpu0_L1I TOTAL        ACCESS:       2397 HIT:       1039 MISS:       1358
cpu0_L1I LOAD         ACCESS:       2397 HIT:       1039 MISS:       1358
cpu0_L1I RFO          ACCESS:          0 HIT:          0 MISS:          0
cpu0_L1I PREFETCH     ACCESS:          0 HIT:          0 MISS:          0
cpu0_L1I WRITE        ACCESS:          0 HIT:          0 MISS:          0
cpu0_L1I TRANSLATION  ACCESS:          0 HIT:          0 MISS:          0
cpu0_L1I PREFETCH REQUESTED:          0 ISSUED:          0 USEFUL:          0 USELESS:          0
cpu0_L1I AVERAGE MISS LATENCY: 202 cycles
cpu0_L2C TOTAL        ACCESS:    1201651 HIT:     550160 MISS:     651491
cpu0_L2C LOAD         ACCESS:       3320 HIT:        427 MISS:       2893
cpu0_L2C RFO          ACCESS:     543662 HIT:       4605 MISS:     539057
cpu0_L2C PREFETCH     ACCESS:          0 HIT:          0 MISS:          0
cpu0_L2C WRITE        ACCESS:     543959 HIT:     543939 MISS:         20
cpu0_L2C TRANSLATION  ACCESS:     110710 HIT:       1189 MISS:     109521
cpu0_L2C PREFETCH REQUESTED:          0 ISSUED:          0 USEFUL:          0 USELESS:          0
cpu0_L2C AVERAGE MISS LATENCY: 983.2 cycles
cpu0_STLB TOTAL        ACCESS:     156212 HIT:         38 MISS:     156174
cpu0_STLB LOAD         ACCESS:     156212 HIT:         38 MISS:     156174
cpu0_STLB RFO          ACCESS:          0 HIT:          0 MISS:          0
cpu0_STLB PREFETCH     ACCESS:          0 HIT:          0 MISS:          0
cpu0_STLB WRITE        ACCESS:          0 HIT:          0 MISS:          0
cpu0_STLB TRANSLATION  ACCESS:          0 HIT:          0 MISS:          0
cpu0_STLB PREFETCH REQUESTED:          0 ISSUED:          0 USEFUL:          0 USELESS:          0
cpu0_STLB AVERAGE MISS LATENCY: 1478 cycles

DRAM Statistics

Channel 0 RQ ROW_BUFFER_HIT:     128679
  ROW_BUFFER_MISS:     460884
 AVG DBUS CONGESTED CYCLE: 3.981
WQ ROW_BUFFER_HIT: Channel 0 
  ROW_BUFFER_MISS:     106412
  FULL:     402755
