WARNING: physical memory size is smaller than virtual memory size.

*** ChampSim Multicore Out-of-Order Simulator ***
Warmup Instructions: 50000000
Simulation Instructions: 600000000
Number of CPUs: 1
Page size: 4096

Off-chip DRAM Size: 4 GiB Channels: 1 Width: 64-bit Data Race: 3200 MT/s
Heartbeat CPU 0 instructions: 10000000 cycles: 2500202 heartbeat IPC: 4 cumulative IPC: 4 (Simulation time: 00 hr 00 min 34 sec)
Heartbeat CPU 0 instructions: 20000000 cycles: 5000202 heartbeat IPC: 4 cumulative IPC: 4 (Simulation time: 00 hr 01 min 13 sec)
Heartbeat CPU 0 instructions: 30000000 cycles: 7500202 heartbeat IPC: 4 cumulative IPC: 4 (Simulation time: 00 hr 01 min 48 sec)
Heartbeat CPU 0 instructions: 40000000 cycles: 10000202 heartbeat IPC: 4 cumulative IPC: 4 (Simulation time: 00 hr 02 min 22 sec)
Heartbeat CPU 0 instructions: 50000000 cycles: 12500202 heartbeat IPC: 4 cumulative IPC: 4 (Simulation time: 00 hr 02 min 59 sec)
Warmup finished CPU 0 instructions: 50000000 cycles: 12500203 cumulative IPC: 4 (Simulation time: 00 hr 02 min 59 sec)
Warmup complete CPU 0 instructions: 50000000 cycles: 12500203 cumulative IPC: 4 (Simulation time: 00 hr 02 min 59 sec)
Heartbeat CPU 0 instructions: 60000002 cycles: 15776885 heartbeat IPC: 3.052 cumulative IPC: 3.052 (Simulation time: 00 hr 03 min 46 sec)
Heartbeat CPU 0 instructions: 70000002 cycles: 18483561 heartbeat IPC: 3.695 cumulative IPC: 3.343 (Simulation time: 00 hr 04 min 27 sec)
Heartbeat CPU 0 instructions: 80000003 cycles: 21191198 heartbeat IPC: 3.693 cumulative IPC: 3.452 (Simulation time: 00 hr 05 min 08 sec)
Heartbeat CPU 0 instructions: 90000004 cycles: 23900843 heartbeat IPC: 3.691 cumulative IPC: 3.509 (Simulation time: 00 hr 05 min 47 sec)
Heartbeat CPU 0 instructions: 100000003 cycles: 26615438 heartbeat IPC: 3.684 cumulative IPC: 3.542 (Simulation time: 00 hr 06 min 25 sec)
Heartbeat CPU 0 instructions: 110000000 cycles: 29325544 heartbeat IPC: 3.69 cumulative IPC: 3.566 (Simulation time: 00 hr 07 min 04 sec)
Heartbeat CPU 0 instructions: 120000000 cycles: 32033003 heartbeat IPC: 3.694 cumulative IPC: 3.584 (Simulation time: 00 hr 07 min 41 sec)
Heartbeat CPU 0 instructions: 130000000 cycles: 34737240 heartbeat IPC: 3.698 cumulative IPC: 3.598 (Simulation time: 00 hr 08 min 19 sec)
Heartbeat CPU 0 instructions: 140000001 cycles: 37445512 heartbeat IPC: 3.692 cumulative IPC: 3.608 (Simulation time: 00 hr 08 min 57 sec)
Heartbeat CPU 0 instructions: 150000003 cycles: 40152804 heartbeat IPC: 3.694 cumulative IPC: 3.616 (Simulation time: 00 hr 09 min 32 sec)
Heartbeat CPU 0 instructions: 160000003 cycles: 42860460 heartbeat IPC: 3.693 cumulative IPC: 3.623 (Simulation time: 00 hr 10 min 11 sec)
Heartbeat CPU 0 instructions: 170000001 cycles: 45565923 heartbeat IPC: 3.696 cumulative IPC: 3.629 (Simulation time: 00 hr 10 min 48 sec)
Heartbeat CPU 0 instructions: 180000001 cycles: 48271705 heartbeat IPC: 3.696 cumulative IPC: 3.634 (Simulation time: 00 hr 11 min 27 sec)
Heartbeat CPU 0 instructions: 190000002 cycles: 50976519 heartbeat IPC: 3.697 cumulative IPC: 3.639 (Simulation time: 00 hr 12 min 09 sec)
Heartbeat CPU 0 instructions: 200000001 cycles: 53686504 heartbeat IPC: 3.69 cumulative IPC: 3.642 (Simulation time: 00 hr 12 min 51 sec)
Heartbeat CPU 0 instructions: 210000000 cycles: 56394198 heartbeat IPC: 3.693 cumulative IPC: 3.645 (Simulation time: 00 hr 13 min 30 sec)
Heartbeat CPU 0 instructions: 220000001 cycles: 59104458 heartbeat IPC: 3.69 cumulative IPC: 3.648 (Simulation time: 00 hr 14 min 09 sec)
Heartbeat CPU 0 instructions: 230000002 cycles: 61814927 heartbeat IPC: 3.689 cumulative IPC: 3.65 (Simulation time: 00 hr 14 min 46 sec)
Heartbeat CPU 0 instructions: 240000004 cycles: 64520988 heartbeat IPC: 3.695 cumulative IPC: 3.652 (Simulation time: 00 hr 15 min 25 sec)
Heartbeat CPU 0 instructions: 250000000 cycles: 67228137 heartbeat IPC: 3.694 cumulative IPC: 3.654 (Simulation time: 00 hr 16 min 10 sec)
Heartbeat CPU 0 instructions: 260000000 cycles: 69935819 heartbeat IPC: 3.693 cumulative IPC: 3.656 (Simulation time: 00 hr 16 min 49 sec)
Heartbeat CPU 0 instructions: 270000002 cycles: 72642800 heartbeat IPC: 3.694 cumulative IPC: 3.658 (Simulation time: 00 hr 17 min 27 sec)
Heartbeat CPU 0 instructions: 280000003 cycles: 75355545 heartbeat IPC: 3.686 cumulative IPC: 3.659 (Simulation time: 00 hr 18 min 04 sec)
Heartbeat CPU 0 instructions: 290000003 cycles: 78063240 heartbeat IPC: 3.693 cumulative IPC: 3.661 (Simulation time: 00 hr 18 min 43 sec)
Heartbeat CPU 0 instructions: 300000000 cycles: 80772612 heartbeat IPC: 3.691 cumulative IPC: 3.662 (Simulation time: 00 hr 19 min 23 sec)
Heartbeat CPU 0 instructions: 310000002 cycles: 83484504 heartbeat IPC: 3.687 cumulative IPC: 3.663 (Simulation time: 00 hr 19 min 58 sec)
Heartbeat CPU 0 instructions: 320000004 cycles: 86193842 heartbeat IPC: 3.691 cumulative IPC: 3.664 (Simulation time: 00 hr 20 min 35 sec)
Heartbeat CPU 0 instructions: 330000000 cycles: 88902838 heartbeat IPC: 3.691 cumulative IPC: 3.665 (Simulation time: 00 hr 21 min 14 sec)
Heartbeat CPU 0 instructions: 340000002 cycles: 91612783 heartbeat IPC: 3.69 cumulative IPC: 3.666 (Simulation time: 00 hr 21 min 51 sec)
Heartbeat CPU 0 instructions: 350000002 cycles: 94319999 heartbeat IPC: 3.694 cumulative IPC: 3.667 (Simulation time: 00 hr 22 min 28 sec)
Heartbeat CPU 0 instructions: 360000001 cycles: 97027553 heartbeat IPC: 3.693 cumulative IPC: 3.667 (Simulation time: 00 hr 23 min 03 sec)
Heartbeat CPU 0 instructions: 370000004 cycles: 99735814 heartbeat IPC: 3.692 cumulative IPC: 3.668 (Simulation time: 00 hr 23 min 39 sec)
Heartbeat CPU 0 instructions: 380000000 cycles: 102445229 heartbeat IPC: 3.691 cumulative IPC: 3.669 (Simulation time: 00 hr 24 min 28 sec)
Heartbeat CPU 0 instructions: 390000004 cycles: 105152704 heartbeat IPC: 3.693 cumulative IPC: 3.67 (Simulation time: 00 hr 25 min 19 sec)
Heartbeat CPU 0 instructions: 400000000 cycles: 107862566 heartbeat IPC: 3.69 cumulative IPC: 3.67 (Simulation time: 00 hr 26 min 10 sec)
Heartbeat CPU 0 instructions: 410000000 cycles: 110571827 heartbeat IPC: 3.691 cumulative IPC: 3.671 (Simulation time: 00 hr 27 min 08 sec)
Heartbeat CPU 0 instructions: 420000001 cycles: 113277497 heartbeat IPC: 3.696 cumulative IPC: 3.671 (Simulation time: 00 hr 27 min 57 sec)
Heartbeat CPU 0 instructions: 430000003 cycles: 115983233 heartbeat IPC: 3.696 cumulative IPC: 3.672 (Simulation time: 00 hr 28 min 51 sec)
Heartbeat CPU 0 instructions: 440000003 cycles: 118696997 heartbeat IPC: 3.685 cumulative IPC: 3.672 (Simulation time: 00 hr 29 min 48 sec)
Heartbeat CPU 0 instructions: 450000004 cycles: 121412488 heartbeat IPC: 3.683 cumulative IPC: 3.673 (Simulation time: 00 hr 30 min 40 sec)
Heartbeat CPU 0 instructions: 460000001 cycles: 124123397 heartbeat IPC: 3.689 cumulative IPC: 3.673 (Simulation time: 00 hr 31 min 30 sec)
Heartbeat CPU 0 instructions: 470000002 cycles: 126831115 heartbeat IPC: 3.693 cumulative IPC: 3.674 (Simulation time: 00 hr 32 min 20 sec)
Heartbeat CPU 0 instructions: 480000001 cycles: 129537430 heartbeat IPC: 3.695 cumulative IPC: 3.674 (Simulation time: 00 hr 33 min 14 sec)
Heartbeat CPU 0 instructions: 490000000 cycles: 132246945 heartbeat IPC: 3.691 cumulative IPC: 3.674 (Simulation time: 00 hr 34 min 03 sec)
Heartbeat CPU 0 instructions: 500000002 cycles: 134961991 heartbeat IPC: 3.683 cumulative IPC: 3.675 (Simulation time: 00 hr 34 min 52 sec)
Heartbeat CPU 0 instructions: 510000003 cycles: 137670151 heartbeat IPC: 3.693 cumulative IPC: 3.675 (Simulation time: 00 hr 35 min 43 sec)
Heartbeat CPU 0 instructions: 520000004 cycles: 140378413 heartbeat IPC: 3.692 cumulative IPC: 3.675 (Simulation time: 00 hr 36 min 32 sec)
Heartbeat CPU 0 instructions: 530000000 cycles: 143089047 heartbeat IPC: 3.689 cumulative IPC: 3.676 (Simulation time: 00 hr 37 min 21 sec)
Heartbeat CPU 0 instructions: 540000000 cycles: 145803631 heartbeat IPC: 3.684 cumulative IPC: 3.676 (Simulation time: 00 hr 38 min 11 sec)
Heartbeat CPU 0 instructions: 550000003 cycles: 148511232 heartbeat IPC: 3.693 cumulative IPC: 3.676 (Simulation time: 00 hr 39 min 00 sec)
Heartbeat CPU 0 instructions: 560000003 cycles: 151221190 heartbeat IPC: 3.69 cumulative IPC: 3.676 (Simulation time: 00 hr 39 min 50 sec)
Heartbeat CPU 0 instructions: 570000004 cycles: 153931906 heartbeat IPC: 3.689 cumulative IPC: 3.677 (Simulation time: 00 hr 40 min 43 sec)
Heartbeat CPU 0 instructions: 580000000 cycles: 156641269 heartbeat IPC: 3.691 cumulative IPC: 3.677 (Simulation time: 00 hr 41 min 32 sec)
Heartbeat CPU 0 instructions: 590000002 cycles: 159349543 heartbeat IPC: 3.692 cumulative IPC: 3.677 (Simulation time: 00 hr 42 min 08 sec)
*** Reached end of trace: (0, "traces/convolution.champsimtrace")
Heartbeat CPU 0 instructions: 600000000 cycles: 162063363 heartbeat IPC: 3.685 cumulative IPC: 3.677 (Simulation time: 00 hr 42 min 44 sec)
Heartbeat CPU 0 instructions: 610000004 cycles: 184482154 heartbeat IPC: 0.4461 cumulative IPC: 3.256 (Simulation time: 00 hr 45 min 33 sec)
Heartbeat CPU 0 instructions: 620000001 cycles: 204416472 heartbeat IPC: 0.5016 cumulative IPC: 2.97 (Simulation time: 00 hr 48 min 14 sec)
Heartbeat CPU 0 instructions: 630000001 cycles: 209073494 heartbeat IPC: 2.147 cumulative IPC: 2.951 (Simulation time: 00 hr 49 min 09 sec)
Heartbeat CPU 0 instructions: 640000004 cycles: 219300744 heartbeat IPC: 0.9778 cumulative IPC: 2.853 (Simulation time: 00 hr 50 min 38 sec)
Heartbeat CPU 0 instructions: 650000001 cycles: 230077521 heartbeat IPC: 0.9279 cumulative IPC: 2.758 (Simulation time: 00 hr 52 min 14 sec)
Simulation finished CPU 0 instructions: 600000001 cycles: 217577319 cumulative IPC: 2.758 (Simulation time: 00 hr 52 min 14 sec)
Simulation complete CPU 0 instructions: 600000001 cycles: 217577319 cumulative IPC: 2.758 (Simulation time: 00 hr 52 min 14 sec)

ChampSim completed all CPUs

=== Simulation ===
CPU 0 runs traces/convolution.champsimtrace
Region of Interest Statistics

CPU 0 cumulative IPC: 2.758 instructions: 600000001 cycles: 217577319
CPU 0 Branch Prediction Accuracy: 99.3% MPKI: 1.265 Average ROB Occupancy at Mispredict: 64.14
Branch type MPKI
BRANCH_DIRECT_JUMP: 0.000107
BRANCH_INDIRECT: 4.17e-05
BRANCH_CONDITIONAL: 1.26
BRANCH_DIRECT_CALL: 0.000103
BRANCH_INDIRECT_CALL: 8.33e-06
BRANCH_RETURN: 1.83e-05

LLC TOTAL        ACCESS:    1185583 HIT:     240910 MISS:     944673
LLC LOAD         ACCESS:       2889 HIT:       1387 MISS:       1502
LLC RFO          ACCESS:     535117 HIT:      29940 MISS:     505177
LLC PREFETCH     ACCESS:       2889 HIT:        991 MISS:       1898
LLC WRITE        ACCESS:     535168 HIT:     177860 MISS:     357308
LLC TRANSLATION  ACCESS:     109520 HIT:      30732 MISS:      78788
LLC PREFETCH REQUESTED:       2889 ISSUED:       2889 USEFUL:       1105 USELESS:        359
LLC AVERAGE MISS LATENCY: 642.2 cycles
cpu0_DTLB TOTAL        ACCESS:  121892259 HIT:  121577858 MISS:     314401
cpu0_DTLB LOAD         ACCESS:  121892259 HIT:  121577858 MISS:     314401
cpu0_DTLB RFO          ACCESS:          0 HIT:          0 MISS:          0
cpu0_DTLB PREFETCH     ACCESS:          0 HIT:          0 MISS:          0
cpu0_DTLB WRITE        ACCESS:          0 HIT:          0 MISS:          0
cpu0_DTLB TRANSLATION  ACCESS:          0 HIT:          0 MISS:          0
cpu0_DTLB PREFETCH REQUESTED:          0 ISSUED:          0 USEFUL:          0 USELESS:          0
cpu0_DTLB AVERAGE MISS LATENCY: 664.4 cycles
cpu0_ITLB TOTAL        ACCESS:       2017 HIT:       1983 MISS:         34
cpu0_ITLB LOAD         ACCESS:       2017 HIT:       1983 MISS:         34
cpu0_ITLB RFO          ACCESS:          0 HIT:          0 MISS:          0
cpu0_ITLB PREFETCH     ACCESS:          0 HIT:          0 MISS:          0
cpu0_ITLB WRITE        ACCESS:          0 HIT:          0 MISS:          0
cpu0_ITLB TRANSLATION  ACCESS:          0 HIT:          0 MISS:          0
cpu0_ITLB PREFETCH REQUESTED:          0 ISSUED:          0 USEFUL:          0 USELESS:          0
cpu0_ITLB AVERAGE MISS LATENCY: 544.6 cycles
cpu0_L1D TOTAL        ACCESS:  162951223 HIT:  156829704 MISS:    6121519
cpu0_L1D LOAD         ACCESS:   90677860 HIT:   90671553 MISS:       6307
cpu0_L1D RFO          ACCESS:          0 HIT:          0 MISS:          0
cpu0_L1D PREFETCH     ACCESS:          0 HIT:          0 MISS:          0
cpu0_L1D WRITE        ACCESS:   72092885 HIT:   66124494 MISS:    5968391
cpu0_L1D TRANSLATION  ACCESS:     180478 HIT:      33657 MISS:     146821
cpu0_L1D PREFETCH REQUESTED:          0 ISSUED:          0 USEFUL:          0 USELESS:          0
cpu0_L1D AVERAGE MISS LATENCY: 78.17 cycles
cpu0_L1I TOTAL        ACCESS:       2334 HIT:       1033 MISS:       1301
cpu0_L1I LOAD         ACCESS:       2334 HIT:       1033 MISS:       1301
cpu0_L1I RFO          ACCESS:          0 HIT:          0 MISS:          0
cpu0_L1I PREFETCH     ACCESS:          0 HIT:          0 MISS:          0
cpu0_L1I WRITE        ACCESS:          0 HIT:          0 MISS:          0
cpu0_L1I TRANSLATION  ACCESS:          0 HIT:          0 MISS:          0
cpu0_L1I PREFETCH REQUESTED:          0 ISSUED:          0 USEFUL:          0 USELESS:          0
cpu0_L1I AVERAGE MISS LATENCY: 482.9 cycles
cpu0_L2C TOTAL        ACCESS:    1190379 HIT:     542834 MISS:     647545
cpu0_L2C LOAD         ACCESS:       3313 HIT:        424 MISS:       2889
cpu0_L2C RFO          ACCESS:     537994 HIT:       2877 MISS:     535117
cpu0_L2C PREFETCH     ACCESS:          0 HIT:          0 MISS:          0
cpu0_L2C WRITE        ACCESS:     538206 HIT:     538188 MISS:         18
cpu0_L2C TRANSLATION  ACCESS:     110866 HIT:       1345 MISS:     109521
cpu0_L2C PREFETCH REQUESTED:          0 ISSUED:          0 USEFUL:          0 USELESS:          0
cpu0_L2C AVERAGE MISS LATENCY: 956 cycles
cpu0_STLB TOTAL        ACCESS:     156158 HIT:         46 MISS:     156112
cpu0_STLB LOAD         ACCESS:     156158 HIT:         46 MISS:     156112
cpu0_STLB RFO          ACCESS:          0 HIT:          0 MISS:          0
cpu0_STLB PREFETCH     ACCESS:          0 HIT:          0 MISS:          0
cpu0_STLB WRITE        ACCESS:          0 HIT:          0 MISS:          0
cpu0_STLB TRANSLATION  ACCESS:          0 HIT:          0 MISS:          0
cpu0_STLB PREFETCH REQUESTED:          0 ISSUED:          0 USEFUL:          0 USELESS:          0
cpu0_STLB AVERAGE MISS LATENCY: 1483 cycles

DRAM Statistics

Channel 0 RQ ROW_BUFFER_HIT:     128619
  ROW_BUFFER_MISS:     457795
 AVG DBUS CONGESTED CYCLE: 3.977
WQ ROW_BUFFER_HIT: Channel 0 
  ROW_BUFFER_MISS:     113350
  FULL:     391750
