WARNING: physical memory size is smaller than virtual memory size.

*** ChampSim Multicore Out-of-Order Simulator ***
Warmup Instructions: 50000000
Simulation Instructions: 600000000
Number of CPUs: 1
Page size: 4096

Off-chip DRAM Size: 4 GiB Channels: 1 Width: 64-bit Data Race: 3200 MT/s
Heartbeat CPU 0 instructions: 10000000 cycles: 2500202 heartbeat IPC: 4 cumulative IPC: 4 (Simulation time: 00 hr 00 min 35 sec)
Heartbeat CPU 0 instructions: 20000000 cycles: 5000202 heartbeat IPC: 4 cumulative IPC: 4 (Simulation time: 00 hr 01 min 09 sec)
Heartbeat CPU 0 instructions: 30000000 cycles: 7500202 heartbeat IPC: 4 cumulative IPC: 4 (Simulation time: 00 hr 01 min 44 sec)
Heartbeat CPU 0 instructions: 40000000 cycles: 10000202 heartbeat IPC: 4 cumulative IPC: 4 (Simulation time: 00 hr 02 min 15 sec)
Heartbeat CPU 0 instructions: 50000000 cycles: 12500202 heartbeat IPC: 4 cumulative IPC: 4 (Simulation time: 00 hr 02 min 46 sec)
Warmup finished CPU 0 instructions: 50000000 cycles: 12500203 cumulative IPC: 4 (Simulation time: 00 hr 02 min 46 sec)
Warmup complete CPU 0 instructions: 50000000 cycles: 12500203 cumulative IPC: 4 (Simulation time: 00 hr 02 min 46 sec)
Heartbeat CPU 0 instructions: 60000002 cycles: 15732079 heartbeat IPC: 3.094 cumulative IPC: 3.094 (Simulation time: 00 hr 03 min 27 sec)
Heartbeat CPU 0 instructions: 70000002 cycles: 18386774 heartbeat IPC: 3.767 cumulative IPC: 3.398 (Simulation time: 00 hr 04 min 02 sec)
Heartbeat CPU 0 instructions: 80000003 cycles: 21047614 heartbeat IPC: 3.758 cumulative IPC: 3.51 (Simulation time: 00 hr 04 min 40 sec)
Heartbeat CPU 0 instructions: 90000004 cycles: 23706798 heartbeat IPC: 3.761 cumulative IPC: 3.569 (Simulation time: 00 hr 05 min 19 sec)
Heartbeat CPU 0 instructions: 100000003 cycles: 26364941 heartbeat IPC: 3.762 cumulative IPC: 3.606 (Simulation time: 00 hr 05 min 59 sec)
Heartbeat CPU 0 instructions: 110000000 cycles: 29021053 heartbeat IPC: 3.765 cumulative IPC: 3.632 (Simulation time: 00 hr 06 min 34 sec)
Heartbeat CPU 0 instructions: 120000000 cycles: 31680432 heartbeat IPC: 3.76 cumulative IPC: 3.65 (Simulation time: 00 hr 07 min 13 sec)
Heartbeat CPU 0 instructions: 130000000 cycles: 34337127 heartbeat IPC: 3.764 cumulative IPC: 3.664 (Simulation time: 00 hr 07 min 49 sec)
Heartbeat CPU 0 instructions: 140000001 cycles: 36995240 heartbeat IPC: 3.762 cumulative IPC: 3.674 (Simulation time: 00 hr 08 min 28 sec)
Heartbeat CPU 0 instructions: 150000003 cycles: 39651944 heartbeat IPC: 3.764 cumulative IPC: 3.683 (Simulation time: 00 hr 09 min 06 sec)
Heartbeat CPU 0 instructions: 160000003 cycles: 42307454 heartbeat IPC: 3.766 cumulative IPC: 3.69 (Simulation time: 00 hr 09 min 44 sec)
Heartbeat CPU 0 instructions: 170000001 cycles: 44962932 heartbeat IPC: 3.766 cumulative IPC: 3.697 (Simulation time: 00 hr 10 min 23 sec)
Heartbeat CPU 0 instructions: 180000001 cycles: 47618081 heartbeat IPC: 3.766 cumulative IPC: 3.702 (Simulation time: 00 hr 11 min 02 sec)
Heartbeat CPU 0 instructions: 190000002 cycles: 50272107 heartbeat IPC: 3.768 cumulative IPC: 3.706 (Simulation time: 00 hr 11 min 37 sec)
Heartbeat CPU 0 instructions: 200000001 cycles: 52928157 heartbeat IPC: 3.765 cumulative IPC: 3.71 (Simulation time: 00 hr 12 min 12 sec)
Heartbeat CPU 0 instructions: 210000000 cycles: 55583554 heartbeat IPC: 3.766 cumulative IPC: 3.714 (Simulation time: 00 hr 12 min 51 sec)
Heartbeat CPU 0 instructions: 220000001 cycles: 58244784 heartbeat IPC: 3.758 cumulative IPC: 3.716 (Simulation time: 00 hr 13 min 28 sec)
Heartbeat CPU 0 instructions: 230000002 cycles: 60906814 heartbeat IPC: 3.757 cumulative IPC: 3.719 (Simulation time: 00 hr 14 min 04 sec)
Heartbeat CPU 0 instructions: 240000004 cycles: 63562032 heartbeat IPC: 3.766 cumulative IPC: 3.721 (Simulation time: 00 hr 14 min 44 sec)
Heartbeat CPU 0 instructions: 250000000 cycles: 66225315 heartbeat IPC: 3.755 cumulative IPC: 3.723 (Simulation time: 00 hr 15 min 21 sec)
Heartbeat CPU 0 instructions: 260000000 cycles: 68880203 heartbeat IPC: 3.767 cumulative IPC: 3.725 (Simulation time: 00 hr 16 min 02 sec)
Heartbeat CPU 0 instructions: 270000002 cycles: 71536325 heartbeat IPC: 3.765 cumulative IPC: 3.727 (Simulation time: 00 hr 16 min 44 sec)
Heartbeat CPU 0 instructions: 280000003 cycles: 74196261 heartbeat IPC: 3.759 cumulative IPC: 3.728 (Simulation time: 00 hr 17 min 22 sec)
Heartbeat CPU 0 instructions: 290000002 cycles: 76850665 heartbeat IPC: 3.767 cumulative IPC: 3.73 (Simulation time: 00 hr 17 min 59 sec)
Heartbeat CPU 0 instructions: 300000000 cycles: 79512331 heartbeat IPC: 3.757 cumulative IPC: 3.731 (Simulation time: 00 hr 18 min 40 sec)
Heartbeat CPU 0 instructions: 310000002 cycles: 82170359 heartbeat IPC: 3.762 cumulative IPC: 3.732 (Simulation time: 00 hr 19 min 23 sec)
Heartbeat CPU 0 instructions: 320000004 cycles: 84829132 heartbeat IPC: 3.761 cumulative IPC: 3.733 (Simulation time: 00 hr 20 min 05 sec)
Heartbeat CPU 0 instructions: 330000000 cycles: 87487452 heartbeat IPC: 3.762 cumulative IPC: 3.734 (Simulation time: 00 hr 20 min 41 sec)
Heartbeat CPU 0 instructions: 340000002 cycles: 90145326 heartbeat IPC: 3.762 cumulative IPC: 3.735 (Simulation time: 00 hr 21 min 18 sec)
Heartbeat CPU 0 instructions: 350000002 cycles: 92801626 heartbeat IPC: 3.765 cumulative IPC: 3.736 (Simulation time: 00 hr 21 min 57 sec)
Heartbeat CPU 0 instructions: 360000001 cycles: 95459788 heartbeat IPC: 3.762 cumulative IPC: 3.737 (Simulation time: 00 hr 22 min 33 sec)
Heartbeat CPU 0 instructions: 370000004 cycles: 98115905 heartbeat IPC: 3.765 cumulative IPC: 3.738 (Simulation time: 00 hr 23 min 07 sec)
Heartbeat CPU 0 instructions: 380000000 cycles: 100774146 heartbeat IPC: 3.762 cumulative IPC: 3.738 (Simulation time: 00 hr 23 min 41 sec)
Heartbeat CPU 0 instructions: 390000003 cycles: 103428140 heartbeat IPC: 3.768 cumulative IPC: 3.739 (Simulation time: 00 hr 24 min 16 sec)
Heartbeat CPU 0 instructions: 400000000 cycles: 106085829 heartbeat IPC: 3.763 cumulative IPC: 3.74 (Simulation time: 00 hr 24 min 51 sec)
Heartbeat CPU 0 instructions: 410000000 cycles: 108744130 heartbeat IPC: 3.762 cumulative IPC: 3.74 (Simulation time: 00 hr 25 min 26 sec)
Heartbeat CPU 0 instructions: 420000001 cycles: 111399776 heartbeat IPC: 3.766 cumulative IPC: 3.741 (Simulation time: 00 hr 26 min 01 sec)
Heartbeat CPU 0 instructions: 430000003 cycles: 114057308 heartbeat IPC: 3.763 cumulative IPC: 3.742 (Simulation time: 00 hr 26 min 35 sec)
Heartbeat CPU 0 instructions: 440000003 cycles: 116716192 heartbeat IPC: 3.761 cumulative IPC: 3.742 (Simulation time: 00 hr 27 min 08 sec)
Heartbeat CPU 0 instructions: 450000004 cycles: 119379322 heartbeat IPC: 3.755 cumulative IPC: 3.743 (Simulation time: 00 hr 27 min 43 sec)
Heartbeat CPU 0 instructions: 460000001 cycles: 122042373 heartbeat IPC: 3.755 cumulative IPC: 3.743 (Simulation time: 00 hr 28 min 20 sec)
Heartbeat CPU 0 instructions: 470000002 cycles: 124698149 heartbeat IPC: 3.765 cumulative IPC: 3.743 (Simulation time: 00 hr 28 min 57 sec)
Heartbeat CPU 0 instructions: 480000001 cycles: 127358046 heartbeat IPC: 3.76 cumulative IPC: 3.744 (Simulation time: 00 hr 29 min 41 sec)
Heartbeat CPU 0 instructions: 490000000 cycles: 130020232 heartbeat IPC: 3.756 cumulative IPC: 3.744 (Simulation time: 00 hr 30 min 20 sec)
Heartbeat CPU 0 instructions: 500000002 cycles: 132686130 heartbeat IPC: 3.751 cumulative IPC: 3.744 (Simulation time: 00 hr 30 min 58 sec)
Heartbeat CPU 0 instructions: 510000003 cycles: 135343327 heartbeat IPC: 3.763 cumulative IPC: 3.745 (Simulation time: 00 hr 31 min 37 sec)
Heartbeat CPU 0 instructions: 520000004 cycles: 137998533 heartbeat IPC: 3.766 cumulative IPC: 3.745 (Simulation time: 00 hr 32 min 48 sec)
Heartbeat CPU 0 instructions: 530000000 cycles: 140656169 heartbeat IPC: 3.763 cumulative IPC: 3.745 (Simulation time: 00 hr 33 min 58 sec)
Heartbeat CPU 0 instructions: 540000000 cycles: 143314358 heartbeat IPC: 3.762 cumulative IPC: 3.746 (Simulation time: 00 hr 35 min 15 sec)
Heartbeat CPU 0 instructions: 550000003 cycles: 145971167 heartbeat IPC: 3.764 cumulative IPC: 3.746 (Simulation time: 00 hr 36 min 39 sec)
Heartbeat CPU 0 instructions: 560000003 cycles: 148629148 heartbeat IPC: 3.762 cumulative IPC: 3.746 (Simulation time: 00 hr 37 min 59 sec)
Heartbeat CPU 0 instructions: 570000004 cycles: 151284804 heartbeat IPC: 3.766 cumulative IPC: 3.747 (Simulation time: 00 hr 39 min 17 sec)
Heartbeat CPU 0 instructions: 580000000 cycles: 153939802 heartbeat IPC: 3.766 cumulative IPC: 3.747 (Simulation time: 00 hr 40 min 39 sec)
Heartbeat CPU 0 instructions: 590000002 cycles: 156600319 heartbeat IPC: 3.759 cumulative IPC: 3.747 (Simulation time: 00 hr 41 min 51 sec)
*** Reached end of trace: (0, "traces/convolution.champsimtrace")
Heartbeat CPU 0 instructions: 600000000 cycles: 159259088 heartbeat IPC: 3.761 cumulative IPC: 3.748 (Simulation time: 00 hr 43 min 04 sec)
Heartbeat CPU 0 instructions: 610000002 cycles: 181676829 heartbeat IPC: 0.4461 cumulative IPC: 3.31 (Simulation time: 00 hr 49 min 24 sec)
Heartbeat CPU 0 instructions: 620000001 cycles: 201570898 heartbeat IPC: 0.5027 cumulative IPC: 3.015 (Simulation time: 00 hr 55 min 03 sec)
Heartbeat CPU 0 instructions: 630000001 cycles: 206250125 heartbeat IPC: 2.137 cumulative IPC: 2.994 (Simulation time: 00 hr 56 min 57 sec)
Heartbeat CPU 0 instructions: 640000004 cycles: 216486067 heartbeat IPC: 0.9769 cumulative IPC: 2.892 (Simulation time: 01 hr 00 min 15 sec)
Heartbeat CPU 0 instructions: 650000001 cycles: 227260180 heartbeat IPC: 0.9282 cumulative IPC: 2.794 (Simulation time: 01 hr 04 min 41 sec)
Simulation finished CPU 0 instructions: 600000001 cycles: 214759978 cumulative IPC: 2.794 (Simulation time: 01 hr 04 min 41 sec)
Simulation complete CPU 0 instructions: 600000001 cycles: 214759978 cumulative IPC: 2.794 (Simulation time: 01 hr 04 min 41 sec)

ChampSim completed all CPUs

=== Simulation ===
CPU 0 runs traces/convolution.champsimtrace
Region of Interest Statistics

CPU 0 cumulative IPC: 2.794 instructions: 600000001 cycles: 214759978
CPU 0 Branch Prediction Accuracy: 99.47% MPKI: 0.9507 Average ROB Occupancy at Mispredict: 69.2
Branch type MPKI
BRANCH_DIRECT_JUMP: 0.000107
BRANCH_INDIRECT: 4.17e-05
BRANCH_CONDITIONAL: 0.95
BRANCH_DIRECT_CALL: 0.000103
BRANCH_INDIRECT_CALL: 8.33e-06
BRANCH_RETURN: 1.83e-05

LLC TOTAL        ACCESS:    1184757 HIT:     241100 MISS:     943657
LLC LOAD         ACCESS:       2888 HIT:       1105 MISS:       1783
LLC RFO          ACCESS:     535120 HIT:      30844 MISS:     504276
LLC PREFETCH     ACCESS:       2070 HIT:       1188 MISS:        882
LLC WRITE        ACCESS:     535172 HIT:     177328 MISS:     357844
LLC TRANSLATION  ACCESS:     109507 HIT:      30635 MISS:      78872
LLC PREFETCH REQUESTED:       2070 ISSUED:       2070 USEFUL:        472 USELESS:         25
LLC AVERAGE MISS LATENCY: 643.5 cycles
cpu0_DTLB TOTAL        ACCESS:  120374439 HIT:  120059300 MISS:     315139
cpu0_DTLB LOAD         ACCESS:  120374439 HIT:  120059300 MISS:     315139
cpu0_DTLB RFO          ACCESS:          0 HIT:          0 MISS:          0
cpu0_DTLB PREFETCH     ACCESS:          0 HIT:          0 MISS:          0
cpu0_DTLB WRITE        ACCESS:          0 HIT:          0 MISS:          0
cpu0_DTLB TRANSLATION  ACCESS:          0 HIT:          0 MISS:          0
cpu0_DTLB PREFETCH REQUESTED:          0 ISSUED:          0 USEFUL:          0 USELESS:          0
cpu0_DTLB AVERAGE MISS LATENCY: 661.3 cycles
cpu0_ITLB TOTAL        ACCESS:       2016 HIT:       1985 MISS:         31
cpu0_ITLB LOAD         ACCESS:       2016 HIT:       1985 MISS:         31
cpu0_ITLB RFO          ACCESS:          0 HIT:          0 MISS:          0
cpu0_ITLB PREFETCH     ACCESS:          0 HIT:          0 MISS:          0
cpu0_ITLB WRITE        ACCESS:          0 HIT:          0 MISS:          0
cpu0_ITLB TRANSLATION  ACCESS:          0 HIT:          0 MISS:          0
cpu0_ITLB PREFETCH REQUESTED:          0 ISSUED:          0 USEFUL:          0 USELESS:          0
cpu0_ITLB AVERAGE MISS LATENCY: 662.5 cycles
cpu0_L1D TOTAL        ACCESS:  161411501 HIT:  155291054 MISS:    6120447
cpu0_L1D LOAD         ACCESS:   89139146 HIT:   89133070 MISS:       6076
cpu0_L1D RFO          ACCESS:          0 HIT:          0 MISS:          0
cpu0_L1D PREFETCH     ACCESS:          0 HIT:          0 MISS:          0
cpu0_L1D WRITE        ACCESS:   72091889 HIT:   66124350 MISS:    5967539
cpu0_L1D TRANSLATION  ACCESS:     180466 HIT:      33634 MISS:     146832
cpu0_L1D PREFETCH REQUESTED:          0 ISSUED:          0 USEFUL:          0 USELESS:          0
cpu0_L1D AVERAGE MISS LATENCY: 78.99 cycles
cpu0_L1I TOTAL        ACCESS:       2314 HIT:       1013 MISS:       1301
cpu0_L1I LOAD         ACCESS:       2314 HIT:       1013 MISS:       1301
cpu0_L1I RFO          ACCESS:          0 HIT:          0 MISS:          0
cpu0_L1I PREFETCH     ACCESS:          0 HIT:          0 MISS:          0
cpu0_L1I WRITE        ACCESS:          0 HIT:          0 MISS:          0
cpu0_L1I TRANSLATION  ACCESS:          0 HIT:          0 MISS:          0
cpu0_L1I PREFETCH REQUESTED:          0 ISSUED:          0 USEFUL:          0 USELESS:          0
cpu0_L1I AVERAGE MISS LATENCY: 534.2 cycles
cpu0_L2C TOTAL        ACCESS:    1190377 HIT:     542843 MISS:     647534
cpu0_L2C LOAD         ACCESS:       3314 HIT:        426 MISS:       2888
cpu0_L2C RFO          ACCESS:     538010 HIT:       2890 MISS:     535120
cpu0_L2C PREFETCH     ACCESS:          0 HIT:          0 MISS:          0
cpu0_L2C WRITE        ACCESS:     538208 HIT:     538190 MISS:         18
cpu0_L2C TRANSLATION  ACCESS:     110845 HIT:       1337 MISS:     109508
cpu0_L2C PREFETCH REQUESTED:          0 ISSUED:          0 USEFUL:          0 USELESS:          0
cpu0_L2C AVERAGE MISS LATENCY: 958.1 cycles
cpu0_STLB TOTAL        ACCESS:     156161 HIT:         53 MISS:     156108
cpu0_STLB LOAD         ACCESS:     156161 HIT:         53 MISS:     156108
cpu0_STLB RFO          ACCESS:          0 HIT:          0 MISS:          0
cpu0_STLB PREFETCH     ACCESS:          0 HIT:          0 MISS:          0
cpu0_STLB WRITE        ACCESS:          0 HIT:          0 MISS:          0
cpu0_STLB TRANSLATION  ACCESS:          0 HIT:          0 MISS:          0
cpu0_STLB PREFETCH REQUESTED:          0 ISSUED:          0 USEFUL:          0 USELESS:          0
cpu0_STLB AVERAGE MISS LATENCY: 1479 cycles

DRAM Statistics

Channel 0 RQ ROW_BUFFER_HIT:     128697
  ROW_BUFFER_MISS:     456573
 AVG DBUS CONGESTED CYCLE: 3.977
WQ ROW_BUFFER_HIT: Channel 0 
  ROW_BUFFER_MISS:     113720
  FULL:     390556
