WARNING: physical memory size is smaller than virtual memory size.

*** ChampSim Multicore Out-of-Order Simulator ***
Warmup Instructions: 50000000
Simulation Instructions: 600000000
Number of CPUs: 1
Page size: 4096

Off-chip DRAM Size: 4 GiB Channels: 1 Width: 64-bit Data Race: 3200 MT/s
Heartbeat CPU 0 instructions: 10000000 cycles: 2500202 heartbeat IPC: 4 cumulative IPC: 4 (Simulation time: 00 hr 00 min 27 sec)
Heartbeat CPU 0 instructions: 20000000 cycles: 5000202 heartbeat IPC: 4 cumulative IPC: 4 (Simulation time: 00 hr 00 min 54 sec)
Heartbeat CPU 0 instructions: 30000000 cycles: 7500202 heartbeat IPC: 4 cumulative IPC: 4 (Simulation time: 00 hr 01 min 24 sec)
Heartbeat CPU 0 instructions: 40000000 cycles: 10000202 heartbeat IPC: 4 cumulative IPC: 4 (Simulation time: 00 hr 01 min 55 sec)
Heartbeat CPU 0 instructions: 50000000 cycles: 12500202 heartbeat IPC: 4 cumulative IPC: 4 (Simulation time: 00 hr 02 min 27 sec)
Warmup finished CPU 0 instructions: 50000000 cycles: 12500203 cumulative IPC: 4 (Simulation time: 00 hr 02 min 27 sec)
Warmup complete CPU 0 instructions: 50000000 cycles: 12500203 cumulative IPC: 4 (Simulation time: 00 hr 02 min 27 sec)
Heartbeat CPU 0 instructions: 60000002 cycles: 15786913 heartbeat IPC: 3.043 cumulative IPC: 3.043 (Simulation time: 00 hr 03 min 08 sec)
Heartbeat CPU 0 instructions: 70000002 cycles: 18492041 heartbeat IPC: 3.697 cumulative IPC: 3.338 (Simulation time: 00 hr 03 min 45 sec)
Heartbeat CPU 0 instructions: 80000003 cycles: 21195638 heartbeat IPC: 3.699 cumulative IPC: 3.45 (Simulation time: 00 hr 04 min 27 sec)
Heartbeat CPU 0 instructions: 90000004 cycles: 23899201 heartbeat IPC: 3.699 cumulative IPC: 3.509 (Simulation time: 00 hr 05 min 06 sec)
Heartbeat CPU 0 instructions: 100000003 cycles: 26605200 heartbeat IPC: 3.695 cumulative IPC: 3.545 (Simulation time: 00 hr 05 min 46 sec)
Heartbeat CPU 0 instructions: 110000000 cycles: 29309133 heartbeat IPC: 3.698 cumulative IPC: 3.57 (Simulation time: 00 hr 06 min 26 sec)
Heartbeat CPU 0 instructions: 120000000 cycles: 32012487 heartbeat IPC: 3.699 cumulative IPC: 3.587 (Simulation time: 00 hr 07 min 06 sec)
Heartbeat CPU 0 instructions: 130000000 cycles: 34716108 heartbeat IPC: 3.699 cumulative IPC: 3.601 (Simulation time: 00 hr 07 min 43 sec)
Heartbeat CPU 0 instructions: 140000001 cycles: 37419657 heartbeat IPC: 3.699 cumulative IPC: 3.612 (Simulation time: 00 hr 08 min 20 sec)
Heartbeat CPU 0 instructions: 150000003 cycles: 40123241 heartbeat IPC: 3.699 cumulative IPC: 3.62 (Simulation time: 00 hr 08 min 57 sec)
Heartbeat CPU 0 instructions: 160000003 cycles: 42828932 heartbeat IPC: 3.696 cumulative IPC: 3.627 (Simulation time: 00 hr 09 min 36 sec)
Heartbeat CPU 0 instructions: 170000001 cycles: 45532194 heartbeat IPC: 3.699 cumulative IPC: 3.633 (Simulation time: 00 hr 10 min 14 sec)
Heartbeat CPU 0 instructions: 180000001 cycles: 48235767 heartbeat IPC: 3.699 cumulative IPC: 3.638 (Simulation time: 00 hr 10 min 53 sec)
Heartbeat CPU 0 instructions: 190000002 cycles: 50940125 heartbeat IPC: 3.698 cumulative IPC: 3.642 (Simulation time: 00 hr 11 min 32 sec)
Heartbeat CPU 0 instructions: 200000001 cycles: 53643711 heartbeat IPC: 3.699 cumulative IPC: 3.646 (Simulation time: 00 hr 12 min 09 sec)
Heartbeat CPU 0 instructions: 210000000 cycles: 56350291 heartbeat IPC: 3.695 cumulative IPC: 3.649 (Simulation time: 00 hr 12 min 45 sec)
Heartbeat CPU 0 instructions: 220000001 cycles: 59053648 heartbeat IPC: 3.699 cumulative IPC: 3.652 (Simulation time: 00 hr 13 min 23 sec)
Heartbeat CPU 0 instructions: 230000002 cycles: 61757270 heartbeat IPC: 3.699 cumulative IPC: 3.654 (Simulation time: 00 hr 13 min 59 sec)
Heartbeat CPU 0 instructions: 240000004 cycles: 64460903 heartbeat IPC: 3.699 cumulative IPC: 3.657 (Simulation time: 00 hr 14 min 35 sec)
Heartbeat CPU 0 instructions: 250000000 cycles: 67166631 heartbeat IPC: 3.696 cumulative IPC: 3.659 (Simulation time: 00 hr 15 min 12 sec)
Heartbeat CPU 0 instructions: 260000000 cycles: 69870237 heartbeat IPC: 3.699 cumulative IPC: 3.66 (Simulation time: 00 hr 15 min 49 sec)
Heartbeat CPU 0 instructions: 270000002 cycles: 72573600 heartbeat IPC: 3.699 cumulative IPC: 3.662 (Simulation time: 00 hr 16 min 26 sec)
Heartbeat CPU 0 instructions: 280000003 cycles: 75277225 heartbeat IPC: 3.699 cumulative IPC: 3.664 (Simulation time: 00 hr 17 min 02 sec)
Heartbeat CPU 0 instructions: 290000003 cycles: 77980880 heartbeat IPC: 3.699 cumulative IPC: 3.665 (Simulation time: 00 hr 17 min 39 sec)
Heartbeat CPU 0 instructions: 300000000 cycles: 80687054 heartbeat IPC: 3.695 cumulative IPC: 3.666 (Simulation time: 00 hr 18 min 15 sec)
Heartbeat CPU 0 instructions: 310000002 cycles: 83390301 heartbeat IPC: 3.699 cumulative IPC: 3.668 (Simulation time: 00 hr 18 min 54 sec)
Heartbeat CPU 0 instructions: 320000004 cycles: 86093678 heartbeat IPC: 3.699 cumulative IPC: 3.669 (Simulation time: 00 hr 19 min 31 sec)
Heartbeat CPU 0 instructions: 330000000 cycles: 88797288 heartbeat IPC: 3.699 cumulative IPC: 3.67 (Simulation time: 00 hr 20 min 11 sec)
Heartbeat CPU 0 instructions: 340000002 cycles: 91501382 heartbeat IPC: 3.698 cumulative IPC: 3.671 (Simulation time: 00 hr 20 min 50 sec)
Heartbeat CPU 0 instructions: 350000002 cycles: 94204827 heartbeat IPC: 3.699 cumulative IPC: 3.672 (Simulation time: 00 hr 21 min 30 sec)
Heartbeat CPU 0 instructions: 360000001 cycles: 96910498 heartbeat IPC: 3.696 cumulative IPC: 3.673 (Simulation time: 00 hr 22 min 09 sec)
Heartbeat CPU 0 instructions: 370000004 cycles: 99613847 heartbeat IPC: 3.699 cumulative IPC: 3.673 (Simulation time: 00 hr 22 min 48 sec)
Heartbeat CPU 0 instructions: 380000000 cycles: 102317415 heartbeat IPC: 3.699 cumulative IPC: 3.674 (Simulation time: 00 hr 23 min 26 sec)
Heartbeat CPU 0 instructions: 390000004 cycles: 105021135 heartbeat IPC: 3.699 cumulative IPC: 3.675 (Simulation time: 00 hr 24 min 05 sec)
Heartbeat CPU 0 instructions: 400000000 cycles: 107726515 heartbeat IPC: 3.696 cumulative IPC: 3.675 (Simulation time: 00 hr 24 min 45 sec)
Heartbeat CPU 0 instructions: 410000000 cycles: 110430173 heartbeat IPC: 3.699 cumulative IPC: 3.676 (Simulation time: 00 hr 25 min 20 sec)
Heartbeat CPU 0 instructions: 420000001 cycles: 113133619 heartbeat IPC: 3.699 cumulative IPC: 3.677 (Simulation time: 00 hr 25 min 58 sec)
Heartbeat CPU 0 instructions: 430000003 cycles: 115837327 heartbeat IPC: 3.699 cumulative IPC: 3.677 (Simulation time: 00 hr 26 min 41 sec)
Heartbeat CPU 0 instructions: 440000003 cycles: 118541020 heartbeat IPC: 3.699 cumulative IPC: 3.678 (Simulation time: 00 hr 27 min 24 sec)
Heartbeat CPU 0 instructions: 450000004 cycles: 121246668 heartbeat IPC: 3.696 cumulative IPC: 3.678 (Simulation time: 00 hr 28 min 08 sec)
Heartbeat CPU 0 instructions: 460000001 cycles: 123950025 heartbeat IPC: 3.699 cumulative IPC: 3.679 (Simulation time: 00 hr 28 min 49 sec)
Heartbeat CPU 0 instructions: 470000002 cycles: 126653501 heartbeat IPC: 3.699 cumulative IPC: 3.679 (Simulation time: 00 hr 29 min 26 sec)
Heartbeat CPU 0 instructions: 480000001 cycles: 129357250 heartbeat IPC: 3.699 cumulative IPC: 3.68 (Simulation time: 00 hr 30 min 07 sec)
Heartbeat CPU 0 instructions: 490000000 cycles: 132061292 heartbeat IPC: 3.698 cumulative IPC: 3.68 (Simulation time: 00 hr 30 min 45 sec)
Heartbeat CPU 0 instructions: 500000002 cycles: 134767116 heartbeat IPC: 3.696 cumulative IPC: 3.68 (Simulation time: 00 hr 31 min 25 sec)
Heartbeat CPU 0 instructions: 510000003 cycles: 137470441 heartbeat IPC: 3.699 cumulative IPC: 3.681 (Simulation time: 00 hr 32 min 04 sec)
Heartbeat CPU 0 instructions: 520000004 cycles: 140173913 heartbeat IPC: 3.699 cumulative IPC: 3.681 (Simulation time: 00 hr 32 min 41 sec)
Heartbeat CPU 0 instructions: 530000000 cycles: 142877570 heartbeat IPC: 3.699 cumulative IPC: 3.682 (Simulation time: 00 hr 33 min 20 sec)
Heartbeat CPU 0 instructions: 540000000 cycles: 145583321 heartbeat IPC: 3.696 cumulative IPC: 3.682 (Simulation time: 00 hr 33 min 59 sec)
Heartbeat CPU 0 instructions: 550000003 cycles: 148286705 heartbeat IPC: 3.699 cumulative IPC: 3.682 (Simulation time: 00 hr 34 min 34 sec)
Heartbeat CPU 0 instructions: 560000003 cycles: 150990495 heartbeat IPC: 3.699 cumulative IPC: 3.683 (Simulation time: 00 hr 35 min 09 sec)
Heartbeat CPU 0 instructions: 570000004 cycles: 153693834 heartbeat IPC: 3.699 cumulative IPC: 3.683 (Simulation time: 00 hr 35 min 45 sec)
Heartbeat CPU 0 instructions: 580000000 cycles: 156397538 heartbeat IPC: 3.699 cumulative IPC: 3.683 (Simulation time: 00 hr 36 min 22 sec)
Heartbeat CPU 0 instructions: 590000002 cycles: 159101121 heartbeat IPC: 3.699 cumulative IPC: 3.683 (Simulation time: 00 hr 36 min 58 sec)
*** Reached end of trace: (0, "traces/convolution.champsimtrace")
Heartbeat CPU 0 instructions: 600000000 cycles: 161813780 heartbeat IPC: 3.686 cumulative IPC: 3.684 (Simulation time: 00 hr 37 min 35 sec)
Heartbeat CPU 0 instructions: 610000002 cycles: 186287335 heartbeat IPC: 0.4086 cumulative IPC: 3.222 (Simulation time: 00 hr 40 min 56 sec)
Heartbeat CPU 0 instructions: 620000001 cycles: 207868494 heartbeat IPC: 0.4634 cumulative IPC: 2.918 (Simulation time: 00 hr 43 min 55 sec)
Heartbeat CPU 0 instructions: 630000001 cycles: 220474701 heartbeat IPC: 0.7933 cumulative IPC: 2.789 (Simulation time: 00 hr 45 min 47 sec)
Heartbeat CPU 0 instructions: 640000004 cycles: 231086143 heartbeat IPC: 0.9424 cumulative IPC: 2.699 (Simulation time: 00 hr 47 min 25 sec)
Heartbeat CPU 0 instructions: 650000001 cycles: 241538060 heartbeat IPC: 0.9568 cumulative IPC: 2.62 (Simulation time: 00 hr 49 min 04 sec)
Simulation finished CPU 0 instructions: 600000001 cycles: 229037858 cumulative IPC: 2.62 (Simulation time: 00 hr 49 min 04 sec)
Simulation complete CPU 0 instructions: 600000001 cycles: 229037858 cumulative IPC: 2.62 (Simulation time: 00 hr 49 min 04 sec)

ChampSim completed all CPUs

=== Simulation ===
CPU 0 runs traces/convolution.champsimtrace
Region of Interest Statistics

CPU 0 cumulative IPC: 2.62 instructions: 600000001 cycles: 229037858
CPU 0 Branch Prediction Accuracy: 99.3% MPKI: 1.265 Average ROB Occupancy at Mispredict: 63.99
Branch type MPKI
BRANCH_DIRECT_JUMP: 0.000107
BRANCH_INDIRECT: 4.17e-05
BRANCH_CONDITIONAL: 1.26
BRANCH_DIRECT_CALL: 0.000103
BRANCH_INDIRECT_CALL: 8.33e-06
BRANCH_RETURN: 1.83e-05

LLC TOTAL        ACCESS:    1183009 HIT:     535870 MISS:     647139
LLC LOAD         ACCESS:       2887 HIT:          6 MISS:       2881
LLC RFO          ACCESS:     535120 HIT:         63 MISS:     535057
LLC PREFETCH     ACCESS:          0 HIT:          0 MISS:          0
LLC WRITE        ACCESS:     535169 HIT:     535147 MISS:         22
LLC TRANSLATION  ACCESS:     109833 HIT:        654 MISS:     109179
LLC PREFETCH REQUESTED:          0 ISSUED:          0 USEFUL:          0 USELESS:          0
LLC AVERAGE MISS LATENCY: 1013 cycles
cpu0_DTLB TOTAL        ACCESS:  121555030 HIT:  121201590 MISS:     353440
cpu0_DTLB LOAD         ACCESS:  121555030 HIT:  121201590 MISS:     353440
cpu0_DTLB RFO          ACCESS:          0 HIT:          0 MISS:          0
cpu0_DTLB PREFETCH     ACCESS:          0 HIT:          0 MISS:          0
cpu0_DTLB WRITE        ACCESS:          0 HIT:          0 MISS:          0
cpu0_DTLB TRANSLATION  ACCESS:          0 HIT:          0 MISS:          0
cpu0_DTLB PREFETCH REQUESTED:          0 ISSUED:          0 USEFUL:          0 USELESS:          0
cpu0_DTLB AVERAGE MISS LATENCY: 655.4 cycles
cpu0_ITLB TOTAL        ACCESS:       2025 HIT:       1990 MISS:         35
cpu0_ITLB LOAD         ACCESS:       2025 HIT:       1990 MISS:         35
cpu0_ITLB RFO          ACCESS:          0 HIT:          0 MISS:          0
cpu0_ITLB PREFETCH     ACCESS:          0 HIT:          0 MISS:          0
cpu0_ITLB WRITE        ACCESS:          0 HIT:          0 MISS:          0
cpu0_ITLB TRANSLATION  ACCESS:          0 HIT:          0 MISS:          0
cpu0_ITLB PREFETCH REQUESTED:          0 ISSUED:          0 USEFUL:          0 USELESS:          0
cpu0_ITLB AVERAGE MISS LATENCY: 543.7 cycles
cpu0_L1D TOTAL        ACCESS:  162707845 HIT:  156561298 MISS:    6146547
cpu0_L1D LOAD         ACCESS:   90490215 HIT:   90483926 MISS:       6289
cpu0_L1D RFO          ACCESS:          0 HIT:          0 MISS:          0
cpu0_L1D PREFETCH     ACCESS:          0 HIT:          0 MISS:          0
cpu0_L1D WRITE        ACCESS:   72036965 HIT:   66038987 MISS:    5997978
cpu0_L1D TRANSLATION  ACCESS:     180665 HIT:      38385 MISS:     142280
cpu0_L1D PREFETCH REQUESTED:          0 ISSUED:          0 USEFUL:          0 USELESS:          0
cpu0_L1D AVERAGE MISS LATENCY: 81.62 cycles
cpu0_L1I TOTAL        ACCESS:       2342 HIT:       1016 MISS:       1326
cpu0_L1I LOAD         ACCESS:       2342 HIT:       1016 MISS:       1326
cpu0_L1I RFO          ACCESS:          0 HIT:          0 MISS:          0
cpu0_L1I PREFETCH     ACCESS:          0 HIT:          0 MISS:          0
cpu0_L1I WRITE        ACCESS:          0 HIT:          0 MISS:          0
cpu0_L1I TRANSLATION  ACCESS:          0 HIT:          0 MISS:          0
cpu0_L1I PREFETCH REQUESTED:          0 ISSUED:          0 USEFUL:          0 USELESS:          0
cpu0_L1I AVERAGE MISS LATENCY: 636 cycles
cpu0_L2C TOTAL        ACCESS:    1190795 HIT:     542936 MISS:     647859
cpu0_L2C LOAD         ACCESS:       3313 HIT:        426 MISS:       2887
cpu0_L2C RFO          ACCESS:     538088 HIT:       2967 MISS:     535121
cpu0_L2C PREFETCH     ACCESS:          0 HIT:          0 MISS:          0
cpu0_L2C WRITE        ACCESS:     538219 HIT:     538202 MISS:         17
cpu0_L2C TRANSLATION  ACCESS:     111175 HIT:       1341 MISS:     109834
cpu0_L2C PREFETCH REQUESTED:          0 ISSUED:          0 USEFUL:          0 USELESS:          0
cpu0_L2C AVERAGE MISS LATENCY: 1033 cycles
cpu0_STLB TOTAL        ACCESS:     156153 HIT:         47 MISS:     156106
cpu0_STLB LOAD         ACCESS:     156153 HIT:         47 MISS:     156106
cpu0_STLB RFO          ACCESS:          0 HIT:          0 MISS:          0
cpu0_STLB PREFETCH     ACCESS:          0 HIT:          0 MISS:          0
cpu0_STLB WRITE        ACCESS:          0 HIT:          0 MISS:          0
cpu0_STLB TRANSLATION  ACCESS:          0 HIT:          0 MISS:          0
cpu0_STLB PREFETCH REQUESTED:          0 ISSUED:          0 USEFUL:          0 USELESS:          0
cpu0_STLB AVERAGE MISS LATENCY: 1693 cycles

DRAM Statistics

Channel 0 RQ ROW_BUFFER_HIT:     141411
  ROW_BUFFER_MISS:     505701
 AVG DBUS CONGESTED CYCLE: 3.979
WQ ROW_BUFFER_HIT: Channel 0 
  ROW_BUFFER_MISS:      99603
  FULL:     435453
