WARNING: physical memory size is smaller than virtual memory size.

*** ChampSim Multicore Out-of-Order Simulator ***
Warmup Instructions: 50000000
Simulation Instructions: 600000000
Number of CPUs: 1
Page size: 4096

Off-chip DRAM Size: 4 GiB Channels: 1 Width: 64-bit Data Race: 3200 MT/s
Heartbeat CPU 0 instructions: 10000001 cycles: 2500202 heartbeat IPC: 4 cumulative IPC: 4 (Simulation time: 00 hr 00 min 48 sec)
Heartbeat CPU 0 instructions: 20000001 cycles: 5000202 heartbeat IPC: 4 cumulative IPC: 4 (Simulation time: 00 hr 01 min 30 sec)
Heartbeat CPU 0 instructions: 30000001 cycles: 7500202 heartbeat IPC: 4 cumulative IPC: 4 (Simulation time: 00 hr 02 min 11 sec)
Heartbeat CPU 0 instructions: 40000001 cycles: 10000202 heartbeat IPC: 4 cumulative IPC: 4 (Simulation time: 00 hr 02 min 52 sec)
Heartbeat CPU 0 instructions: 50000001 cycles: 12500202 heartbeat IPC: 4 cumulative IPC: 4 (Simulation time: 00 hr 03 min 33 sec)
Warmup finished CPU 0 instructions: 50000001 cycles: 12500203 cumulative IPC: 4 (Simulation time: 00 hr 03 min 33 sec)
Warmup complete CPU 0 instructions: 50000001 cycles: 12500203 cumulative IPC: 4 (Simulation time: 00 hr 03 min 33 sec)
Heartbeat CPU 0 instructions: 60000004 cycles: 15780188 heartbeat IPC: 3.049 cumulative IPC: 3.049 (Simulation time: 00 hr 04 min 25 sec)
Heartbeat CPU 0 instructions: 70000002 cycles: 18484615 heartbeat IPC: 3.698 cumulative IPC: 3.342 (Simulation time: 00 hr 05 min 11 sec)
Heartbeat CPU 0 instructions: 80000002 cycles: 21188670 heartbeat IPC: 3.698 cumulative IPC: 3.453 (Simulation time: 00 hr 05 min 57 sec)
Heartbeat CPU 0 instructions: 90000004 cycles: 23892330 heartbeat IPC: 3.699 cumulative IPC: 3.511 (Simulation time: 00 hr 06 min 42 sec)
Heartbeat CPU 0 instructions: 100000000 cycles: 26595986 heartbeat IPC: 3.699 cumulative IPC: 3.547 (Simulation time: 00 hr 07 min 26 sec)
Heartbeat CPU 0 instructions: 110000004 cycles: 29300211 heartbeat IPC: 3.698 cumulative IPC: 3.571 (Simulation time: 00 hr 08 min 12 sec)
Heartbeat CPU 0 instructions: 120000001 cycles: 32004380 heartbeat IPC: 3.698 cumulative IPC: 3.589 (Simulation time: 00 hr 08 min 56 sec)
Heartbeat CPU 0 instructions: 130000000 cycles: 34707925 heartbeat IPC: 3.699 cumulative IPC: 3.602 (Simulation time: 00 hr 09 min 39 sec)
Heartbeat CPU 0 instructions: 140000001 cycles: 37411560 heartbeat IPC: 3.699 cumulative IPC: 3.613 (Simulation time: 00 hr 10 min 23 sec)
Heartbeat CPU 0 instructions: 150000002 cycles: 40115176 heartbeat IPC: 3.699 cumulative IPC: 3.621 (Simulation time: 00 hr 11 min 07 sec)
Heartbeat CPU 0 instructions: 160000004 cycles: 42818625 heartbeat IPC: 3.699 cumulative IPC: 3.628 (Simulation time: 00 hr 11 min 51 sec)
Heartbeat CPU 0 instructions: 170000004 cycles: 45523176 heartbeat IPC: 3.697 cumulative IPC: 3.634 (Simulation time: 00 hr 12 min 35 sec)
Heartbeat CPU 0 instructions: 180000002 cycles: 48228137 heartbeat IPC: 3.697 cumulative IPC: 3.639 (Simulation time: 00 hr 13 min 17 sec)
Heartbeat CPU 0 instructions: 190000002 cycles: 50932519 heartbeat IPC: 3.698 cumulative IPC: 3.643 (Simulation time: 00 hr 14 min 01 sec)
Heartbeat CPU 0 instructions: 200000001 cycles: 53636136 heartbeat IPC: 3.699 cumulative IPC: 3.646 (Simulation time: 00 hr 14 min 45 sec)
Heartbeat CPU 0 instructions: 210000000 cycles: 56339549 heartbeat IPC: 3.699 cumulative IPC: 3.65 (Simulation time: 00 hr 15 min 27 sec)
Heartbeat CPU 0 instructions: 220000000 cycles: 59045995 heartbeat IPC: 3.695 cumulative IPC: 3.652 (Simulation time: 00 hr 16 min 11 sec)
Heartbeat CPU 0 instructions: 230000002 cycles: 61749617 heartbeat IPC: 3.699 cumulative IPC: 3.655 (Simulation time: 00 hr 16 min 54 sec)
Heartbeat CPU 0 instructions: 240000003 cycles: 64453231 heartbeat IPC: 3.699 cumulative IPC: 3.657 (Simulation time: 00 hr 17 min 35 sec)
Heartbeat CPU 0 instructions: 250000000 cycles: 67156878 heartbeat IPC: 3.699 cumulative IPC: 3.659 (Simulation time: 00 hr 18 min 18 sec)
Heartbeat CPU 0 instructions: 260000001 cycles: 69860605 heartbeat IPC: 3.699 cumulative IPC: 3.661 (Simulation time: 00 hr 19 min 00 sec)
Heartbeat CPU 0 instructions: 270000003 cycles: 72564394 heartbeat IPC: 3.699 cumulative IPC: 3.663 (Simulation time: 00 hr 19 min 43 sec)
Heartbeat CPU 0 instructions: 280000003 cycles: 75268581 heartbeat IPC: 3.698 cumulative IPC: 3.664 (Simulation time: 00 hr 20 min 24 sec)
Heartbeat CPU 0 instructions: 290000004 cycles: 77972215 heartbeat IPC: 3.699 cumulative IPC: 3.666 (Simulation time: 00 hr 21 min 07 sec)
Heartbeat CPU 0 instructions: 300000004 cycles: 80675748 heartbeat IPC: 3.699 cumulative IPC: 3.667 (Simulation time: 00 hr 21 min 48 sec)
Heartbeat CPU 0 instructions: 310000000 cycles: 83379151 heartbeat IPC: 3.699 cumulative IPC: 3.668 (Simulation time: 00 hr 22 min 29 sec)
Heartbeat CPU 0 instructions: 320000001 cycles: 86082964 heartbeat IPC: 3.698 cumulative IPC: 3.669 (Simulation time: 00 hr 23 min 10 sec)
Heartbeat CPU 0 instructions: 330000000 cycles: 88786540 heartbeat IPC: 3.699 cumulative IPC: 3.67 (Simulation time: 00 hr 23 min 52 sec)
Heartbeat CPU 0 instructions: 340000001 cycles: 91490504 heartbeat IPC: 3.698 cumulative IPC: 3.671 (Simulation time: 00 hr 24 min 33 sec)
Heartbeat CPU 0 instructions: 350000002 cycles: 94194079 heartbeat IPC: 3.699 cumulative IPC: 3.672 (Simulation time: 00 hr 25 min 15 sec)
Heartbeat CPU 0 instructions: 360000003 cycles: 96897403 heartbeat IPC: 3.699 cumulative IPC: 3.673 (Simulation time: 00 hr 25 min 56 sec)
Heartbeat CPU 0 instructions: 370000004 cycles: 99601793 heartbeat IPC: 3.698 cumulative IPC: 3.674 (Simulation time: 00 hr 26 min 38 sec)
Heartbeat CPU 0 instructions: 380000000 cycles: 102305364 heartbeat IPC: 3.699 cumulative IPC: 3.675 (Simulation time: 00 hr 27 min 19 sec)
Heartbeat CPU 0 instructions: 390000004 cycles: 105008952 heartbeat IPC: 3.699 cumulative IPC: 3.675 (Simulation time: 00 hr 28 min 01 sec)
Heartbeat CPU 0 instructions: 400000000 cycles: 107712357 heartbeat IPC: 3.699 cumulative IPC: 3.676 (Simulation time: 00 hr 28 min 42 sec)
Heartbeat CPU 0 instructions: 410000004 cycles: 110417577 heartbeat IPC: 3.697 cumulative IPC: 3.677 (Simulation time: 00 hr 29 min 23 sec)
Heartbeat CPU 0 instructions: 420000001 cycles: 113121155 heartbeat IPC: 3.699 cumulative IPC: 3.677 (Simulation time: 00 hr 30 min 05 sec)
Heartbeat CPU 0 instructions: 430000002 cycles: 115824708 heartbeat IPC: 3.699 cumulative IPC: 3.678 (Simulation time: 00 hr 30 min 46 sec)
Heartbeat CPU 0 instructions: 440000004 cycles: 118528377 heartbeat IPC: 3.699 cumulative IPC: 3.678 (Simulation time: 00 hr 31 min 27 sec)
Heartbeat CPU 0 instructions: 450000004 cycles: 121231691 heartbeat IPC: 3.699 cumulative IPC: 3.679 (Simulation time: 00 hr 32 min 09 sec)
Heartbeat CPU 0 instructions: 460000002 cycles: 123935155 heartbeat IPC: 3.699 cumulative IPC: 3.679 (Simulation time: 00 hr 32 min 51 sec)
Heartbeat CPU 0 instructions: 470000002 cycles: 126638687 heartbeat IPC: 3.699 cumulative IPC: 3.68 (Simulation time: 00 hr 33 min 32 sec)
Heartbeat CPU 0 instructions: 480000003 cycles: 129342336 heartbeat IPC: 3.699 cumulative IPC: 3.68 (Simulation time: 00 hr 34 min 14 sec)
Heartbeat CPU 0 instructions: 490000000 cycles: 132046390 heartbeat IPC: 3.698 cumulative IPC: 3.681 (Simulation time: 00 hr 34 min 55 sec)
Heartbeat CPU 0 instructions: 500000001 cycles: 134749819 heartbeat IPC: 3.699 cumulative IPC: 3.681 (Simulation time: 00 hr 35 min 37 sec)
Heartbeat CPU 0 instructions: 510000003 cycles: 137453235 heartbeat IPC: 3.699 cumulative IPC: 3.681 (Simulation time: 00 hr 36 min 19 sec)
Heartbeat CPU 0 instructions: 520000004 cycles: 140158137 heartbeat IPC: 3.697 cumulative IPC: 3.682 (Simulation time: 00 hr 37 min 00 sec)
Heartbeat CPU 0 instructions: 530000000 cycles: 142861664 heartbeat IPC: 3.699 cumulative IPC: 3.682 (Simulation time: 00 hr 37 min 41 sec)
Heartbeat CPU 0 instructions: 540000001 cycles: 145565210 heartbeat IPC: 3.699 cumulative IPC: 3.682 (Simulation time: 00 hr 38 min 23 sec)
Heartbeat CPU 0 instructions: 550000001 cycles: 148268557 heartbeat IPC: 3.699 cumulative IPC: 3.683 (Simulation time: 00 hr 39 min 04 sec)
Heartbeat CPU 0 instructions: 560000003 cycles: 150974886 heartbeat IPC: 3.695 cumulative IPC: 3.683 (Simulation time: 00 hr 39 min 46 sec)
Heartbeat CPU 0 instructions: 570000004 cycles: 153678897 heartbeat IPC: 3.698 cumulative IPC: 3.683 (Simulation time: 00 hr 40 min 27 sec)
Heartbeat CPU 0 instructions: 580000004 cycles: 156382517 heartbeat IPC: 3.699 cumulative IPC: 3.684 (Simulation time: 00 hr 41 min 10 sec)
Heartbeat CPU 0 instructions: 590000000 cycles: 159085992 heartbeat IPC: 3.699 cumulative IPC: 3.684 (Simulation time: 00 hr 41 min 51 sec)
*** Reached end of trace: (0, "traces/convolution.champsimtrace")
Heartbeat CPU 0 instructions: 600000001 cycles: 161789262 heartbeat IPC: 3.699 cumulative IPC: 3.684 (Simulation time: 00 hr 42 min 32 sec)
Heartbeat CPU 0 instructions: 610000004 cycles: 190556397 heartbeat IPC: 0.3476 cumulative IPC: 3.145 (Simulation time: 00 hr 46 min 58 sec)
Heartbeat CPU 0 instructions: 620000002 cycles: 217764831 heartbeat IPC: 0.3675 cumulative IPC: 2.777 (Simulation time: 00 hr 51 min 14 sec)
Heartbeat CPU 0 instructions: 630000000 cycles: 230098384 heartbeat IPC: 0.8108 cumulative IPC: 2.665 (Simulation time: 00 hr 53 min 24 sec)
Heartbeat CPU 0 instructions: 640000002 cycles: 241275434 heartbeat IPC: 0.8947 cumulative IPC: 2.579 (Simulation time: 00 hr 55 min 26 sec)
Heartbeat CPU 0 instructions: 650000004 cycles: 252012940 heartbeat IPC: 0.9313 cumulative IPC: 2.505 (Simulation time: 00 hr 57 min 17 sec)
Simulation finished CPU 0 instructions: 600000003 cycles: 239512738 cumulative IPC: 2.505 (Simulation time: 00 hr 57 min 17 sec)
Simulation complete CPU 0 instructions: 600000003 cycles: 239512738 cumulative IPC: 2.505 (Simulation time: 00 hr 57 min 17 sec)

ChampSim completed all CPUs

=== Simulation ===
CPU 0 runs traces/convolution.champsimtrace
Region of Interest Statistics

CPU 0 cumulative IPC: 2.505 instructions: 600000003 cycles: 239512738
CPU 0 Branch Prediction Accuracy: 99.3% MPKI: 1.265 Average ROB Occupancy at Mispredict: 63.92
Branch type MPKI
BRANCH_DIRECT_JUMP: 0.000107
BRANCH_INDIRECT: 4e-05
BRANCH_CONDITIONAL: 1.26
BRANCH_DIRECT_CALL: 0.000103
BRANCH_INDIRECT_CALL: 8.33e-06
BRANCH_RETURN: 1.83e-05

LLC TOTAL        ACCESS:    1183229 HIT:     515887 MISS:     667342
LLC LOAD         ACCESS:       2893 HIT:       2144 MISS:        749
LLC RFO          ACCESS:     535131 HIT:       1583 MISS:     533548
LLC PREFETCH     ACCESS:          0 HIT:          0 MISS:          0
LLC WRITE        ACCESS:     535184 HIT:     511199 MISS:      23985
LLC TRANSLATION  ACCESS:     110021 HIT:        961 MISS:     109060
LLC PREFETCH REQUESTED:          0 ISSUED:          0 USEFUL:          0 USELESS:          0
LLC AVERAGE MISS LATENCY: 1083 cycles
cpu0_DTLB TOTAL        ACCESS:  121576374 HIT:  121223111 MISS:     353263
cpu0_DTLB LOAD         ACCESS:  121576374 HIT:  121223111 MISS:     353263
cpu0_DTLB RFO          ACCESS:          0 HIT:          0 MISS:          0
cpu0_DTLB PREFETCH     ACCESS:          0 HIT:          0 MISS:          0
cpu0_DTLB WRITE        ACCESS:          0 HIT:          0 MISS:          0
cpu0_DTLB TRANSLATION  ACCESS:          0 HIT:          0 MISS:          0
cpu0_DTLB PREFETCH REQUESTED:          0 ISSUED:          0 USEFUL:          0 USELESS:          0
cpu0_DTLB AVERAGE MISS LATENCY: 787.2 cycles
cpu0_ITLB TOTAL        ACCESS:       2030 HIT:       1982 MISS:         48
cpu0_ITLB LOAD         ACCESS:       2030 HIT:       1982 MISS:         48
cpu0_ITLB RFO          ACCESS:          0 HIT:          0 MISS:          0
cpu0_ITLB PREFETCH     ACCESS:          0 HIT:          0 MISS:          0
cpu0_ITLB WRITE        ACCESS:          0 HIT:          0 MISS:          0
cpu0_ITLB TRANSLATION  ACCESS:          0 HIT:          0 MISS:          0
cpu0_ITLB PREFETCH REQUESTED:          0 ISSUED:          0 USEFUL:          0 USELESS:          0
cpu0_ITLB AVERAGE MISS LATENCY: 274.3 cycles
cpu0_L1D TOTAL        ACCESS:  162723989 HIT:  156565775 MISS:    6158214
cpu0_L1D LOAD         ACCESS:   90504867 HIT:   90498089 MISS:       6778
cpu0_L1D RFO          ACCESS:          0 HIT:          0 MISS:          0
cpu0_L1D PREFETCH     ACCESS:          0 HIT:          0 MISS:          0
cpu0_L1D WRITE        ACCESS:   72038322 HIT:   66029562 MISS:    6008760
cpu0_L1D TRANSLATION  ACCESS:     180800 HIT:      38124 MISS:     142676
cpu0_L1D PREFETCH REQUESTED:          0 ISSUED:          0 USEFUL:          0 USELESS:          0
cpu0_L1D AVERAGE MISS LATENCY: 91.32 cycles
cpu0_L1I TOTAL        ACCESS:       2350 HIT:       1044 MISS:       1306
cpu0_L1I LOAD         ACCESS:       2350 HIT:       1044 MISS:       1306
cpu0_L1I RFO          ACCESS:          0 HIT:          0 MISS:          0
cpu0_L1I PREFETCH     ACCESS:          0 HIT:          0 MISS:          0
cpu0_L1I WRITE        ACCESS:          0 HIT:          0 MISS:          0
cpu0_L1I TRANSLATION  ACCESS:          0 HIT:          0 MISS:          0
cpu0_L1I PREFETCH REQUESTED:          0 ISSUED:          0 USEFUL:          0 USELESS:          0
cpu0_L1I AVERAGE MISS LATENCY: 118.4 cycles
cpu0_L2C TOTAL        ACCESS:    1190278 HIT:     542217 MISS:     648061
cpu0_L2C LOAD         ACCESS:       3320 HIT:        427 MISS:       2893
cpu0_L2C RFO          ACCESS:     537767 HIT:       2636 MISS:     535131
cpu0_L2C PREFETCH     ACCESS:          0 HIT:          0 MISS:          0
cpu0_L2C WRITE        ACCESS:     537894 HIT:     537878 MISS:         16
cpu0_L2C TRANSLATION  ACCESS:     111297 HIT:       1276 MISS:     110021
cpu0_L2C PREFETCH REQUESTED:          0 ISSUED:          0 USEFUL:          0 USELESS:          0
cpu0_L2C AVERAGE MISS LATENCY: 1136 cycles
cpu0_STLB TOTAL        ACCESS:     156162 HIT:         49 MISS:     156113
cpu0_STLB LOAD         ACCESS:     156162 HIT:         49 MISS:     156113
cpu0_STLB RFO          ACCESS:          0 HIT:          0 MISS:          0
cpu0_STLB PREFETCH     ACCESS:          0 HIT:          0 MISS:          0
cpu0_STLB WRITE        ACCESS:          0 HIT:          0 MISS:          0
cpu0_STLB TRANSLATION  ACCESS:          0 HIT:          0 MISS:          0
cpu0_STLB PREFETCH REQUESTED:          0 ISSUED:          0 USEFUL:          0 USELESS:          0
cpu0_STLB AVERAGE MISS LATENCY: 1995 cycles

DRAM Statistics

Channel 0 RQ ROW_BUFFER_HIT:     140494
  ROW_BUFFER_MISS:     502856
 AVG DBUS CONGESTED CYCLE: 3.986
WQ ROW_BUFFER_HIT: Channel 0 
  ROW_BUFFER_MISS:       6929
  FULL:     525681
