WARNING: physical memory size is smaller than virtual memory size.

*** ChampSim Multicore Out-of-Order Simulator ***
Warmup Instructions: 50000000
Simulation Instructions: 600000000
Number of CPUs: 1
Page size: 4096

Off-chip DRAM Size: 4 GiB Channels: 1 Width: 64-bit Data Race: 3200 MT/s
Heartbeat CPU 0 instructions: 10000000 cycles: 2500202 heartbeat IPC: 4 cumulative IPC: 4 (Simulation time: 00 hr 00 min 39 sec)
Heartbeat CPU 0 instructions: 20000000 cycles: 5000202 heartbeat IPC: 4 cumulative IPC: 4 (Simulation time: 00 hr 01 min 14 sec)
Heartbeat CPU 0 instructions: 30000000 cycles: 7500202 heartbeat IPC: 4 cumulative IPC: 4 (Simulation time: 00 hr 01 min 51 sec)
Heartbeat CPU 0 instructions: 40000000 cycles: 10000202 heartbeat IPC: 4 cumulative IPC: 4 (Simulation time: 00 hr 02 min 30 sec)
Heartbeat CPU 0 instructions: 50000000 cycles: 12500202 heartbeat IPC: 4 cumulative IPC: 4 (Simulation time: 00 hr 03 min 06 sec)
Warmup finished CPU 0 instructions: 50000000 cycles: 12500203 cumulative IPC: 4 (Simulation time: 00 hr 03 min 06 sec)
Warmup complete CPU 0 instructions: 50000000 cycles: 12500203 cumulative IPC: 4 (Simulation time: 00 hr 03 min 06 sec)
Heartbeat CPU 0 instructions: 60000002 cycles: 15699626 heartbeat IPC: 3.126 cumulative IPC: 3.126 (Simulation time: 00 hr 03 min 50 sec)
Heartbeat CPU 0 instructions: 70000002 cycles: 18354263 heartbeat IPC: 3.767 cumulative IPC: 3.416 (Simulation time: 00 hr 04 min 29 sec)
Heartbeat CPU 0 instructions: 80000003 cycles: 21006485 heartbeat IPC: 3.77 cumulative IPC: 3.527 (Simulation time: 00 hr 05 min 08 sec)
Heartbeat CPU 0 instructions: 90000004 cycles: 23658684 heartbeat IPC: 3.77 cumulative IPC: 3.585 (Simulation time: 00 hr 05 min 53 sec)
Heartbeat CPU 0 instructions: 100000003 cycles: 26313631 heartbeat IPC: 3.767 cumulative IPC: 3.62 (Simulation time: 00 hr 06 min 37 sec)
Heartbeat CPU 0 instructions: 110000000 cycles: 28966323 heartbeat IPC: 3.77 cumulative IPC: 3.644 (Simulation time: 00 hr 07 min 17 sec)
Heartbeat CPU 0 instructions: 120000000 cycles: 31618324 heartbeat IPC: 3.771 cumulative IPC: 3.661 (Simulation time: 00 hr 08 min 04 sec)
Heartbeat CPU 0 instructions: 130000000 cycles: 34270569 heartbeat IPC: 3.77 cumulative IPC: 3.675 (Simulation time: 00 hr 08 min 51 sec)
Heartbeat CPU 0 instructions: 140000001 cycles: 36922757 heartbeat IPC: 3.77 cumulative IPC: 3.685 (Simulation time: 00 hr 09 min 35 sec)
Heartbeat CPU 0 instructions: 150000003 cycles: 39574986 heartbeat IPC: 3.77 cumulative IPC: 3.693 (Simulation time: 00 hr 10 min 15 sec)
Heartbeat CPU 0 instructions: 160000003 cycles: 42229282 heartbeat IPC: 3.767 cumulative IPC: 3.7 (Simulation time: 00 hr 10 min 53 sec)
Heartbeat CPU 0 instructions: 170000001 cycles: 44883123 heartbeat IPC: 3.768 cumulative IPC: 3.706 (Simulation time: 00 hr 11 min 30 sec)
Heartbeat CPU 0 instructions: 180000001 cycles: 47535292 heartbeat IPC: 3.77 cumulative IPC: 3.711 (Simulation time: 00 hr 12 min 07 sec)
Heartbeat CPU 0 instructions: 190000002 cycles: 50188302 heartbeat IPC: 3.769 cumulative IPC: 3.715 (Simulation time: 00 hr 12 min 43 sec)
Heartbeat CPU 0 instructions: 200000001 cycles: 52840522 heartbeat IPC: 3.77 cumulative IPC: 3.718 (Simulation time: 00 hr 13 min 21 sec)
Heartbeat CPU 0 instructions: 210000000 cycles: 55495541 heartbeat IPC: 3.766 cumulative IPC: 3.721 (Simulation time: 00 hr 13 min 57 sec)
Heartbeat CPU 0 instructions: 220000001 cycles: 58147902 heartbeat IPC: 3.77 cumulative IPC: 3.724 (Simulation time: 00 hr 14 min 33 sec)
Heartbeat CPU 0 instructions: 230000002 cycles: 60800118 heartbeat IPC: 3.77 cumulative IPC: 3.727 (Simulation time: 00 hr 15 min 16 sec)
Heartbeat CPU 0 instructions: 240000004 cycles: 63452402 heartbeat IPC: 3.77 cumulative IPC: 3.729 (Simulation time: 00 hr 16 min 03 sec)
Heartbeat CPU 0 instructions: 250000000 cycles: 66107439 heartbeat IPC: 3.766 cumulative IPC: 3.731 (Simulation time: 00 hr 16 min 49 sec)
Heartbeat CPU 0 instructions: 260000000 cycles: 68762229 heartbeat IPC: 3.767 cumulative IPC: 3.733 (Simulation time: 00 hr 17 min 38 sec)
Heartbeat CPU 0 instructions: 270000002 cycles: 71414236 heartbeat IPC: 3.771 cumulative IPC: 3.734 (Simulation time: 00 hr 18 min 17 sec)
Heartbeat CPU 0 instructions: 280000003 cycles: 74066480 heartbeat IPC: 3.77 cumulative IPC: 3.736 (Simulation time: 00 hr 18 min 51 sec)
Heartbeat CPU 0 instructions: 290000002 cycles: 76718757 heartbeat IPC: 3.77 cumulative IPC: 3.737 (Simulation time: 00 hr 19 min 28 sec)
Heartbeat CPU 0 instructions: 300000000 cycles: 79374382 heartbeat IPC: 3.766 cumulative IPC: 3.738 (Simulation time: 00 hr 20 min 12 sec)
Heartbeat CPU 0 instructions: 310000002 cycles: 82026712 heartbeat IPC: 3.77 cumulative IPC: 3.74 (Simulation time: 00 hr 20 min 55 sec)
Heartbeat CPU 0 instructions: 320000004 cycles: 84678753 heartbeat IPC: 3.771 cumulative IPC: 3.741 (Simulation time: 00 hr 21 min 38 sec)
Heartbeat CPU 0 instructions: 330000000 cycles: 87330942 heartbeat IPC: 3.77 cumulative IPC: 3.742 (Simulation time: 00 hr 22 min 24 sec)
Heartbeat CPU 0 instructions: 340000002 cycles: 89984458 heartbeat IPC: 3.769 cumulative IPC: 3.743 (Simulation time: 00 hr 23 min 10 sec)
Heartbeat CPU 0 instructions: 350000002 cycles: 92636574 heartbeat IPC: 3.771 cumulative IPC: 3.744 (Simulation time: 00 hr 23 min 47 sec)
Heartbeat CPU 0 instructions: 360000001 cycles: 95291305 heartbeat IPC: 3.767 cumulative IPC: 3.744 (Simulation time: 00 hr 24 min 23 sec)
Heartbeat CPU 0 instructions: 370000004 cycles: 97943652 heartbeat IPC: 3.77 cumulative IPC: 3.745 (Simulation time: 00 hr 25 min 00 sec)
Heartbeat CPU 0 instructions: 380000000 cycles: 100595829 heartbeat IPC: 3.77 cumulative IPC: 3.746 (Simulation time: 00 hr 25 min 47 sec)
Heartbeat CPU 0 instructions: 390000003 cycles: 103248176 heartbeat IPC: 3.77 cumulative IPC: 3.747 (Simulation time: 00 hr 26 min 26 sec)
Heartbeat CPU 0 instructions: 400000000 cycles: 105902655 heartbeat IPC: 3.767 cumulative IPC: 3.747 (Simulation time: 00 hr 27 min 08 sec)
Heartbeat CPU 0 instructions: 410000000 cycles: 108556902 heartbeat IPC: 3.768 cumulative IPC: 3.748 (Simulation time: 00 hr 27 min 52 sec)
Heartbeat CPU 0 instructions: 420000001 cycles: 111208988 heartbeat IPC: 3.771 cumulative IPC: 3.748 (Simulation time: 00 hr 28 min 34 sec)
Heartbeat CPU 0 instructions: 430000003 cycles: 113861309 heartbeat IPC: 3.77 cumulative IPC: 3.749 (Simulation time: 00 hr 29 min 12 sec)
Heartbeat CPU 0 instructions: 440000003 cycles: 116513651 heartbeat IPC: 3.77 cumulative IPC: 3.75 (Simulation time: 00 hr 29 min 54 sec)
Heartbeat CPU 0 instructions: 450000004 cycles: 119168556 heartbeat IPC: 3.767 cumulative IPC: 3.75 (Simulation time: 00 hr 30 min 35 sec)
Heartbeat CPU 0 instructions: 460000001 cycles: 121821985 heartbeat IPC: 3.769 cumulative IPC: 3.75 (Simulation time: 00 hr 31 min 17 sec)
Heartbeat CPU 0 instructions: 470000002 cycles: 124474084 heartbeat IPC: 3.771 cumulative IPC: 3.751 (Simulation time: 00 hr 31 min 57 sec)
Heartbeat CPU 0 instructions: 480000001 cycles: 127126435 heartbeat IPC: 3.77 cumulative IPC: 3.751 (Simulation time: 00 hr 32 min 35 sec)
Heartbeat CPU 0 instructions: 490000000 cycles: 129779125 heartbeat IPC: 3.77 cumulative IPC: 3.752 (Simulation time: 00 hr 33 min 14 sec)
Heartbeat CPU 0 instructions: 500000002 cycles: 132433895 heartbeat IPC: 3.767 cumulative IPC: 3.752 (Simulation time: 00 hr 33 min 52 sec)
Heartbeat CPU 0 instructions: 510000003 cycles: 135086238 heartbeat IPC: 3.77 cumulative IPC: 3.752 (Simulation time: 00 hr 34 min 29 sec)
Heartbeat CPU 0 instructions: 520000004 cycles: 137738370 heartbeat IPC: 3.771 cumulative IPC: 3.753 (Simulation time: 00 hr 35 min 11 sec)
Heartbeat CPU 0 instructions: 530000000 cycles: 140390680 heartbeat IPC: 3.77 cumulative IPC: 3.753 (Simulation time: 00 hr 35 min 52 sec)
Heartbeat CPU 0 instructions: 540000000 cycles: 143045318 heartbeat IPC: 3.767 cumulative IPC: 3.753 (Simulation time: 00 hr 36 min 34 sec)
Heartbeat CPU 0 instructions: 550000003 cycles: 145698472 heartbeat IPC: 3.769 cumulative IPC: 3.754 (Simulation time: 00 hr 37 min 14 sec)
Heartbeat CPU 0 instructions: 560000003 cycles: 148350937 heartbeat IPC: 3.77 cumulative IPC: 3.754 (Simulation time: 00 hr 37 min 50 sec)
Heartbeat CPU 0 instructions: 570000004 cycles: 151002923 heartbeat IPC: 3.771 cumulative IPC: 3.754 (Simulation time: 00 hr 38 min 26 sec)
Heartbeat CPU 0 instructions: 580000000 cycles: 153655218 heartbeat IPC: 3.77 cumulative IPC: 3.755 (Simulation time: 00 hr 39 min 04 sec)
Heartbeat CPU 0 instructions: 590000002 cycles: 156307489 heartbeat IPC: 3.77 cumulative IPC: 3.755 (Simulation time: 00 hr 39 min 39 sec)
*** Reached end of trace: (0, "traces/convolution.champsimtrace")
Heartbeat CPU 0 instructions: 600000000 cycles: 158967712 heartbeat IPC: 3.759 cumulative IPC: 3.755 (Simulation time: 00 hr 40 min 17 sec)
Heartbeat CPU 0 instructions: 610000002 cycles: 185050022 heartbeat IPC: 0.3834 cumulative IPC: 3.245 (Simulation time: 00 hr 43 min 46 sec)
Heartbeat CPU 0 instructions: 620000001 cycles: 207775341 heartbeat IPC: 0.44 cumulative IPC: 2.919 (Simulation time: 00 hr 46 min 51 sec)
Heartbeat CPU 0 instructions: 630000001 cycles: 220366288 heartbeat IPC: 0.7942 cumulative IPC: 2.79 (Simulation time: 00 hr 48 min 42 sec)
Heartbeat CPU 0 instructions: 640000004 cycles: 230939675 heartbeat IPC: 0.9458 cumulative IPC: 2.701 (Simulation time: 00 hr 50 min 19 sec)
Heartbeat CPU 0 instructions: 650000001 cycles: 241408964 heartbeat IPC: 0.9552 cumulative IPC: 2.621 (Simulation time: 00 hr 51 min 53 sec)
Simulation finished CPU 0 instructions: 600000001 cycles: 228908762 cumulative IPC: 2.621 (Simulation time: 00 hr 51 min 53 sec)
Simulation complete CPU 0 instructions: 600000001 cycles: 228908762 cumulative IPC: 2.621 (Simulation time: 00 hr 51 min 53 sec)

ChampSim completed all CPUs

=== Simulation ===
CPU 0 runs traces/convolution.champsimtrace
Region of Interest Statistics

CPU 0 cumulative IPC: 2.621 instructions: 600000001 cycles: 228908762
CPU 0 Branch Prediction Accuracy: 99.47% MPKI: 0.9507 Average ROB Occupancy at Mispredict: 68.93
Branch type MPKI
BRANCH_DIRECT_JUMP: 0.000107
BRANCH_INDIRECT: 4.17e-05
BRANCH_CONDITIONAL: 0.95
BRANCH_DIRECT_CALL: 0.000103
BRANCH_INDIRECT_CALL: 8.33e-06
BRANCH_RETURN: 1.83e-05

LLC TOTAL        ACCESS:    1185851 HIT:     536955 MISS:     648896
LLC LOAD         ACCESS:       2887 HIT:        871 MISS:       2016
LLC RFO          ACCESS:     535122 HIT:         74 MISS:     535048
LLC PREFETCH     ACCESS:       2887 HIT:        285 MISS:       2602
LLC WRITE        ACCESS:     535169 HIT:     535074 MISS:         95
LLC TRANSLATION  ACCESS:     109786 HIT:        651 MISS:     109135
LLC PREFETCH REQUESTED:       2887 ISSUED:       2887 USEFUL:       1656 USELESS:        355
LLC AVERAGE MISS LATENCY: 1036 cycles
cpu0_DTLB TOTAL        ACCESS:  120036878 HIT:  119682987 MISS:     353891
cpu0_DTLB LOAD         ACCESS:  120036878 HIT:  119682987 MISS:     353891
cpu0_DTLB RFO          ACCESS:          0 HIT:          0 MISS:          0
cpu0_DTLB PREFETCH     ACCESS:          0 HIT:          0 MISS:          0
cpu0_DTLB WRITE        ACCESS:          0 HIT:          0 MISS:          0
cpu0_DTLB TRANSLATION  ACCESS:          0 HIT:          0 MISS:          0
cpu0_DTLB PREFETCH REQUESTED:          0 ISSUED:          0 USEFUL:          0 USELESS:          0
cpu0_DTLB AVERAGE MISS LATENCY: 689.6 cycles
cpu0_ITLB TOTAL        ACCESS:       2009 HIT:       1977 MISS:         32
cpu0_ITLB LOAD         ACCESS:       2009 HIT:       1977 MISS:         32
cpu0_ITLB RFO          ACCESS:          0 HIT:          0 MISS:          0
cpu0_ITLB PREFETCH     ACCESS:          0 HIT:          0 MISS:          0
cpu0_ITLB WRITE        ACCESS:          0 HIT:          0 MISS:          0
cpu0_ITLB TRANSLATION  ACCESS:          0 HIT:          0 MISS:          0
cpu0_ITLB PREFETCH REQUESTED:          0 ISSUED:          0 USEFUL:          0 USELESS:          0
cpu0_ITLB AVERAGE MISS LATENCY: 1041 cycles
cpu0_L1D TOTAL        ACCESS:  161169007 HIT:  155016864 MISS:    6152143
cpu0_L1D LOAD         ACCESS:   88952559 HIT:   88946619 MISS:       5940
cpu0_L1D RFO          ACCESS:          0 HIT:          0 MISS:          0
cpu0_L1D PREFETCH     ACCESS:          0 HIT:          0 MISS:          0
cpu0_L1D WRITE        ACCESS:   72035830 HIT:   66031843 MISS:    6003987
cpu0_L1D TRANSLATION  ACCESS:     180618 HIT:      38402 MISS:     142216
cpu0_L1D PREFETCH REQUESTED:          0 ISSUED:          0 USEFUL:          0 USELESS:          0
cpu0_L1D AVERAGE MISS LATENCY: 83.99 cycles
cpu0_L1I TOTAL        ACCESS:       2305 HIT:       1013 MISS:       1292
cpu0_L1I LOAD         ACCESS:       2305 HIT:       1013 MISS:       1292
cpu0_L1I RFO          ACCESS:          0 HIT:          0 MISS:          0
cpu0_L1I PREFETCH     ACCESS:          0 HIT:          0 MISS:          0
cpu0_L1I WRITE        ACCESS:          0 HIT:          0 MISS:          0
cpu0_L1I TRANSLATION  ACCESS:          0 HIT:          0 MISS:          0
cpu0_L1I PREFETCH REQUESTED:          0 ISSUED:          0 USEFUL:          0 USELESS:          0
cpu0_L1I AVERAGE MISS LATENCY: 662.6 cycles
cpu0_L2C TOTAL        ACCESS:    1190728 HIT:     542915 MISS:     647813
cpu0_L2C LOAD         ACCESS:       3312 HIT:        425 MISS:       2887
cpu0_L2C RFO          ACCESS:     538086 HIT:       2964 MISS:     535122
cpu0_L2C PREFETCH     ACCESS:          0 HIT:          0 MISS:          0
cpu0_L2C WRITE        ACCESS:     538216 HIT:     538199 MISS:         17
cpu0_L2C TRANSLATION  ACCESS:     111114 HIT:       1327 MISS:     109787
cpu0_L2C PREFETCH REQUESTED:          0 ISSUED:          0 USEFUL:          0 USELESS:          0
cpu0_L2C AVERAGE MISS LATENCY: 1056 cycles
cpu0_STLB TOTAL        ACCESS:     156162 HIT:         51 MISS:     156111
cpu0_STLB LOAD         ACCESS:     156162 HIT:         51 MISS:     156111
cpu0_STLB RFO          ACCESS:          0 HIT:          0 MISS:          0
cpu0_STLB PREFETCH     ACCESS:          0 HIT:          0 MISS:          0
cpu0_STLB WRITE        ACCESS:          0 HIT:          0 MISS:          0
cpu0_STLB TRANSLATION  ACCESS:          0 HIT:          0 MISS:          0
cpu0_STLB PREFETCH REQUESTED:          0 ISSUED:          0 USEFUL:          0 USELESS:          0
cpu0_STLB AVERAGE MISS LATENCY: 1773 cycles

DRAM Statistics

Channel 0 RQ ROW_BUFFER_HIT:     141822
  ROW_BUFFER_MISS:     505602
 AVG DBUS CONGESTED CYCLE: 3.979
WQ ROW_BUFFER_HIT: Channel 0 
  ROW_BUFFER_MISS:      88884
  FULL:     445553
