WARNING: physical memory size is smaller than virtual memory size.

*** ChampSim Multicore Out-of-Order Simulator ***
Warmup Instructions: 50000000
Simulation Instructions: 600000000
Number of CPUs: 1
Page size: 4096

CPU 0 Tage branch predictor
Off-chip DRAM Size: 4 GiB Channels: 1 Width: 64-bit Data Race: 3200 MT/s
Heartbeat CPU 0 instructions: 10000000 cycles: 2500202 heartbeat IPC: 4 cumulative IPC: 4 (Simulation time: 00 hr 00 min 44 sec)
Heartbeat CPU 0 instructions: 20000000 cycles: 5000202 heartbeat IPC: 4 cumulative IPC: 4 (Simulation time: 00 hr 01 min 23 sec)
Heartbeat CPU 0 instructions: 30000000 cycles: 7500202 heartbeat IPC: 4 cumulative IPC: 4 (Simulation time: 00 hr 02 min 03 sec)
Heartbeat CPU 0 instructions: 40000000 cycles: 10000202 heartbeat IPC: 4 cumulative IPC: 4 (Simulation time: 00 hr 02 min 41 sec)
Heartbeat CPU 0 instructions: 50000000 cycles: 12500202 heartbeat IPC: 4 cumulative IPC: 4 (Simulation time: 00 hr 03 min 21 sec)
Warmup finished CPU 0 instructions: 50000000 cycles: 12500203 cumulative IPC: 4 (Simulation time: 00 hr 03 min 21 sec)
Warmup complete CPU 0 instructions: 50000000 cycles: 12500203 cumulative IPC: 4 (Simulation time: 00 hr 03 min 21 sec)
Heartbeat CPU 0 instructions: 60000002 cycles: 15581231 heartbeat IPC: 3.246 cumulative IPC: 3.246 (Simulation time: 00 hr 04 min 12 sec)
Heartbeat CPU 0 instructions: 70000002 cycles: 18083344 heartbeat IPC: 3.997 cumulative IPC: 3.582 (Simulation time: 00 hr 04 min 58 sec)
Heartbeat CPU 0 instructions: 80000003 cycles: 20583366 heartbeat IPC: 4 cumulative IPC: 3.711 (Simulation time: 00 hr 05 min 44 sec)
Heartbeat CPU 0 instructions: 90000004 cycles: 23083387 heartbeat IPC: 4 cumulative IPC: 3.78 (Simulation time: 00 hr 06 min 42 sec)
Heartbeat CPU 0 instructions: 100000003 cycles: 25586238 heartbeat IPC: 3.995 cumulative IPC: 3.821 (Simulation time: 00 hr 07 min 34 sec)
Heartbeat CPU 0 instructions: 110000000 cycles: 28087832 heartbeat IPC: 3.997 cumulative IPC: 3.849 (Simulation time: 00 hr 08 min 31 sec)
Heartbeat CPU 0 instructions: 120000000 cycles: 30587856 heartbeat IPC: 4 cumulative IPC: 3.87 (Simulation time: 00 hr 09 min 15 sec)
Heartbeat CPU 0 instructions: 130000000 cycles: 33087879 heartbeat IPC: 4 cumulative IPC: 3.886 (Simulation time: 00 hr 09 min 59 sec)
Heartbeat CPU 0 instructions: 140000001 cycles: 35587916 heartbeat IPC: 4 cumulative IPC: 3.898 (Simulation time: 00 hr 10 min 45 sec)
Heartbeat CPU 0 instructions: 150000003 cycles: 38087938 heartbeat IPC: 4 cumulative IPC: 3.908 (Simulation time: 00 hr 11 min 31 sec)
Heartbeat CPU 0 instructions: 160000004 cycles: 40590262 heartbeat IPC: 3.996 cumulative IPC: 3.916 (Simulation time: 00 hr 12 min 27 sec)
Heartbeat CPU 0 instructions: 170000000 cycles: 43092304 heartbeat IPC: 3.997 cumulative IPC: 3.923 (Simulation time: 00 hr 13 min 16 sec)
Heartbeat CPU 0 instructions: 180000001 cycles: 45592325 heartbeat IPC: 4 cumulative IPC: 3.928 (Simulation time: 00 hr 14 min 03 sec)
Heartbeat CPU 0 instructions: 190000002 cycles: 48093182 heartbeat IPC: 3.999 cumulative IPC: 3.933 (Simulation time: 00 hr 14 min 47 sec)
Heartbeat CPU 0 instructions: 200000001 cycles: 50593203 heartbeat IPC: 4 cumulative IPC: 3.938 (Simulation time: 00 hr 15 min 31 sec)
Heartbeat CPU 0 instructions: 210000000 cycles: 53097146 heartbeat IPC: 3.994 cumulative IPC: 3.941 (Simulation time: 00 hr 16 min 17 sec)
Heartbeat CPU 0 instructions: 220000001 cycles: 55597557 heartbeat IPC: 3.999 cumulative IPC: 3.945 (Simulation time: 00 hr 17 min 02 sec)
Heartbeat CPU 0 instructions: 230000002 cycles: 58097578 heartbeat IPC: 4 cumulative IPC: 3.948 (Simulation time: 00 hr 17 min 45 sec)
Heartbeat CPU 0 instructions: 240000004 cycles: 60597616 heartbeat IPC: 4 cumulative IPC: 3.95 (Simulation time: 00 hr 18 min 29 sec)
Heartbeat CPU 0 instructions: 250000000 cycles: 63100029 heartbeat IPC: 3.996 cumulative IPC: 3.953 (Simulation time: 00 hr 19 min 13 sec)
Heartbeat CPU 0 instructions: 260000000 cycles: 65602374 heartbeat IPC: 3.996 cumulative IPC: 3.955 (Simulation time: 00 hr 19 min 57 sec)
Heartbeat CPU 0 instructions: 270000002 cycles: 68102396 heartbeat IPC: 4 cumulative IPC: 3.957 (Simulation time: 00 hr 20 min 42 sec)
Heartbeat CPU 0 instructions: 280000003 cycles: 70602435 heartbeat IPC: 4 cumulative IPC: 3.959 (Simulation time: 00 hr 21 min 26 sec)
Heartbeat CPU 0 instructions: 290000000 cycles: 73102455 heartbeat IPC: 4 cumulative IPC: 3.96 (Simulation time: 00 hr 22 min 09 sec)
Heartbeat CPU 0 instructions: 300000000 cycles: 75605393 heartbeat IPC: 3.995 cumulative IPC: 3.962 (Simulation time: 00 hr 22 min 52 sec)
Heartbeat CPU 0 instructions: 310000002 cycles: 78106888 heartbeat IPC: 3.998 cumulative IPC: 3.963 (Simulation time: 00 hr 23 min 38 sec)
Heartbeat CPU 0 instructions: 320000004 cycles: 80606909 heartbeat IPC: 4 cumulative IPC: 3.964 (Simulation time: 00 hr 24 min 24 sec)
Heartbeat CPU 0 instructions: 330000000 cycles: 83106930 heartbeat IPC: 4 cumulative IPC: 3.966 (Simulation time: 00 hr 25 min 08 sec)
Heartbeat CPU 0 instructions: 340000002 cycles: 85608210 heartbeat IPC: 3.998 cumulative IPC: 3.967 (Simulation time: 00 hr 26 min 00 sec)
Heartbeat CPU 0 instructions: 350000002 cycles: 88108232 heartbeat IPC: 4 cumulative IPC: 3.968 (Simulation time: 00 hr 26 min 49 sec)
Heartbeat CPU 0 instructions: 360000000 cycles: 90611357 heartbeat IPC: 3.995 cumulative IPC: 3.969 (Simulation time: 00 hr 27 min 38 sec)
Heartbeat CPU 0 instructions: 370000004 cycles: 93111769 heartbeat IPC: 3.999 cumulative IPC: 3.97 (Simulation time: 00 hr 28 min 24 sec)
Heartbeat CPU 0 instructions: 380000000 cycles: 95611789 heartbeat IPC: 4 cumulative IPC: 3.971 (Simulation time: 00 hr 29 min 05 sec)
Heartbeat CPU 0 instructions: 390000000 cycles: 98111811 heartbeat IPC: 4 cumulative IPC: 3.971 (Simulation time: 00 hr 29 min 49 sec)
Heartbeat CPU 0 instructions: 400000000 cycles: 100614757 heartbeat IPC: 3.995 cumulative IPC: 3.972 (Simulation time: 00 hr 30 min 33 sec)
Heartbeat CPU 0 instructions: 410000000 cycles: 103118028 heartbeat IPC: 3.995 cumulative IPC: 3.973 (Simulation time: 00 hr 31 min 17 sec)
Heartbeat CPU 0 instructions: 420000001 cycles: 105618050 heartbeat IPC: 4 cumulative IPC: 3.973 (Simulation time: 00 hr 32 min 01 sec)
Heartbeat CPU 0 instructions: 430000003 cycles: 108118071 heartbeat IPC: 4 cumulative IPC: 3.974 (Simulation time: 00 hr 32 min 45 sec)
Heartbeat CPU 0 instructions: 440000003 cycles: 110618093 heartbeat IPC: 4 cumulative IPC: 3.975 (Simulation time: 00 hr 33 min 27 sec)
Heartbeat CPU 0 instructions: 450000000 cycles: 113120984 heartbeat IPC: 3.995 cumulative IPC: 3.975 (Simulation time: 00 hr 34 min 09 sec)
Heartbeat CPU 0 instructions: 460000001 cycles: 115621374 heartbeat IPC: 3.999 cumulative IPC: 3.976 (Simulation time: 00 hr 34 min 50 sec)
Heartbeat CPU 0 instructions: 470000002 cycles: 118121395 heartbeat IPC: 4 cumulative IPC: 3.976 (Simulation time: 00 hr 35 min 33 sec)
Heartbeat CPU 0 instructions: 480000002 cycles: 120621417 heartbeat IPC: 4 cumulative IPC: 3.977 (Simulation time: 00 hr 36 min 15 sec)
Heartbeat CPU 0 instructions: 490000000 cycles: 123123016 heartbeat IPC: 3.997 cumulative IPC: 3.977 (Simulation time: 00 hr 36 min 59 sec)
Heartbeat CPU 0 instructions: 500000002 cycles: 125625982 heartbeat IPC: 3.995 cumulative IPC: 3.978 (Simulation time: 00 hr 37 min 42 sec)
Heartbeat CPU 0 instructions: 510000003 cycles: 128126372 heartbeat IPC: 3.999 cumulative IPC: 3.978 (Simulation time: 00 hr 38 min 24 sec)
Heartbeat CPU 0 instructions: 520000004 cycles: 130626393 heartbeat IPC: 4 cumulative IPC: 3.979 (Simulation time: 00 hr 39 min 08 sec)
Heartbeat CPU 0 instructions: 530000000 cycles: 133126436 heartbeat IPC: 4 cumulative IPC: 3.979 (Simulation time: 00 hr 39 min 52 sec)
Heartbeat CPU 0 instructions: 540000001 cycles: 135629470 heartbeat IPC: 3.995 cumulative IPC: 3.98 (Simulation time: 00 hr 40 min 34 sec)
Heartbeat CPU 0 instructions: 550000003 cycles: 138130923 heartbeat IPC: 3.998 cumulative IPC: 3.98 (Simulation time: 00 hr 41 min 19 sec)
Heartbeat CPU 0 instructions: 560000003 cycles: 140632478 heartbeat IPC: 3.998 cumulative IPC: 3.98 (Simulation time: 00 hr 42 min 04 sec)
Heartbeat CPU 0 instructions: 570000004 cycles: 143132500 heartbeat IPC: 4 cumulative IPC: 3.981 (Simulation time: 00 hr 42 min 46 sec)
Heartbeat CPU 0 instructions: 580000000 cycles: 145632522 heartbeat IPC: 4 cumulative IPC: 3.981 (Simulation time: 00 hr 43 min 29 sec)
Heartbeat CPU 0 instructions: 590000002 cycles: 148132559 heartbeat IPC: 4 cumulative IPC: 3.981 (Simulation time: 00 hr 44 min 12 sec)
*** Reached end of trace: (0, "traces/convolution.champsimtrace")
Heartbeat CPU 0 instructions: 600000000 cycles: 150641298 heartbeat IPC: 3.986 cumulative IPC: 3.981 (Simulation time: 00 hr 44 min 55 sec)
Heartbeat CPU 0 instructions: 610000002 cycles: 174857148 heartbeat IPC: 0.413 cumulative IPC: 3.449 (Simulation time: 00 hr 48 min 17 sec)
Heartbeat CPU 0 instructions: 620000001 cycles: 197927177 heartbeat IPC: 0.4335 cumulative IPC: 3.074 (Simulation time: 00 hr 51 min 29 sec)
Heartbeat CPU 0 instructions: 630000001 cycles: 210548285 heartbeat IPC: 0.7923 cumulative IPC: 2.929 (Simulation time: 00 hr 53 min 19 sec)
Heartbeat CPU 0 instructions: 640000004 cycles: 221159955 heartbeat IPC: 0.9424 cumulative IPC: 2.828 (Simulation time: 00 hr 54 min 53 sec)
Heartbeat CPU 0 instructions: 650000001 cycles: 231643320 heartbeat IPC: 0.9539 cumulative IPC: 2.738 (Simulation time: 00 hr 56 min 26 sec)
Simulation finished CPU 0 instructions: 600000001 cycles: 219143118 cumulative IPC: 2.738 (Simulation time: 00 hr 56 min 26 sec)
Simulation complete CPU 0 instructions: 600000001 cycles: 219143118 cumulative IPC: 2.738 (Simulation time: 00 hr 56 min 26 sec)

ChampSim completed all CPUs

=== Simulation ===
CPU 0 runs traces/convolution.champsimtrace
Region of Interest Statistics

CPU 0 cumulative IPC: 2.738 instructions: 600000001 cycles: 219143118
CPU 0 Branch Prediction Accuracy: 100% MPKI: 0.002858 Average ROB Occupancy at Mispredict: 78.6
Branch type MPKI
BRANCH_DIRECT_JUMP: 0.000107
BRANCH_INDIRECT: 4.17e-05
BRANCH_CONDITIONAL: 0.00258
BRANCH_DIRECT_CALL: 0.000103
BRANCH_INDIRECT_CALL: 8.33e-06
BRANCH_RETURN: 1.83e-05

LLC TOTAL        ACCESS:    1185060 HIT:     536903 MISS:     648157
LLC LOAD         ACCESS:       2886 HIT:        577 MISS:       2309
LLC RFO          ACCESS:     535121 HIT:         67 MISS:     535054
LLC PREFETCH     ACCESS:       2101 HIT:        531 MISS:       1570
LLC WRITE        ACCESS:     535170 HIT:     535088 MISS:         82
LLC TRANSLATION  ACCESS:     109782 HIT:        640 MISS:     109142
LLC PREFETCH REQUESTED:       2101 ISSUED:       2101 USEFUL:        794 USELESS:         45
LLC AVERAGE MISS LATENCY: 1032 cycles
cpu0_DTLB TOTAL        ACCESS:  113106005 HIT:  112752153 MISS:     353852
cpu0_DTLB LOAD         ACCESS:  113106005 HIT:  112752153 MISS:     353852
cpu0_DTLB RFO          ACCESS:          0 HIT:          0 MISS:          0
cpu0_DTLB PREFETCH     ACCESS:          0 HIT:          0 MISS:          0
cpu0_DTLB WRITE        ACCESS:          0 HIT:          0 MISS:          0
cpu0_DTLB TRANSLATION  ACCESS:          0 HIT:          0 MISS:          0
cpu0_DTLB PREFETCH REQUESTED:          0 ISSUED:          0 USEFUL:          0 USELESS:          0
cpu0_DTLB AVERAGE MISS LATENCY: 673.9 cycles
cpu0_ITLB TOTAL        ACCESS:       2118 HIT:       2084 MISS:         34
cpu0_ITLB LOAD         ACCESS:       2118 HIT:       2084 MISS:         34
cpu0_ITLB RFO          ACCESS:          0 HIT:          0 MISS:          0
cpu0_ITLB PREFETCH     ACCESS:          0 HIT:          0 MISS:          0
cpu0_ITLB WRITE        ACCESS:          0 HIT:          0 MISS:          0
cpu0_ITLB TRANSLATION  ACCESS:          0 HIT:          0 MISS:          0
cpu0_ITLB PREFETCH REQUESTED:          0 ISSUED:          0 USEFUL:          0 USELESS:          0
cpu0_ITLB AVERAGE MISS LATENCY: 710.5 cycles
cpu0_L1D TOTAL        ACCESS:  146341082 HIT:  140168774 MISS:    6172308
cpu0_L1D LOAD         ACCESS:   74188715 HIT:   74180631 MISS:       8084
cpu0_L1D RFO          ACCESS:          0 HIT:          0 MISS:          0
cpu0_L1D PREFETCH     ACCESS:          0 HIT:          0 MISS:          0
cpu0_L1D WRITE        ACCESS:   71971750 HIT:   65949792 MISS:    6021958
cpu0_L1D TRANSLATION  ACCESS:     180617 HIT:      38351 MISS:     142266
cpu0_L1D PREFETCH REQUESTED:          0 ISSUED:          0 USEFUL:          0 USELESS:          0
cpu0_L1D AVERAGE MISS LATENCY: 84.52 cycles
cpu0_L1I TOTAL        ACCESS:       2475 HIT:        988 MISS:       1487
cpu0_L1I LOAD         ACCESS:       2475 HIT:        988 MISS:       1487
cpu0_L1I RFO          ACCESS:          0 HIT:          0 MISS:          0
cpu0_L1I PREFETCH     ACCESS:          0 HIT:          0 MISS:          0
cpu0_L1I WRITE        ACCESS:          0 HIT:          0 MISS:          0
cpu0_L1I TRANSLATION  ACCESS:          0 HIT:          0 MISS:          0
cpu0_L1I PREFETCH REQUESTED:          0 ISSUED:          0 USEFUL:          0 USELESS:          0
cpu0_L1I AVERAGE MISS LATENCY: 651.1 cycles
cpu0_L2C TOTAL        ACCESS:    1193270 HIT:     545465 MISS:     647805
cpu0_L2C LOAD         ACCESS:       3311 HIT:        425 MISS:       2886
cpu0_L2C RFO          ACCESS:     539212 HIT:       4091 MISS:     535121
cpu0_L2C PREFETCH     ACCESS:          0 HIT:          0 MISS:          0
cpu0_L2C WRITE        ACCESS:     539634 HIT:     539619 MISS:         15
cpu0_L2C TRANSLATION  ACCESS:     111113 HIT:       1330 MISS:     109783
cpu0_L2C PREFETCH REQUESTED:          0 ISSUED:          0 USEFUL:          0 USELESS:          0
cpu0_L2C AVERAGE MISS LATENCY: 1052 cycles
cpu0_STLB TOTAL        ACCESS:     156159 HIT:         53 MISS:     156106
cpu0_STLB LOAD         ACCESS:     156159 HIT:         53 MISS:     156106
cpu0_STLB RFO          ACCESS:          0 HIT:          0 MISS:          0
cpu0_STLB PREFETCH     ACCESS:          0 HIT:          0 MISS:          0
cpu0_STLB WRITE        ACCESS:          0 HIT:          0 MISS:          0
cpu0_STLB TRANSLATION  ACCESS:          0 HIT:          0 MISS:          0
cpu0_STLB PREFETCH REQUESTED:          0 ISSUED:          0 USEFUL:          0 USELESS:          0
cpu0_STLB AVERAGE MISS LATENCY: 1737 cycles

DRAM Statistics

Channel 0 RQ ROW_BUFFER_HIT:     141765
  ROW_BUFFER_MISS:     505355
 AVG DBUS CONGESTED CYCLE: 3.982
WQ ROW_BUFFER_HIT: Channel 0 
  ROW_BUFFER_MISS:      94862
  FULL:     440486
