WARNING: physical memory size is smaller than virtual memory size.

*** ChampSim Multicore Out-of-Order Simulator ***
Warmup Instructions: 50000000
Simulation Instructions: 600000000
Number of CPUs: 1
Page size: 4096

CPU 0 Tage branch predictor
Off-chip DRAM Size: 4 GiB Channels: 1 Width: 64-bit Data Race: 3200 MT/s
Heartbeat CPU 0 instructions: 10000000 cycles: 2500202 heartbeat IPC: 4 cumulative IPC: 4 (Simulation time: 00 hr 00 min 38 sec)
Heartbeat CPU 0 instructions: 20000000 cycles: 5000202 heartbeat IPC: 4 cumulative IPC: 4 (Simulation time: 00 hr 01 min 19 sec)
Heartbeat CPU 0 instructions: 30000000 cycles: 7500202 heartbeat IPC: 4 cumulative IPC: 4 (Simulation time: 00 hr 01 min 56 sec)
Heartbeat CPU 0 instructions: 40000000 cycles: 10000202 heartbeat IPC: 4 cumulative IPC: 4 (Simulation time: 00 hr 02 min 35 sec)
Heartbeat CPU 0 instructions: 50000000 cycles: 12500202 heartbeat IPC: 4 cumulative IPC: 4 (Simulation time: 00 hr 03 min 13 sec)
Warmup finished CPU 0 instructions: 50000000 cycles: 12500203 cumulative IPC: 4 (Simulation time: 00 hr 03 min 13 sec)
Warmup complete CPU 0 instructions: 50000000 cycles: 12500203 cumulative IPC: 4 (Simulation time: 00 hr 03 min 13 sec)
Heartbeat CPU 0 instructions: 60000002 cycles: 15601886 heartbeat IPC: 3.224 cumulative IPC: 3.224 (Simulation time: 00 hr 04 min 00 sec)
Heartbeat CPU 0 instructions: 70000002 cycles: 18105004 heartbeat IPC: 3.995 cumulative IPC: 3.568 (Simulation time: 00 hr 04 min 44 sec)
Heartbeat CPU 0 instructions: 80000003 cycles: 20605026 heartbeat IPC: 4 cumulative IPC: 3.702 (Simulation time: 00 hr 05 min 29 sec)
Heartbeat CPU 0 instructions: 90000004 cycles: 23105047 heartbeat IPC: 4 cumulative IPC: 3.772 (Simulation time: 00 hr 06 min 16 sec)
Heartbeat CPU 0 instructions: 100000003 cycles: 25607429 heartbeat IPC: 3.996 cumulative IPC: 3.815 (Simulation time: 00 hr 07 min 02 sec)
Heartbeat CPU 0 instructions: 110000000 cycles: 28120024 heartbeat IPC: 3.98 cumulative IPC: 3.841 (Simulation time: 00 hr 07 min 46 sec)
Heartbeat CPU 0 instructions: 120000000 cycles: 30625178 heartbeat IPC: 3.992 cumulative IPC: 3.862 (Simulation time: 00 hr 08 min 31 sec)
Heartbeat CPU 0 instructions: 130000000 cycles: 33137145 heartbeat IPC: 3.981 cumulative IPC: 3.877 (Simulation time: 00 hr 09 min 19 sec)
Heartbeat CPU 0 instructions: 140000001 cycles: 35644434 heartbeat IPC: 3.988 cumulative IPC: 3.889 (Simulation time: 00 hr 10 min 04 sec)
Heartbeat CPU 0 instructions: 150000003 cycles: 38147963 heartbeat IPC: 3.994 cumulative IPC: 3.899 (Simulation time: 00 hr 10 min 50 sec)
Heartbeat CPU 0 instructions: 160000003 cycles: 40650854 heartbeat IPC: 3.995 cumulative IPC: 3.908 (Simulation time: 00 hr 11 min 36 sec)
Heartbeat CPU 0 instructions: 170000000 cycles: 43156376 heartbeat IPC: 3.991 cumulative IPC: 3.914 (Simulation time: 00 hr 12 min 29 sec)
Heartbeat CPU 0 instructions: 180000001 cycles: 45656523 heartbeat IPC: 4 cumulative IPC: 3.921 (Simulation time: 00 hr 13 min 15 sec)
Heartbeat CPU 0 instructions: 190000002 cycles: 48160616 heartbeat IPC: 3.993 cumulative IPC: 3.926 (Simulation time: 00 hr 13 min 59 sec)
Heartbeat CPU 0 instructions: 200000002 cycles: 50670379 heartbeat IPC: 3.984 cumulative IPC: 3.93 (Simulation time: 00 hr 14 min 43 sec)
Heartbeat CPU 0 instructions: 210000000 cycles: 53179824 heartbeat IPC: 3.985 cumulative IPC: 3.933 (Simulation time: 00 hr 15 min 25 sec)
Heartbeat CPU 0 instructions: 220000001 cycles: 55690157 heartbeat IPC: 3.984 cumulative IPC: 3.936 (Simulation time: 00 hr 16 min 07 sec)
Heartbeat CPU 0 instructions: 230000002 cycles: 58197641 heartbeat IPC: 3.988 cumulative IPC: 3.939 (Simulation time: 00 hr 16 min 50 sec)
Heartbeat CPU 0 instructions: 240000004 cycles: 60701864 heartbeat IPC: 3.993 cumulative IPC: 3.942 (Simulation time: 00 hr 17 min 35 sec)
Heartbeat CPU 0 instructions: 250000000 cycles: 63217979 heartbeat IPC: 3.974 cumulative IPC: 3.943 (Simulation time: 00 hr 18 min 18 sec)
Heartbeat CPU 0 instructions: 260000000 cycles: 65726797 heartbeat IPC: 3.986 cumulative IPC: 3.945 (Simulation time: 00 hr 19 min 01 sec)
Heartbeat CPU 0 instructions: 270000002 cycles: 68235202 heartbeat IPC: 3.987 cumulative IPC: 3.947 (Simulation time: 00 hr 19 min 44 sec)
Heartbeat CPU 0 instructions: 280000003 cycles: 70749268 heartbeat IPC: 3.978 cumulative IPC: 3.949 (Simulation time: 00 hr 20 min 26 sec)
Heartbeat CPU 0 instructions: 290000000 cycles: 73254015 heartbeat IPC: 3.992 cumulative IPC: 3.95 (Simulation time: 00 hr 21 min 09 sec)
Heartbeat CPU 0 instructions: 300000000 cycles: 75760559 heartbeat IPC: 3.99 cumulative IPC: 3.952 (Simulation time: 00 hr 21 min 51 sec)
Heartbeat CPU 0 instructions: 310000002 cycles: 78262689 heartbeat IPC: 3.997 cumulative IPC: 3.954 (Simulation time: 00 hr 22 min 34 sec)
Heartbeat CPU 0 instructions: 320000004 cycles: 80762972 heartbeat IPC: 4 cumulative IPC: 3.955 (Simulation time: 00 hr 23 min 18 sec)
Heartbeat CPU 0 instructions: 330000000 cycles: 83268429 heartbeat IPC: 3.991 cumulative IPC: 3.957 (Simulation time: 00 hr 24 min 03 sec)
Heartbeat CPU 0 instructions: 340000002 cycles: 85779410 heartbeat IPC: 3.983 cumulative IPC: 3.957 (Simulation time: 00 hr 24 min 48 sec)
Heartbeat CPU 0 instructions: 350000002 cycles: 88284871 heartbeat IPC: 3.991 cumulative IPC: 3.959 (Simulation time: 00 hr 25 min 32 sec)
Heartbeat CPU 0 instructions: 360000000 cycles: 90795397 heartbeat IPC: 3.983 cumulative IPC: 3.959 (Simulation time: 00 hr 26 min 13 sec)
Heartbeat CPU 0 instructions: 370000000 cycles: 93306114 heartbeat IPC: 3.983 cumulative IPC: 3.96 (Simulation time: 00 hr 26 min 56 sec)
Heartbeat CPU 0 instructions: 380000000 cycles: 95814874 heartbeat IPC: 3.986 cumulative IPC: 3.961 (Simulation time: 00 hr 27 min 38 sec)
Heartbeat CPU 0 instructions: 390000000 cycles: 98318753 heartbeat IPC: 3.994 cumulative IPC: 3.962 (Simulation time: 00 hr 28 min 21 sec)
Heartbeat CPU 0 instructions: 400000000 cycles: 100821720 heartbeat IPC: 3.995 cumulative IPC: 3.963 (Simulation time: 00 hr 29 min 08 sec)
Heartbeat CPU 0 instructions: 410000000 cycles: 103332955 heartbeat IPC: 3.982 cumulative IPC: 3.963 (Simulation time: 00 hr 29 min 51 sec)
Heartbeat CPU 0 instructions: 420000001 cycles: 105836370 heartbeat IPC: 3.995 cumulative IPC: 3.964 (Simulation time: 00 hr 30 min 33 sec)
Heartbeat CPU 0 instructions: 430000003 cycles: 108341282 heartbeat IPC: 3.992 cumulative IPC: 3.965 (Simulation time: 00 hr 31 min 16 sec)
Heartbeat CPU 0 instructions: 440000003 cycles: 110851829 heartbeat IPC: 3.983 cumulative IPC: 3.965 (Simulation time: 00 hr 31 min 58 sec)
Heartbeat CPU 0 instructions: 450000004 cycles: 113369094 heartbeat IPC: 3.973 cumulative IPC: 3.966 (Simulation time: 00 hr 32 min 40 sec)
Heartbeat CPU 0 instructions: 460000001 cycles: 115876751 heartbeat IPC: 3.988 cumulative IPC: 3.966 (Simulation time: 00 hr 33 min 22 sec)
Heartbeat CPU 0 instructions: 470000002 cycles: 118382024 heartbeat IPC: 3.992 cumulative IPC: 3.967 (Simulation time: 00 hr 34 min 06 sec)
Heartbeat CPU 0 instructions: 480000001 cycles: 120890695 heartbeat IPC: 3.986 cumulative IPC: 3.967 (Simulation time: 00 hr 34 min 48 sec)
Heartbeat CPU 0 instructions: 490000000 cycles: 123403460 heartbeat IPC: 3.98 cumulative IPC: 3.967 (Simulation time: 00 hr 35 min 32 sec)
Heartbeat CPU 0 instructions: 500000002 cycles: 125917392 heartbeat IPC: 3.978 cumulative IPC: 3.968 (Simulation time: 00 hr 36 min 17 sec)
Heartbeat CPU 0 instructions: 510000003 cycles: 128419862 heartbeat IPC: 3.996 cumulative IPC: 3.968 (Simulation time: 00 hr 37 min 06 sec)
Heartbeat CPU 0 instructions: 520000004 cycles: 130919884 heartbeat IPC: 4 cumulative IPC: 3.969 (Simulation time: 00 hr 37 min 56 sec)
Heartbeat CPU 0 instructions: 530000000 cycles: 133422177 heartbeat IPC: 3.996 cumulative IPC: 3.97 (Simulation time: 00 hr 38 min 44 sec)
Heartbeat CPU 0 instructions: 540000001 cycles: 135924238 heartbeat IPC: 3.997 cumulative IPC: 3.97 (Simulation time: 00 hr 39 min 28 sec)
Heartbeat CPU 0 instructions: 550000002 cycles: 138426506 heartbeat IPC: 3.996 cumulative IPC: 3.971 (Simulation time: 00 hr 40 min 19 sec)
Heartbeat CPU 0 instructions: 560000003 cycles: 140931637 heartbeat IPC: 3.992 cumulative IPC: 3.971 (Simulation time: 00 hr 41 min 09 sec)
Heartbeat CPU 0 instructions: 570000004 cycles: 143435670 heartbeat IPC: 3.994 cumulative IPC: 3.971 (Simulation time: 00 hr 42 min 04 sec)
Heartbeat CPU 0 instructions: 580000000 cycles: 145944175 heartbeat IPC: 3.986 cumulative IPC: 3.972 (Simulation time: 00 hr 42 min 53 sec)
Heartbeat CPU 0 instructions: 590000002 cycles: 148450667 heartbeat IPC: 3.99 cumulative IPC: 3.972 (Simulation time: 00 hr 43 min 38 sec)
*** Reached end of trace: (0, "traces/convolution.champsimtrace")
Heartbeat CPU 0 instructions: 600000000 cycles: 150963291 heartbeat IPC: 3.98 cumulative IPC: 3.972 (Simulation time: 00 hr 44 min 25 sec)
Heartbeat CPU 0 instructions: 610000004 cycles: 173583702 heartbeat IPC: 0.4421 cumulative IPC: 3.476 (Simulation time: 00 hr 48 min 15 sec)
Heartbeat CPU 0 instructions: 620000001 cycles: 194365586 heartbeat IPC: 0.4812 cumulative IPC: 3.134 (Simulation time: 00 hr 51 min 35 sec)
Heartbeat CPU 0 instructions: 630000001 cycles: 205253420 heartbeat IPC: 0.9185 cumulative IPC: 3.009 (Simulation time: 00 hr 53 min 34 sec)
Heartbeat CPU 0 instructions: 640000004 cycles: 216886146 heartbeat IPC: 0.8596 cumulative IPC: 2.887 (Simulation time: 00 hr 55 min 30 sec)
Heartbeat CPU 0 instructions: 650000001 cycles: 230653025 heartbeat IPC: 0.7264 cumulative IPC: 2.75 (Simulation time: 00 hr 57 min 38 sec)
Simulation finished CPU 0 instructions: 600000001 cycles: 218152823 cumulative IPC: 2.75 (Simulation time: 00 hr 57 min 38 sec)
Simulation complete CPU 0 instructions: 600000001 cycles: 218152823 cumulative IPC: 2.75 (Simulation time: 00 hr 57 min 38 sec)

ChampSim completed all CPUs

=== Simulation ===
CPU 0 runs traces/convolution.champsimtrace
Region of Interest Statistics

CPU 0 cumulative IPC: 2.75 instructions: 600000001 cycles: 218152823
CPU 0 Branch Prediction Accuracy: 100% MPKI: 0.002858 Average ROB Occupancy at Mispredict: 78.03
Branch type MPKI
BRANCH_DIRECT_JUMP: 0.000107
BRANCH_INDIRECT: 4.17e-05
BRANCH_CONDITIONAL: 0.00258
BRANCH_DIRECT_CALL: 0.000103
BRANCH_INDIRECT_CALL: 8.33e-06
BRANCH_RETURN: 1.83e-05

LLC TOTAL        ACCESS:    1186849 HIT:     203654 MISS:     983195
LLC LOAD         ACCESS:       2886 HIT:        790 MISS:       2096
LLC RFO          ACCESS:     535122 HIT:        828 MISS:     534294
LLC PREFETCH     ACCESS:       2886 HIT:        278 MISS:       2608
LLC WRITE        ACCESS:     535175 HIT:     200055 MISS:     335120
LLC TRANSLATION  ACCESS:     110780 HIT:       1703 MISS:     109077
LLC PREFETCH REQUESTED:       2886 ISSUED:       2886 USEFUL:       1429 USELESS:        134
LLC AVERAGE MISS LATENCY: 716 cycles
cpu0_DTLB TOTAL        ACCESS:  113078717 HIT:  112727695 MISS:     351022
cpu0_DTLB LOAD         ACCESS:  113078717 HIT:  112727695 MISS:     351022
cpu0_DTLB RFO          ACCESS:          0 HIT:          0 MISS:          0
cpu0_DTLB PREFETCH     ACCESS:          0 HIT:          0 MISS:          0
cpu0_DTLB WRITE        ACCESS:          0 HIT:          0 MISS:          0
cpu0_DTLB TRANSLATION  ACCESS:          0 HIT:          0 MISS:          0
cpu0_DTLB PREFETCH REQUESTED:          0 ISSUED:          0 USEFUL:          0 USELESS:          0
cpu0_DTLB AVERAGE MISS LATENCY: 658.2 cycles
cpu0_ITLB TOTAL        ACCESS:       2109 HIT:       2075 MISS:         34
cpu0_ITLB LOAD         ACCESS:       2109 HIT:       2075 MISS:         34
cpu0_ITLB RFO          ACCESS:          0 HIT:          0 MISS:          0
cpu0_ITLB PREFETCH     ACCESS:          0 HIT:          0 MISS:          0
cpu0_ITLB WRITE        ACCESS:          0 HIT:          0 MISS:          0
cpu0_ITLB TRANSLATION  ACCESS:          0 HIT:          0 MISS:          0
cpu0_ITLB PREFETCH REQUESTED:          0 ISSUED:          0 USEFUL:          0 USELESS:          0
cpu0_ITLB AVERAGE MISS LATENCY: 1133 cycles
cpu0_L1D TOTAL        ACCESS:  146313256 HIT:  140139418 MISS:    6173838
cpu0_L1D LOAD         ACCESS:   74178857 HIT:   74171090 MISS:       7767
cpu0_L1D RFO          ACCESS:          0 HIT:          0 MISS:          0
cpu0_L1D PREFETCH     ACCESS:          0 HIT:          0 MISS:          0
cpu0_L1D WRITE        ACCESS:   71952876 HIT:   65929804 MISS:    6023072
cpu0_L1D TRANSLATION  ACCESS:     181523 HIT:      38524 MISS:     142999
cpu0_L1D PREFETCH REQUESTED:          0 ISSUED:          0 USEFUL:          0 USELESS:          0
cpu0_L1D AVERAGE MISS LATENCY: 90.6 cycles
cpu0_L1I TOTAL        ACCESS:       2463 HIT:        988 MISS:       1475
cpu0_L1I LOAD         ACCESS:       2463 HIT:        988 MISS:       1475
cpu0_L1I RFO          ACCESS:          0 HIT:          0 MISS:          0
cpu0_L1I PREFETCH     ACCESS:          0 HIT:          0 MISS:          0
cpu0_L1I WRITE        ACCESS:          0 HIT:          0 MISS:          0
cpu0_L1I TRANSLATION  ACCESS:          0 HIT:          0 MISS:          0
cpu0_L1I PREFETCH REQUESTED:          0 ISSUED:          0 USEFUL:          0 USELESS:          0
cpu0_L1I AVERAGE MISS LATENCY: 584.1 cycles
cpu0_L2C TOTAL        ACCESS:    1194691 HIT:     545887 MISS:     648804
cpu0_L2C LOAD         ACCESS:       3311 HIT:        425 MISS:       2886
cpu0_L2C RFO          ACCESS:     539293 HIT:       4171 MISS:     535122
cpu0_L2C PREFETCH     ACCESS:          0 HIT:          0 MISS:          0
cpu0_L2C WRITE        ACCESS:     539647 HIT:     539632 MISS:         15
cpu0_L2C TRANSLATION  ACCESS:     112440 HIT:       1659 MISS:     110781
cpu0_L2C PREFETCH REQUESTED:          0 ISSUED:          0 USEFUL:          0 USELESS:          0
cpu0_L2C AVERAGE MISS LATENCY: 1103 cycles
cpu0_STLB TOTAL        ACCESS:     156172 HIT:         57 MISS:     156115
cpu0_STLB LOAD         ACCESS:     156172 HIT:         57 MISS:     156115
cpu0_STLB RFO          ACCESS:          0 HIT:          0 MISS:          0
cpu0_STLB PREFETCH     ACCESS:          0 HIT:          0 MISS:          0
cpu0_STLB WRITE        ACCESS:          0 HIT:          0 MISS:          0
cpu0_STLB TRANSLATION  ACCESS:          0 HIT:          0 MISS:          0
cpu0_STLB PREFETCH REQUESTED:          0 ISSUED:          0 USEFUL:          0 USELESS:          0
cpu0_STLB AVERAGE MISS LATENCY: 1703 cycles

DRAM Statistics

Channel 0 RQ ROW_BUFFER_HIT:     148494
  ROW_BUFFER_MISS:     498105
 AVG DBUS CONGESTED CYCLE: 3.98
WQ ROW_BUFFER_HIT: Channel 0 
  ROW_BUFFER_MISS:     105691
  FULL:     426492
Final OPTGen Hits: 400
Final OPTGen Access: 14348
Final OPTGEN Hit Rate: 2.78785
