WARNING: physical memory size is smaller than virtual memory size.

*** ChampSim Multicore Out-of-Order Simulator ***
Warmup Instructions: 50000000
Simulation Instructions: 600000000
Number of CPUs: 1
Page size: 4096

Off-chip DRAM Size: 4 GiB Channels: 1 Width: 64-bit Data Race: 3200 MT/s
Heartbeat CPU 0 instructions: 10000002 cycles: 2500202 heartbeat IPC: 4 cumulative IPC: 4 (Simulation time: 00 hr 00 min 38 sec)
Heartbeat CPU 0 instructions: 20000002 cycles: 5000202 heartbeat IPC: 4 cumulative IPC: 4 (Simulation time: 00 hr 01 min 18 sec)
Heartbeat CPU 0 instructions: 30000002 cycles: 7500202 heartbeat IPC: 4 cumulative IPC: 4 (Simulation time: 00 hr 01 min 55 sec)
Heartbeat CPU 0 instructions: 40000002 cycles: 10000202 heartbeat IPC: 4 cumulative IPC: 4 (Simulation time: 00 hr 02 min 32 sec)
Heartbeat CPU 0 instructions: 50000002 cycles: 12500202 heartbeat IPC: 4 cumulative IPC: 4 (Simulation time: 00 hr 03 min 13 sec)
Warmup finished CPU 0 instructions: 50000002 cycles: 12500203 cumulative IPC: 4 (Simulation time: 00 hr 03 min 13 sec)
Warmup complete CPU 0 instructions: 50000002 cycles: 12500203 cumulative IPC: 4 (Simulation time: 00 hr 03 min 13 sec)
Heartbeat CPU 0 instructions: 60000004 cycles: 15736617 heartbeat IPC: 3.09 cumulative IPC: 3.09 (Simulation time: 00 hr 04 min 12 sec)
Heartbeat CPU 0 instructions: 70000000 cycles: 18391504 heartbeat IPC: 3.767 cumulative IPC: 3.395 (Simulation time: 00 hr 05 min 09 sec)
Heartbeat CPU 0 instructions: 80000003 cycles: 21049383 heartbeat IPC: 3.762 cumulative IPC: 3.509 (Simulation time: 00 hr 06 min 03 sec)
Heartbeat CPU 0 instructions: 90000004 cycles: 23710012 heartbeat IPC: 3.759 cumulative IPC: 3.568 (Simulation time: 00 hr 06 min 53 sec)
Heartbeat CPU 0 instructions: 100000004 cycles: 26362130 heartbeat IPC: 3.771 cumulative IPC: 3.607 (Simulation time: 00 hr 07 min 36 sec)
Heartbeat CPU 0 instructions: 110000004 cycles: 29013789 heartbeat IPC: 3.771 cumulative IPC: 3.633 (Simulation time: 00 hr 08 min 15 sec)
Heartbeat CPU 0 instructions: 120000000 cycles: 31667911 heartbeat IPC: 3.768 cumulative IPC: 3.652 (Simulation time: 00 hr 08 min 51 sec)
Heartbeat CPU 0 instructions: 130000000 cycles: 34320357 heartbeat IPC: 3.77 cumulative IPC: 3.666 (Simulation time: 00 hr 09 min 26 sec)
Heartbeat CPU 0 instructions: 140000004 cycles: 36973257 heartbeat IPC: 3.769 cumulative IPC: 3.678 (Simulation time: 00 hr 10 min 00 sec)
Heartbeat CPU 0 instructions: 150000004 cycles: 39629064 heartbeat IPC: 3.765 cumulative IPC: 3.686 (Simulation time: 00 hr 10 min 35 sec)
Heartbeat CPU 0 instructions: 160000000 cycles: 42275748 heartbeat IPC: 3.778 cumulative IPC: 3.694 (Simulation time: 00 hr 11 min 09 sec)
Heartbeat CPU 0 instructions: 170000000 cycles: 44928513 heartbeat IPC: 3.77 cumulative IPC: 3.7 (Simulation time: 00 hr 11 min 43 sec)
Heartbeat CPU 0 instructions: 180000000 cycles: 47580356 heartbeat IPC: 3.771 cumulative IPC: 3.706 (Simulation time: 00 hr 12 min 17 sec)
Heartbeat CPU 0 instructions: 190000000 cycles: 50234327 heartbeat IPC: 3.768 cumulative IPC: 3.71 (Simulation time: 00 hr 12 min 50 sec)
Heartbeat CPU 0 instructions: 200000003 cycles: 52885737 heartbeat IPC: 3.772 cumulative IPC: 3.714 (Simulation time: 00 hr 13 min 23 sec)
Heartbeat CPU 0 instructions: 210000004 cycles: 55541042 heartbeat IPC: 3.766 cumulative IPC: 3.717 (Simulation time: 00 hr 13 min 56 sec)
Heartbeat CPU 0 instructions: 220000004 cycles: 58197759 heartbeat IPC: 3.764 cumulative IPC: 3.72 (Simulation time: 00 hr 14 min 29 sec)
Heartbeat CPU 0 instructions: 230000000 cycles: 60853651 heartbeat IPC: 3.765 cumulative IPC: 3.723 (Simulation time: 00 hr 14 min 59 sec)
Heartbeat CPU 0 instructions: 240000000 cycles: 63502346 heartbeat IPC: 3.775 cumulative IPC: 3.725 (Simulation time: 00 hr 15 min 30 sec)
Heartbeat CPU 0 instructions: 250000003 cycles: 66154562 heartbeat IPC: 3.77 cumulative IPC: 3.728 (Simulation time: 00 hr 16 min 00 sec)
Heartbeat CPU 0 instructions: 260000004 cycles: 68805997 heartbeat IPC: 3.772 cumulative IPC: 3.73 (Simulation time: 00 hr 16 min 30 sec)
Heartbeat CPU 0 instructions: 270000004 cycles: 71461073 heartbeat IPC: 3.766 cumulative IPC: 3.731 (Simulation time: 00 hr 17 min 01 sec)
Heartbeat CPU 0 instructions: 280000000 cycles: 74118109 heartbeat IPC: 3.764 cumulative IPC: 3.733 (Simulation time: 00 hr 17 min 32 sec)
Heartbeat CPU 0 instructions: 290000000 cycles: 76772741 heartbeat IPC: 3.767 cumulative IPC: 3.734 (Simulation time: 00 hr 18 min 03 sec)
Heartbeat CPU 0 instructions: 300000001 cycles: 79425565 heartbeat IPC: 3.77 cumulative IPC: 3.736 (Simulation time: 00 hr 18 min 34 sec)
Heartbeat CPU 0 instructions: 310000004 cycles: 82074204 heartbeat IPC: 3.776 cumulative IPC: 3.737 (Simulation time: 00 hr 19 min 05 sec)
Heartbeat CPU 0 instructions: 320000003 cycles: 84728121 heartbeat IPC: 3.768 cumulative IPC: 3.738 (Simulation time: 00 hr 19 min 36 sec)
Heartbeat CPU 0 instructions: 330000004 cycles: 87380278 heartbeat IPC: 3.771 cumulative IPC: 3.739 (Simulation time: 00 hr 20 min 05 sec)
Heartbeat CPU 0 instructions: 340000004 cycles: 90031553 heartbeat IPC: 3.772 cumulative IPC: 3.74 (Simulation time: 00 hr 20 min 36 sec)
Heartbeat CPU 0 instructions: 350000000 cycles: 92682467 heartbeat IPC: 3.772 cumulative IPC: 3.741 (Simulation time: 00 hr 21 min 07 sec)
Heartbeat CPU 0 instructions: 360000000 cycles: 95333389 heartbeat IPC: 3.772 cumulative IPC: 3.742 (Simulation time: 00 hr 21 min 37 sec)
Heartbeat CPU 0 instructions: 370000004 cycles: 97984054 heartbeat IPC: 3.773 cumulative IPC: 3.743 (Simulation time: 00 hr 22 min 08 sec)
Heartbeat CPU 0 instructions: 380000004 cycles: 100636769 heartbeat IPC: 3.77 cumulative IPC: 3.744 (Simulation time: 00 hr 22 min 38 sec)
Heartbeat CPU 0 instructions: 390000004 cycles: 103291420 heartbeat IPC: 3.767 cumulative IPC: 3.745 (Simulation time: 00 hr 23 min 08 sec)
Heartbeat CPU 0 instructions: 400000000 cycles: 105939747 heartbeat IPC: 3.776 cumulative IPC: 3.746 (Simulation time: 00 hr 23 min 39 sec)
Heartbeat CPU 0 instructions: 410000000 cycles: 108592875 heartbeat IPC: 3.769 cumulative IPC: 3.746 (Simulation time: 00 hr 24 min 09 sec)
Heartbeat CPU 0 instructions: 420000004 cycles: 111250498 heartbeat IPC: 3.763 cumulative IPC: 3.747 (Simulation time: 00 hr 24 min 39 sec)
Heartbeat CPU 0 instructions: 430000004 cycles: 113904011 heartbeat IPC: 3.769 cumulative IPC: 3.747 (Simulation time: 00 hr 25 min 10 sec)
Heartbeat CPU 0 instructions: 440000004 cycles: 116554833 heartbeat IPC: 3.772 cumulative IPC: 3.748 (Simulation time: 00 hr 25 min 40 sec)
Heartbeat CPU 0 instructions: 450000004 cycles: 119202790 heartbeat IPC: 3.776 cumulative IPC: 3.749 (Simulation time: 00 hr 26 min 10 sec)
Heartbeat CPU 0 instructions: 460000004 cycles: 121858030 heartbeat IPC: 3.766 cumulative IPC: 3.749 (Simulation time: 00 hr 26 min 41 sec)
Heartbeat CPU 0 instructions: 470000000 cycles: 124512899 heartbeat IPC: 3.767 cumulative IPC: 3.75 (Simulation time: 00 hr 27 min 12 sec)
Heartbeat CPU 0 instructions: 480000000 cycles: 127163999 heartbeat IPC: 3.772 cumulative IPC: 3.75 (Simulation time: 00 hr 27 min 42 sec)
Heartbeat CPU 0 instructions: 490000004 cycles: 129816724 heartbeat IPC: 3.77 cumulative IPC: 3.751 (Simulation time: 00 hr 28 min 13 sec)
Heartbeat CPU 0 instructions: 500000004 cycles: 132467058 heartbeat IPC: 3.773 cumulative IPC: 3.751 (Simulation time: 00 hr 28 min 43 sec)
Heartbeat CPU 0 instructions: 510000004 cycles: 135120328 heartbeat IPC: 3.769 cumulative IPC: 3.751 (Simulation time: 00 hr 29 min 13 sec)
Heartbeat CPU 0 instructions: 520000000 cycles: 137772601 heartbeat IPC: 3.77 cumulative IPC: 3.752 (Simulation time: 00 hr 29 min 43 sec)
Heartbeat CPU 0 instructions: 530000000 cycles: 140433696 heartbeat IPC: 3.758 cumulative IPC: 3.752 (Simulation time: 00 hr 30 min 13 sec)
Heartbeat CPU 0 instructions: 540000004 cycles: 143082814 heartbeat IPC: 3.775 cumulative IPC: 3.752 (Simulation time: 00 hr 30 min 43 sec)
Heartbeat CPU 0 instructions: 550000004 cycles: 145735995 heartbeat IPC: 3.769 cumulative IPC: 3.753 (Simulation time: 00 hr 31 min 13 sec)
Heartbeat CPU 0 instructions: 560000000 cycles: 148385477 heartbeat IPC: 3.774 cumulative IPC: 3.753 (Simulation time: 00 hr 31 min 43 sec)
Heartbeat CPU 0 instructions: 570000000 cycles: 151036650 heartbeat IPC: 3.772 cumulative IPC: 3.754 (Simulation time: 00 hr 32 min 13 sec)
Heartbeat CPU 0 instructions: 580000000 cycles: 153687953 heartbeat IPC: 3.772 cumulative IPC: 3.754 (Simulation time: 00 hr 32 min 44 sec)
Heartbeat CPU 0 instructions: 590000000 cycles: 156339552 heartbeat IPC: 3.771 cumulative IPC: 3.754 (Simulation time: 00 hr 33 min 15 sec)
*** Reached end of trace: (0, "traces/convolution.champsimtrace")
Heartbeat CPU 0 instructions: 600000000 cycles: 158997638 heartbeat IPC: 3.762 cumulative IPC: 3.754 (Simulation time: 00 hr 33 min 45 sec)
Heartbeat CPU 0 instructions: 610000004 cycles: 181024257 heartbeat IPC: 0.454 cumulative IPC: 3.323 (Simulation time: 00 hr 36 min 13 sec)
Heartbeat CPU 0 instructions: 620000000 cycles: 200810212 heartbeat IPC: 0.5054 cumulative IPC: 3.027 (Simulation time: 00 hr 38 min 29 sec)
Heartbeat CPU 0 instructions: 630000001 cycles: 205527112 heartbeat IPC: 2.12 cumulative IPC: 3.005 (Simulation time: 00 hr 39 min 15 sec)
Heartbeat CPU 0 instructions: 640000002 cycles: 215788309 heartbeat IPC: 0.9745 cumulative IPC: 2.902 (Simulation time: 00 hr 40 min 35 sec)
Heartbeat CPU 0 instructions: 650000002 cycles: 226563309 heartbeat IPC: 0.9281 cumulative IPC: 2.803 (Simulation time: 00 hr 41 min 52 sec)
Simulation finished CPU 0 instructions: 600000000 cycles: 214063107 cumulative IPC: 2.803 (Simulation time: 00 hr 41 min 52 sec)
Simulation complete CPU 0 instructions: 600000000 cycles: 214063107 cumulative IPC: 2.803 (Simulation time: 00 hr 41 min 52 sec)

ChampSim completed all CPUs

=== Simulation ===
CPU 0 runs traces/convolution.champsimtrace
Region of Interest Statistics

CPU 0 cumulative IPC: 2.803 instructions: 600000000 cycles: 214063107
CPU 0 Branch Prediction Accuracy: 99.5% MPKI: 0.9609 Average ROB Occupancy at Mispredict: 97.71
Branch type MPKI
BRANCH_DIRECT_JUMP: 1e-05
BRANCH_INDIRECT: 4.67e-05
BRANCH_CONDITIONAL: 0.961
BRANCH_DIRECT_CALL: 6.67e-06
BRANCH_INDIRECT_CALL: 8.33e-06
BRANCH_RETURN: 2.17e-05

LLC TOTAL        ACCESS:    1193472 HIT:     202694 MISS:     990778
LLC LOAD         ACCESS:       2895 HIT:       2537 MISS:        358
LLC RFO          ACCESS:     539054 HIT:      29862 MISS:     509192
LLC PREFETCH     ACCESS:       2895 HIT:       2559 MISS:        336
LLC WRITE        ACCESS:     539105 HIT:     137940 MISS:     401165
LLC TRANSLATION  ACCESS:     109523 HIT:      29796 MISS:      79727
LLC PREFETCH REQUESTED:       2895 ISSUED:       2895 USEFUL:         19 USELESS:        290
LLC AVERAGE MISS LATENCY: 625.6 cycles
cpu0_DTLB TOTAL        ACCESS:  121064625 HIT:  120748619 MISS:     316006
cpu0_DTLB LOAD         ACCESS:  121064625 HIT:  120748619 MISS:     316006
cpu0_DTLB RFO          ACCESS:          0 HIT:          0 MISS:          0
cpu0_DTLB PREFETCH     ACCESS:          0 HIT:          0 MISS:          0
cpu0_DTLB WRITE        ACCESS:          0 HIT:          0 MISS:          0
cpu0_DTLB TRANSLATION  ACCESS:          0 HIT:          0 MISS:          0
cpu0_DTLB PREFETCH REQUESTED:          0 ISSUED:          0 USEFUL:          0 USELESS:          0
cpu0_DTLB AVERAGE MISS LATENCY: 658 cycles
cpu0_ITLB TOTAL        ACCESS:       1992 HIT:       1939 MISS:         53
cpu0_ITLB LOAD         ACCESS:       1992 HIT:       1939 MISS:         53
cpu0_ITLB RFO          ACCESS:          0 HIT:          0 MISS:          0
cpu0_ITLB PREFETCH     ACCESS:          0 HIT:          0 MISS:          0
cpu0_ITLB WRITE        ACCESS:          0 HIT:          0 MISS:          0
cpu0_ITLB TRANSLATION  ACCESS:          0 HIT:          0 MISS:          0
cpu0_ITLB PREFETCH REQUESTED:          0 ISSUED:          0 USEFUL:          0 USELESS:          0
cpu0_ITLB AVERAGE MISS LATENCY: 617.3 cycles
cpu0_L1D TOTAL        ACCESS:  152890975 HIT:  146701950 MISS:    6189025
cpu0_L1D LOAD         ACCESS:   79942652 HIT:   79937065 MISS:       5587
cpu0_L1D RFO          ACCESS:          0 HIT:          0 MISS:          0
cpu0_L1D PREFETCH     ACCESS:          0 HIT:          0 MISS:          0
cpu0_L1D WRITE        ACCESS:   72767800 HIT:   66730516 MISS:    6037284
cpu0_L1D TRANSLATION  ACCESS:     180523 HIT:      34369 MISS:     146154
cpu0_L1D PREFETCH REQUESTED:          0 ISSUED:          0 USEFUL:          0 USELESS:          0
cpu0_L1D AVERAGE MISS LATENCY: 79.88 cycles
cpu0_L1I TOTAL        ACCESS:       2294 HIT:       1044 MISS:       1250
cpu0_L1I LOAD         ACCESS:       2294 HIT:       1044 MISS:       1250
cpu0_L1I RFO          ACCESS:          0 HIT:          0 MISS:          0
cpu0_L1I PREFETCH     ACCESS:          0 HIT:          0 MISS:          0
cpu0_L1I WRITE        ACCESS:          0 HIT:          0 MISS:          0
cpu0_L1I TRANSLATION  ACCESS:          0 HIT:          0 MISS:          0
cpu0_L1I PREFETCH REQUESTED:          0 ISSUED:          0 USEFUL:          0 USELESS:          0
cpu0_L1I AVERAGE MISS LATENCY: 215.9 cycles
cpu0_L2C TOTAL        ACCESS:    1198857 HIT:     547363 MISS:     651494
cpu0_L2C LOAD         ACCESS:       3322 HIT:        427 MISS:       2895
cpu0_L2C RFO          ACCESS:     542285 HIT:       3230 MISS:     539055
cpu0_L2C PREFETCH     ACCESS:          0 HIT:          0 MISS:          0
cpu0_L2C WRITE        ACCESS:     542536 HIT:     542515 MISS:         21
cpu0_L2C TRANSLATION  ACCESS:     110714 HIT:       1191 MISS:     109523
cpu0_L2C PREFETCH REQUESTED:          0 ISSUED:          0 USEFUL:          0 USELESS:          0
cpu0_L2C AVERAGE MISS LATENCY: 971.7 cycles
cpu0_STLB TOTAL        ACCESS:     156216 HIT:         41 MISS:     156175
cpu0_STLB LOAD         ACCESS:     156216 HIT:         41 MISS:     156175
cpu0_STLB RFO          ACCESS:          0 HIT:          0 MISS:          0
cpu0_STLB PREFETCH     ACCESS:          0 HIT:          0 MISS:          0
cpu0_STLB WRITE        ACCESS:          0 HIT:          0 MISS:          0
cpu0_STLB TRANSLATION  ACCESS:          0 HIT:          0 MISS:          0
cpu0_STLB PREFETCH REQUESTED:          0 ISSUED:          0 USEFUL:          0 USELESS:          0
cpu0_STLB AVERAGE MISS LATENCY: 1477 cycles

DRAM Statistics

Channel 0 RQ ROW_BUFFER_HIT:     128947
  ROW_BUFFER_MISS:     460627
 AVG DBUS CONGESTED CYCLE: 3.979
WQ ROW_BUFFER_HIT: Channel 0 
  ROW_BUFFER_MISS:     107038
  FULL:     402130
