WARNING: physical memory size is smaller than virtual memory size.

*** ChampSim Multicore Out-of-Order Simulator ***
Warmup Instructions: 50000000
Simulation Instructions: 600000000
Number of CPUs: 1
Page size: 4096

Off-chip DRAM Size: 4 GiB Channels: 1 Width: 64-bit Data Race: 3200 MT/s
Heartbeat CPU 0 instructions: 10000000 cycles: 2500202 heartbeat IPC: 4 cumulative IPC: 4 (Simulation time: 00 hr 00 min 31 sec)
Heartbeat CPU 0 instructions: 20000000 cycles: 5000202 heartbeat IPC: 4 cumulative IPC: 4 (Simulation time: 00 hr 01 min 04 sec)
Heartbeat CPU 0 instructions: 30000000 cycles: 7500202 heartbeat IPC: 4 cumulative IPC: 4 (Simulation time: 00 hr 01 min 37 sec)
Heartbeat CPU 0 instructions: 40000000 cycles: 10000202 heartbeat IPC: 4 cumulative IPC: 4 (Simulation time: 00 hr 02 min 10 sec)
Heartbeat CPU 0 instructions: 50000000 cycles: 12500202 heartbeat IPC: 4 cumulative IPC: 4 (Simulation time: 00 hr 02 min 41 sec)
Warmup finished CPU 0 instructions: 50000000 cycles: 12500203 cumulative IPC: 4 (Simulation time: 00 hr 02 min 41 sec)
Warmup complete CPU 0 instructions: 50000000 cycles: 12500203 cumulative IPC: 4 (Simulation time: 00 hr 02 min 41 sec)
Heartbeat CPU 0 instructions: 60000002 cycles: 15747858 heartbeat IPC: 3.079 cumulative IPC: 3.079 (Simulation time: 00 hr 03 min 21 sec)
Heartbeat CPU 0 instructions: 70000002 cycles: 18401589 heartbeat IPC: 3.768 cumulative IPC: 3.389 (Simulation time: 00 hr 03 min 58 sec)
Heartbeat CPU 0 instructions: 80000003 cycles: 21053811 heartbeat IPC: 3.77 cumulative IPC: 3.507 (Simulation time: 00 hr 04 min 34 sec)
Heartbeat CPU 0 instructions: 90000004 cycles: 23706010 heartbeat IPC: 3.77 cumulative IPC: 3.57 (Simulation time: 00 hr 05 min 09 sec)
Heartbeat CPU 0 instructions: 100000003 cycles: 26360493 heartbeat IPC: 3.767 cumulative IPC: 3.607 (Simulation time: 00 hr 05 min 46 sec)
Heartbeat CPU 0 instructions: 110000000 cycles: 29013753 heartbeat IPC: 3.769 cumulative IPC: 3.633 (Simulation time: 00 hr 06 min 22 sec)
Heartbeat CPU 0 instructions: 120000000 cycles: 31665754 heartbeat IPC: 3.771 cumulative IPC: 3.652 (Simulation time: 00 hr 06 min 58 sec)
Heartbeat CPU 0 instructions: 130000000 cycles: 34317999 heartbeat IPC: 3.77 cumulative IPC: 3.667 (Simulation time: 00 hr 07 min 33 sec)
Heartbeat CPU 0 instructions: 140000001 cycles: 36970187 heartbeat IPC: 3.77 cumulative IPC: 3.678 (Simulation time: 00 hr 08 min 11 sec)
Heartbeat CPU 0 instructions: 150000003 cycles: 39622416 heartbeat IPC: 3.77 cumulative IPC: 3.687 (Simulation time: 00 hr 08 min 47 sec)
Heartbeat CPU 0 instructions: 160000003 cycles: 42276157 heartbeat IPC: 3.768 cumulative IPC: 3.694 (Simulation time: 00 hr 09 min 26 sec)
Heartbeat CPU 0 instructions: 170000001 cycles: 44928594 heartbeat IPC: 3.77 cumulative IPC: 3.7 (Simulation time: 00 hr 10 min 02 sec)
Heartbeat CPU 0 instructions: 180000001 cycles: 47580763 heartbeat IPC: 3.77 cumulative IPC: 3.706 (Simulation time: 00 hr 10 min 39 sec)
Heartbeat CPU 0 instructions: 190000002 cycles: 50233773 heartbeat IPC: 3.769 cumulative IPC: 3.71 (Simulation time: 00 hr 11 min 14 sec)
Heartbeat CPU 0 instructions: 200000001 cycles: 52885993 heartbeat IPC: 3.77 cumulative IPC: 3.714 (Simulation time: 00 hr 11 min 49 sec)
Heartbeat CPU 0 instructions: 210000000 cycles: 55540682 heartbeat IPC: 3.767 cumulative IPC: 3.717 (Simulation time: 00 hr 12 min 24 sec)
Heartbeat CPU 0 instructions: 220000001 cycles: 58196137 heartbeat IPC: 3.766 cumulative IPC: 3.72 (Simulation time: 00 hr 13 min 00 sec)
Heartbeat CPU 0 instructions: 230000002 cycles: 60850595 heartbeat IPC: 3.767 cumulative IPC: 3.723 (Simulation time: 00 hr 13 min 36 sec)
Heartbeat CPU 0 instructions: 240000004 cycles: 63503101 heartbeat IPC: 3.77 cumulative IPC: 3.725 (Simulation time: 00 hr 14 min 13 sec)
Heartbeat CPU 0 instructions: 250000000 cycles: 66156887 heartbeat IPC: 3.768 cumulative IPC: 3.727 (Simulation time: 00 hr 14 min 48 sec)
Heartbeat CPU 0 instructions: 260000000 cycles: 68811093 heartbeat IPC: 3.768 cumulative IPC: 3.729 (Simulation time: 00 hr 15 min 25 sec)
Heartbeat CPU 0 instructions: 270000002 cycles: 71463100 heartbeat IPC: 3.771 cumulative IPC: 3.731 (Simulation time: 00 hr 16 min 00 sec)
Heartbeat CPU 0 instructions: 280000003 cycles: 74115344 heartbeat IPC: 3.77 cumulative IPC: 3.733 (Simulation time: 00 hr 16 min 35 sec)
Heartbeat CPU 0 instructions: 290000002 cycles: 76767621 heartbeat IPC: 3.77 cumulative IPC: 3.734 (Simulation time: 00 hr 17 min 11 sec)
Heartbeat CPU 0 instructions: 300000000 cycles: 79422608 heartbeat IPC: 3.766 cumulative IPC: 3.736 (Simulation time: 00 hr 17 min 47 sec)
Heartbeat CPU 0 instructions: 310000002 cycles: 82074610 heartbeat IPC: 3.771 cumulative IPC: 3.737 (Simulation time: 00 hr 18 min 21 sec)
Heartbeat CPU 0 instructions: 320000004 cycles: 84726651 heartbeat IPC: 3.771 cumulative IPC: 3.738 (Simulation time: 00 hr 18 min 55 sec)
Heartbeat CPU 0 instructions: 330000000 cycles: 87378840 heartbeat IPC: 3.77 cumulative IPC: 3.739 (Simulation time: 00 hr 19 min 29 sec)
Heartbeat CPU 0 instructions: 340000002 cycles: 90031562 heartbeat IPC: 3.77 cumulative IPC: 3.74 (Simulation time: 00 hr 20 min 07 sec)
Heartbeat CPU 0 instructions: 350000002 cycles: 92685234 heartbeat IPC: 3.768 cumulative IPC: 3.741 (Simulation time: 00 hr 20 min 46 sec)
Heartbeat CPU 0 instructions: 360000001 cycles: 95342142 heartbeat IPC: 3.764 cumulative IPC: 3.742 (Simulation time: 00 hr 21 min 23 sec)
Heartbeat CPU 0 instructions: 370000004 cycles: 97995075 heartbeat IPC: 3.769 cumulative IPC: 3.743 (Simulation time: 00 hr 21 min 58 sec)
Heartbeat CPU 0 instructions: 380000000 cycles: 100647252 heartbeat IPC: 3.77 cumulative IPC: 3.744 (Simulation time: 00 hr 22 min 33 sec)
Heartbeat CPU 0 instructions: 390000003 cycles: 103299599 heartbeat IPC: 3.77 cumulative IPC: 3.745 (Simulation time: 00 hr 23 min 07 sec)
Heartbeat CPU 0 instructions: 400000000 cycles: 105954010 heartbeat IPC: 3.767 cumulative IPC: 3.745 (Simulation time: 00 hr 23 min 43 sec)
Heartbeat CPU 0 instructions: 410000000 cycles: 108607224 heartbeat IPC: 3.769 cumulative IPC: 3.746 (Simulation time: 00 hr 24 min 24 sec)
Heartbeat CPU 0 instructions: 420000001 cycles: 111259310 heartbeat IPC: 3.771 cumulative IPC: 3.746 (Simulation time: 00 hr 25 min 03 sec)
Heartbeat CPU 0 instructions: 430000003 cycles: 113911631 heartbeat IPC: 3.77 cumulative IPC: 3.747 (Simulation time: 00 hr 25 min 41 sec)
Heartbeat CPU 0 instructions: 440000003 cycles: 116563973 heartbeat IPC: 3.77 cumulative IPC: 3.748 (Simulation time: 00 hr 26 min 15 sec)
Heartbeat CPU 0 instructions: 450000004 cycles: 119218327 heartbeat IPC: 3.767 cumulative IPC: 3.748 (Simulation time: 00 hr 26 min 53 sec)
Heartbeat CPU 0 instructions: 460000001 cycles: 121870440 heartbeat IPC: 3.771 cumulative IPC: 3.749 (Simulation time: 00 hr 27 min 32 sec)
Heartbeat CPU 0 instructions: 470000002 cycles: 124522753 heartbeat IPC: 3.77 cumulative IPC: 3.749 (Simulation time: 00 hr 28 min 10 sec)
Heartbeat CPU 0 instructions: 480000001 cycles: 127175790 heartbeat IPC: 3.769 cumulative IPC: 3.75 (Simulation time: 00 hr 28 min 48 sec)
Heartbeat CPU 0 instructions: 490000000 cycles: 129828585 heartbeat IPC: 3.77 cumulative IPC: 3.75 (Simulation time: 00 hr 29 min 27 sec)
Heartbeat CPU 0 instructions: 500000002 cycles: 132485160 heartbeat IPC: 3.764 cumulative IPC: 3.75 (Simulation time: 00 hr 30 min 02 sec)
Heartbeat CPU 0 instructions: 510000003 cycles: 135137169 heartbeat IPC: 3.771 cumulative IPC: 3.751 (Simulation time: 00 hr 30 min 36 sec)
Heartbeat CPU 0 instructions: 520000004 cycles: 137789301 heartbeat IPC: 3.771 cumulative IPC: 3.751 (Simulation time: 00 hr 31 min 10 sec)
Heartbeat CPU 0 instructions: 530000000 cycles: 140441611 heartbeat IPC: 3.77 cumulative IPC: 3.752 (Simulation time: 00 hr 31 min 46 sec)
Heartbeat CPU 0 instructions: 540000000 cycles: 143095461 heartbeat IPC: 3.768 cumulative IPC: 3.752 (Simulation time: 00 hr 32 min 25 sec)
Heartbeat CPU 0 instructions: 550000003 cycles: 145747572 heartbeat IPC: 3.771 cumulative IPC: 3.752 (Simulation time: 00 hr 33 min 08 sec)
Heartbeat CPU 0 instructions: 560000003 cycles: 148401117 heartbeat IPC: 3.769 cumulative IPC: 3.753 (Simulation time: 00 hr 33 min 50 sec)
Heartbeat CPU 0 instructions: 570000004 cycles: 151053103 heartbeat IPC: 3.771 cumulative IPC: 3.753 (Simulation time: 00 hr 34 min 29 sec)
Heartbeat CPU 0 instructions: 580000000 cycles: 153705398 heartbeat IPC: 3.77 cumulative IPC: 3.753 (Simulation time: 00 hr 35 min 07 sec)
Heartbeat CPU 0 instructions: 590000002 cycles: 156357669 heartbeat IPC: 3.77 cumulative IPC: 3.754 (Simulation time: 00 hr 35 min 47 sec)
*** Reached end of trace: (0, "traces/convolution.champsimtrace")
Heartbeat CPU 0 instructions: 600000000 cycles: 159018850 heartbeat IPC: 3.758 cumulative IPC: 3.754 (Simulation time: 00 hr 36 min 29 sec)
Heartbeat CPU 0 instructions: 610000002 cycles: 183692065 heartbeat IPC: 0.4053 cumulative IPC: 3.271 (Simulation time: 00 hr 40 min 11 sec)
Heartbeat CPU 0 instructions: 620000001 cycles: 205183169 heartbeat IPC: 0.4653 cumulative IPC: 2.958 (Simulation time: 00 hr 43 min 18 sec)
Heartbeat CPU 0 instructions: 630000001 cycles: 218356253 heartbeat IPC: 0.7591 cumulative IPC: 2.818 (Simulation time: 00 hr 45 min 16 sec)
Heartbeat CPU 0 instructions: 640000004 cycles: 229035284 heartbeat IPC: 0.9364 cumulative IPC: 2.725 (Simulation time: 00 hr 46 min 58 sec)
Heartbeat CPU 0 instructions: 650000001 cycles: 239649543 heartbeat IPC: 0.9421 cumulative IPC: 2.641 (Simulation time: 00 hr 48 min 43 sec)
Simulation finished CPU 0 instructions: 600000001 cycles: 227149341 cumulative IPC: 2.641 (Simulation time: 00 hr 48 min 43 sec)
Simulation complete CPU 0 instructions: 600000001 cycles: 227149341 cumulative IPC: 2.641 (Simulation time: 00 hr 48 min 43 sec)

ChampSim completed all CPUs

=== Simulation ===
CPU 0 runs traces/convolution.champsimtrace
Region of Interest Statistics

CPU 0 cumulative IPC: 2.641 instructions: 600000001 cycles: 227149341
CPU 0 Branch Prediction Accuracy: 99.47% MPKI: 0.9507 Average ROB Occupancy at Mispredict: 68.96
Branch type MPKI
BRANCH_DIRECT_JUMP: 0.000107
BRANCH_INDIRECT: 4.17e-05
BRANCH_CONDITIONAL: 0.95
BRANCH_DIRECT_CALL: 0.000103
BRANCH_INDIRECT_CALL: 8.33e-06
BRANCH_RETURN: 1.83e-05

LLC TOTAL        ACCESS:    1185331 HIT:     414137 MISS:     771194
LLC LOAD         ACCESS:       2887 HIT:        587 MISS:       2300
LLC RFO          ACCESS:     535121 HIT:         87 MISS:     535034
LLC PREFETCH     ACCESS:       2124 HIT:        596 MISS:       1528
LLC WRITE        ACCESS:     535173 HIT:     412248 MISS:     122925
LLC TRANSLATION  ACCESS:     110026 HIT:        619 MISS:     109407
LLC PREFETCH REQUESTED:       2124 ISSUED:       2124 USEFUL:        807 USELESS:         45
LLC AVERAGE MISS LATENCY: 898.6 cycles
cpu0_DTLB TOTAL        ACCESS:  120043841 HIT:  119689969 MISS:     353872
cpu0_DTLB LOAD         ACCESS:  120043841 HIT:  119689969 MISS:     353872
cpu0_DTLB RFO          ACCESS:          0 HIT:          0 MISS:          0
cpu0_DTLB PREFETCH     ACCESS:          0 HIT:          0 MISS:          0
cpu0_DTLB WRITE        ACCESS:          0 HIT:          0 MISS:          0
cpu0_DTLB TRANSLATION  ACCESS:          0 HIT:          0 MISS:          0
cpu0_DTLB PREFETCH REQUESTED:          0 ISSUED:          0 USEFUL:          0 USELESS:          0
cpu0_DTLB AVERAGE MISS LATENCY: 664.9 cycles
cpu0_ITLB TOTAL        ACCESS:       2025 HIT:       1994 MISS:         31
cpu0_ITLB LOAD         ACCESS:       2025 HIT:       1994 MISS:         31
cpu0_ITLB RFO          ACCESS:          0 HIT:          0 MISS:          0
cpu0_ITLB PREFETCH     ACCESS:          0 HIT:          0 MISS:          0
cpu0_ITLB WRITE        ACCESS:          0 HIT:          0 MISS:          0
cpu0_ITLB TRANSLATION  ACCESS:          0 HIT:          0 MISS:          0
cpu0_ITLB PREFETCH REQUESTED:          0 ISSUED:          0 USEFUL:          0 USELESS:          0
cpu0_ITLB AVERAGE MISS LATENCY: 963.8 cycles
cpu0_L1D TOTAL        ACCESS:  161173798 HIT:  155002422 MISS:    6171376
cpu0_L1D LOAD         ACCESS:   88956443 HIT:   88950205 MISS:       6238
cpu0_L1D RFO          ACCESS:          0 HIT:          0 MISS:          0
cpu0_L1D PREFETCH     ACCESS:          0 HIT:          0 MISS:          0
cpu0_L1D WRITE        ACCESS:   72036530 HIT:   66013832 MISS:    6022698
cpu0_L1D TRANSLATION  ACCESS:     180825 HIT:      38385 MISS:     142440
cpu0_L1D PREFETCH REQUESTED:          0 ISSUED:          0 USEFUL:          0 USELESS:          0
cpu0_L1D AVERAGE MISS LATENCY: 87.38 cycles
cpu0_L1I TOTAL        ACCESS:       2324 HIT:       1008 MISS:       1316
cpu0_L1I LOAD         ACCESS:       2324 HIT:       1008 MISS:       1316
cpu0_L1I RFO          ACCESS:          0 HIT:          0 MISS:          0
cpu0_L1I PREFETCH     ACCESS:          0 HIT:          0 MISS:          0
cpu0_L1I WRITE        ACCESS:          0 HIT:          0 MISS:          0
cpu0_L1I TRANSLATION  ACCESS:          0 HIT:          0 MISS:          0
cpu0_L1I PREFETCH REQUESTED:          0 ISSUED:          0 USEFUL:          0 USELESS:          0
cpu0_L1I AVERAGE MISS LATENCY: 785.6 cycles
cpu0_L2C TOTAL        ACCESS:    1191088 HIT:     543036 MISS:     648052
cpu0_L2C LOAD         ACCESS:       3313 HIT:        426 MISS:       2887
cpu0_L2C RFO          ACCESS:     538098 HIT:       2977 MISS:     535121
cpu0_L2C PREFETCH     ACCESS:          0 HIT:          0 MISS:          0
cpu0_L2C WRITE        ACCESS:     538222 HIT:     538205 MISS:         17
cpu0_L2C TRANSLATION  ACCESS:     111455 HIT:       1428 MISS:     110027
cpu0_L2C PREFETCH REQUESTED:          0 ISSUED:          0 USEFUL:          0 USELESS:          0
cpu0_L2C AVERAGE MISS LATENCY: 1088 cycles
cpu0_STLB TOTAL        ACCESS:     156160 HIT:         49 MISS:     156111
cpu0_STLB LOAD         ACCESS:     156160 HIT:         49 MISS:     156111
cpu0_STLB RFO          ACCESS:          0 HIT:          0 MISS:          0
cpu0_STLB PREFETCH     ACCESS:          0 HIT:          0 MISS:          0
cpu0_STLB WRITE        ACCESS:          0 HIT:          0 MISS:          0
cpu0_STLB TRANSLATION  ACCESS:          0 HIT:          0 MISS:          0
cpu0_STLB PREFETCH REQUESTED:          0 ISSUED:          0 USEFUL:          0 USELESS:          0
cpu0_STLB AVERAGE MISS LATENCY: 1722 cycles

DRAM Statistics

Channel 0 RQ ROW_BUFFER_HIT:     144131
  ROW_BUFFER_MISS:     503242
 AVG DBUS CONGESTED CYCLE: 3.983
WQ ROW_BUFFER_HIT: Channel 0 
  ROW_BUFFER_MISS:      59981
  FULL:     475415
