WARNING: physical memory size is smaller than virtual memory size.

*** ChampSim Multicore Out-of-Order Simulator ***
Warmup Instructions: 50000000
Simulation Instructions: 600000000
Number of CPUs: 1
Page size: 4096

Off-chip DRAM Size: 4 GiB Channels: 1 Width: 64-bit Data Race: 3200 MT/s
Heartbeat CPU 0 instructions: 10000002 cycles: 2500202 heartbeat IPC: 4 cumulative IPC: 4 (Simulation time: 00 hr 00 min 37 sec)
Heartbeat CPU 0 instructions: 20000002 cycles: 5000202 heartbeat IPC: 4 cumulative IPC: 4 (Simulation time: 00 hr 01 min 13 sec)
Heartbeat CPU 0 instructions: 30000002 cycles: 7500202 heartbeat IPC: 4 cumulative IPC: 4 (Simulation time: 00 hr 01 min 48 sec)
Heartbeat CPU 0 instructions: 40000002 cycles: 10000202 heartbeat IPC: 4 cumulative IPC: 4 (Simulation time: 00 hr 02 min 21 sec)
Heartbeat CPU 0 instructions: 50000002 cycles: 12500202 heartbeat IPC: 4 cumulative IPC: 4 (Simulation time: 00 hr 02 min 51 sec)
Warmup finished CPU 0 instructions: 50000002 cycles: 12500203 cumulative IPC: 4 (Simulation time: 00 hr 02 min 51 sec)
Warmup complete CPU 0 instructions: 50000002 cycles: 12500203 cumulative IPC: 4 (Simulation time: 00 hr 02 min 51 sec)
Heartbeat CPU 0 instructions: 60000004 cycles: 15780598 heartbeat IPC: 3.048 cumulative IPC: 3.048 (Simulation time: 00 hr 03 min 30 sec)
Heartbeat CPU 0 instructions: 70000000 cycles: 18481109 heartbeat IPC: 3.703 cumulative IPC: 3.344 (Simulation time: 00 hr 04 min 05 sec)
Heartbeat CPU 0 instructions: 80000003 cycles: 21186967 heartbeat IPC: 3.696 cumulative IPC: 3.454 (Simulation time: 00 hr 04 min 39 sec)
Heartbeat CPU 0 instructions: 90000004 cycles: 23894028 heartbeat IPC: 3.694 cumulative IPC: 3.511 (Simulation time: 00 hr 05 min 13 sec)
Heartbeat CPU 0 instructions: 100000004 cycles: 26594981 heartbeat IPC: 3.702 cumulative IPC: 3.547 (Simulation time: 00 hr 05 min 47 sec)
Heartbeat CPU 0 instructions: 110000004 cycles: 29291207 heartbeat IPC: 3.709 cumulative IPC: 3.573 (Simulation time: 00 hr 06 min 21 sec)
Heartbeat CPU 0 instructions: 120000000 cycles: 31989308 heartbeat IPC: 3.706 cumulative IPC: 3.592 (Simulation time: 00 hr 06 min 54 sec)
Heartbeat CPU 0 instructions: 130000000 cycles: 34688655 heartbeat IPC: 3.705 cumulative IPC: 3.605 (Simulation time: 00 hr 07 min 27 sec)
Heartbeat CPU 0 instructions: 140000004 cycles: 37391843 heartbeat IPC: 3.699 cumulative IPC: 3.616 (Simulation time: 00 hr 07 min 59 sec)
Heartbeat CPU 0 instructions: 150000004 cycles: 40091610 heartbeat IPC: 3.704 cumulative IPC: 3.624 (Simulation time: 00 hr 08 min 32 sec)
Heartbeat CPU 0 instructions: 160000000 cycles: 42788053 heartbeat IPC: 3.709 cumulative IPC: 3.632 (Simulation time: 00 hr 09 min 03 sec)
Heartbeat CPU 0 instructions: 170000000 cycles: 45487689 heartbeat IPC: 3.704 cumulative IPC: 3.638 (Simulation time: 00 hr 09 min 35 sec)
Heartbeat CPU 0 instructions: 180000000 cycles: 48185821 heartbeat IPC: 3.706 cumulative IPC: 3.643 (Simulation time: 00 hr 10 min 06 sec)
Heartbeat CPU 0 instructions: 190000000 cycles: 50892474 heartbeat IPC: 3.695 cumulative IPC: 3.647 (Simulation time: 00 hr 10 min 37 sec)
Heartbeat CPU 0 instructions: 200000003 cycles: 53592130 heartbeat IPC: 3.704 cumulative IPC: 3.65 (Simulation time: 00 hr 11 min 08 sec)
Heartbeat CPU 0 instructions: 210000004 cycles: 56296177 heartbeat IPC: 3.698 cumulative IPC: 3.653 (Simulation time: 00 hr 11 min 40 sec)
Heartbeat CPU 0 instructions: 220000004 cycles: 59000638 heartbeat IPC: 3.698 cumulative IPC: 3.656 (Simulation time: 00 hr 12 min 11 sec)
Heartbeat CPU 0 instructions: 230000000 cycles: 61700181 heartbeat IPC: 3.704 cumulative IPC: 3.659 (Simulation time: 00 hr 12 min 42 sec)
Heartbeat CPU 0 instructions: 240000000 cycles: 64398177 heartbeat IPC: 3.706 cumulative IPC: 3.661 (Simulation time: 00 hr 13 min 13 sec)
Heartbeat CPU 0 instructions: 250000003 cycles: 67097853 heartbeat IPC: 3.704 cumulative IPC: 3.663 (Simulation time: 00 hr 13 min 44 sec)
Heartbeat CPU 0 instructions: 260000004 cycles: 69802229 heartbeat IPC: 3.698 cumulative IPC: 3.665 (Simulation time: 00 hr 14 min 15 sec)
Heartbeat CPU 0 instructions: 270000004 cycles: 72505898 heartbeat IPC: 3.699 cumulative IPC: 3.666 (Simulation time: 00 hr 14 min 46 sec)
Heartbeat CPU 0 instructions: 280000000 cycles: 75211997 heartbeat IPC: 3.695 cumulative IPC: 3.668 (Simulation time: 00 hr 15 min 17 sec)
Heartbeat CPU 0 instructions: 290000000 cycles: 77914847 heartbeat IPC: 3.7 cumulative IPC: 3.669 (Simulation time: 00 hr 15 min 48 sec)
Heartbeat CPU 0 instructions: 300000001 cycles: 80616116 heartbeat IPC: 3.702 cumulative IPC: 3.67 (Simulation time: 00 hr 16 min 19 sec)
Heartbeat CPU 0 instructions: 310000004 cycles: 83312963 heartbeat IPC: 3.708 cumulative IPC: 3.672 (Simulation time: 00 hr 16 min 50 sec)
Heartbeat CPU 0 instructions: 320000003 cycles: 86016129 heartbeat IPC: 3.699 cumulative IPC: 3.673 (Simulation time: 00 hr 17 min 21 sec)
Heartbeat CPU 0 instructions: 330000004 cycles: 88717154 heartbeat IPC: 3.702 cumulative IPC: 3.674 (Simulation time: 00 hr 17 min 52 sec)
Heartbeat CPU 0 instructions: 340000004 cycles: 91416799 heartbeat IPC: 3.704 cumulative IPC: 3.675 (Simulation time: 00 hr 18 min 24 sec)
Heartbeat CPU 0 instructions: 350000000 cycles: 94114499 heartbeat IPC: 3.707 cumulative IPC: 3.676 (Simulation time: 00 hr 18 min 56 sec)
Heartbeat CPU 0 instructions: 360000000 cycles: 96813621 heartbeat IPC: 3.705 cumulative IPC: 3.677 (Simulation time: 00 hr 19 min 27 sec)
Heartbeat CPU 0 instructions: 370000004 cycles: 99518687 heartbeat IPC: 3.697 cumulative IPC: 3.677 (Simulation time: 00 hr 19 min 58 sec)
Heartbeat CPU 0 instructions: 380000004 cycles: 102220210 heartbeat IPC: 3.702 cumulative IPC: 3.678 (Simulation time: 00 hr 20 min 30 sec)
Heartbeat CPU 0 instructions: 390000004 cycles: 104920421 heartbeat IPC: 3.703 cumulative IPC: 3.679 (Simulation time: 00 hr 21 min 02 sec)
Heartbeat CPU 0 instructions: 400000000 cycles: 107619243 heartbeat IPC: 3.705 cumulative IPC: 3.68 (Simulation time: 00 hr 21 min 33 sec)
Heartbeat CPU 0 instructions: 410000000 cycles: 110318196 heartbeat IPC: 3.705 cumulative IPC: 3.68 (Simulation time: 00 hr 22 min 03 sec)
Heartbeat CPU 0 instructions: 420000004 cycles: 113022671 heartbeat IPC: 3.698 cumulative IPC: 3.681 (Simulation time: 00 hr 22 min 34 sec)
Heartbeat CPU 0 instructions: 430000004 cycles: 115726361 heartbeat IPC: 3.699 cumulative IPC: 3.681 (Simulation time: 00 hr 23 min 05 sec)
Heartbeat CPU 0 instructions: 440000004 cycles: 118426230 heartbeat IPC: 3.704 cumulative IPC: 3.682 (Simulation time: 00 hr 23 min 36 sec)
Heartbeat CPU 0 instructions: 450000004 cycles: 121124181 heartbeat IPC: 3.707 cumulative IPC: 3.682 (Simulation time: 00 hr 24 min 07 sec)
Heartbeat CPU 0 instructions: 460000004 cycles: 123829358 heartbeat IPC: 3.697 cumulative IPC: 3.683 (Simulation time: 00 hr 24 min 38 sec)
Heartbeat CPU 0 instructions: 470000000 cycles: 126528049 heartbeat IPC: 3.705 cumulative IPC: 3.683 (Simulation time: 00 hr 25 min 09 sec)
Heartbeat CPU 0 instructions: 480000000 cycles: 129225740 heartbeat IPC: 3.707 cumulative IPC: 3.684 (Simulation time: 00 hr 25 min 40 sec)
Heartbeat CPU 0 instructions: 490000004 cycles: 131926445 heartbeat IPC: 3.703 cumulative IPC: 3.684 (Simulation time: 00 hr 26 min 11 sec)
Heartbeat CPU 0 instructions: 500000004 cycles: 134625404 heartbeat IPC: 3.705 cumulative IPC: 3.685 (Simulation time: 00 hr 26 min 42 sec)
Heartbeat CPU 0 instructions: 510000004 cycles: 137324624 heartbeat IPC: 3.705 cumulative IPC: 3.685 (Simulation time: 00 hr 27 min 12 sec)
Heartbeat CPU 0 instructions: 520000000 cycles: 140026219 heartbeat IPC: 3.702 cumulative IPC: 3.686 (Simulation time: 00 hr 27 min 43 sec)
Heartbeat CPU 0 instructions: 530000000 cycles: 142732429 heartbeat IPC: 3.695 cumulative IPC: 3.686 (Simulation time: 00 hr 28 min 14 sec)
Heartbeat CPU 0 instructions: 540000004 cycles: 145431280 heartbeat IPC: 3.705 cumulative IPC: 3.686 (Simulation time: 00 hr 28 min 44 sec)
Heartbeat CPU 0 instructions: 550000004 cycles: 148134235 heartbeat IPC: 3.7 cumulative IPC: 3.686 (Simulation time: 00 hr 29 min 15 sec)
Heartbeat CPU 0 instructions: 560000000 cycles: 150830534 heartbeat IPC: 3.709 cumulative IPC: 3.687 (Simulation time: 00 hr 29 min 46 sec)
Heartbeat CPU 0 instructions: 570000000 cycles: 153528701 heartbeat IPC: 3.706 cumulative IPC: 3.687 (Simulation time: 00 hr 30 min 18 sec)
Heartbeat CPU 0 instructions: 580000000 cycles: 156231225 heartbeat IPC: 3.7 cumulative IPC: 3.687 (Simulation time: 00 hr 30 min 48 sec)
Heartbeat CPU 0 instructions: 590000000 cycles: 158932387 heartbeat IPC: 3.702 cumulative IPC: 3.688 (Simulation time: 00 hr 31 min 19 sec)
*** Reached end of trace: (0, "traces/convolution.champsimtrace")
Heartbeat CPU 0 instructions: 600000000 cycles: 161639830 heartbeat IPC: 3.694 cumulative IPC: 3.688 (Simulation time: 00 hr 31 min 50 sec)
Heartbeat CPU 0 instructions: 610000004 cycles: 184201442 heartbeat IPC: 0.4432 cumulative IPC: 3.261 (Simulation time: 00 hr 34 min 22 sec)
Heartbeat CPU 0 instructions: 620000000 cycles: 203909861 heartbeat IPC: 0.5074 cumulative IPC: 2.978 (Simulation time: 00 hr 36 min 23 sec)
Heartbeat CPU 0 instructions: 630000003 cycles: 208530524 heartbeat IPC: 2.164 cumulative IPC: 2.959 (Simulation time: 00 hr 36 min 59 sec)
Heartbeat CPU 0 instructions: 640000002 cycles: 218770534 heartbeat IPC: 0.9766 cumulative IPC: 2.86 (Simulation time: 00 hr 37 min 56 sec)
Heartbeat CPU 0 instructions: 650000004 cycles: 229544397 heartbeat IPC: 0.9282 cumulative IPC: 2.764 (Simulation time: 00 hr 38 min 46 sec)
Simulation finished CPU 0 instructions: 600000002 cycles: 217044195 cumulative IPC: 2.764 (Simulation time: 00 hr 38 min 46 sec)
Simulation complete CPU 0 instructions: 600000002 cycles: 217044195 cumulative IPC: 2.764 (Simulation time: 00 hr 38 min 46 sec)

ChampSim completed all CPUs

=== Simulation ===
CPU 0 runs traces/convolution.champsimtrace
Region of Interest Statistics

CPU 0 cumulative IPC: 2.764 instructions: 600000002 cycles: 217044195
CPU 0 Branch Prediction Accuracy: 99.34% MPKI: 1.278 Average ROB Occupancy at Mispredict: 84.64
Branch type MPKI
BRANCH_DIRECT_JUMP: 1e-05
BRANCH_INDIRECT: 4.67e-05
BRANCH_CONDITIONAL: 1.28
BRANCH_DIRECT_CALL: 6.67e-06
BRANCH_INDIRECT_CALL: 8.33e-06
BRANCH_RETURN: 2.17e-05

LLC TOTAL        ACCESS:    1190571 HIT:     200183 MISS:     990388
LLC LOAD         ACCESS:       2891 HIT:        767 MISS:       2124
LLC RFO          ACCESS:     539059 HIT:      31219 MISS:     507840
LLC PREFETCH     ACCESS:          0 HIT:          0 MISS:          0
LLC WRITE        ACCESS:     539110 HIT:     137877 MISS:     401233
LLC TRANSLATION  ACCESS:     109511 HIT:      30320 MISS:      79191
LLC PREFETCH REQUESTED:          0 ISSUED:          0 USEFUL:          0 USELESS:          0
LLC AVERAGE MISS LATENCY: 623 cycles
cpu0_DTLB TOTAL        ACCESS:  123171623 HIT:  122856662 MISS:     314961
cpu0_DTLB LOAD         ACCESS:  123171623 HIT:  122856662 MISS:     314961
cpu0_DTLB RFO          ACCESS:          0 HIT:          0 MISS:          0
cpu0_DTLB PREFETCH     ACCESS:          0 HIT:          0 MISS:          0
cpu0_DTLB WRITE        ACCESS:          0 HIT:          0 MISS:          0
cpu0_DTLB TRANSLATION  ACCESS:          0 HIT:          0 MISS:          0
cpu0_DTLB PREFETCH REQUESTED:          0 ISSUED:          0 USEFUL:          0 USELESS:          0
cpu0_DTLB AVERAGE MISS LATENCY: 656.7 cycles
cpu0_ITLB TOTAL        ACCESS:       2023 HIT:       1964 MISS:         59
cpu0_ITLB LOAD         ACCESS:       2023 HIT:       1964 MISS:         59
cpu0_ITLB RFO          ACCESS:          0 HIT:          0 MISS:          0
cpu0_ITLB PREFETCH     ACCESS:          0 HIT:          0 MISS:          0
cpu0_ITLB WRITE        ACCESS:          0 HIT:          0 MISS:          0
cpu0_ITLB TRANSLATION  ACCESS:          0 HIT:          0 MISS:          0
cpu0_ITLB PREFETCH REQUESTED:          0 ISSUED:          0 USEFUL:          0 USELESS:          0
cpu0_ITLB AVERAGE MISS LATENCY: 561 cycles
cpu0_L1D TOTAL        ACCESS:  155389810 HIT:  149214955 MISS:    6174855
cpu0_L1D LOAD         ACCESS:   82438290 HIT:   82431939 MISS:       6351
cpu0_L1D RFO          ACCESS:          0 HIT:          0 MISS:          0
cpu0_L1D PREFETCH     ACCESS:          0 HIT:          0 MISS:          0
cpu0_L1D WRITE        ACCESS:   72771001 HIT:   66748789 MISS:    6022212
cpu0_L1D TRANSLATION  ACCESS:     180519 HIT:      34227 MISS:     146292
cpu0_L1D PREFETCH REQUESTED:          0 ISSUED:          0 USEFUL:          0 USELESS:          0
cpu0_L1D AVERAGE MISS LATENCY: 79.56 cycles
cpu0_L1I TOTAL        ACCESS:       2361 HIT:       1047 MISS:       1314
cpu0_L1I LOAD         ACCESS:       2361 HIT:       1047 MISS:       1314
cpu0_L1I RFO          ACCESS:          0 HIT:          0 MISS:          0
cpu0_L1I PREFETCH     ACCESS:          0 HIT:          0 MISS:          0
cpu0_L1I WRITE        ACCESS:          0 HIT:          0 MISS:          0
cpu0_L1I TRANSLATION  ACCESS:          0 HIT:          0 MISS:          0
cpu0_L1I PREFETCH REQUESTED:          0 ISSUED:          0 USEFUL:          0 USELESS:          0
cpu0_L1I AVERAGE MISS LATENCY: 536.8 cycles
cpu0_L2C TOTAL        ACCESS:    1198865 HIT:     547382 MISS:     651483
cpu0_L2C LOAD         ACCESS:       3320 HIT:        429 MISS:       2891
cpu0_L2C RFO          ACCESS:     542294 HIT:       3235 MISS:     539059
cpu0_L2C PREFETCH     ACCESS:          0 HIT:          0 MISS:          0
cpu0_L2C WRITE        ACCESS:     542541 HIT:     542519 MISS:         22
cpu0_L2C TRANSLATION  ACCESS:     110710 HIT:       1199 MISS:     109511
cpu0_L2C PREFETCH REQUESTED:          0 ISSUED:          0 USEFUL:          0 USELESS:          0
cpu0_L2C AVERAGE MISS LATENCY: 968 cycles
cpu0_STLB TOTAL        ACCESS:     156214 HIT:         39 MISS:     156175
cpu0_STLB LOAD         ACCESS:     156214 HIT:         39 MISS:     156175
cpu0_STLB RFO          ACCESS:          0 HIT:          0 MISS:          0
cpu0_STLB PREFETCH     ACCESS:          0 HIT:          0 MISS:          0
cpu0_STLB WRITE        ACCESS:          0 HIT:          0 MISS:          0
cpu0_STLB TRANSLATION  ACCESS:          0 HIT:          0 MISS:          0
cpu0_STLB PREFETCH REQUESTED:          0 ISSUED:          0 USEFUL:          0 USELESS:          0
cpu0_STLB AVERAGE MISS LATENCY: 1469 cycles

DRAM Statistics

Channel 0 RQ ROW_BUFFER_HIT:     129094
  ROW_BUFFER_MISS:     460055
 AVG DBUS CONGESTED CYCLE: 3.979
WQ ROW_BUFFER_HIT: Channel 0 
  ROW_BUFFER_MISS:     107386
  FULL:     400452
