WARNING: physical memory size is smaller than virtual memory size.

*** ChampSim Multicore Out-of-Order Simulator ***
Warmup Instructions: 50000000
Simulation Instructions: 600000000
Number of CPUs: 1
Page size: 4096

Off-chip DRAM Size: 4 GiB Channels: 1 Width: 64-bit Data Race: 3200 MT/s
Heartbeat CPU 0 instructions: 10000000 cycles: 2500202 heartbeat IPC: 4 cumulative IPC: 4 (Simulation time: 00 hr 00 min 49 sec)
Heartbeat CPU 0 instructions: 20000000 cycles: 5000202 heartbeat IPC: 4 cumulative IPC: 4 (Simulation time: 00 hr 01 min 39 sec)
Heartbeat CPU 0 instructions: 30000000 cycles: 7500202 heartbeat IPC: 4 cumulative IPC: 4 (Simulation time: 00 hr 02 min 30 sec)
Heartbeat CPU 0 instructions: 40000000 cycles: 10000202 heartbeat IPC: 4 cumulative IPC: 4 (Simulation time: 00 hr 03 min 17 sec)
Heartbeat CPU 0 instructions: 50000000 cycles: 12500202 heartbeat IPC: 4 cumulative IPC: 4 (Simulation time: 00 hr 04 min 07 sec)
Warmup finished CPU 0 instructions: 50000000 cycles: 12500203 cumulative IPC: 4 (Simulation time: 00 hr 04 min 07 sec)
Warmup complete CPU 0 instructions: 50000000 cycles: 12500203 cumulative IPC: 4 (Simulation time: 00 hr 04 min 07 sec)
Heartbeat CPU 0 instructions: 60000002 cycles: 15707574 heartbeat IPC: 3.118 cumulative IPC: 3.118 (Simulation time: 00 hr 05 min 06 sec)
Heartbeat CPU 0 instructions: 70000002 cycles: 18361616 heartbeat IPC: 3.768 cumulative IPC: 3.412 (Simulation time: 00 hr 05 min 59 sec)
Heartbeat CPU 0 instructions: 80000003 cycles: 21013838 heartbeat IPC: 3.77 cumulative IPC: 3.524 (Simulation time: 00 hr 06 min 49 sec)
Heartbeat CPU 0 instructions: 90000004 cycles: 23666037 heartbeat IPC: 3.77 cumulative IPC: 3.582 (Simulation time: 00 hr 07 min 39 sec)
Heartbeat CPU 0 instructions: 100000003 cycles: 26320225 heartbeat IPC: 3.768 cumulative IPC: 3.618 (Simulation time: 00 hr 08 min 32 sec)
Heartbeat CPU 0 instructions: 110000000 cycles: 28972215 heartbeat IPC: 3.771 cumulative IPC: 3.643 (Simulation time: 00 hr 09 min 22 sec)
Heartbeat CPU 0 instructions: 120000000 cycles: 31624216 heartbeat IPC: 3.771 cumulative IPC: 3.66 (Simulation time: 00 hr 10 min 12 sec)
Heartbeat CPU 0 instructions: 130000000 cycles: 34276461 heartbeat IPC: 3.77 cumulative IPC: 3.674 (Simulation time: 00 hr 11 min 00 sec)
Heartbeat CPU 0 instructions: 140000001 cycles: 36928649 heartbeat IPC: 3.77 cumulative IPC: 3.684 (Simulation time: 00 hr 11 min 49 sec)
Heartbeat CPU 0 instructions: 150000003 cycles: 39580878 heartbeat IPC: 3.77 cumulative IPC: 3.693 (Simulation time: 00 hr 12 min 37 sec)
Heartbeat CPU 0 instructions: 160000003 cycles: 42236253 heartbeat IPC: 3.766 cumulative IPC: 3.699 (Simulation time: 00 hr 13 min 24 sec)
Heartbeat CPU 0 instructions: 170000001 cycles: 44888194 heartbeat IPC: 3.771 cumulative IPC: 3.705 (Simulation time: 00 hr 14 min 13 sec)
Heartbeat CPU 0 instructions: 180000001 cycles: 47540363 heartbeat IPC: 3.77 cumulative IPC: 3.71 (Simulation time: 00 hr 15 min 03 sec)
Heartbeat CPU 0 instructions: 190000002 cycles: 50192538 heartbeat IPC: 3.77 cumulative IPC: 3.714 (Simulation time: 00 hr 15 min 52 sec)
Heartbeat CPU 0 instructions: 200000001 cycles: 52844758 heartbeat IPC: 3.77 cumulative IPC: 3.718 (Simulation time: 00 hr 16 min 45 sec)
Heartbeat CPU 0 instructions: 210000000 cycles: 55499555 heartbeat IPC: 3.767 cumulative IPC: 3.721 (Simulation time: 00 hr 17 min 23 sec)
Heartbeat CPU 0 instructions: 220000001 cycles: 58151581 heartbeat IPC: 3.771 cumulative IPC: 3.724 (Simulation time: 00 hr 18 min 00 sec)
Heartbeat CPU 0 instructions: 230000002 cycles: 60803797 heartbeat IPC: 3.77 cumulative IPC: 3.726 (Simulation time: 00 hr 18 min 40 sec)
Heartbeat CPU 0 instructions: 240000004 cycles: 63456081 heartbeat IPC: 3.77 cumulative IPC: 3.729 (Simulation time: 00 hr 19 min 19 sec)
Heartbeat CPU 0 instructions: 250000000 cycles: 66110804 heartbeat IPC: 3.767 cumulative IPC: 3.731 (Simulation time: 00 hr 19 min 57 sec)
Heartbeat CPU 0 instructions: 260000000 cycles: 68762712 heartbeat IPC: 3.771 cumulative IPC: 3.733 (Simulation time: 00 hr 20 min 32 sec)
Heartbeat CPU 0 instructions: 270000002 cycles: 71414719 heartbeat IPC: 3.771 cumulative IPC: 3.734 (Simulation time: 00 hr 21 min 09 sec)
Heartbeat CPU 0 instructions: 280000003 cycles: 74066963 heartbeat IPC: 3.77 cumulative IPC: 3.736 (Simulation time: 00 hr 21 min 51 sec)
Heartbeat CPU 0 instructions: 290000002 cycles: 76719240 heartbeat IPC: 3.77 cumulative IPC: 3.737 (Simulation time: 00 hr 22 min 33 sec)
Heartbeat CPU 0 instructions: 300000000 cycles: 79374264 heartbeat IPC: 3.766 cumulative IPC: 3.738 (Simulation time: 00 hr 23 min 14 sec)
Heartbeat CPU 0 instructions: 310000002 cycles: 82026266 heartbeat IPC: 3.771 cumulative IPC: 3.74 (Simulation time: 00 hr 23 min 54 sec)
Heartbeat CPU 0 instructions: 320000004 cycles: 84678307 heartbeat IPC: 3.771 cumulative IPC: 3.741 (Simulation time: 00 hr 24 min 33 sec)
Heartbeat CPU 0 instructions: 330000000 cycles: 87330496 heartbeat IPC: 3.77 cumulative IPC: 3.742 (Simulation time: 00 hr 25 min 12 sec)
Heartbeat CPU 0 instructions: 340000002 cycles: 89982774 heartbeat IPC: 3.77 cumulative IPC: 3.743 (Simulation time: 00 hr 25 min 49 sec)
Heartbeat CPU 0 instructions: 350000002 cycles: 92634890 heartbeat IPC: 3.771 cumulative IPC: 3.744 (Simulation time: 00 hr 26 min 28 sec)
Heartbeat CPU 0 instructions: 360000001 cycles: 95289373 heartbeat IPC: 3.767 cumulative IPC: 3.744 (Simulation time: 00 hr 27 min 04 sec)
Heartbeat CPU 0 instructions: 370000004 cycles: 97941350 heartbeat IPC: 3.771 cumulative IPC: 3.745 (Simulation time: 00 hr 27 min 42 sec)
Heartbeat CPU 0 instructions: 380000000 cycles: 100593527 heartbeat IPC: 3.77 cumulative IPC: 3.746 (Simulation time: 00 hr 28 min 18 sec)
Heartbeat CPU 0 instructions: 390000003 cycles: 103245874 heartbeat IPC: 3.77 cumulative IPC: 3.747 (Simulation time: 00 hr 29 min 05 sec)
Heartbeat CPU 0 instructions: 400000000 cycles: 105900506 heartbeat IPC: 3.767 cumulative IPC: 3.747 (Simulation time: 00 hr 30 min 29 sec)
Heartbeat CPU 0 instructions: 410000000 cycles: 108552398 heartbeat IPC: 3.771 cumulative IPC: 3.748 (Simulation time: 00 hr 31 min 23 sec)
Heartbeat CPU 0 instructions: 420000001 cycles: 111204484 heartbeat IPC: 3.771 cumulative IPC: 3.749 (Simulation time: 00 hr 31 min 58 sec)
Heartbeat CPU 0 instructions: 430000003 cycles: 113856805 heartbeat IPC: 3.77 cumulative IPC: 3.749 (Simulation time: 00 hr 32 min 35 sec)
Heartbeat CPU 0 instructions: 440000003 cycles: 116509147 heartbeat IPC: 3.77 cumulative IPC: 3.75 (Simulation time: 00 hr 33 min 11 sec)
Heartbeat CPU 0 instructions: 450000004 cycles: 119163290 heartbeat IPC: 3.768 cumulative IPC: 3.75 (Simulation time: 00 hr 33 min 48 sec)
Heartbeat CPU 0 instructions: 460000001 cycles: 121815304 heartbeat IPC: 3.771 cumulative IPC: 3.751 (Simulation time: 00 hr 34 min 28 sec)
Heartbeat CPU 0 instructions: 470000002 cycles: 124467403 heartbeat IPC: 3.771 cumulative IPC: 3.751 (Simulation time: 00 hr 35 min 04 sec)
Heartbeat CPU 0 instructions: 480000001 cycles: 127119754 heartbeat IPC: 3.77 cumulative IPC: 3.752 (Simulation time: 00 hr 35 min 39 sec)
Heartbeat CPU 0 instructions: 490000000 cycles: 129772001 heartbeat IPC: 3.77 cumulative IPC: 3.752 (Simulation time: 00 hr 36 min 18 sec)
Heartbeat CPU 0 instructions: 500000002 cycles: 132426189 heartbeat IPC: 3.768 cumulative IPC: 3.752 (Simulation time: 00 hr 37 min 15 sec)
Heartbeat CPU 0 instructions: 510000003 cycles: 135078198 heartbeat IPC: 3.771 cumulative IPC: 3.753 (Simulation time: 00 hr 37 min 56 sec)
Heartbeat CPU 0 instructions: 520000004 cycles: 137730330 heartbeat IPC: 3.771 cumulative IPC: 3.753 (Simulation time: 00 hr 38 min 40 sec)
Heartbeat CPU 0 instructions: 530000000 cycles: 140382640 heartbeat IPC: 3.77 cumulative IPC: 3.753 (Simulation time: 00 hr 39 min 33 sec)
Heartbeat CPU 0 instructions: 540000000 cycles: 143037299 heartbeat IPC: 3.767 cumulative IPC: 3.754 (Simulation time: 00 hr 40 min 20 sec)
Heartbeat CPU 0 instructions: 550000003 cycles: 145689410 heartbeat IPC: 3.771 cumulative IPC: 3.754 (Simulation time: 00 hr 41 min 00 sec)
Heartbeat CPU 0 instructions: 560000003 cycles: 148341432 heartbeat IPC: 3.771 cumulative IPC: 3.754 (Simulation time: 00 hr 41 min 37 sec)
Heartbeat CPU 0 instructions: 570000004 cycles: 150993418 heartbeat IPC: 3.771 cumulative IPC: 3.755 (Simulation time: 00 hr 42 min 15 sec)
Heartbeat CPU 0 instructions: 580000000 cycles: 153645713 heartbeat IPC: 3.77 cumulative IPC: 3.755 (Simulation time: 00 hr 42 min 56 sec)
Heartbeat CPU 0 instructions: 590000002 cycles: 156297984 heartbeat IPC: 3.77 cumulative IPC: 3.755 (Simulation time: 00 hr 43 min 41 sec)
*** Reached end of trace: (0, "traces/convolution.champsimtrace")
Heartbeat CPU 0 instructions: 600000000 cycles: 158959045 heartbeat IPC: 3.758 cumulative IPC: 3.755 (Simulation time: 00 hr 44 min 32 sec)
Heartbeat CPU 0 instructions: 610000002 cycles: 182959983 heartbeat IPC: 0.4167 cumulative IPC: 3.285 (Simulation time: 00 hr 48 min 07 sec)
Heartbeat CPU 0 instructions: 620000001 cycles: 204498446 heartbeat IPC: 0.4643 cumulative IPC: 2.969 (Simulation time: 00 hr 51 min 31 sec)
Heartbeat CPU 0 instructions: 630000001 cycles: 217043286 heartbeat IPC: 0.7971 cumulative IPC: 2.836 (Simulation time: 00 hr 53 min 35 sec)
Heartbeat CPU 0 instructions: 640000004 cycles: 227645640 heartbeat IPC: 0.9432 cumulative IPC: 2.742 (Simulation time: 00 hr 55 min 26 sec)
Heartbeat CPU 0 instructions: 650000001 cycles: 238084072 heartbeat IPC: 0.958 cumulative IPC: 2.66 (Simulation time: 00 hr 57 min 13 sec)
Simulation finished CPU 0 instructions: 600000001 cycles: 225583870 cumulative IPC: 2.66 (Simulation time: 00 hr 57 min 13 sec)
Simulation complete CPU 0 instructions: 600000001 cycles: 225583870 cumulative IPC: 2.66 (Simulation time: 00 hr 57 min 13 sec)

ChampSim completed all CPUs

=== Simulation ===
CPU 0 runs traces/convolution.champsimtrace
Region of Interest Statistics

CPU 0 cumulative IPC: 2.66 instructions: 600000001 cycles: 225583870
CPU 0 Branch Prediction Accuracy: 99.47% MPKI: 0.9507 Average ROB Occupancy at Mispredict: 68.92
Branch type MPKI
BRANCH_DIRECT_JUMP: 0.000107
BRANCH_INDIRECT: 4.17e-05
BRANCH_CONDITIONAL: 0.95
BRANCH_DIRECT_CALL: 0.000103
BRANCH_INDIRECT_CALL: 8.33e-06
BRANCH_RETURN: 1.83e-05

LLC TOTAL        ACCESS:    1185867 HIT:     537023 MISS:     648844
LLC LOAD         ACCESS:       2886 HIT:        870 MISS:       2016
LLC RFO          ACCESS:     535121 HIT:         76 MISS:     535045
LLC PREFETCH     ACCESS:       2886 HIT:        282 MISS:       2604
LLC WRITE        ACCESS:     535172 HIT:     535150 MISS:         22
LLC TRANSLATION  ACCESS:     109802 HIT:        645 MISS:     109157
LLC PREFETCH REQUESTED:       2886 ISSUED:       2886 USEFUL:       1648 USELESS:        350
LLC AVERAGE MISS LATENCY: 1012 cycles
cpu0_DTLB TOTAL        ACCESS:  120041126 HIT:  119687607 MISS:     353519
cpu0_DTLB LOAD         ACCESS:  120041126 HIT:  119687607 MISS:     353519
cpu0_DTLB RFO          ACCESS:          0 HIT:          0 MISS:          0
cpu0_DTLB PREFETCH     ACCESS:          0 HIT:          0 MISS:          0
cpu0_DTLB WRITE        ACCESS:          0 HIT:          0 MISS:          0
cpu0_DTLB TRANSLATION  ACCESS:          0 HIT:          0 MISS:          0
cpu0_DTLB PREFETCH REQUESTED:          0 ISSUED:          0 USEFUL:          0 USELESS:          0
cpu0_DTLB AVERAGE MISS LATENCY: 653.5 cycles
cpu0_ITLB TOTAL        ACCESS:       2010 HIT:       1978 MISS:         32
cpu0_ITLB LOAD         ACCESS:       2010 HIT:       1978 MISS:         32
cpu0_ITLB RFO          ACCESS:          0 HIT:          0 MISS:          0
cpu0_ITLB PREFETCH     ACCESS:          0 HIT:          0 MISS:          0
cpu0_ITLB WRITE        ACCESS:          0 HIT:          0 MISS:          0
cpu0_ITLB TRANSLATION  ACCESS:          0 HIT:          0 MISS:          0
cpu0_ITLB PREFETCH REQUESTED:          0 ISSUED:          0 USEFUL:          0 USELESS:          0
cpu0_ITLB AVERAGE MISS LATENCY: 948 cycles
cpu0_L1D TOTAL        ACCESS:  161172130 HIT:  155020971 MISS:    6151159
cpu0_L1D LOAD         ACCESS:   88954974 HIT:   88949091 MISS:       5883
cpu0_L1D RFO          ACCESS:          0 HIT:          0 MISS:          0
cpu0_L1D PREFETCH     ACCESS:          0 HIT:          0 MISS:          0
cpu0_L1D WRITE        ACCESS:   72036510 HIT:   66033482 MISS:    6003028
cpu0_L1D TRANSLATION  ACCESS:     180646 HIT:      38398 MISS:     142248
cpu0_L1D PREFETCH REQUESTED:          0 ISSUED:          0 USEFUL:          0 USELESS:          0
cpu0_L1D AVERAGE MISS LATENCY: 81.9 cycles
cpu0_L1I TOTAL        ACCESS:       2308 HIT:       1013 MISS:       1295
cpu0_L1I LOAD         ACCESS:       2308 HIT:       1013 MISS:       1295
cpu0_L1I RFO          ACCESS:          0 HIT:          0 MISS:          0
cpu0_L1I PREFETCH     ACCESS:          0 HIT:          0 MISS:          0
cpu0_L1I WRITE        ACCESS:          0 HIT:          0 MISS:          0
cpu0_L1I TRANSLATION  ACCESS:          0 HIT:          0 MISS:          0
cpu0_L1I PREFETCH REQUESTED:          0 ISSUED:          0 USEFUL:          0 USELESS:          0
cpu0_L1I AVERAGE MISS LATENCY: 653.9 cycles
cpu0_L2C TOTAL        ACCESS:    1190753 HIT:     542926 MISS:     647827
cpu0_L2C LOAD         ACCESS:       3312 HIT:        426 MISS:       2886
cpu0_L2C RFO          ACCESS:     538088 HIT:       2967 MISS:     535121
cpu0_L2C PREFETCH     ACCESS:          0 HIT:          0 MISS:          0
cpu0_L2C WRITE        ACCESS:     538219 HIT:     538202 MISS:         17
cpu0_L2C TRANSLATION  ACCESS:     111134 HIT:       1331 MISS:     109803
cpu0_L2C PREFETCH REQUESTED:          0 ISSUED:          0 USEFUL:          0 USELESS:          0
cpu0_L2C AVERAGE MISS LATENCY: 1032 cycles
cpu0_STLB TOTAL        ACCESS:     156162 HIT:         52 MISS:     156110
cpu0_STLB LOAD         ACCESS:     156162 HIT:         52 MISS:     156110
cpu0_STLB RFO          ACCESS:          0 HIT:          0 MISS:          0
cpu0_STLB PREFETCH     ACCESS:          0 HIT:          0 MISS:          0
cpu0_STLB WRITE        ACCESS:          0 HIT:          0 MISS:          0
cpu0_STLB TRANSLATION  ACCESS:          0 HIT:          0 MISS:          0
cpu0_STLB PREFETCH REQUESTED:          0 ISSUED:          0 USEFUL:          0 USELESS:          0
cpu0_STLB AVERAGE MISS LATENCY: 1689 cycles

DRAM Statistics

Channel 0 RQ ROW_BUFFER_HIT:     141949
  ROW_BUFFER_MISS:     505491
 AVG DBUS CONGESTED CYCLE: 3.979
WQ ROW_BUFFER_HIT: Channel 0 
  ROW_BUFFER_MISS:      99647
  FULL:     435414
