WARNING: physical memory size is smaller than virtual memory size.

*** ChampSim Multicore Out-of-Order Simulator ***
Warmup Instructions: 50000000
Simulation Instructions: 600000000
Number of CPUs: 1
Page size: 4096

CPU 0 Tage branch predictor
Off-chip DRAM Size: 4 GiB Channels: 1 Width: 64-bit Data Race: 3200 MT/s
Heartbeat CPU 0 instructions: 10000000 cycles: 2500202 heartbeat IPC: 4 cumulative IPC: 4 (Simulation time: 00 hr 00 min 35 sec)
Heartbeat CPU 0 instructions: 20000000 cycles: 5000202 heartbeat IPC: 4 cumulative IPC: 4 (Simulation time: 00 hr 01 min 12 sec)
Heartbeat CPU 0 instructions: 30000000 cycles: 7500202 heartbeat IPC: 4 cumulative IPC: 4 (Simulation time: 00 hr 01 min 51 sec)
Heartbeat CPU 0 instructions: 40000000 cycles: 10000202 heartbeat IPC: 4 cumulative IPC: 4 (Simulation time: 00 hr 02 min 30 sec)
Heartbeat CPU 0 instructions: 50000000 cycles: 12500202 heartbeat IPC: 4 cumulative IPC: 4 (Simulation time: 00 hr 03 min 11 sec)
Warmup finished CPU 0 instructions: 50000000 cycles: 12500203 cumulative IPC: 4 (Simulation time: 00 hr 03 min 11 sec)
Warmup complete CPU 0 instructions: 50000000 cycles: 12500203 cumulative IPC: 4 (Simulation time: 00 hr 03 min 11 sec)
Heartbeat CPU 0 instructions: 60000002 cycles: 15596832 heartbeat IPC: 3.229 cumulative IPC: 3.229 (Simulation time: 00 hr 04 min 03 sec)
Heartbeat CPU 0 instructions: 70000002 cycles: 18098822 heartbeat IPC: 3.997 cumulative IPC: 3.572 (Simulation time: 00 hr 04 min 48 sec)
Heartbeat CPU 0 instructions: 80000003 cycles: 20598844 heartbeat IPC: 4 cumulative IPC: 3.704 (Simulation time: 00 hr 05 min 34 sec)
Heartbeat CPU 0 instructions: 90000004 cycles: 23098865 heartbeat IPC: 4 cumulative IPC: 3.774 (Simulation time: 00 hr 06 min 18 sec)
Heartbeat CPU 0 instructions: 100000003 cycles: 25600762 heartbeat IPC: 3.997 cumulative IPC: 3.817 (Simulation time: 00 hr 07 min 02 sec)
Heartbeat CPU 0 instructions: 110000000 cycles: 28101463 heartbeat IPC: 3.999 cumulative IPC: 3.846 (Simulation time: 00 hr 07 min 48 sec)
Heartbeat CPU 0 instructions: 120000000 cycles: 30601487 heartbeat IPC: 4 cumulative IPC: 3.867 (Simulation time: 00 hr 08 min 33 sec)
Heartbeat CPU 0 instructions: 130000000 cycles: 33101510 heartbeat IPC: 4 cumulative IPC: 3.883 (Simulation time: 00 hr 09 min 16 sec)
Heartbeat CPU 0 instructions: 140000001 cycles: 35601547 heartbeat IPC: 4 cumulative IPC: 3.896 (Simulation time: 00 hr 09 min 58 sec)
Heartbeat CPU 0 instructions: 150000003 cycles: 38101569 heartbeat IPC: 4 cumulative IPC: 3.906 (Simulation time: 00 hr 10 min 42 sec)
Heartbeat CPU 0 instructions: 160000004 cycles: 40604185 heartbeat IPC: 3.996 cumulative IPC: 3.914 (Simulation time: 00 hr 11 min 25 sec)
Heartbeat CPU 0 instructions: 170000001 cycles: 43104212 heartbeat IPC: 4 cumulative IPC: 3.921 (Simulation time: 00 hr 12 min 11 sec)
Heartbeat CPU 0 instructions: 180000001 cycles: 45604233 heartbeat IPC: 4 cumulative IPC: 3.927 (Simulation time: 00 hr 12 min 55 sec)
Heartbeat CPU 0 instructions: 190000002 cycles: 48105091 heartbeat IPC: 3.999 cumulative IPC: 3.932 (Simulation time: 00 hr 13 min 36 sec)
Heartbeat CPU 0 instructions: 200000001 cycles: 50605112 heartbeat IPC: 4 cumulative IPC: 3.937 (Simulation time: 00 hr 14 min 19 sec)
Heartbeat CPU 0 instructions: 210000000 cycles: 53107674 heartbeat IPC: 3.996 cumulative IPC: 3.94 (Simulation time: 00 hr 15 min 02 sec)
Heartbeat CPU 0 instructions: 220000001 cycles: 55607717 heartbeat IPC: 4 cumulative IPC: 3.944 (Simulation time: 00 hr 15 min 46 sec)
Heartbeat CPU 0 instructions: 230000002 cycles: 58107738 heartbeat IPC: 4 cumulative IPC: 3.947 (Simulation time: 00 hr 16 min 31 sec)
Heartbeat CPU 0 instructions: 240000004 cycles: 60607776 heartbeat IPC: 4 cumulative IPC: 3.949 (Simulation time: 00 hr 17 min 14 sec)
Heartbeat CPU 0 instructions: 250000000 cycles: 63110874 heartbeat IPC: 3.995 cumulative IPC: 3.952 (Simulation time: 00 hr 17 min 57 sec)
Heartbeat CPU 0 instructions: 260000000 cycles: 65611347 heartbeat IPC: 3.999 cumulative IPC: 3.954 (Simulation time: 00 hr 18 min 40 sec)
Heartbeat CPU 0 instructions: 270000002 cycles: 68111368 heartbeat IPC: 4 cumulative IPC: 3.956 (Simulation time: 00 hr 19 min 24 sec)
Heartbeat CPU 0 instructions: 280000003 cycles: 70611407 heartbeat IPC: 4 cumulative IPC: 3.958 (Simulation time: 00 hr 20 min 08 sec)
Heartbeat CPU 0 instructions: 290000000 cycles: 73111427 heartbeat IPC: 4 cumulative IPC: 3.96 (Simulation time: 00 hr 20 min 50 sec)
Heartbeat CPU 0 instructions: 300000000 cycles: 75614188 heartbeat IPC: 3.996 cumulative IPC: 3.961 (Simulation time: 00 hr 21 min 32 sec)
Heartbeat CPU 0 instructions: 310000002 cycles: 78114225 heartbeat IPC: 4 cumulative IPC: 3.963 (Simulation time: 00 hr 22 min 13 sec)
Heartbeat CPU 0 instructions: 320000004 cycles: 80614247 heartbeat IPC: 4 cumulative IPC: 3.964 (Simulation time: 00 hr 22 min 59 sec)
Heartbeat CPU 0 instructions: 330000000 cycles: 83114268 heartbeat IPC: 4 cumulative IPC: 3.965 (Simulation time: 00 hr 23 min 44 sec)
Heartbeat CPU 0 instructions: 340000002 cycles: 85615822 heartbeat IPC: 3.998 cumulative IPC: 3.966 (Simulation time: 00 hr 24 min 29 sec)
Heartbeat CPU 0 instructions: 350000002 cycles: 88115844 heartbeat IPC: 4 cumulative IPC: 3.967 (Simulation time: 00 hr 25 min 12 sec)
Heartbeat CPU 0 instructions: 360000000 cycles: 90618706 heartbeat IPC: 3.995 cumulative IPC: 3.968 (Simulation time: 00 hr 25 min 56 sec)
Heartbeat CPU 0 instructions: 370000004 cycles: 93118750 heartbeat IPC: 4 cumulative IPC: 3.969 (Simulation time: 00 hr 26 min 41 sec)
Heartbeat CPU 0 instructions: 380000000 cycles: 95618770 heartbeat IPC: 4 cumulative IPC: 3.97 (Simulation time: 00 hr 27 min 25 sec)
Heartbeat CPU 0 instructions: 390000000 cycles: 98118792 heartbeat IPC: 4 cumulative IPC: 3.971 (Simulation time: 00 hr 28 min 08 sec)
Heartbeat CPU 0 instructions: 400000000 cycles: 100621185 heartbeat IPC: 3.996 cumulative IPC: 3.972 (Simulation time: 00 hr 28 min 51 sec)
Heartbeat CPU 0 instructions: 410000000 cycles: 103121658 heartbeat IPC: 3.999 cumulative IPC: 3.973 (Simulation time: 00 hr 29 min 34 sec)
Heartbeat CPU 0 instructions: 420000001 cycles: 105621680 heartbeat IPC: 4 cumulative IPC: 3.973 (Simulation time: 00 hr 30 min 17 sec)
Heartbeat CPU 0 instructions: 430000003 cycles: 108121701 heartbeat IPC: 4 cumulative IPC: 3.974 (Simulation time: 00 hr 31 min 00 sec)
Heartbeat CPU 0 instructions: 440000003 cycles: 110621723 heartbeat IPC: 4 cumulative IPC: 3.975 (Simulation time: 00 hr 31 min 43 sec)
Heartbeat CPU 0 instructions: 450000000 cycles: 113124104 heartbeat IPC: 3.996 cumulative IPC: 3.975 (Simulation time: 00 hr 32 min 25 sec)
Heartbeat CPU 0 instructions: 460000002 cycles: 115624125 heartbeat IPC: 4 cumulative IPC: 3.976 (Simulation time: 00 hr 33 min 09 sec)
Heartbeat CPU 0 instructions: 470000002 cycles: 118124146 heartbeat IPC: 4 cumulative IPC: 3.976 (Simulation time: 00 hr 33 min 51 sec)
Heartbeat CPU 0 instructions: 480000002 cycles: 120624168 heartbeat IPC: 4 cumulative IPC: 3.977 (Simulation time: 00 hr 34 min 34 sec)
Heartbeat CPU 0 instructions: 490000000 cycles: 123125726 heartbeat IPC: 3.998 cumulative IPC: 3.977 (Simulation time: 00 hr 35 min 18 sec)
Heartbeat CPU 0 instructions: 500000002 cycles: 125628153 heartbeat IPC: 3.996 cumulative IPC: 3.978 (Simulation time: 00 hr 36 min 01 sec)
Heartbeat CPU 0 instructions: 510000003 cycles: 128128174 heartbeat IPC: 4 cumulative IPC: 3.978 (Simulation time: 00 hr 36 min 46 sec)
Heartbeat CPU 0 instructions: 520000004 cycles: 130628195 heartbeat IPC: 4 cumulative IPC: 3.979 (Simulation time: 00 hr 37 min 28 sec)
Heartbeat CPU 0 instructions: 530000000 cycles: 133128238 heartbeat IPC: 4 cumulative IPC: 3.979 (Simulation time: 00 hr 38 min 14 sec)
Heartbeat CPU 0 instructions: 540000001 cycles: 135630557 heartbeat IPC: 3.996 cumulative IPC: 3.98 (Simulation time: 00 hr 38 min 56 sec)
Heartbeat CPU 0 instructions: 550000002 cycles: 138130577 heartbeat IPC: 4 cumulative IPC: 3.98 (Simulation time: 00 hr 39 min 42 sec)
Heartbeat CPU 0 instructions: 560000003 cycles: 140632131 heartbeat IPC: 3.998 cumulative IPC: 3.98 (Simulation time: 00 hr 40 min 27 sec)
Heartbeat CPU 0 instructions: 570000004 cycles: 143132153 heartbeat IPC: 4 cumulative IPC: 3.981 (Simulation time: 00 hr 41 min 09 sec)
Heartbeat CPU 0 instructions: 580000000 cycles: 145632175 heartbeat IPC: 4 cumulative IPC: 3.981 (Simulation time: 00 hr 41 min 54 sec)
Heartbeat CPU 0 instructions: 590000002 cycles: 148132212 heartbeat IPC: 4 cumulative IPC: 3.981 (Simulation time: 00 hr 42 min 49 sec)
*** Reached end of trace: (0, "traces/convolution.champsimtrace")
Heartbeat CPU 0 instructions: 600000000 cycles: 150641417 heartbeat IPC: 3.985 cumulative IPC: 3.981 (Simulation time: 00 hr 43 min 31 sec)
Heartbeat CPU 0 instructions: 610000002 cycles: 174887262 heartbeat IPC: 0.4124 cumulative IPC: 3.449 (Simulation time: 00 hr 46 min 47 sec)
Heartbeat CPU 0 instructions: 620000001 cycles: 196486693 heartbeat IPC: 0.463 cumulative IPC: 3.098 (Simulation time: 00 hr 49 min 52 sec)
Heartbeat CPU 0 instructions: 630000001 cycles: 209078877 heartbeat IPC: 0.7941 cumulative IPC: 2.95 (Simulation time: 00 hr 51 min 48 sec)
Heartbeat CPU 0 instructions: 640000004 cycles: 219692715 heartbeat IPC: 0.9422 cumulative IPC: 2.848 (Simulation time: 00 hr 53 min 31 sec)
Heartbeat CPU 0 instructions: 650000001 cycles: 230168604 heartbeat IPC: 0.9546 cumulative IPC: 2.756 (Simulation time: 00 hr 55 min 12 sec)
Simulation finished CPU 0 instructions: 600000001 cycles: 217668402 cumulative IPC: 2.756 (Simulation time: 00 hr 55 min 12 sec)
Simulation complete CPU 0 instructions: 600000001 cycles: 217668402 cumulative IPC: 2.756 (Simulation time: 00 hr 55 min 12 sec)

ChampSim completed all CPUs

=== Simulation ===
CPU 0 runs traces/convolution.champsimtrace
Region of Interest Statistics

CPU 0 cumulative IPC: 2.756 instructions: 600000001 cycles: 217668402
CPU 0 Branch Prediction Accuracy: 100% MPKI: 0.002858 Average ROB Occupancy at Mispredict: 80.39
Branch type MPKI
BRANCH_DIRECT_JUMP: 0.000107
BRANCH_INDIRECT: 4.17e-05
BRANCH_CONDITIONAL: 0.00258
BRANCH_DIRECT_CALL: 0.000103
BRANCH_INDIRECT_CALL: 8.33e-06
BRANCH_RETURN: 1.83e-05

LLC TOTAL        ACCESS:    1182992 HIT:     535857 MISS:     647135
LLC LOAD         ACCESS:       2886 HIT:          6 MISS:       2880
LLC RFO          ACCESS:     535121 HIT:         63 MISS:     535058
LLC PREFETCH     ACCESS:          0 HIT:          0 MISS:          0
LLC WRITE        ACCESS:     535173 HIT:     535152 MISS:         21
LLC TRANSLATION  ACCESS:     109812 HIT:        636 MISS:     109176
LLC PREFETCH REQUESTED:          0 ISSUED:          0 USEFUL:          0 USELESS:          0
LLC AVERAGE MISS LATENCY: 1020 cycles
cpu0_DTLB TOTAL        ACCESS:  113108138 HIT:  112754287 MISS:     353851
cpu0_DTLB LOAD         ACCESS:  113108138 HIT:  112754287 MISS:     353851
cpu0_DTLB RFO          ACCESS:          0 HIT:          0 MISS:          0
cpu0_DTLB PREFETCH     ACCESS:          0 HIT:          0 MISS:          0
cpu0_DTLB WRITE        ACCESS:          0 HIT:          0 MISS:          0
cpu0_DTLB TRANSLATION  ACCESS:          0 HIT:          0 MISS:          0
cpu0_DTLB PREFETCH REQUESTED:          0 ISSUED:          0 USEFUL:          0 USELESS:          0
cpu0_DTLB AVERAGE MISS LATENCY: 655.7 cycles
cpu0_ITLB TOTAL        ACCESS:       2116 HIT:       2082 MISS:         34
cpu0_ITLB LOAD         ACCESS:       2116 HIT:       2082 MISS:         34
cpu0_ITLB RFO          ACCESS:          0 HIT:          0 MISS:          0
cpu0_ITLB PREFETCH     ACCESS:          0 HIT:          0 MISS:          0
cpu0_ITLB WRITE        ACCESS:          0 HIT:          0 MISS:          0
cpu0_ITLB TRANSLATION  ACCESS:          0 HIT:          0 MISS:          0
cpu0_ITLB PREFETCH REQUESTED:          0 ISSUED:          0 USEFUL:          0 USELESS:          0
cpu0_ITLB AVERAGE MISS LATENCY: 756.6 cycles
cpu0_L1D TOTAL        ACCESS:  146344826 HIT:  140173303 MISS:    6171523
cpu0_L1D LOAD         ACCESS:   74191215 HIT:   74183343 MISS:       7872
cpu0_L1D RFO          ACCESS:          0 HIT:          0 MISS:          0
cpu0_L1D PREFETCH     ACCESS:          0 HIT:          0 MISS:          0
cpu0_L1D WRITE        ACCESS:   71972958 HIT:   65951561 MISS:    6021397
cpu0_L1D TRANSLATION  ACCESS:     180653 HIT:      38399 MISS:     142254
cpu0_L1D PREFETCH REQUESTED:          0 ISSUED:          0 USEFUL:          0 USELESS:          0
cpu0_L1D AVERAGE MISS LATENCY: 83.56 cycles
cpu0_L1I TOTAL        ACCESS:       2473 HIT:        993 MISS:       1480
cpu0_L1I LOAD         ACCESS:       2473 HIT:        993 MISS:       1480
cpu0_L1I RFO          ACCESS:          0 HIT:          0 MISS:          0
cpu0_L1I PREFETCH     ACCESS:          0 HIT:          0 MISS:          0
cpu0_L1I WRITE        ACCESS:          0 HIT:          0 MISS:          0
cpu0_L1I TRANSLATION  ACCESS:          0 HIT:          0 MISS:          0
cpu0_L1I PREFETCH REQUESTED:          0 ISSUED:          0 USEFUL:          0 USELESS:          0
cpu0_L1I AVERAGE MISS LATENCY: 636.8 cycles
cpu0_L2C TOTAL        ACCESS:    1193311 HIT:     545476 MISS:     647835
cpu0_L2C LOAD         ACCESS:       3311 HIT:        425 MISS:       2886
cpu0_L2C RFO          ACCESS:     539204 HIT:       4083 MISS:     535121
cpu0_L2C PREFETCH     ACCESS:          0 HIT:          0 MISS:          0
cpu0_L2C WRITE        ACCESS:     539638 HIT:     539623 MISS:         15
cpu0_L2C TRANSLATION  ACCESS:     111158 HIT:       1345 MISS:     109813
cpu0_L2C PREFETCH REQUESTED:          0 ISSUED:          0 USEFUL:          0 USELESS:          0
cpu0_L2C AVERAGE MISS LATENCY: 1040 cycles
cpu0_STLB TOTAL        ACCESS:     156151 HIT:         47 MISS:     156104
cpu0_STLB LOAD         ACCESS:     156151 HIT:         47 MISS:     156104
cpu0_STLB RFO          ACCESS:          0 HIT:          0 MISS:          0
cpu0_STLB PREFETCH     ACCESS:          0 HIT:          0 MISS:          0
cpu0_STLB WRITE        ACCESS:          0 HIT:          0 MISS:          0
cpu0_STLB TRANSLATION  ACCESS:          0 HIT:          0 MISS:          0
cpu0_STLB PREFETCH REQUESTED:          0 ISSUED:          0 USEFUL:          0 USELESS:          0
cpu0_STLB AVERAGE MISS LATENCY: 1695 cycles

DRAM Statistics

Channel 0 RQ ROW_BUFFER_HIT:     141509
  ROW_BUFFER_MISS:     505600
 AVG DBUS CONGESTED CYCLE: 3.982
WQ ROW_BUFFER_HIT: Channel 0 
  ROW_BUFFER_MISS:     100192
  FULL:     434887
