WARNING: physical memory size is smaller than virtual memory size.

*** ChampSim Multicore Out-of-Order Simulator ***
Warmup Instructions: 50000000
Simulation Instructions: 600000000
Number of CPUs: 1
Page size: 4096

Off-chip DRAM Size: 4 GiB Channels: 1 Width: 64-bit Data Race: 3200 MT/s
Heartbeat CPU 0 instructions: 10000000 cycles: 2500202 heartbeat IPC: 4 cumulative IPC: 4 (Simulation time: 00 hr 00 min 35 sec)
Heartbeat CPU 0 instructions: 20000000 cycles: 5000202 heartbeat IPC: 4 cumulative IPC: 4 (Simulation time: 00 hr 01 min 18 sec)
Heartbeat CPU 0 instructions: 30000000 cycles: 7500202 heartbeat IPC: 4 cumulative IPC: 4 (Simulation time: 00 hr 01 min 58 sec)
Heartbeat CPU 0 instructions: 40000000 cycles: 10000202 heartbeat IPC: 4 cumulative IPC: 4 (Simulation time: 00 hr 02 min 38 sec)
Heartbeat CPU 0 instructions: 50000000 cycles: 12500202 heartbeat IPC: 4 cumulative IPC: 4 (Simulation time: 00 hr 03 min 14 sec)
Warmup finished CPU 0 instructions: 50000000 cycles: 12500203 cumulative IPC: 4 (Simulation time: 00 hr 03 min 14 sec)
Warmup complete CPU 0 instructions: 50000000 cycles: 12500203 cumulative IPC: 4 (Simulation time: 00 hr 03 min 14 sec)
Heartbeat CPU 0 instructions: 60000002 cycles: 15723299 heartbeat IPC: 3.103 cumulative IPC: 3.103 (Simulation time: 00 hr 04 min 04 sec)
Heartbeat CPU 0 instructions: 70000002 cycles: 18377785 heartbeat IPC: 3.767 cumulative IPC: 3.403 (Simulation time: 00 hr 04 min 50 sec)
Heartbeat CPU 0 instructions: 80000003 cycles: 21030007 heartbeat IPC: 3.77 cumulative IPC: 3.517 (Simulation time: 00 hr 05 min 33 sec)
Heartbeat CPU 0 instructions: 90000004 cycles: 23682206 heartbeat IPC: 3.77 cumulative IPC: 3.577 (Simulation time: 00 hr 06 min 12 sec)
Heartbeat CPU 0 instructions: 100000003 cycles: 26337376 heartbeat IPC: 3.766 cumulative IPC: 3.613 (Simulation time: 00 hr 06 min 52 sec)
Heartbeat CPU 0 instructions: 110000000 cycles: 28990852 heartbeat IPC: 3.769 cumulative IPC: 3.638 (Simulation time: 00 hr 07 min 27 sec)
Heartbeat CPU 0 instructions: 120000000 cycles: 31642853 heartbeat IPC: 3.771 cumulative IPC: 3.657 (Simulation time: 00 hr 08 min 05 sec)
Heartbeat CPU 0 instructions: 130000000 cycles: 34295098 heartbeat IPC: 3.77 cumulative IPC: 3.671 (Simulation time: 00 hr 08 min 43 sec)
Heartbeat CPU 0 instructions: 140000001 cycles: 36947286 heartbeat IPC: 3.77 cumulative IPC: 3.681 (Simulation time: 00 hr 09 min 19 sec)
Heartbeat CPU 0 instructions: 150000003 cycles: 39599515 heartbeat IPC: 3.77 cumulative IPC: 3.69 (Simulation time: 00 hr 09 min 54 sec)
Heartbeat CPU 0 instructions: 160000003 cycles: 42254882 heartbeat IPC: 3.766 cumulative IPC: 3.697 (Simulation time: 00 hr 10 min 31 sec)
Heartbeat CPU 0 instructions: 170000001 cycles: 44908743 heartbeat IPC: 3.768 cumulative IPC: 3.703 (Simulation time: 00 hr 11 min 14 sec)
Heartbeat CPU 0 instructions: 180000001 cycles: 47560912 heartbeat IPC: 3.77 cumulative IPC: 3.708 (Simulation time: 00 hr 12 min 00 sec)
Heartbeat CPU 0 instructions: 190000002 cycles: 50214619 heartbeat IPC: 3.768 cumulative IPC: 3.712 (Simulation time: 00 hr 12 min 43 sec)
Heartbeat CPU 0 instructions: 200000001 cycles: 52866839 heartbeat IPC: 3.77 cumulative IPC: 3.716 (Simulation time: 00 hr 13 min 34 sec)
Heartbeat CPU 0 instructions: 210000000 cycles: 55521546 heartbeat IPC: 3.767 cumulative IPC: 3.719 (Simulation time: 00 hr 14 min 12 sec)
Heartbeat CPU 0 instructions: 220000001 cycles: 58173907 heartbeat IPC: 3.77 cumulative IPC: 3.722 (Simulation time: 00 hr 14 min 48 sec)
Heartbeat CPU 0 instructions: 230000002 cycles: 60826123 heartbeat IPC: 3.77 cumulative IPC: 3.725 (Simulation time: 00 hr 15 min 26 sec)
Heartbeat CPU 0 instructions: 240000004 cycles: 63478407 heartbeat IPC: 3.77 cumulative IPC: 3.727 (Simulation time: 00 hr 16 min 04 sec)
Heartbeat CPU 0 instructions: 250000000 cycles: 66132852 heartbeat IPC: 3.767 cumulative IPC: 3.729 (Simulation time: 00 hr 16 min 45 sec)
Heartbeat CPU 0 instructions: 260000000 cycles: 68787128 heartbeat IPC: 3.768 cumulative IPC: 3.731 (Simulation time: 00 hr 17 min 34 sec)
Heartbeat CPU 0 instructions: 270000002 cycles: 71439135 heartbeat IPC: 3.771 cumulative IPC: 3.733 (Simulation time: 00 hr 18 min 16 sec)
Heartbeat CPU 0 instructions: 280000003 cycles: 74091379 heartbeat IPC: 3.77 cumulative IPC: 3.734 (Simulation time: 00 hr 18 min 59 sec)
Heartbeat CPU 0 instructions: 290000002 cycles: 76743656 heartbeat IPC: 3.77 cumulative IPC: 3.736 (Simulation time: 00 hr 19 min 40 sec)
Heartbeat CPU 0 instructions: 300000000 cycles: 79398774 heartbeat IPC: 3.766 cumulative IPC: 3.737 (Simulation time: 00 hr 20 min 22 sec)
Heartbeat CPU 0 instructions: 310000002 cycles: 82051104 heartbeat IPC: 3.77 cumulative IPC: 3.738 (Simulation time: 00 hr 21 min 04 sec)
Heartbeat CPU 0 instructions: 320000004 cycles: 84703145 heartbeat IPC: 3.771 cumulative IPC: 3.739 (Simulation time: 00 hr 21 min 48 sec)
Heartbeat CPU 0 instructions: 330000000 cycles: 87355334 heartbeat IPC: 3.77 cumulative IPC: 3.741 (Simulation time: 00 hr 22 min 30 sec)
Heartbeat CPU 0 instructions: 340000002 cycles: 90008056 heartbeat IPC: 3.77 cumulative IPC: 3.742 (Simulation time: 00 hr 23 min 15 sec)
Heartbeat CPU 0 instructions: 350000002 cycles: 92660172 heartbeat IPC: 3.771 cumulative IPC: 3.743 (Simulation time: 00 hr 23 min 56 sec)
Heartbeat CPU 0 instructions: 360000001 cycles: 95315268 heartbeat IPC: 3.766 cumulative IPC: 3.743 (Simulation time: 00 hr 24 min 37 sec)
Heartbeat CPU 0 instructions: 370000004 cycles: 97967615 heartbeat IPC: 3.77 cumulative IPC: 3.744 (Simulation time: 00 hr 25 min 14 sec)
Heartbeat CPU 0 instructions: 380000000 cycles: 100619792 heartbeat IPC: 3.77 cumulative IPC: 3.745 (Simulation time: 00 hr 25 min 53 sec)
Heartbeat CPU 0 instructions: 390000003 cycles: 103272139 heartbeat IPC: 3.77 cumulative IPC: 3.746 (Simulation time: 00 hr 26 min 29 sec)
Heartbeat CPU 0 instructions: 400000000 cycles: 105926934 heartbeat IPC: 3.767 cumulative IPC: 3.746 (Simulation time: 00 hr 27 min 05 sec)
Heartbeat CPU 0 instructions: 410000000 cycles: 108581668 heartbeat IPC: 3.767 cumulative IPC: 3.747 (Simulation time: 00 hr 27 min 42 sec)
Heartbeat CPU 0 instructions: 420000001 cycles: 111233754 heartbeat IPC: 3.771 cumulative IPC: 3.747 (Simulation time: 00 hr 28 min 20 sec)
Heartbeat CPU 0 instructions: 430000003 cycles: 113886075 heartbeat IPC: 3.77 cumulative IPC: 3.748 (Simulation time: 00 hr 29 min 01 sec)
Heartbeat CPU 0 instructions: 440000003 cycles: 116538417 heartbeat IPC: 3.77 cumulative IPC: 3.749 (Simulation time: 00 hr 29 min 39 sec)
Heartbeat CPU 0 instructions: 450000004 cycles: 119193671 heartbeat IPC: 3.766 cumulative IPC: 3.749 (Simulation time: 00 hr 30 min 16 sec)
Heartbeat CPU 0 instructions: 460000001 cycles: 121846730 heartbeat IPC: 3.769 cumulative IPC: 3.75 (Simulation time: 00 hr 31 min 00 sec)
Heartbeat CPU 0 instructions: 470000002 cycles: 124498829 heartbeat IPC: 3.771 cumulative IPC: 3.75 (Simulation time: 00 hr 31 min 42 sec)
Heartbeat CPU 0 instructions: 480000001 cycles: 127151180 heartbeat IPC: 3.77 cumulative IPC: 3.751 (Simulation time: 00 hr 32 min 24 sec)
Heartbeat CPU 0 instructions: 490000000 cycles: 129804957 heartbeat IPC: 3.768 cumulative IPC: 3.751 (Simulation time: 00 hr 33 min 04 sec)
Heartbeat CPU 0 instructions: 500000002 cycles: 132459737 heartbeat IPC: 3.767 cumulative IPC: 3.751 (Simulation time: 00 hr 33 min 39 sec)
Heartbeat CPU 0 instructions: 510000003 cycles: 135113145 heartbeat IPC: 3.769 cumulative IPC: 3.752 (Simulation time: 00 hr 34 min 14 sec)
Heartbeat CPU 0 instructions: 520000004 cycles: 137765277 heartbeat IPC: 3.771 cumulative IPC: 3.752 (Simulation time: 00 hr 34 min 52 sec)
Heartbeat CPU 0 instructions: 530000000 cycles: 140417587 heartbeat IPC: 3.77 cumulative IPC: 3.752 (Simulation time: 00 hr 35 min 27 sec)
Heartbeat CPU 0 instructions: 540000000 cycles: 143073134 heartbeat IPC: 3.766 cumulative IPC: 3.753 (Simulation time: 00 hr 36 min 05 sec)
Heartbeat CPU 0 instructions: 550000003 cycles: 145726637 heartbeat IPC: 3.769 cumulative IPC: 3.753 (Simulation time: 00 hr 36 min 44 sec)
Heartbeat CPU 0 instructions: 560000003 cycles: 148379880 heartbeat IPC: 3.769 cumulative IPC: 3.753 (Simulation time: 00 hr 37 min 22 sec)
Heartbeat CPU 0 instructions: 570000004 cycles: 151031866 heartbeat IPC: 3.771 cumulative IPC: 3.754 (Simulation time: 00 hr 37 min 58 sec)
Heartbeat CPU 0 instructions: 580000000 cycles: 153684161 heartbeat IPC: 3.77 cumulative IPC: 3.754 (Simulation time: 00 hr 38 min 34 sec)
Heartbeat CPU 0 instructions: 590000002 cycles: 156336432 heartbeat IPC: 3.77 cumulative IPC: 3.754 (Simulation time: 00 hr 39 min 09 sec)
*** Reached end of trace: (0, "traces/convolution.champsimtrace")
Heartbeat CPU 0 instructions: 600000000 cycles: 158997781 heartbeat IPC: 3.757 cumulative IPC: 3.754 (Simulation time: 00 hr 39 min 45 sec)
Heartbeat CPU 0 instructions: 610000002 cycles: 183371392 heartbeat IPC: 0.4103 cumulative IPC: 3.277 (Simulation time: 00 hr 43 min 00 sec)
Heartbeat CPU 0 instructions: 620000001 cycles: 204995977 heartbeat IPC: 0.4624 cumulative IPC: 2.961 (Simulation time: 00 hr 46 min 04 sec)
Heartbeat CPU 0 instructions: 630000001 cycles: 217487571 heartbeat IPC: 0.8005 cumulative IPC: 2.829 (Simulation time: 00 hr 47 min 56 sec)
Heartbeat CPU 0 instructions: 640000004 cycles: 228046457 heartbeat IPC: 0.9471 cumulative IPC: 2.737 (Simulation time: 00 hr 49 min 33 sec)
Heartbeat CPU 0 instructions: 650000001 cycles: 238475618 heartbeat IPC: 0.9588 cumulative IPC: 2.655 (Simulation time: 00 hr 51 min 07 sec)
Simulation finished CPU 0 instructions: 600000001 cycles: 225975416 cumulative IPC: 2.655 (Simulation time: 00 hr 51 min 07 sec)
Simulation complete CPU 0 instructions: 600000001 cycles: 225975416 cumulative IPC: 2.655 (Simulation time: 00 hr 51 min 07 sec)

ChampSim completed all CPUs

=== Simulation ===
CPU 0 runs traces/convolution.champsimtrace
Region of Interest Statistics

CPU 0 cumulative IPC: 2.655 instructions: 600000001 cycles: 225975416
CPU 0 Branch Prediction Accuracy: 99.47% MPKI: 0.9507 Average ROB Occupancy at Mispredict: 68.95
Branch type MPKI
BRANCH_DIRECT_JUMP: 0.000107
BRANCH_INDIRECT: 4.17e-05
BRANCH_CONDITIONAL: 0.95
BRANCH_DIRECT_CALL: 0.000103
BRANCH_INDIRECT_CALL: 8.33e-06
BRANCH_RETURN: 1.83e-05

LLC TOTAL        ACCESS:    1185083 HIT:     536989 MISS:     648094
LLC LOAD         ACCESS:       2887 HIT:        577 MISS:       2310
LLC RFO          ACCESS:     535119 HIT:         71 MISS:     535048
LLC PREFETCH     ACCESS:       2113 HIT:        603 MISS:       1510
LLC WRITE        ACCESS:     535167 HIT:     535082 MISS:         85
LLC TRANSLATION  ACCESS:     109797 HIT:        656 MISS:     109141
LLC PREFETCH REQUESTED:       2113 ISSUED:       2113 USEFUL:        800 USELESS:         48
LLC AVERAGE MISS LATENCY: 1014 cycles
cpu0_DTLB TOTAL        ACCESS:  120038678 HIT:  119684858 MISS:     353820
cpu0_DTLB LOAD         ACCESS:  120038678 HIT:  119684858 MISS:     353820
cpu0_DTLB RFO          ACCESS:          0 HIT:          0 MISS:          0
cpu0_DTLB PREFETCH     ACCESS:          0 HIT:          0 MISS:          0
cpu0_DTLB WRITE        ACCESS:          0 HIT:          0 MISS:          0
cpu0_DTLB TRANSLATION  ACCESS:          0 HIT:          0 MISS:          0
cpu0_DTLB PREFETCH REQUESTED:          0 ISSUED:          0 USEFUL:          0 USELESS:          0
cpu0_DTLB AVERAGE MISS LATENCY: 655.7 cycles
cpu0_ITLB TOTAL        ACCESS:       2017 HIT:       1985 MISS:         32
cpu0_ITLB LOAD         ACCESS:       2017 HIT:       1985 MISS:         32
cpu0_ITLB RFO          ACCESS:          0 HIT:          0 MISS:          0
cpu0_ITLB PREFETCH     ACCESS:          0 HIT:          0 MISS:          0
cpu0_ITLB WRITE        ACCESS:          0 HIT:          0 MISS:          0
cpu0_ITLB TRANSLATION  ACCESS:          0 HIT:          0 MISS:          0
cpu0_ITLB PREFETCH REQUESTED:          0 ISSUED:          0 USEFUL:          0 USELESS:          0
cpu0_ITLB AVERAGE MISS LATENCY: 873.3 cycles
cpu0_L1D TOTAL        ACCESS:  161170278 HIT:  155017251 MISS:    6153027
cpu0_L1D LOAD         ACCESS:   88953553 HIT:   88947361 MISS:       6192
cpu0_L1D RFO          ACCESS:          0 HIT:          0 MISS:          0
cpu0_L1D PREFETCH     ACCESS:          0 HIT:          0 MISS:          0
cpu0_L1D WRITE        ACCESS:   72036096 HIT:   66031547 MISS:    6004549
cpu0_L1D TRANSLATION  ACCESS:     180629 HIT:      38343 MISS:     142286
cpu0_L1D PREFETCH REQUESTED:          0 ISSUED:          0 USEFUL:          0 USELESS:          0
cpu0_L1D AVERAGE MISS LATENCY: 81.93 cycles
cpu0_L1I TOTAL        ACCESS:       2318 HIT:       1008 MISS:       1310
cpu0_L1I LOAD         ACCESS:       2318 HIT:       1008 MISS:       1310
cpu0_L1I RFO          ACCESS:          0 HIT:          0 MISS:          0
cpu0_L1I PREFETCH     ACCESS:          0 HIT:          0 MISS:          0
cpu0_L1I WRITE        ACCESS:          0 HIT:          0 MISS:          0
cpu0_L1I TRANSLATION  ACCESS:          0 HIT:          0 MISS:          0
cpu0_L1I PREFETCH REQUESTED:          0 ISSUED:          0 USEFUL:          0 USELESS:          0
cpu0_L1I AVERAGE MISS LATENCY: 702.1 cycles
cpu0_L2C TOTAL        ACCESS:    1190743 HIT:     542923 MISS:     647820
cpu0_L2C LOAD         ACCESS:       3313 HIT:        426 MISS:       2887
cpu0_L2C RFO          ACCESS:     538082 HIT:       2963 MISS:     535119
cpu0_L2C PREFETCH     ACCESS:          0 HIT:          0 MISS:          0
cpu0_L2C WRITE        ACCESS:     538215 HIT:     538198 MISS:         17
cpu0_L2C TRANSLATION  ACCESS:     111133 HIT:       1336 MISS:     109797
cpu0_L2C PREFETCH REQUESTED:          0 ISSUED:          0 USEFUL:          0 USELESS:          0
cpu0_L2C AVERAGE MISS LATENCY: 1034 cycles
cpu0_STLB TOTAL        ACCESS:     156155 HIT:         47 MISS:     156108
cpu0_STLB LOAD         ACCESS:     156155 HIT:         47 MISS:     156108
cpu0_STLB RFO          ACCESS:          0 HIT:          0 MISS:          0
cpu0_STLB PREFETCH     ACCESS:          0 HIT:          0 MISS:          0
cpu0_STLB WRITE        ACCESS:          0 HIT:          0 MISS:          0
cpu0_STLB TRANSLATION  ACCESS:          0 HIT:          0 MISS:          0
cpu0_STLB PREFETCH REQUESTED:          0 ISSUED:          0 USEFUL:          0 USELESS:          0
cpu0_STLB AVERAGE MISS LATENCY: 1694 cycles

DRAM Statistics

Channel 0 RQ ROW_BUFFER_HIT:     141687
  ROW_BUFFER_MISS:     505433
 AVG DBUS CONGESTED CYCLE: 3.979
WQ ROW_BUFFER_HIT: Channel 0 
  ROW_BUFFER_MISS:      98931
  FULL:     435824
