WARNING: physical memory size is smaller than virtual memory size.

*** ChampSim Multicore Out-of-Order Simulator ***
Warmup Instructions: 50000000
Simulation Instructions: 600000000
Number of CPUs: 1
Page size: 4096

Off-chip DRAM Size: 4 GiB Channels: 1 Width: 64-bit Data Race: 3200 MT/s
Heartbeat CPU 0 instructions: 10000000 cycles: 2500202 heartbeat IPC: 4 cumulative IPC: 4 (Simulation time: 00 hr 00 min 33 sec)
Heartbeat CPU 0 instructions: 20000000 cycles: 5000202 heartbeat IPC: 4 cumulative IPC: 4 (Simulation time: 00 hr 01 min 07 sec)
Heartbeat CPU 0 instructions: 30000000 cycles: 7500202 heartbeat IPC: 4 cumulative IPC: 4 (Simulation time: 00 hr 01 min 39 sec)
Heartbeat CPU 0 instructions: 40000000 cycles: 10000202 heartbeat IPC: 4 cumulative IPC: 4 (Simulation time: 00 hr 02 min 12 sec)
Heartbeat CPU 0 instructions: 50000000 cycles: 12500202 heartbeat IPC: 4 cumulative IPC: 4 (Simulation time: 00 hr 02 min 44 sec)
Warmup finished CPU 0 instructions: 50000000 cycles: 12500203 cumulative IPC: 4 (Simulation time: 00 hr 02 min 44 sec)
Warmup complete CPU 0 instructions: 50000000 cycles: 12500203 cumulative IPC: 4 (Simulation time: 00 hr 02 min 44 sec)
Heartbeat CPU 0 instructions: 60000002 cycles: 15752617 heartbeat IPC: 3.075 cumulative IPC: 3.075 (Simulation time: 00 hr 03 min 25 sec)
Heartbeat CPU 0 instructions: 70000002 cycles: 18457883 heartbeat IPC: 3.696 cumulative IPC: 3.357 (Simulation time: 00 hr 04 min 03 sec)
Heartbeat CPU 0 instructions: 80000003 cycles: 21161480 heartbeat IPC: 3.699 cumulative IPC: 3.464 (Simulation time: 00 hr 04 min 39 sec)
Heartbeat CPU 0 instructions: 90000004 cycles: 23865043 heartbeat IPC: 3.699 cumulative IPC: 3.52 (Simulation time: 00 hr 05 min 12 sec)
Heartbeat CPU 0 instructions: 100000003 cycles: 26570558 heartbeat IPC: 3.696 cumulative IPC: 3.554 (Simulation time: 00 hr 05 min 46 sec)
Heartbeat CPU 0 instructions: 110000000 cycles: 29274936 heartbeat IPC: 3.698 cumulative IPC: 3.577 (Simulation time: 00 hr 06 min 18 sec)
Heartbeat CPU 0 instructions: 120000000 cycles: 31978290 heartbeat IPC: 3.699 cumulative IPC: 3.594 (Simulation time: 00 hr 06 min 51 sec)
Heartbeat CPU 0 instructions: 130000000 cycles: 34681911 heartbeat IPC: 3.699 cumulative IPC: 3.607 (Simulation time: 00 hr 07 min 25 sec)
Heartbeat CPU 0 instructions: 140000001 cycles: 37385460 heartbeat IPC: 3.699 cumulative IPC: 3.617 (Simulation time: 00 hr 07 min 58 sec)
Heartbeat CPU 0 instructions: 150000003 cycles: 40089044 heartbeat IPC: 3.699 cumulative IPC: 3.625 (Simulation time: 00 hr 08 min 30 sec)
Heartbeat CPU 0 instructions: 160000003 cycles: 42794709 heartbeat IPC: 3.696 cumulative IPC: 3.631 (Simulation time: 00 hr 09 min 03 sec)
Heartbeat CPU 0 instructions: 170000001 cycles: 45497971 heartbeat IPC: 3.699 cumulative IPC: 3.637 (Simulation time: 00 hr 09 min 34 sec)
Heartbeat CPU 0 instructions: 180000001 cycles: 48201544 heartbeat IPC: 3.699 cumulative IPC: 3.641 (Simulation time: 00 hr 10 min 06 sec)
Heartbeat CPU 0 instructions: 190000002 cycles: 50906639 heartbeat IPC: 3.697 cumulative IPC: 3.645 (Simulation time: 00 hr 10 min 37 sec)
Heartbeat CPU 0 instructions: 200000001 cycles: 53610225 heartbeat IPC: 3.699 cumulative IPC: 3.649 (Simulation time: 00 hr 11 min 09 sec)
Heartbeat CPU 0 instructions: 210000000 cycles: 56316246 heartbeat IPC: 3.695 cumulative IPC: 3.652 (Simulation time: 00 hr 11 min 41 sec)
Heartbeat CPU 0 instructions: 220000001 cycles: 59019603 heartbeat IPC: 3.699 cumulative IPC: 3.654 (Simulation time: 00 hr 12 min 13 sec)
Heartbeat CPU 0 instructions: 230000002 cycles: 61723225 heartbeat IPC: 3.699 cumulative IPC: 3.657 (Simulation time: 00 hr 12 min 45 sec)
Heartbeat CPU 0 instructions: 240000004 cycles: 64426858 heartbeat IPC: 3.699 cumulative IPC: 3.659 (Simulation time: 00 hr 13 min 17 sec)
Heartbeat CPU 0 instructions: 250000000 cycles: 67132663 heartbeat IPC: 3.696 cumulative IPC: 3.661 (Simulation time: 00 hr 13 min 49 sec)
Heartbeat CPU 0 instructions: 260000000 cycles: 69837521 heartbeat IPC: 3.697 cumulative IPC: 3.663 (Simulation time: 00 hr 14 min 20 sec)
Heartbeat CPU 0 instructions: 270000002 cycles: 72540884 heartbeat IPC: 3.699 cumulative IPC: 3.664 (Simulation time: 00 hr 14 min 51 sec)
Heartbeat CPU 0 instructions: 280000003 cycles: 75244509 heartbeat IPC: 3.699 cumulative IPC: 3.666 (Simulation time: 00 hr 15 min 22 sec)
Heartbeat CPU 0 instructions: 290000003 cycles: 77948164 heartbeat IPC: 3.699 cumulative IPC: 3.667 (Simulation time: 00 hr 15 min 53 sec)
Heartbeat CPU 0 instructions: 300000000 cycles: 80653871 heartbeat IPC: 3.696 cumulative IPC: 3.668 (Simulation time: 00 hr 16 min 25 sec)
Heartbeat CPU 0 instructions: 310000002 cycles: 83357118 heartbeat IPC: 3.699 cumulative IPC: 3.669 (Simulation time: 00 hr 16 min 56 sec)
Heartbeat CPU 0 instructions: 320000004 cycles: 86060495 heartbeat IPC: 3.699 cumulative IPC: 3.67 (Simulation time: 00 hr 17 min 26 sec)
Heartbeat CPU 0 instructions: 330000000 cycles: 88764105 heartbeat IPC: 3.699 cumulative IPC: 3.671 (Simulation time: 00 hr 17 min 57 sec)
Heartbeat CPU 0 instructions: 340000002 cycles: 91469297 heartbeat IPC: 3.697 cumulative IPC: 3.672 (Simulation time: 00 hr 18 min 28 sec)
Heartbeat CPU 0 instructions: 350000002 cycles: 94172742 heartbeat IPC: 3.699 cumulative IPC: 3.673 (Simulation time: 00 hr 18 min 59 sec)
Heartbeat CPU 0 instructions: 360000001 cycles: 96878403 heartbeat IPC: 3.696 cumulative IPC: 3.674 (Simulation time: 00 hr 19 min 29 sec)
Heartbeat CPU 0 instructions: 370000004 cycles: 99581752 heartbeat IPC: 3.699 cumulative IPC: 3.675 (Simulation time: 00 hr 20 min 00 sec)
Heartbeat CPU 0 instructions: 380000000 cycles: 102285320 heartbeat IPC: 3.699 cumulative IPC: 3.675 (Simulation time: 00 hr 20 min 30 sec)
Heartbeat CPU 0 instructions: 390000004 cycles: 104989040 heartbeat IPC: 3.699 cumulative IPC: 3.676 (Simulation time: 00 hr 21 min 01 sec)
Heartbeat CPU 0 instructions: 400000000 cycles: 107694784 heartbeat IPC: 3.696 cumulative IPC: 3.677 (Simulation time: 00 hr 21 min 31 sec)
Heartbeat CPU 0 instructions: 410000000 cycles: 110398442 heartbeat IPC: 3.699 cumulative IPC: 3.677 (Simulation time: 00 hr 22 min 03 sec)
Heartbeat CPU 0 instructions: 420000001 cycles: 113101888 heartbeat IPC: 3.699 cumulative IPC: 3.678 (Simulation time: 00 hr 22 min 32 sec)
Heartbeat CPU 0 instructions: 430000003 cycles: 115805596 heartbeat IPC: 3.699 cumulative IPC: 3.678 (Simulation time: 00 hr 23 min 02 sec)
Heartbeat CPU 0 instructions: 440000003 cycles: 118509289 heartbeat IPC: 3.699 cumulative IPC: 3.679 (Simulation time: 00 hr 23 min 31 sec)
Heartbeat CPU 0 instructions: 450000004 cycles: 121215856 heartbeat IPC: 3.695 cumulative IPC: 3.679 (Simulation time: 00 hr 24 min 00 sec)
Heartbeat CPU 0 instructions: 460000001 cycles: 123919213 heartbeat IPC: 3.699 cumulative IPC: 3.68 (Simulation time: 00 hr 24 min 29 sec)
Heartbeat CPU 0 instructions: 470000002 cycles: 126622689 heartbeat IPC: 3.699 cumulative IPC: 3.68 (Simulation time: 00 hr 24 min 58 sec)
Heartbeat CPU 0 instructions: 480000001 cycles: 129326438 heartbeat IPC: 3.699 cumulative IPC: 3.681 (Simulation time: 00 hr 25 min 29 sec)
Heartbeat CPU 0 instructions: 490000000 cycles: 132030480 heartbeat IPC: 3.698 cumulative IPC: 3.681 (Simulation time: 00 hr 25 min 57 sec)
Heartbeat CPU 0 instructions: 500000002 cycles: 134736283 heartbeat IPC: 3.696 cumulative IPC: 3.681 (Simulation time: 00 hr 26 min 26 sec)
Heartbeat CPU 0 instructions: 510000003 cycles: 137439608 heartbeat IPC: 3.699 cumulative IPC: 3.682 (Simulation time: 00 hr 26 min 54 sec)
Heartbeat CPU 0 instructions: 520000004 cycles: 140143080 heartbeat IPC: 3.699 cumulative IPC: 3.682 (Simulation time: 00 hr 27 min 22 sec)
Heartbeat CPU 0 instructions: 530000000 cycles: 142846737 heartbeat IPC: 3.699 cumulative IPC: 3.682 (Simulation time: 00 hr 27 min 50 sec)
Heartbeat CPU 0 instructions: 540000000 cycles: 145552356 heartbeat IPC: 3.696 cumulative IPC: 3.683 (Simulation time: 00 hr 28 min 20 sec)
Heartbeat CPU 0 instructions: 550000003 cycles: 148255740 heartbeat IPC: 3.699 cumulative IPC: 3.683 (Simulation time: 00 hr 28 min 48 sec)
Heartbeat CPU 0 instructions: 560000003 cycles: 150959530 heartbeat IPC: 3.699 cumulative IPC: 3.683 (Simulation time: 00 hr 29 min 18 sec)
Heartbeat CPU 0 instructions: 570000004 cycles: 153662869 heartbeat IPC: 3.699 cumulative IPC: 3.684 (Simulation time: 00 hr 29 min 46 sec)
Heartbeat CPU 0 instructions: 580000000 cycles: 156366573 heartbeat IPC: 3.699 cumulative IPC: 3.684 (Simulation time: 00 hr 30 min 14 sec)
Heartbeat CPU 0 instructions: 590000002 cycles: 159070156 heartbeat IPC: 3.699 cumulative IPC: 3.684 (Simulation time: 00 hr 30 min 42 sec)
*** Reached end of trace: (0, "traces/convolution.champsimtrace")
Heartbeat CPU 0 instructions: 600000000 cycles: 161782798 heartbeat IPC: 3.686 cumulative IPC: 3.684 (Simulation time: 00 hr 31 min 08 sec)
Heartbeat CPU 0 instructions: 610000002 cycles: 190661497 heartbeat IPC: 0.3463 cumulative IPC: 3.143 (Simulation time: 00 hr 33 min 35 sec)
Heartbeat CPU 0 instructions: 620000001 cycles: 216691222 heartbeat IPC: 0.3842 cumulative IPC: 2.792 (Simulation time: 00 hr 35 min 26 sec)
Heartbeat CPU 0 instructions: 630000001 cycles: 228056556 heartbeat IPC: 0.8799 cumulative IPC: 2.691 (Simulation time: 00 hr 36 min 16 sec)
Heartbeat CPU 0 instructions: 640000004 cycles: 238003003 heartbeat IPC: 1.005 cumulative IPC: 2.616 (Simulation time: 00 hr 36 min 57 sec)
Heartbeat CPU 0 instructions: 650000001 cycles: 248443211 heartbeat IPC: 0.9578 cumulative IPC: 2.543 (Simulation time: 00 hr 37 min 34 sec)
Simulation finished CPU 0 instructions: 600000001 cycles: 235943009 cumulative IPC: 2.543 (Simulation time: 00 hr 37 min 34 sec)
Simulation complete CPU 0 instructions: 600000001 cycles: 235943009 cumulative IPC: 2.543 (Simulation time: 00 hr 37 min 34 sec)

ChampSim completed all CPUs

=== Simulation ===
CPU 0 runs traces/convolution.champsimtrace
Region of Interest Statistics

CPU 0 cumulative IPC: 2.543 instructions: 600000001 cycles: 235943009
CPU 0 Branch Prediction Accuracy: 99.3% MPKI: 1.265 Average ROB Occupancy at Mispredict: 63.99
Branch type MPKI
BRANCH_DIRECT_JUMP: 0.000107
BRANCH_INDIRECT: 4.17e-05
BRANCH_CONDITIONAL: 1.26
BRANCH_DIRECT_CALL: 0.000103
BRANCH_INDIRECT_CALL: 8.33e-06
BRANCH_RETURN: 1.83e-05

LLC TOTAL        ACCESS:    1183017 HIT:     532654 MISS:     650363
LLC LOAD         ACCESS:       2887 HIT:          6 MISS:       2881
LLC RFO          ACCESS:     535120 HIT:         82 MISS:     535038
LLC PREFETCH     ACCESS:          0 HIT:          0 MISS:          0
LLC WRITE        ACCESS:     535166 HIT:     531982 MISS:       3184
LLC TRANSLATION  ACCESS:     109844 HIT:        584 MISS:     109260
LLC PREFETCH REQUESTED:          0 ISSUED:          0 USEFUL:          0 USELESS:          0
LLC AVERAGE MISS LATENCY: 1071 cycles
cpu0_DTLB TOTAL        ACCESS:  121563888 HIT:  121211139 MISS:     352749
cpu0_DTLB LOAD         ACCESS:  121563888 HIT:  121211139 MISS:     352749
cpu0_DTLB RFO          ACCESS:          0 HIT:          0 MISS:          0
cpu0_DTLB PREFETCH     ACCESS:          0 HIT:          0 MISS:          0
cpu0_DTLB WRITE        ACCESS:          0 HIT:          0 MISS:          0
cpu0_DTLB TRANSLATION  ACCESS:          0 HIT:          0 MISS:          0
cpu0_DTLB PREFETCH REQUESTED:          0 ISSUED:          0 USEFUL:          0 USELESS:          0
cpu0_DTLB AVERAGE MISS LATENCY: 746.4 cycles
cpu0_ITLB TOTAL        ACCESS:       2032 HIT:       1997 MISS:         35
cpu0_ITLB LOAD         ACCESS:       2032 HIT:       1997 MISS:         35
cpu0_ITLB RFO          ACCESS:          0 HIT:          0 MISS:          0
cpu0_ITLB PREFETCH     ACCESS:          0 HIT:          0 MISS:          0
cpu0_ITLB WRITE        ACCESS:          0 HIT:          0 MISS:          0
cpu0_ITLB TRANSLATION  ACCESS:          0 HIT:          0 MISS:          0
cpu0_ITLB PREFETCH REQUESTED:          0 ISSUED:          0 USEFUL:          0 USELESS:          0
cpu0_ITLB AVERAGE MISS LATENCY: 601.6 cycles
cpu0_L1D TOTAL        ACCESS:  162714134 HIT:  156544242 MISS:    6169892
cpu0_L1D LOAD         ACCESS:   90496864 HIT:   90490649 MISS:       6215
cpu0_L1D RFO          ACCESS:          0 HIT:          0 MISS:          0
cpu0_L1D PREFETCH     ACCESS:          0 HIT:          0 MISS:          0
cpu0_L1D WRITE        ACCESS:   72036594 HIT:   66015211 MISS:    6021383
cpu0_L1D TRANSLATION  ACCESS:     180676 HIT:      38382 MISS:     142294
cpu0_L1D PREFETCH REQUESTED:          0 ISSUED:          0 USEFUL:          0 USELESS:          0
cpu0_L1D AVERAGE MISS LATENCY: 86.85 cycles
cpu0_L1I TOTAL        ACCESS:       2352 HIT:       1018 MISS:       1334
cpu0_L1I LOAD         ACCESS:       2352 HIT:       1018 MISS:       1334
cpu0_L1I RFO          ACCESS:          0 HIT:          0 MISS:          0
cpu0_L1I PREFETCH     ACCESS:          0 HIT:          0 MISS:          0
cpu0_L1I WRITE        ACCESS:          0 HIT:          0 MISS:          0
cpu0_L1I TRANSLATION  ACCESS:          0 HIT:          0 MISS:          0
cpu0_L1I PREFETCH REQUESTED:          0 ISSUED:          0 USEFUL:          0 USELESS:          0
cpu0_L1I AVERAGE MISS LATENCY: 634.2 cycles
cpu0_L2C TOTAL        ACCESS:    1190838 HIT:     542969 MISS:     647869
cpu0_L2C LOAD         ACCESS:       3313 HIT:        426 MISS:       2887
cpu0_L2C RFO          ACCESS:     538108 HIT:       2988 MISS:     535120
cpu0_L2C PREFETCH     ACCESS:          0 HIT:          0 MISS:          0
cpu0_L2C WRITE        ACCESS:     538220 HIT:     538203 MISS:         17
cpu0_L2C TRANSLATION  ACCESS:     111197 HIT:       1352 MISS:     109845
cpu0_L2C PREFETCH REQUESTED:          0 ISSUED:          0 USEFUL:          0 USELESS:          0
cpu0_L2C AVERAGE MISS LATENCY: 1096 cycles
cpu0_STLB TOTAL        ACCESS:     156153 HIT:         48 MISS:     156105
cpu0_STLB LOAD         ACCESS:     156153 HIT:         48 MISS:     156105
cpu0_STLB RFO          ACCESS:          0 HIT:          0 MISS:          0
cpu0_STLB PREFETCH     ACCESS:          0 HIT:          0 MISS:          0
cpu0_STLB WRITE        ACCESS:          0 HIT:          0 MISS:          0
cpu0_STLB TRANSLATION  ACCESS:          0 HIT:          0 MISS:          0
cpu0_STLB PREFETCH REQUESTED:          0 ISSUED:          0 USEFUL:          0 USELESS:          0
cpu0_STLB AVERAGE MISS LATENCY: 1884 cycles

DRAM Statistics

Channel 0 RQ ROW_BUFFER_HIT:     141079
  ROW_BUFFER_MISS:     506093
 AVG DBUS CONGESTED CYCLE: 3.979
WQ ROW_BUFFER_HIT: Channel 0 
  ROW_BUFFER_MISS:      55183
  FULL:     479585
