WARNING: physical memory size is smaller than virtual memory size.

*** ChampSim Multicore Out-of-Order Simulator ***
Warmup Instructions: 50000000
Simulation Instructions: 600000000
Number of CPUs: 1
Page size: 4096

CPU 0 Tage branch predictor
Off-chip DRAM Size: 4 GiB Channels: 1 Width: 64-bit Data Race: 3200 MT/s
Heartbeat CPU 0 instructions: 10000001 cycles: 2500202 heartbeat IPC: 4 cumulative IPC: 4 (Simulation time: 00 hr 00 min 49 sec)
Heartbeat CPU 0 instructions: 20000001 cycles: 5000202 heartbeat IPC: 4 cumulative IPC: 4 (Simulation time: 00 hr 01 min 38 sec)
Heartbeat CPU 0 instructions: 30000001 cycles: 7500202 heartbeat IPC: 4 cumulative IPC: 4 (Simulation time: 00 hr 02 min 28 sec)
Heartbeat CPU 0 instructions: 40000001 cycles: 10000202 heartbeat IPC: 4 cumulative IPC: 4 (Simulation time: 00 hr 03 min 17 sec)
Heartbeat CPU 0 instructions: 50000001 cycles: 12500202 heartbeat IPC: 4 cumulative IPC: 4 (Simulation time: 00 hr 04 min 07 sec)
Warmup finished CPU 0 instructions: 50000001 cycles: 12500203 cumulative IPC: 4 (Simulation time: 00 hr 04 min 07 sec)
Warmup complete CPU 0 instructions: 50000001 cycles: 12500203 cumulative IPC: 4 (Simulation time: 00 hr 04 min 07 sec)
Heartbeat CPU 0 instructions: 60000002 cycles: 15590955 heartbeat IPC: 3.235 cumulative IPC: 3.235 (Simulation time: 00 hr 05 min 08 sec)
Heartbeat CPU 0 instructions: 70000002 cycles: 18091921 heartbeat IPC: 3.998 cumulative IPC: 3.577 (Simulation time: 00 hr 06 min 02 sec)
Heartbeat CPU 0 instructions: 80000002 cycles: 20591942 heartbeat IPC: 4 cumulative IPC: 3.707 (Simulation time: 00 hr 06 min 57 sec)
Heartbeat CPU 0 instructions: 90000004 cycles: 23091963 heartbeat IPC: 4 cumulative IPC: 3.777 (Simulation time: 00 hr 07 min 51 sec)
Heartbeat CPU 0 instructions: 100000000 cycles: 25591984 heartbeat IPC: 4 cumulative IPC: 3.819 (Simulation time: 00 hr 08 min 45 sec)
Heartbeat CPU 0 instructions: 110000002 cycles: 28092548 heartbeat IPC: 3.999 cumulative IPC: 3.848 (Simulation time: 00 hr 09 min 36 sec)
Heartbeat CPU 0 instructions: 120000000 cycles: 30593157 heartbeat IPC: 3.999 cumulative IPC: 3.869 (Simulation time: 00 hr 10 min 30 sec)
Heartbeat CPU 0 instructions: 130000000 cycles: 33093686 heartbeat IPC: 3.999 cumulative IPC: 3.885 (Simulation time: 00 hr 11 min 22 sec)
Heartbeat CPU 0 instructions: 140000001 cycles: 35593707 heartbeat IPC: 4 cumulative IPC: 3.897 (Simulation time: 00 hr 12 min 14 sec)
Heartbeat CPU 0 instructions: 150000002 cycles: 38093729 heartbeat IPC: 4 cumulative IPC: 3.907 (Simulation time: 00 hr 13 min 04 sec)
Heartbeat CPU 0 instructions: 160000004 cycles: 40593765 heartbeat IPC: 4 cumulative IPC: 3.915 (Simulation time: 00 hr 13 min 57 sec)
Heartbeat CPU 0 instructions: 170000004 cycles: 43097504 heartbeat IPC: 3.994 cumulative IPC: 3.922 (Simulation time: 00 hr 14 min 48 sec)
Heartbeat CPU 0 instructions: 180000001 cycles: 45597891 heartbeat IPC: 3.999 cumulative IPC: 3.928 (Simulation time: 00 hr 15 min 40 sec)
Heartbeat CPU 0 instructions: 190000002 cycles: 48098841 heartbeat IPC: 3.998 cumulative IPC: 3.933 (Simulation time: 00 hr 16 min 31 sec)
Heartbeat CPU 0 instructions: 200000002 cycles: 50598862 heartbeat IPC: 4 cumulative IPC: 3.937 (Simulation time: 00 hr 17 min 20 sec)
Heartbeat CPU 0 instructions: 210000000 cycles: 53098884 heartbeat IPC: 4 cumulative IPC: 3.941 (Simulation time: 00 hr 18 min 11 sec)
Heartbeat CPU 0 instructions: 220000000 cycles: 55602280 heartbeat IPC: 3.995 cumulative IPC: 3.944 (Simulation time: 00 hr 19 min 02 sec)
Heartbeat CPU 0 instructions: 230000002 cycles: 58102303 heartbeat IPC: 4 cumulative IPC: 3.947 (Simulation time: 00 hr 19 min 52 sec)
Heartbeat CPU 0 instructions: 240000003 cycles: 60602325 heartbeat IPC: 4 cumulative IPC: 3.95 (Simulation time: 00 hr 20 min 42 sec)
Heartbeat CPU 0 instructions: 250000000 cycles: 63102344 heartbeat IPC: 4 cumulative IPC: 3.952 (Simulation time: 00 hr 21 min 31 sec)
Heartbeat CPU 0 instructions: 260000001 cycles: 65602811 heartbeat IPC: 3.999 cumulative IPC: 3.955 (Simulation time: 00 hr 22 min 20 sec)
Heartbeat CPU 0 instructions: 270000002 cycles: 68103241 heartbeat IPC: 3.999 cumulative IPC: 3.957 (Simulation time: 00 hr 23 min 10 sec)
Heartbeat CPU 0 instructions: 280000003 cycles: 70603767 heartbeat IPC: 3.999 cumulative IPC: 3.958 (Simulation time: 00 hr 24 min 01 sec)
Heartbeat CPU 0 instructions: 290000004 cycles: 73103788 heartbeat IPC: 4 cumulative IPC: 3.96 (Simulation time: 00 hr 24 min 50 sec)
Heartbeat CPU 0 instructions: 300000004 cycles: 75603809 heartbeat IPC: 4 cumulative IPC: 3.962 (Simulation time: 00 hr 25 min 40 sec)
Heartbeat CPU 0 instructions: 310000000 cycles: 78103832 heartbeat IPC: 4 cumulative IPC: 3.963 (Simulation time: 00 hr 26 min 30 sec)
Heartbeat CPU 0 instructions: 320000004 cycles: 80604265 heartbeat IPC: 3.999 cumulative IPC: 3.965 (Simulation time: 00 hr 27 min 20 sec)
Heartbeat CPU 0 instructions: 330000000 cycles: 83104294 heartbeat IPC: 4 cumulative IPC: 3.966 (Simulation time: 00 hr 28 min 10 sec)
Heartbeat CPU 0 instructions: 340000001 cycles: 85605818 heartbeat IPC: 3.998 cumulative IPC: 3.967 (Simulation time: 00 hr 28 min 59 sec)
Heartbeat CPU 0 instructions: 350000002 cycles: 88105840 heartbeat IPC: 4 cumulative IPC: 3.968 (Simulation time: 00 hr 29 min 48 sec)
Heartbeat CPU 0 instructions: 360000004 cycles: 90605861 heartbeat IPC: 4 cumulative IPC: 3.969 (Simulation time: 00 hr 30 min 38 sec)
Heartbeat CPU 0 instructions: 370000004 cycles: 93107227 heartbeat IPC: 3.998 cumulative IPC: 3.97 (Simulation time: 00 hr 31 min 27 sec)
Heartbeat CPU 0 instructions: 380000000 cycles: 95607247 heartbeat IPC: 4 cumulative IPC: 3.971 (Simulation time: 00 hr 32 min 17 sec)
Heartbeat CPU 0 instructions: 390000004 cycles: 98107270 heartbeat IPC: 4 cumulative IPC: 3.972 (Simulation time: 00 hr 33 min 07 sec)
Heartbeat CPU 0 instructions: 400000001 cycles: 100607290 heartbeat IPC: 4 cumulative IPC: 3.972 (Simulation time: 00 hr 33 min 56 sec)
Heartbeat CPU 0 instructions: 410000004 cycles: 103109809 heartbeat IPC: 3.996 cumulative IPC: 3.973 (Simulation time: 00 hr 34 min 46 sec)
Heartbeat CPU 0 instructions: 420000001 cycles: 105609836 heartbeat IPC: 4 cumulative IPC: 3.974 (Simulation time: 00 hr 35 min 38 sec)
Heartbeat CPU 0 instructions: 430000002 cycles: 108109857 heartbeat IPC: 4 cumulative IPC: 3.974 (Simulation time: 00 hr 36 min 26 sec)
Heartbeat CPU 0 instructions: 440000004 cycles: 110609879 heartbeat IPC: 4 cumulative IPC: 3.975 (Simulation time: 00 hr 37 min 16 sec)
Heartbeat CPU 0 instructions: 450000004 cycles: 113109899 heartbeat IPC: 4 cumulative IPC: 3.976 (Simulation time: 00 hr 38 min 07 sec)
Heartbeat CPU 0 instructions: 460000001 cycles: 115609937 heartbeat IPC: 4 cumulative IPC: 3.976 (Simulation time: 00 hr 38 min 58 sec)
Heartbeat CPU 0 instructions: 470000002 cycles: 118109958 heartbeat IPC: 4 cumulative IPC: 3.977 (Simulation time: 00 hr 39 min 47 sec)
Heartbeat CPU 0 instructions: 480000003 cycles: 120609980 heartbeat IPC: 4 cumulative IPC: 3.977 (Simulation time: 00 hr 40 min 37 sec)
Heartbeat CPU 0 instructions: 490000000 cycles: 123111546 heartbeat IPC: 3.997 cumulative IPC: 3.978 (Simulation time: 00 hr 41 min 27 sec)
Heartbeat CPU 0 instructions: 500000001 cycles: 125611568 heartbeat IPC: 4 cumulative IPC: 3.978 (Simulation time: 00 hr 42 min 16 sec)
Heartbeat CPU 0 instructions: 510000003 cycles: 128111590 heartbeat IPC: 4 cumulative IPC: 3.979 (Simulation time: 00 hr 43 min 04 sec)
Heartbeat CPU 0 instructions: 520000004 cycles: 130613346 heartbeat IPC: 3.997 cumulative IPC: 3.979 (Simulation time: 00 hr 43 min 53 sec)
Heartbeat CPU 0 instructions: 530000000 cycles: 133113388 heartbeat IPC: 4 cumulative IPC: 3.98 (Simulation time: 00 hr 44 min 44 sec)
Heartbeat CPU 0 instructions: 540000001 cycles: 135613408 heartbeat IPC: 4 cumulative IPC: 3.98 (Simulation time: 00 hr 45 min 33 sec)
Heartbeat CPU 0 instructions: 550000001 cycles: 138113429 heartbeat IPC: 4 cumulative IPC: 3.98 (Simulation time: 00 hr 46 min 23 sec)
Heartbeat CPU 0 instructions: 560000003 cycles: 140616134 heartbeat IPC: 3.996 cumulative IPC: 3.981 (Simulation time: 00 hr 47 min 13 sec)
Heartbeat CPU 0 instructions: 570000004 cycles: 143117616 heartbeat IPC: 3.998 cumulative IPC: 3.981 (Simulation time: 00 hr 48 min 04 sec)
Heartbeat CPU 0 instructions: 580000003 cycles: 145617637 heartbeat IPC: 4 cumulative IPC: 3.981 (Simulation time: 00 hr 48 min 53 sec)
Heartbeat CPU 0 instructions: 590000000 cycles: 148117660 heartbeat IPC: 4 cumulative IPC: 3.982 (Simulation time: 00 hr 49 min 43 sec)
*** Reached end of trace: (0, "traces/convolution.champsimtrace")
Heartbeat CPU 0 instructions: 600000003 cycles: 150617682 heartbeat IPC: 4 cumulative IPC: 3.982 (Simulation time: 00 hr 50 min 33 sec)
Heartbeat CPU 0 instructions: 610000004 cycles: 179336945 heartbeat IPC: 0.3482 cumulative IPC: 3.357 (Simulation time: 00 hr 55 min 18 sec)
Heartbeat CPU 0 instructions: 620000002 cycles: 206542060 heartbeat IPC: 0.3676 cumulative IPC: 2.938 (Simulation time: 00 hr 58 min 22 sec)
Heartbeat CPU 0 instructions: 630000002 cycles: 218867736 heartbeat IPC: 0.8113 cumulative IPC: 2.811 (Simulation time: 00 hr 59 min 39 sec)
Heartbeat CPU 0 instructions: 640000002 cycles: 230032140 heartbeat IPC: 0.8957 cumulative IPC: 2.712 (Simulation time: 01 hr 00 min 51 sec)
Heartbeat CPU 0 instructions: 650000002 cycles: 240791885 heartbeat IPC: 0.9294 cumulative IPC: 2.628 (Simulation time: 01 hr 01 min 54 sec)
Simulation finished CPU 0 instructions: 600000001 cycles: 228291683 cumulative IPC: 2.628 (Simulation time: 01 hr 01 min 54 sec)
Simulation complete CPU 0 instructions: 600000001 cycles: 228291683 cumulative IPC: 2.628 (Simulation time: 01 hr 01 min 54 sec)

ChampSim completed all CPUs

=== Simulation ===
CPU 0 runs traces/convolution.champsimtrace
Region of Interest Statistics

CPU 0 cumulative IPC: 2.628 instructions: 600000001 cycles: 228291683
CPU 0 Branch Prediction Accuracy: 100% MPKI: 0.00296 Average ROB Occupancy at Mispredict: 67.71
Branch type MPKI
BRANCH_DIRECT_JUMP: 0.000107
BRANCH_INDIRECT: 4e-05
BRANCH_CONDITIONAL: 0.00268
BRANCH_DIRECT_CALL: 0.000103
BRANCH_INDIRECT_CALL: 8.33e-06
BRANCH_RETURN: 1.83e-05

LLC TOTAL        ACCESS:    1183230 HIT:     515833 MISS:     667397
LLC LOAD         ACCESS:       2893 HIT:       2144 MISS:        749
LLC RFO          ACCESS:     535131 HIT:       1577 MISS:     533554
LLC PREFETCH     ACCESS:          0 HIT:          0 MISS:          0
LLC WRITE        ACCESS:     535183 HIT:     511138 MISS:      24045
LLC TRANSLATION  ACCESS:     110023 HIT:        974 MISS:     109049
LLC PREFETCH REQUESTED:          0 ISSUED:          0 USEFUL:          0 USELESS:          0
LLC AVERAGE MISS LATENCY: 1093 cycles
cpu0_DTLB TOTAL        ACCESS:  113123551 HIT:  112769548 MISS:     354003
cpu0_DTLB LOAD         ACCESS:  113123551 HIT:  112769548 MISS:     354003
cpu0_DTLB RFO          ACCESS:          0 HIT:          0 MISS:          0
cpu0_DTLB PREFETCH     ACCESS:          0 HIT:          0 MISS:          0
cpu0_DTLB WRITE        ACCESS:          0 HIT:          0 MISS:          0
cpu0_DTLB TRANSLATION  ACCESS:          0 HIT:          0 MISS:          0
cpu0_DTLB PREFETCH REQUESTED:          0 ISSUED:          0 USEFUL:          0 USELESS:          0
cpu0_DTLB AVERAGE MISS LATENCY: 784.9 cycles
cpu0_ITLB TOTAL        ACCESS:       2110 HIT:       2071 MISS:         39
cpu0_ITLB LOAD         ACCESS:       2110 HIT:       2071 MISS:         39
cpu0_ITLB RFO          ACCESS:          0 HIT:          0 MISS:          0
cpu0_ITLB PREFETCH     ACCESS:          0 HIT:          0 MISS:          0
cpu0_ITLB WRITE        ACCESS:          0 HIT:          0 MISS:          0
cpu0_ITLB TRANSLATION  ACCESS:          0 HIT:          0 MISS:          0
cpu0_ITLB PREFETCH REQUESTED:          0 ISSUED:          0 USEFUL:          0 USELESS:          0
cpu0_ITLB AVERAGE MISS LATENCY: 379.6 cycles
cpu0_L1D TOTAL        ACCESS:  146354906 HIT:  140168649 MISS:    6186257
cpu0_L1D LOAD         ACCESS:   74201221 HIT:   74193070 MISS:       8151
cpu0_L1D RFO          ACCESS:          0 HIT:          0 MISS:          0
cpu0_L1D PREFETCH     ACCESS:          0 HIT:          0 MISS:          0
cpu0_L1D WRITE        ACCESS:   71972895 HIT:   65937402 MISS:    6035493
cpu0_L1D TRANSLATION  ACCESS:     180790 HIT:      38177 MISS:     142613
cpu0_L1D PREFETCH REQUESTED:          0 ISSUED:          0 USEFUL:          0 USELESS:          0
cpu0_L1D AVERAGE MISS LATENCY: 93.51 cycles
cpu0_L1I TOTAL        ACCESS:       2438 HIT:       1025 MISS:       1413
cpu0_L1I LOAD         ACCESS:       2438 HIT:       1025 MISS:       1413
cpu0_L1I RFO          ACCESS:          0 HIT:          0 MISS:          0
cpu0_L1I PREFETCH     ACCESS:          0 HIT:          0 MISS:          0
cpu0_L1I WRITE        ACCESS:          0 HIT:          0 MISS:          0
cpu0_L1I TRANSLATION  ACCESS:          0 HIT:          0 MISS:          0
cpu0_L1I PREFETCH REQUESTED:          0 ISSUED:          0 USEFUL:          0 USELESS:          0
cpu0_L1I AVERAGE MISS LATENCY: 118.8 cycles
cpu0_L2C TOTAL        ACCESS:    1193542 HIT:     545479 MISS:     648063
cpu0_L2C LOAD         ACCESS:       3320 HIT:        427 MISS:       2893
cpu0_L2C RFO          ACCESS:     539400 HIT:       4267 MISS:     535133
cpu0_L2C PREFETCH     ACCESS:          0 HIT:          0 MISS:          0
cpu0_L2C WRITE        ACCESS:     539536 HIT:     539522 MISS:         14
cpu0_L2C TRANSLATION  ACCESS:     111286 HIT:       1263 MISS:     110023
cpu0_L2C PREFETCH REQUESTED:          0 ISSUED:          0 USEFUL:          0 USELESS:          0
cpu0_L2C AVERAGE MISS LATENCY: 1146 cycles
cpu0_STLB TOTAL        ACCESS:     156149 HIT:         40 MISS:     156109
cpu0_STLB LOAD         ACCESS:     156149 HIT:         40 MISS:     156109
cpu0_STLB RFO          ACCESS:          0 HIT:          0 MISS:          0
cpu0_STLB PREFETCH     ACCESS:          0 HIT:          0 MISS:          0
cpu0_STLB WRITE        ACCESS:          0 HIT:          0 MISS:          0
cpu0_STLB TRANSLATION  ACCESS:          0 HIT:          0 MISS:          0
cpu0_STLB PREFETCH REQUESTED:          0 ISSUED:          0 USEFUL:          0 USELESS:          0
cpu0_STLB AVERAGE MISS LATENCY: 1994 cycles

DRAM Statistics

Channel 0 RQ ROW_BUFFER_HIT:     140206
  ROW_BUFFER_MISS:     503141
 AVG DBUS CONGESTED CYCLE: 3.988
WQ ROW_BUFFER_HIT: Channel 0 
  ROW_BUFFER_MISS:       6789
  FULL:     525725
