WARNING: physical memory size is smaller than virtual memory size.

*** ChampSim Multicore Out-of-Order Simulator ***
Warmup Instructions: 50000000
Simulation Instructions: 600000000
Number of CPUs: 1
Page size: 4096

CPU 0 Tage branch predictor
Off-chip DRAM Size: 4 GiB Channels: 1 Width: 64-bit Data Race: 3200 MT/s
Heartbeat CPU 0 instructions: 10000000 cycles: 2500202 heartbeat IPC: 4 cumulative IPC: 4 (Simulation time: 00 hr 01 min 30 sec)
Heartbeat CPU 0 instructions: 20000000 cycles: 5000202 heartbeat IPC: 4 cumulative IPC: 4 (Simulation time: 00 hr 02 min 55 sec)
Heartbeat CPU 0 instructions: 30000000 cycles: 7500202 heartbeat IPC: 4 cumulative IPC: 4 (Simulation time: 00 hr 04 min 52 sec)
Heartbeat CPU 0 instructions: 40000000 cycles: 10000202 heartbeat IPC: 4 cumulative IPC: 4 (Simulation time: 00 hr 06 min 59 sec)
Heartbeat CPU 0 instructions: 50000000 cycles: 12500202 heartbeat IPC: 4 cumulative IPC: 4 (Simulation time: 00 hr 08 min 50 sec)
Warmup finished CPU 0 instructions: 50000000 cycles: 12500203 cumulative IPC: 4 (Simulation time: 00 hr 08 min 50 sec)
Warmup complete CPU 0 instructions: 50000000 cycles: 12500203 cumulative IPC: 4 (Simulation time: 00 hr 08 min 50 sec)
Heartbeat CPU 0 instructions: 60000002 cycles: 15583846 heartbeat IPC: 3.243 cumulative IPC: 3.243 (Simulation time: 00 hr 11 min 14 sec)
Heartbeat CPU 0 instructions: 70000002 cycles: 18088947 heartbeat IPC: 3.992 cumulative IPC: 3.579 (Simulation time: 00 hr 11 min 58 sec)
Heartbeat CPU 0 instructions: 80000003 cycles: 20591398 heartbeat IPC: 3.996 cumulative IPC: 3.708 (Simulation time: 00 hr 13 min 01 sec)
Heartbeat CPU 0 instructions: 90000004 cycles: 23100878 heartbeat IPC: 3.985 cumulative IPC: 3.773 (Simulation time: 00 hr 14 min 03 sec)
Heartbeat CPU 0 instructions: 100000003 cycles: 25611234 heartbeat IPC: 3.983 cumulative IPC: 3.814 (Simulation time: 00 hr 15 min 11 sec)
Heartbeat CPU 0 instructions: 110000000 cycles: 28117861 heartbeat IPC: 3.989 cumulative IPC: 3.842 (Simulation time: 00 hr 16 min 19 sec)
Heartbeat CPU 0 instructions: 120000000 cycles: 30624541 heartbeat IPC: 3.989 cumulative IPC: 3.862 (Simulation time: 00 hr 17 min 29 sec)
Heartbeat CPU 0 instructions: 130000000 cycles: 33132587 heartbeat IPC: 3.987 cumulative IPC: 3.877 (Simulation time: 00 hr 18 min 32 sec)
Heartbeat CPU 0 instructions: 140000001 cycles: 35637854 heartbeat IPC: 3.992 cumulative IPC: 3.89 (Simulation time: 00 hr 19 min 35 sec)
Heartbeat CPU 0 instructions: 150000003 cycles: 38148121 heartbeat IPC: 3.984 cumulative IPC: 3.899 (Simulation time: 00 hr 20 min 35 sec)
Heartbeat CPU 0 instructions: 160000003 cycles: 40652773 heartbeat IPC: 3.993 cumulative IPC: 3.907 (Simulation time: 00 hr 21 min 37 sec)
Heartbeat CPU 0 instructions: 170000000 cycles: 43155905 heartbeat IPC: 3.995 cumulative IPC: 3.914 (Simulation time: 00 hr 22 min 43 sec)
Heartbeat CPU 0 instructions: 180000001 cycles: 45662528 heartbeat IPC: 3.989 cumulative IPC: 3.92 (Simulation time: 00 hr 23 min 47 sec)
Heartbeat CPU 0 instructions: 190000002 cycles: 48167253 heartbeat IPC: 3.992 cumulative IPC: 3.925 (Simulation time: 00 hr 24 min 51 sec)
Heartbeat CPU 0 instructions: 200000002 cycles: 50677671 heartbeat IPC: 3.983 cumulative IPC: 3.929 (Simulation time: 00 hr 25 min 55 sec)
Heartbeat CPU 0 instructions: 210000000 cycles: 53185185 heartbeat IPC: 3.988 cumulative IPC: 3.933 (Simulation time: 00 hr 26 min 39 sec)
Heartbeat CPU 0 instructions: 220000001 cycles: 55692150 heartbeat IPC: 3.989 cumulative IPC: 3.936 (Simulation time: 00 hr 27 min 24 sec)
Heartbeat CPU 0 instructions: 230000002 cycles: 58202170 heartbeat IPC: 3.984 cumulative IPC: 3.939 (Simulation time: 00 hr 28 min 12 sec)
Heartbeat CPU 0 instructions: 240000004 cycles: 60712283 heartbeat IPC: 3.984 cumulative IPC: 3.941 (Simulation time: 00 hr 28 min 59 sec)
Heartbeat CPU 0 instructions: 250000000 cycles: 63220584 heartbeat IPC: 3.987 cumulative IPC: 3.943 (Simulation time: 00 hr 29 min 43 sec)
Heartbeat CPU 0 instructions: 260000000 cycles: 65723526 heartbeat IPC: 3.995 cumulative IPC: 3.946 (Simulation time: 00 hr 30 min 25 sec)
Heartbeat CPU 0 instructions: 270000002 cycles: 68232297 heartbeat IPC: 3.986 cumulative IPC: 3.947 (Simulation time: 00 hr 31 min 09 sec)
Heartbeat CPU 0 instructions: 280000003 cycles: 70737040 heartbeat IPC: 3.992 cumulative IPC: 3.949 (Simulation time: 00 hr 31 min 51 sec)
Heartbeat CPU 0 instructions: 290000000 cycles: 73241379 heartbeat IPC: 3.993 cumulative IPC: 3.951 (Simulation time: 00 hr 32 min 35 sec)
Heartbeat CPU 0 instructions: 300000000 cycles: 75747065 heartbeat IPC: 3.991 cumulative IPC: 3.953 (Simulation time: 00 hr 33 min 17 sec)
Heartbeat CPU 0 instructions: 310000002 cycles: 78252337 heartbeat IPC: 3.992 cumulative IPC: 3.954 (Simulation time: 00 hr 34 min 00 sec)
Heartbeat CPU 0 instructions: 320000004 cycles: 80760207 heartbeat IPC: 3.987 cumulative IPC: 3.955 (Simulation time: 00 hr 34 min 46 sec)
Heartbeat CPU 0 instructions: 330000000 cycles: 83266584 heartbeat IPC: 3.99 cumulative IPC: 3.957 (Simulation time: 00 hr 35 min 31 sec)
Heartbeat CPU 0 instructions: 340000002 cycles: 85772432 heartbeat IPC: 3.991 cumulative IPC: 3.958 (Simulation time: 00 hr 36 min 18 sec)
Heartbeat CPU 0 instructions: 350000002 cycles: 88278886 heartbeat IPC: 3.99 cumulative IPC: 3.959 (Simulation time: 00 hr 37 min 00 sec)
Heartbeat CPU 0 instructions: 360000000 cycles: 90793577 heartbeat IPC: 3.977 cumulative IPC: 3.959 (Simulation time: 00 hr 37 min 42 sec)
Heartbeat CPU 0 instructions: 370000004 cycles: 93302586 heartbeat IPC: 3.986 cumulative IPC: 3.96 (Simulation time: 00 hr 38 min 23 sec)
Heartbeat CPU 0 instructions: 380000000 cycles: 95807110 heartbeat IPC: 3.993 cumulative IPC: 3.961 (Simulation time: 00 hr 39 min 04 sec)
Heartbeat CPU 0 instructions: 390000000 cycles: 98312036 heartbeat IPC: 3.992 cumulative IPC: 3.962 (Simulation time: 00 hr 39 min 54 sec)
Heartbeat CPU 0 instructions: 400000000 cycles: 100820438 heartbeat IPC: 3.987 cumulative IPC: 3.963 (Simulation time: 00 hr 40 min 48 sec)
Heartbeat CPU 0 instructions: 410000000 cycles: 103326003 heartbeat IPC: 3.991 cumulative IPC: 3.964 (Simulation time: 00 hr 41 min 38 sec)
Heartbeat CPU 0 instructions: 420000001 cycles: 105830268 heartbeat IPC: 3.993 cumulative IPC: 3.964 (Simulation time: 00 hr 42 min 25 sec)
Heartbeat CPU 0 instructions: 430000003 cycles: 108338300 heartbeat IPC: 3.987 cumulative IPC: 3.965 (Simulation time: 00 hr 43 min 12 sec)
Heartbeat CPU 0 instructions: 440000003 cycles: 110847787 heartbeat IPC: 3.985 cumulative IPC: 3.966 (Simulation time: 00 hr 44 min 03 sec)
Heartbeat CPU 0 instructions: 450000000 cycles: 113357106 heartbeat IPC: 3.985 cumulative IPC: 3.966 (Simulation time: 00 hr 44 min 49 sec)
Heartbeat CPU 0 instructions: 460000001 cycles: 115868554 heartbeat IPC: 3.982 cumulative IPC: 3.966 (Simulation time: 00 hr 45 min 36 sec)
Heartbeat CPU 0 instructions: 470000002 cycles: 118379101 heartbeat IPC: 3.983 cumulative IPC: 3.967 (Simulation time: 00 hr 46 min 23 sec)
Heartbeat CPU 0 instructions: 480000001 cycles: 120889396 heartbeat IPC: 3.984 cumulative IPC: 3.967 (Simulation time: 00 hr 47 min 07 sec)
Heartbeat CPU 0 instructions: 490000000 cycles: 123405436 heartbeat IPC: 3.974 cumulative IPC: 3.967 (Simulation time: 00 hr 47 min 52 sec)
Heartbeat CPU 0 instructions: 500000002 cycles: 125915134 heartbeat IPC: 3.985 cumulative IPC: 3.968 (Simulation time: 00 hr 48 min 40 sec)
Heartbeat CPU 0 instructions: 510000003 cycles: 128419870 heartbeat IPC: 3.992 cumulative IPC: 3.968 (Simulation time: 00 hr 49 min 25 sec)
Heartbeat CPU 0 instructions: 520000004 cycles: 130927238 heartbeat IPC: 3.988 cumulative IPC: 3.969 (Simulation time: 00 hr 50 min 15 sec)
Heartbeat CPU 0 instructions: 530000000 cycles: 133438087 heartbeat IPC: 3.983 cumulative IPC: 3.969 (Simulation time: 00 hr 51 min 05 sec)
Heartbeat CPU 0 instructions: 540000000 cycles: 135946352 heartbeat IPC: 3.987 cumulative IPC: 3.969 (Simulation time: 00 hr 51 min 54 sec)
Heartbeat CPU 0 instructions: 550000002 cycles: 138460381 heartbeat IPC: 3.978 cumulative IPC: 3.97 (Simulation time: 00 hr 52 min 40 sec)
Heartbeat CPU 0 instructions: 560000003 cycles: 140965881 heartbeat IPC: 3.991 cumulative IPC: 3.97 (Simulation time: 00 hr 53 min 24 sec)
Heartbeat CPU 0 instructions: 570000004 cycles: 143476455 heartbeat IPC: 3.983 cumulative IPC: 3.97 (Simulation time: 00 hr 54 min 07 sec)
Heartbeat CPU 0 instructions: 580000000 cycles: 145984848 heartbeat IPC: 3.987 cumulative IPC: 3.97 (Simulation time: 00 hr 54 min 51 sec)
Heartbeat CPU 0 instructions: 590000002 cycles: 148494431 heartbeat IPC: 3.985 cumulative IPC: 3.971 (Simulation time: 00 hr 55 min 41 sec)
*** Reached end of trace: (0, "traces/convolution.champsimtrace")
Heartbeat CPU 0 instructions: 600000000 cycles: 151003129 heartbeat IPC: 3.986 cumulative IPC: 3.971 (Simulation time: 00 hr 56 min 27 sec)
Heartbeat CPU 0 instructions: 610000002 cycles: 171081910 heartbeat IPC: 0.498 cumulative IPC: 3.531 (Simulation time: 00 hr 59 min 27 sec)
Heartbeat CPU 0 instructions: 620000001 cycles: 190075112 heartbeat IPC: 0.5265 cumulative IPC: 3.21 (Simulation time: 01 hr 02 min 17 sec)
Heartbeat CPU 0 instructions: 630000001 cycles: 194612141 heartbeat IPC: 2.204 cumulative IPC: 3.185 (Simulation time: 01 hr 03 min 18 sec)
Heartbeat CPU 0 instructions: 640000004 cycles: 201329662 heartbeat IPC: 1.489 cumulative IPC: 3.125 (Simulation time: 01 hr 04 min 34 sec)
Heartbeat CPU 0 instructions: 650000001 cycles: 211536018 heartbeat IPC: 0.9798 cumulative IPC: 3.015 (Simulation time: 01 hr 06 min 13 sec)
Simulation finished CPU 0 instructions: 600000001 cycles: 199035816 cumulative IPC: 3.015 (Simulation time: 01 hr 06 min 13 sec)
Simulation complete CPU 0 instructions: 600000001 cycles: 199035816 cumulative IPC: 3.015 (Simulation time: 01 hr 06 min 13 sec)

ChampSim completed all CPUs

=== Simulation ===
CPU 0 runs traces/convolution.champsimtrace
Region of Interest Statistics

CPU 0 cumulative IPC: 3.015 instructions: 600000001 cycles: 199035816
CPU 0 Branch Prediction Accuracy: 100% MPKI: 0.002858 Average ROB Occupancy at Mispredict: 75.82
Branch type MPKI
BRANCH_DIRECT_JUMP: 0.000107
BRANCH_INDIRECT: 4.17e-05
BRANCH_CONDITIONAL: 0.00258
BRANCH_DIRECT_CALL: 0.000103
BRANCH_INDIRECT_CALL: 8.33e-06
BRANCH_RETURN: 1.83e-05

LLC TOTAL        ACCESS:    1185607 HIT:     261331 MISS:     924276
LLC LOAD         ACCESS:       2887 HIT:       1660 MISS:       1227
LLC RFO          ACCESS:     535122 HIT:      59994 MISS:     475128
LLC PREFETCH     ACCESS:       2887 HIT:       1619 MISS:       1268
LLC WRITE        ACCESS:     535174 HIT:     197423 MISS:     337751
LLC TRANSLATION  ACCESS:     109537 HIT:        635 MISS:     108902
LLC PREFETCH REQUESTED:       2887 ISSUED:       2887 USEFUL:        371 USELESS:        332
LLC AVERAGE MISS LATENCY: 594 cycles
cpu0_DTLB TOTAL        ACCESS:  113154527 HIT:  112800580 MISS:     353947
cpu0_DTLB LOAD         ACCESS:  113154527 HIT:  112800580 MISS:     353947
cpu0_DTLB RFO          ACCESS:          0 HIT:          0 MISS:          0
cpu0_DTLB PREFETCH     ACCESS:          0 HIT:          0 MISS:          0
cpu0_DTLB WRITE        ACCESS:          0 HIT:          0 MISS:          0
cpu0_DTLB TRANSLATION  ACCESS:          0 HIT:          0 MISS:          0
cpu0_DTLB PREFETCH REQUESTED:          0 ISSUED:          0 USEFUL:          0 USELESS:          0
cpu0_DTLB AVERAGE MISS LATENCY: 531.3 cycles
cpu0_ITLB TOTAL        ACCESS:       2101 HIT:       2066 MISS:         35
cpu0_ITLB LOAD         ACCESS:       2101 HIT:       2066 MISS:         35
cpu0_ITLB RFO          ACCESS:          0 HIT:          0 MISS:          0
cpu0_ITLB PREFETCH     ACCESS:          0 HIT:          0 MISS:          0
cpu0_ITLB WRITE        ACCESS:          0 HIT:          0 MISS:          0
cpu0_ITLB TRANSLATION  ACCESS:          0 HIT:          0 MISS:          0
cpu0_ITLB PREFETCH REQUESTED:          0 ISSUED:          0 USEFUL:          0 USELESS:          0
cpu0_ITLB AVERAGE MISS LATENCY: 662.7 cycles
cpu0_L1D TOTAL        ACCESS:  146361614 HIT:  140211566 MISS:    6150048
cpu0_L1D LOAD         ACCESS:   74223652 HIT:   74215963 MISS:       7689
cpu0_L1D RFO          ACCESS:          0 HIT:          0 MISS:          0
cpu0_L1D PREFETCH     ACCESS:          0 HIT:          0 MISS:          0
cpu0_L1D WRITE        ACCESS:   71957440 HIT:   65956891 MISS:    6000549
cpu0_L1D TRANSLATION  ACCESS:     180522 HIT:      38712 MISS:     141810
cpu0_L1D PREFETCH REQUESTED:          0 ISSUED:          0 USEFUL:          0 USELESS:          0
cpu0_L1D AVERAGE MISS LATENCY: 69.06 cycles
cpu0_L1I TOTAL        ACCESS:       2455 HIT:        995 MISS:       1460
cpu0_L1I LOAD         ACCESS:       2455 HIT:        995 MISS:       1460
cpu0_L1I RFO          ACCESS:          0 HIT:          0 MISS:          0
cpu0_L1I PREFETCH     ACCESS:          0 HIT:          0 MISS:          0
cpu0_L1I WRITE        ACCESS:          0 HIT:          0 MISS:          0
cpu0_L1I TRANSLATION  ACCESS:          0 HIT:          0 MISS:          0
cpu0_L1I PREFETCH REQUESTED:          0 ISSUED:          0 USEFUL:          0 USELESS:          0
cpu0_L1I AVERAGE MISS LATENCY: 405.5 cycles
cpu0_L2C TOTAL        ACCESS:    1193014 HIT:     545449 MISS:     647565
cpu0_L2C LOAD         ACCESS:       3311 HIT:        424 MISS:       2887
cpu0_L2C RFO          ACCESS:     539213 HIT:       4091 MISS:     535122
cpu0_L2C PREFETCH     ACCESS:          0 HIT:          0 MISS:          0
cpu0_L2C WRITE        ACCESS:     539601 HIT:     539583 MISS:         18
cpu0_L2C TRANSLATION  ACCESS:     110889 HIT:       1351 MISS:     109538
cpu0_L2C PREFETCH REQUESTED:          0 ISSUED:          0 USEFUL:          0 USELESS:          0
cpu0_L2C AVERAGE MISS LATENCY: 868 cycles
cpu0_STLB TOTAL        ACCESS:     156148 HIT:         42 MISS:     156106
cpu0_STLB LOAD         ACCESS:     156148 HIT:         42 MISS:     156106
cpu0_STLB RFO          ACCESS:          0 HIT:          0 MISS:          0
cpu0_STLB PREFETCH     ACCESS:          0 HIT:          0 MISS:          0
cpu0_STLB WRITE        ACCESS:          0 HIT:          0 MISS:          0
cpu0_STLB TRANSLATION  ACCESS:          0 HIT:          0 MISS:          0
cpu0_STLB PREFETCH REQUESTED:          0 ISSUED:          0 USEFUL:          0 USELESS:          0
cpu0_STLB AVERAGE MISS LATENCY: 1338 cycles

DRAM Statistics

Channel 0 RQ ROW_BUFFER_HIT:     138852
  ROW_BUFFER_MISS:     446790
 AVG DBUS CONGESTED CYCLE: 3.979
WQ ROW_BUFFER_HIT: Channel 0 
  ROW_BUFFER_MISS:     120890
  FULL:     354589
