WARNING: physical memory size is smaller than virtual memory size.

*** ChampSim Multicore Out-of-Order Simulator ***
Warmup Instructions: 50000000
Simulation Instructions: 600000000
Number of CPUs: 1
Page size: 4096

Off-chip DRAM Size: 4 GiB Channels: 1 Width: 64-bit Data Race: 3200 MT/s
Heartbeat CPU 0 instructions: 10000000 cycles: 2500202 heartbeat IPC: 4 cumulative IPC: 4 (Simulation time: 00 hr 00 min 32 sec)
Heartbeat CPU 0 instructions: 20000000 cycles: 5000202 heartbeat IPC: 4 cumulative IPC: 4 (Simulation time: 00 hr 01 min 05 sec)
Heartbeat CPU 0 instructions: 30000000 cycles: 7500202 heartbeat IPC: 4 cumulative IPC: 4 (Simulation time: 00 hr 01 min 35 sec)
Heartbeat CPU 0 instructions: 40000000 cycles: 10000202 heartbeat IPC: 4 cumulative IPC: 4 (Simulation time: 00 hr 02 min 07 sec)
Heartbeat CPU 0 instructions: 50000000 cycles: 12500202 heartbeat IPC: 4 cumulative IPC: 4 (Simulation time: 00 hr 02 min 38 sec)
Warmup finished CPU 0 instructions: 50000000 cycles: 12500203 cumulative IPC: 4 (Simulation time: 00 hr 02 min 38 sec)
Warmup complete CPU 0 instructions: 50000000 cycles: 12500203 cumulative IPC: 4 (Simulation time: 00 hr 02 min 38 sec)
Heartbeat CPU 0 instructions: 60000002 cycles: 15808471 heartbeat IPC: 3.023 cumulative IPC: 3.023 (Simulation time: 00 hr 03 min 27 sec)
Heartbeat CPU 0 instructions: 70000002 cycles: 18513610 heartbeat IPC: 3.697 cumulative IPC: 3.326 (Simulation time: 00 hr 04 min 05 sec)
Heartbeat CPU 0 instructions: 80000003 cycles: 21217207 heartbeat IPC: 3.699 cumulative IPC: 3.442 (Simulation time: 00 hr 04 min 48 sec)
Heartbeat CPU 0 instructions: 90000004 cycles: 23920770 heartbeat IPC: 3.699 cumulative IPC: 3.502 (Simulation time: 00 hr 05 min 28 sec)
Heartbeat CPU 0 instructions: 100000003 cycles: 26626805 heartbeat IPC: 3.695 cumulative IPC: 3.539 (Simulation time: 00 hr 06 min 07 sec)
Heartbeat CPU 0 instructions: 110000000 cycles: 29330488 heartbeat IPC: 3.699 cumulative IPC: 3.565 (Simulation time: 00 hr 06 min 43 sec)
Heartbeat CPU 0 instructions: 120000000 cycles: 32033842 heartbeat IPC: 3.699 cumulative IPC: 3.584 (Simulation time: 00 hr 07 min 20 sec)
Heartbeat CPU 0 instructions: 130000000 cycles: 34738229 heartbeat IPC: 3.698 cumulative IPC: 3.597 (Simulation time: 00 hr 07 min 55 sec)
Heartbeat CPU 0 instructions: 140000001 cycles: 37441778 heartbeat IPC: 3.699 cumulative IPC: 3.608 (Simulation time: 00 hr 08 min 29 sec)
Heartbeat CPU 0 instructions: 150000003 cycles: 40145362 heartbeat IPC: 3.699 cumulative IPC: 3.617 (Simulation time: 00 hr 09 min 04 sec)
Heartbeat CPU 0 instructions: 160000003 cycles: 42850872 heartbeat IPC: 3.696 cumulative IPC: 3.624 (Simulation time: 00 hr 09 min 42 sec)
Heartbeat CPU 0 instructions: 170000001 cycles: 45554482 heartbeat IPC: 3.699 cumulative IPC: 3.63 (Simulation time: 00 hr 10 min 17 sec)
Heartbeat CPU 0 instructions: 180000001 cycles: 48258055 heartbeat IPC: 3.699 cumulative IPC: 3.636 (Simulation time: 00 hr 10 min 55 sec)
Heartbeat CPU 0 instructions: 190000002 cycles: 50962793 heartbeat IPC: 3.697 cumulative IPC: 3.64 (Simulation time: 00 hr 11 min 32 sec)
Heartbeat CPU 0 instructions: 200000001 cycles: 53666379 heartbeat IPC: 3.699 cumulative IPC: 3.644 (Simulation time: 00 hr 12 min 08 sec)
Heartbeat CPU 0 instructions: 210000000 cycles: 56372021 heartbeat IPC: 3.696 cumulative IPC: 3.647 (Simulation time: 00 hr 12 min 44 sec)
Heartbeat CPU 0 instructions: 220000001 cycles: 59075378 heartbeat IPC: 3.699 cumulative IPC: 3.65 (Simulation time: 00 hr 13 min 21 sec)
Heartbeat CPU 0 instructions: 230000002 cycles: 61779000 heartbeat IPC: 3.699 cumulative IPC: 3.653 (Simulation time: 00 hr 13 min 56 sec)
Heartbeat CPU 0 instructions: 240000004 cycles: 64482634 heartbeat IPC: 3.699 cumulative IPC: 3.655 (Simulation time: 00 hr 14 min 32 sec)
Heartbeat CPU 0 instructions: 250000000 cycles: 67188514 heartbeat IPC: 3.696 cumulative IPC: 3.657 (Simulation time: 00 hr 15 min 06 sec)
Heartbeat CPU 0 instructions: 260000000 cycles: 69892983 heartbeat IPC: 3.698 cumulative IPC: 3.659 (Simulation time: 00 hr 15 min 42 sec)
Heartbeat CPU 0 instructions: 270000002 cycles: 72596346 heartbeat IPC: 3.699 cumulative IPC: 3.661 (Simulation time: 00 hr 16 min 17 sec)
Heartbeat CPU 0 instructions: 280000003 cycles: 75300435 heartbeat IPC: 3.698 cumulative IPC: 3.662 (Simulation time: 00 hr 16 min 51 sec)
Heartbeat CPU 0 instructions: 290000003 cycles: 78004090 heartbeat IPC: 3.699 cumulative IPC: 3.664 (Simulation time: 00 hr 17 min 24 sec)
Heartbeat CPU 0 instructions: 300000000 cycles: 80712254 heartbeat IPC: 3.693 cumulative IPC: 3.665 (Simulation time: 00 hr 18 min 00 sec)
Heartbeat CPU 0 instructions: 310000002 cycles: 83415501 heartbeat IPC: 3.699 cumulative IPC: 3.666 (Simulation time: 00 hr 18 min 34 sec)
Heartbeat CPU 0 instructions: 320000004 cycles: 86118878 heartbeat IPC: 3.699 cumulative IPC: 3.668 (Simulation time: 00 hr 19 min 09 sec)
Heartbeat CPU 0 instructions: 330000000 cycles: 88822488 heartbeat IPC: 3.699 cumulative IPC: 3.669 (Simulation time: 00 hr 19 min 49 sec)
Heartbeat CPU 0 instructions: 340000002 cycles: 91526582 heartbeat IPC: 3.698 cumulative IPC: 3.67 (Simulation time: 00 hr 20 min 29 sec)
Heartbeat CPU 0 instructions: 350000002 cycles: 94230027 heartbeat IPC: 3.699 cumulative IPC: 3.671 (Simulation time: 00 hr 21 min 09 sec)
Heartbeat CPU 0 instructions: 360000001 cycles: 96935658 heartbeat IPC: 3.696 cumulative IPC: 3.671 (Simulation time: 00 hr 21 min 49 sec)
Heartbeat CPU 0 instructions: 370000004 cycles: 99639007 heartbeat IPC: 3.699 cumulative IPC: 3.672 (Simulation time: 00 hr 22 min 27 sec)
Heartbeat CPU 0 instructions: 380000000 cycles: 102343014 heartbeat IPC: 3.698 cumulative IPC: 3.673 (Simulation time: 00 hr 23 min 05 sec)
Heartbeat CPU 0 instructions: 390000004 cycles: 105046734 heartbeat IPC: 3.699 cumulative IPC: 3.674 (Simulation time: 00 hr 23 min 46 sec)
Heartbeat CPU 0 instructions: 400000000 cycles: 107752378 heartbeat IPC: 3.696 cumulative IPC: 3.674 (Simulation time: 00 hr 24 min 23 sec)
Heartbeat CPU 0 instructions: 410000000 cycles: 110458687 heartbeat IPC: 3.695 cumulative IPC: 3.675 (Simulation time: 00 hr 24 min 58 sec)
Heartbeat CPU 0 instructions: 420000001 cycles: 113162609 heartbeat IPC: 3.698 cumulative IPC: 3.676 (Simulation time: 00 hr 25 min 33 sec)
Heartbeat CPU 0 instructions: 430000003 cycles: 115866317 heartbeat IPC: 3.699 cumulative IPC: 3.676 (Simulation time: 00 hr 26 min 07 sec)
Heartbeat CPU 0 instructions: 440000003 cycles: 118570010 heartbeat IPC: 3.699 cumulative IPC: 3.677 (Simulation time: 00 hr 26 min 43 sec)
Heartbeat CPU 0 instructions: 450000004 cycles: 121277120 heartbeat IPC: 3.694 cumulative IPC: 3.677 (Simulation time: 00 hr 27 min 20 sec)
Heartbeat CPU 0 instructions: 460000001 cycles: 123980477 heartbeat IPC: 3.699 cumulative IPC: 3.678 (Simulation time: 00 hr 27 min 56 sec)
Heartbeat CPU 0 instructions: 470000002 cycles: 126683953 heartbeat IPC: 3.699 cumulative IPC: 3.678 (Simulation time: 00 hr 28 min 36 sec)
Heartbeat CPU 0 instructions: 480000001 cycles: 129387702 heartbeat IPC: 3.699 cumulative IPC: 3.679 (Simulation time: 00 hr 29 min 20 sec)
Heartbeat CPU 0 instructions: 490000000 cycles: 132093140 heartbeat IPC: 3.696 cumulative IPC: 3.679 (Simulation time: 00 hr 30 min 03 sec)
Heartbeat CPU 0 instructions: 500000002 cycles: 134798707 heartbeat IPC: 3.696 cumulative IPC: 3.68 (Simulation time: 00 hr 30 min 43 sec)
Heartbeat CPU 0 instructions: 510000003 cycles: 137502373 heartbeat IPC: 3.699 cumulative IPC: 3.68 (Simulation time: 00 hr 31 min 21 sec)
Heartbeat CPU 0 instructions: 520000004 cycles: 140205845 heartbeat IPC: 3.699 cumulative IPC: 3.68 (Simulation time: 00 hr 32 min 01 sec)
Heartbeat CPU 0 instructions: 530000000 cycles: 142909502 heartbeat IPC: 3.699 cumulative IPC: 3.681 (Simulation time: 00 hr 32 min 45 sec)
Heartbeat CPU 0 instructions: 540000000 cycles: 145615944 heartbeat IPC: 3.695 cumulative IPC: 3.681 (Simulation time: 00 hr 33 min 23 sec)
Heartbeat CPU 0 instructions: 550000003 cycles: 148319328 heartbeat IPC: 3.699 cumulative IPC: 3.681 (Simulation time: 00 hr 34 min 04 sec)
Heartbeat CPU 0 instructions: 560000003 cycles: 151023118 heartbeat IPC: 3.699 cumulative IPC: 3.682 (Simulation time: 00 hr 34 min 48 sec)
Heartbeat CPU 0 instructions: 570000004 cycles: 153726457 heartbeat IPC: 3.699 cumulative IPC: 3.682 (Simulation time: 00 hr 35 min 28 sec)
Heartbeat CPU 0 instructions: 580000000 cycles: 156430161 heartbeat IPC: 3.699 cumulative IPC: 3.682 (Simulation time: 00 hr 36 min 09 sec)
Heartbeat CPU 0 instructions: 590000002 cycles: 159133744 heartbeat IPC: 3.699 cumulative IPC: 3.683 (Simulation time: 00 hr 36 min 52 sec)
*** Reached end of trace: (0, "traces/convolution.champsimtrace")
Heartbeat CPU 0 instructions: 600000000 cycles: 161845570 heartbeat IPC: 3.688 cumulative IPC: 3.683 (Simulation time: 00 hr 37 min 31 sec)
Heartbeat CPU 0 instructions: 610000002 cycles: 187151424 heartbeat IPC: 0.3952 cumulative IPC: 3.206 (Simulation time: 00 hr 40 min 59 sec)
Heartbeat CPU 0 instructions: 620000001 cycles: 208269112 heartbeat IPC: 0.4735 cumulative IPC: 2.912 (Simulation time: 00 hr 43 min 59 sec)
Heartbeat CPU 0 instructions: 630000001 cycles: 220873332 heartbeat IPC: 0.7934 cumulative IPC: 2.783 (Simulation time: 00 hr 45 min 59 sec)
Heartbeat CPU 0 instructions: 640000004 cycles: 231785608 heartbeat IPC: 0.9164 cumulative IPC: 2.691 (Simulation time: 00 hr 47 min 43 sec)
Heartbeat CPU 0 instructions: 650000001 cycles: 242168696 heartbeat IPC: 0.9631 cumulative IPC: 2.612 (Simulation time: 00 hr 49 min 21 sec)
Simulation finished CPU 0 instructions: 600000001 cycles: 229668494 cumulative IPC: 2.612 (Simulation time: 00 hr 49 min 21 sec)
Simulation complete CPU 0 instructions: 600000001 cycles: 229668494 cumulative IPC: 2.612 (Simulation time: 00 hr 49 min 21 sec)

ChampSim completed all CPUs

=== Simulation ===
CPU 0 runs traces/convolution.champsimtrace
Region of Interest Statistics

CPU 0 cumulative IPC: 2.612 instructions: 600000001 cycles: 229668494
CPU 0 Branch Prediction Accuracy: 99.3% MPKI: 1.265 Average ROB Occupancy at Mispredict: 63.99
Branch type MPKI
BRANCH_DIRECT_JUMP: 0.000107
BRANCH_INDIRECT: 4.17e-05
BRANCH_CONDITIONAL: 1.26
BRANCH_DIRECT_CALL: 0.000103
BRANCH_INDIRECT_CALL: 8.33e-06
BRANCH_RETURN: 1.83e-05

LLC TOTAL        ACCESS:    1183043 HIT:     435200 MISS:     747843
LLC LOAD         ACCESS:       2887 HIT:          3 MISS:       2884
LLC RFO          ACCESS:     535121 HIT:         78 MISS:     535043
LLC PREFETCH     ACCESS:          0 HIT:          0 MISS:          0
LLC WRITE        ACCESS:     535169 HIT:     434469 MISS:     100700
LLC TRANSLATION  ACCESS:     109866 HIT:        650 MISS:     109216
LLC PREFETCH REQUESTED:          0 ISSUED:          0 USEFUL:          0 USELESS:          0
LLC AVERAGE MISS LATENCY: 916.1 cycles
cpu0_DTLB TOTAL        ACCESS:  121562752 HIT:  121209439 MISS:     353313
cpu0_DTLB LOAD         ACCESS:  121562752 HIT:  121209439 MISS:     353313
cpu0_DTLB RFO          ACCESS:          0 HIT:          0 MISS:          0
cpu0_DTLB PREFETCH     ACCESS:          0 HIT:          0 MISS:          0
cpu0_DTLB WRITE        ACCESS:          0 HIT:          0 MISS:          0
cpu0_DTLB TRANSLATION  ACCESS:          0 HIT:          0 MISS:          0
cpu0_DTLB PREFETCH REQUESTED:          0 ISSUED:          0 USEFUL:          0 USELESS:          0
cpu0_DTLB AVERAGE MISS LATENCY: 665.2 cycles
cpu0_ITLB TOTAL        ACCESS:       2027 HIT:       1992 MISS:         35
cpu0_ITLB LOAD         ACCESS:       2027 HIT:       1992 MISS:         35
cpu0_ITLB RFO          ACCESS:          0 HIT:          0 MISS:          0
cpu0_ITLB PREFETCH     ACCESS:          0 HIT:          0 MISS:          0
cpu0_ITLB WRITE        ACCESS:          0 HIT:          0 MISS:          0
cpu0_ITLB TRANSLATION  ACCESS:          0 HIT:          0 MISS:          0
cpu0_ITLB PREFETCH REQUESTED:          0 ISSUED:          0 USEFUL:          0 USELESS:          0
cpu0_ITLB AVERAGE MISS LATENCY: 684.9 cycles
cpu0_L1D TOTAL        ACCESS:  162713501 HIT:  156549389 MISS:    6164112
cpu0_L1D LOAD         ACCESS:   90495462 HIT:   90489324 MISS:       6138
cpu0_L1D RFO          ACCESS:          0 HIT:          0 MISS:          0
cpu0_L1D PREFETCH     ACCESS:          0 HIT:          0 MISS:          0
cpu0_L1D WRITE        ACCESS:   72037346 HIT:   66021817 MISS:    6015529
cpu0_L1D TRANSLATION  ACCESS:     180693 HIT:      38248 MISS:     142445
cpu0_L1D PREFETCH REQUESTED:          0 ISSUED:          0 USEFUL:          0 USELESS:          0
cpu0_L1D AVERAGE MISS LATENCY: 86.07 cycles
cpu0_L1I TOTAL        ACCESS:       2345 HIT:       1014 MISS:       1331
cpu0_L1I LOAD         ACCESS:       2345 HIT:       1014 MISS:       1331
cpu0_L1I RFO          ACCESS:          0 HIT:          0 MISS:          0
cpu0_L1I PREFETCH     ACCESS:          0 HIT:          0 MISS:          0
cpu0_L1I WRITE        ACCESS:          0 HIT:          0 MISS:          0
cpu0_L1I TRANSLATION  ACCESS:          0 HIT:          0 MISS:          0
cpu0_L1I PREFETCH REQUESTED:          0 ISSUED:          0 USEFUL:          0 USELESS:          0
cpu0_L1I AVERAGE MISS LATENCY: 637.3 cycles
cpu0_L2C TOTAL        ACCESS:    1190832 HIT:     542940 MISS:     647892
cpu0_L2C LOAD         ACCESS:       3313 HIT:        426 MISS:       2887
cpu0_L2C RFO          ACCESS:     538076 HIT:       2955 MISS:     535121
cpu0_L2C PREFETCH     ACCESS:          0 HIT:          0 MISS:          0
cpu0_L2C WRITE        ACCESS:     538216 HIT:     538199 MISS:         17
cpu0_L2C TRANSLATION  ACCESS:     111227 HIT:       1360 MISS:     109867
cpu0_L2C PREFETCH REQUESTED:          0 ISSUED:          0 USEFUL:          0 USELESS:          0
cpu0_L2C AVERAGE MISS LATENCY: 1078 cycles
cpu0_STLB TOTAL        ACCESS:     156175 HIT:         63 MISS:     156112
cpu0_STLB LOAD         ACCESS:     156175 HIT:         63 MISS:     156112
cpu0_STLB RFO          ACCESS:          0 HIT:          0 MISS:          0
cpu0_STLB PREFETCH     ACCESS:          0 HIT:          0 MISS:          0
cpu0_STLB WRITE        ACCESS:          0 HIT:          0 MISS:          0
cpu0_STLB TRANSLATION  ACCESS:          0 HIT:          0 MISS:          0
cpu0_STLB PREFETCH REQUESTED:          0 ISSUED:          0 USEFUL:          0 USELESS:          0
cpu0_STLB AVERAGE MISS LATENCY: 1717 cycles

DRAM Statistics

Channel 0 RQ ROW_BUFFER_HIT:     144127
  ROW_BUFFER_MISS:     503011
 AVG DBUS CONGESTED CYCLE: 3.982
WQ ROW_BUFFER_HIT: Channel 0 
  ROW_BUFFER_MISS:      61190
  FULL:     473065
