WARNING: physical memory size is smaller than virtual memory size.

*** ChampSim Multicore Out-of-Order Simulator ***
Warmup Instructions: 50000000
Simulation Instructions: 600000000
Number of CPUs: 1
Page size: 4096

Off-chip DRAM Size: 4 GiB Channels: 1 Width: 64-bit Data Race: 3200 MT/s
Heartbeat CPU 0 instructions: 10000002 cycles: 2500202 heartbeat IPC: 4 cumulative IPC: 4 (Simulation time: 00 hr 00 min 37 sec)
Heartbeat CPU 0 instructions: 20000002 cycles: 5000202 heartbeat IPC: 4 cumulative IPC: 4 (Simulation time: 00 hr 01 min 15 sec)
Heartbeat CPU 0 instructions: 30000002 cycles: 7500202 heartbeat IPC: 4 cumulative IPC: 4 (Simulation time: 00 hr 01 min 50 sec)
Heartbeat CPU 0 instructions: 40000002 cycles: 10000202 heartbeat IPC: 4 cumulative IPC: 4 (Simulation time: 00 hr 02 min 25 sec)
Heartbeat CPU 0 instructions: 50000002 cycles: 12500202 heartbeat IPC: 4 cumulative IPC: 4 (Simulation time: 00 hr 02 min 57 sec)
Warmup finished CPU 0 instructions: 50000002 cycles: 12500203 cumulative IPC: 4 (Simulation time: 00 hr 02 min 57 sec)
Warmup complete CPU 0 instructions: 50000002 cycles: 12500203 cumulative IPC: 4 (Simulation time: 00 hr 02 min 57 sec)
Heartbeat CPU 0 instructions: 60000004 cycles: 15735363 heartbeat IPC: 3.091 cumulative IPC: 3.091 (Simulation time: 00 hr 03 min 36 sec)
Heartbeat CPU 0 instructions: 70000000 cycles: 18391093 heartbeat IPC: 3.765 cumulative IPC: 3.395 (Simulation time: 00 hr 04 min 10 sec)
Heartbeat CPU 0 instructions: 80000003 cycles: 21051009 heartbeat IPC: 3.76 cumulative IPC: 3.508 (Simulation time: 00 hr 04 min 44 sec)
Heartbeat CPU 0 instructions: 90000004 cycles: 23706931 heartbeat IPC: 3.765 cumulative IPC: 3.569 (Simulation time: 00 hr 05 min 18 sec)
Heartbeat CPU 0 instructions: 100000004 cycles: 26360482 heartbeat IPC: 3.769 cumulative IPC: 3.607 (Simulation time: 00 hr 05 min 52 sec)
Heartbeat CPU 0 instructions: 110000004 cycles: 29010234 heartbeat IPC: 3.774 cumulative IPC: 3.634 (Simulation time: 00 hr 06 min 25 sec)
Heartbeat CPU 0 instructions: 120000000 cycles: 31662749 heartbeat IPC: 3.77 cumulative IPC: 3.653 (Simulation time: 00 hr 06 min 59 sec)
Heartbeat CPU 0 instructions: 130000000 cycles: 34312269 heartbeat IPC: 3.774 cumulative IPC: 3.668 (Simulation time: 00 hr 07 min 32 sec)
Heartbeat CPU 0 instructions: 140000004 cycles: 36967026 heartbeat IPC: 3.767 cumulative IPC: 3.678 (Simulation time: 00 hr 08 min 05 sec)
Heartbeat CPU 0 instructions: 150000004 cycles: 39618324 heartbeat IPC: 3.772 cumulative IPC: 3.688 (Simulation time: 00 hr 08 min 37 sec)
Heartbeat CPU 0 instructions: 160000000 cycles: 42266771 heartbeat IPC: 3.776 cumulative IPC: 3.695 (Simulation time: 00 hr 09 min 09 sec)
Heartbeat CPU 0 instructions: 170000000 cycles: 44921096 heartbeat IPC: 3.767 cumulative IPC: 3.701 (Simulation time: 00 hr 09 min 39 sec)
Heartbeat CPU 0 instructions: 180000000 cycles: 47573778 heartbeat IPC: 3.77 cumulative IPC: 3.706 (Simulation time: 00 hr 10 min 10 sec)
Heartbeat CPU 0 instructions: 190000000 cycles: 50229542 heartbeat IPC: 3.765 cumulative IPC: 3.711 (Simulation time: 00 hr 10 min 41 sec)
Heartbeat CPU 0 instructions: 200000003 cycles: 52880952 heartbeat IPC: 3.772 cumulative IPC: 3.715 (Simulation time: 00 hr 11 min 12 sec)
Heartbeat CPU 0 instructions: 210000004 cycles: 55536257 heartbeat IPC: 3.766 cumulative IPC: 3.718 (Simulation time: 00 hr 11 min 43 sec)
Heartbeat CPU 0 instructions: 220000004 cycles: 58191375 heartbeat IPC: 3.766 cumulative IPC: 3.721 (Simulation time: 00 hr 12 min 14 sec)
Heartbeat CPU 0 instructions: 230000000 cycles: 60841986 heartbeat IPC: 3.773 cumulative IPC: 3.723 (Simulation time: 00 hr 12 min 45 sec)
Heartbeat CPU 0 instructions: 240000000 cycles: 63493207 heartbeat IPC: 3.772 cumulative IPC: 3.726 (Simulation time: 00 hr 13 min 16 sec)
Heartbeat CPU 0 instructions: 250000003 cycles: 66144589 heartbeat IPC: 3.772 cumulative IPC: 3.728 (Simulation time: 00 hr 13 min 47 sec)
Heartbeat CPU 0 instructions: 260000004 cycles: 68798712 heartbeat IPC: 3.768 cumulative IPC: 3.73 (Simulation time: 00 hr 14 min 18 sec)
Heartbeat CPU 0 instructions: 270000004 cycles: 71457763 heartbeat IPC: 3.761 cumulative IPC: 3.731 (Simulation time: 00 hr 14 min 49 sec)
Heartbeat CPU 0 instructions: 280000000 cycles: 74114083 heartbeat IPC: 3.765 cumulative IPC: 3.733 (Simulation time: 00 hr 15 min 19 sec)
Heartbeat CPU 0 instructions: 290000000 cycles: 76768331 heartbeat IPC: 3.768 cumulative IPC: 3.734 (Simulation time: 00 hr 15 min 50 sec)
Heartbeat CPU 0 instructions: 300000001 cycles: 79419593 heartbeat IPC: 3.772 cumulative IPC: 3.736 (Simulation time: 00 hr 16 min 21 sec)
Heartbeat CPU 0 instructions: 310000004 cycles: 82069609 heartbeat IPC: 3.774 cumulative IPC: 3.737 (Simulation time: 00 hr 16 min 52 sec)
Heartbeat CPU 0 instructions: 320000003 cycles: 84722003 heartbeat IPC: 3.77 cumulative IPC: 3.738 (Simulation time: 00 hr 17 min 24 sec)
Heartbeat CPU 0 instructions: 330000004 cycles: 87372400 heartbeat IPC: 3.773 cumulative IPC: 3.74 (Simulation time: 00 hr 17 min 54 sec)
Heartbeat CPU 0 instructions: 340000004 cycles: 90023374 heartbeat IPC: 3.772 cumulative IPC: 3.741 (Simulation time: 00 hr 18 min 25 sec)
Heartbeat CPU 0 instructions: 350000000 cycles: 92674374 heartbeat IPC: 3.772 cumulative IPC: 3.742 (Simulation time: 00 hr 18 min 55 sec)
Heartbeat CPU 0 instructions: 360000000 cycles: 95325739 heartbeat IPC: 3.772 cumulative IPC: 3.743 (Simulation time: 00 hr 19 min 26 sec)
Heartbeat CPU 0 instructions: 370000004 cycles: 97985000 heartbeat IPC: 3.76 cumulative IPC: 3.743 (Simulation time: 00 hr 19 min 57 sec)
Heartbeat CPU 0 instructions: 380000004 cycles: 100637100 heartbeat IPC: 3.771 cumulative IPC: 3.744 (Simulation time: 00 hr 20 min 27 sec)
Heartbeat CPU 0 instructions: 390000004 cycles: 103291263 heartbeat IPC: 3.768 cumulative IPC: 3.745 (Simulation time: 00 hr 20 min 59 sec)
Heartbeat CPU 0 instructions: 400000000 cycles: 105941011 heartbeat IPC: 3.774 cumulative IPC: 3.746 (Simulation time: 00 hr 21 min 30 sec)
Heartbeat CPU 0 instructions: 410000000 cycles: 108594417 heartbeat IPC: 3.769 cumulative IPC: 3.746 (Simulation time: 00 hr 22 min 01 sec)
Heartbeat CPU 0 instructions: 420000004 cycles: 111251882 heartbeat IPC: 3.763 cumulative IPC: 3.747 (Simulation time: 00 hr 22 min 32 sec)
Heartbeat CPU 0 instructions: 430000004 cycles: 113905691 heartbeat IPC: 3.768 cumulative IPC: 3.747 (Simulation time: 00 hr 23 min 02 sec)
Heartbeat CPU 0 instructions: 440000004 cycles: 116558166 heartbeat IPC: 3.77 cumulative IPC: 3.748 (Simulation time: 00 hr 23 min 33 sec)
Heartbeat CPU 0 instructions: 450000004 cycles: 119207011 heartbeat IPC: 3.775 cumulative IPC: 3.749 (Simulation time: 00 hr 24 min 03 sec)
Heartbeat CPU 0 instructions: 460000004 cycles: 121865293 heartbeat IPC: 3.762 cumulative IPC: 3.749 (Simulation time: 00 hr 24 min 34 sec)
Heartbeat CPU 0 instructions: 470000000 cycles: 124514813 heartbeat IPC: 3.774 cumulative IPC: 3.75 (Simulation time: 00 hr 25 min 04 sec)
Heartbeat CPU 0 instructions: 480000000 cycles: 127169050 heartbeat IPC: 3.768 cumulative IPC: 3.75 (Simulation time: 00 hr 25 min 35 sec)
Heartbeat CPU 0 instructions: 490000004 cycles: 129823718 heartbeat IPC: 3.767 cumulative IPC: 3.75 (Simulation time: 00 hr 26 min 06 sec)
Heartbeat CPU 0 instructions: 500000004 cycles: 132474769 heartbeat IPC: 3.772 cumulative IPC: 3.751 (Simulation time: 00 hr 26 min 36 sec)
Heartbeat CPU 0 instructions: 510000004 cycles: 135125014 heartbeat IPC: 3.773 cumulative IPC: 3.751 (Simulation time: 00 hr 27 min 08 sec)
Heartbeat CPU 0 instructions: 520000000 cycles: 137776280 heartbeat IPC: 3.772 cumulative IPC: 3.752 (Simulation time: 00 hr 27 min 39 sec)
Heartbeat CPU 0 instructions: 530000000 cycles: 140433275 heartbeat IPC: 3.764 cumulative IPC: 3.752 (Simulation time: 00 hr 28 min 10 sec)
Heartbeat CPU 0 instructions: 540000004 cycles: 143082978 heartbeat IPC: 3.774 cumulative IPC: 3.752 (Simulation time: 00 hr 28 min 41 sec)
Heartbeat CPU 0 instructions: 550000004 cycles: 145741574 heartbeat IPC: 3.761 cumulative IPC: 3.753 (Simulation time: 00 hr 29 min 12 sec)
Heartbeat CPU 0 instructions: 560000000 cycles: 148389880 heartbeat IPC: 3.776 cumulative IPC: 3.753 (Simulation time: 00 hr 29 min 43 sec)
Heartbeat CPU 0 instructions: 570000000 cycles: 151039061 heartbeat IPC: 3.775 cumulative IPC: 3.753 (Simulation time: 00 hr 30 min 14 sec)
Heartbeat CPU 0 instructions: 580000000 cycles: 153691004 heartbeat IPC: 3.771 cumulative IPC: 3.754 (Simulation time: 00 hr 30 min 45 sec)
Heartbeat CPU 0 instructions: 590000000 cycles: 156344198 heartbeat IPC: 3.769 cumulative IPC: 3.754 (Simulation time: 00 hr 31 min 15 sec)
*** Reached end of trace: (0, "traces/convolution.champsimtrace")
Heartbeat CPU 0 instructions: 600000000 cycles: 159003705 heartbeat IPC: 3.76 cumulative IPC: 3.754 (Simulation time: 00 hr 31 min 47 sec)
Heartbeat CPU 0 instructions: 610000004 cycles: 181590462 heartbeat IPC: 0.4427 cumulative IPC: 3.312 (Simulation time: 00 hr 34 min 17 sec)
Heartbeat CPU 0 instructions: 620000000 cycles: 201298726 heartbeat IPC: 0.5074 cumulative IPC: 3.019 (Simulation time: 00 hr 36 min 23 sec)
Heartbeat CPU 0 instructions: 630000003 cycles: 205904291 heartbeat IPC: 2.171 cumulative IPC: 2.999 (Simulation time: 00 hr 37 min 04 sec)
Heartbeat CPU 0 instructions: 640000002 cycles: 216126685 heartbeat IPC: 0.9782 cumulative IPC: 2.897 (Simulation time: 00 hr 38 min 06 sec)
Heartbeat CPU 0 instructions: 650000004 cycles: 226901647 heartbeat IPC: 0.9281 cumulative IPC: 2.798 (Simulation time: 00 hr 39 min 00 sec)
Simulation finished CPU 0 instructions: 600000002 cycles: 214401445 cumulative IPC: 2.798 (Simulation time: 00 hr 39 min 00 sec)
Simulation complete CPU 0 instructions: 600000002 cycles: 214401445 cumulative IPC: 2.798 (Simulation time: 00 hr 39 min 00 sec)

ChampSim completed all CPUs

=== Simulation ===
CPU 0 runs traces/convolution.champsimtrace
Region of Interest Statistics

CPU 0 cumulative IPC: 2.798 instructions: 600000002 cycles: 214401445
CPU 0 Branch Prediction Accuracy: 99.5% MPKI: 0.9609 Average ROB Occupancy at Mispredict: 97.74
Branch type MPKI
BRANCH_DIRECT_JUMP: 1e-05
BRANCH_INDIRECT: 4.67e-05
BRANCH_CONDITIONAL: 0.961
BRANCH_DIRECT_CALL: 6.67e-06
BRANCH_INDIRECT_CALL: 8.33e-06
BRANCH_RETURN: 2.17e-05

LLC TOTAL        ACCESS:    1190578 HIT:     200182 MISS:     990396
LLC LOAD         ACCESS:       2894 HIT:        770 MISS:       2124
LLC RFO          ACCESS:     539057 HIT:      31217 MISS:     507840
LLC PREFETCH     ACCESS:          0 HIT:          0 MISS:          0
LLC WRITE        ACCESS:     539114 HIT:     137874 MISS:     401240
LLC TRANSLATION  ACCESS:     109513 HIT:      30321 MISS:      79192
LLC PREFETCH REQUESTED:          0 ISSUED:          0 USEFUL:          0 USELESS:          0
LLC AVERAGE MISS LATENCY: 624.4 cycles
cpu0_DTLB TOTAL        ACCESS:  121073149 HIT:  120757821 MISS:     315328
cpu0_DTLB LOAD         ACCESS:  121073149 HIT:  120757821 MISS:     315328
cpu0_DTLB RFO          ACCESS:          0 HIT:          0 MISS:          0
cpu0_DTLB PREFETCH     ACCESS:          0 HIT:          0 MISS:          0
cpu0_DTLB WRITE        ACCESS:          0 HIT:          0 MISS:          0
cpu0_DTLB TRANSLATION  ACCESS:          0 HIT:          0 MISS:          0
cpu0_DTLB PREFETCH REQUESTED:          0 ISSUED:          0 USEFUL:          0 USELESS:          0
cpu0_DTLB AVERAGE MISS LATENCY: 655.7 cycles
cpu0_ITLB TOTAL        ACCESS:       2007 HIT:       1953 MISS:         54
cpu0_ITLB LOAD         ACCESS:       2007 HIT:       1953 MISS:         54
cpu0_ITLB RFO          ACCESS:          0 HIT:          0 MISS:          0
cpu0_ITLB PREFETCH     ACCESS:          0 HIT:          0 MISS:          0
cpu0_ITLB WRITE        ACCESS:          0 HIT:          0 MISS:          0
cpu0_ITLB TRANSLATION  ACCESS:          0 HIT:          0 MISS:          0
cpu0_ITLB PREFETCH REQUESTED:          0 ISSUED:          0 USEFUL:          0 USELESS:          0
cpu0_ITLB AVERAGE MISS LATENCY: 526 cycles
cpu0_L1D TOTAL        ACCESS:  152896071 HIT:  146711227 MISS:    6184844
cpu0_L1D LOAD         ACCESS:   79946967 HIT:   79940873 MISS:       6094
cpu0_L1D RFO          ACCESS:          0 HIT:          0 MISS:          0
cpu0_L1D PREFETCH     ACCESS:          0 HIT:          0 MISS:          0
cpu0_L1D WRITE        ACCESS:   72768585 HIT:   66736126 MISS:    6032459
cpu0_L1D TRANSLATION  ACCESS:     180519 HIT:      34228 MISS:     146291
cpu0_L1D PREFETCH REQUESTED:          0 ISSUED:          0 USEFUL:          0 USELESS:          0
cpu0_L1D AVERAGE MISS LATENCY: 80.01 cycles
cpu0_L1I TOTAL        ACCESS:       2308 HIT:       1018 MISS:       1290
cpu0_L1I LOAD         ACCESS:       2308 HIT:       1018 MISS:       1290
cpu0_L1I RFO          ACCESS:          0 HIT:          0 MISS:          0
cpu0_L1I PREFETCH     ACCESS:          0 HIT:          0 MISS:          0
cpu0_L1I WRITE        ACCESS:          0 HIT:          0 MISS:          0
cpu0_L1I TRANSLATION  ACCESS:          0 HIT:          0 MISS:          0
cpu0_L1I PREFETCH REQUESTED:          0 ISSUED:          0 USEFUL:          0 USELESS:          0
cpu0_L1I AVERAGE MISS LATENCY: 561.6 cycles
cpu0_L2C TOTAL        ACCESS:    1198862 HIT:     547375 MISS:     651487
cpu0_L2C LOAD         ACCESS:       3322 HIT:        428 MISS:       2894
cpu0_L2C RFO          ACCESS:     542282 HIT:       3224 MISS:     539058
cpu0_L2C PREFETCH     ACCESS:          0 HIT:          0 MISS:          0
cpu0_L2C WRITE        ACCESS:     542546 HIT:     542524 MISS:         22
cpu0_L2C TRANSLATION  ACCESS:     110712 HIT:       1199 MISS:     109513
cpu0_L2C PREFETCH REQUESTED:          0 ISSUED:          0 USEFUL:          0 USELESS:          0
cpu0_L2C AVERAGE MISS LATENCY: 970.2 cycles
cpu0_STLB TOTAL        ACCESS:     156215 HIT:         39 MISS:     156176
cpu0_STLB LOAD         ACCESS:     156215 HIT:         39 MISS:     156176
cpu0_STLB RFO          ACCESS:          0 HIT:          0 MISS:          0
cpu0_STLB PREFETCH     ACCESS:          0 HIT:          0 MISS:          0
cpu0_STLB WRITE        ACCESS:          0 HIT:          0 MISS:          0
cpu0_STLB TRANSLATION  ACCESS:          0 HIT:          0 MISS:          0
cpu0_STLB PREFETCH REQUESTED:          0 ISSUED:          0 USEFUL:          0 USELESS:          0
cpu0_STLB AVERAGE MISS LATENCY: 1468 cycles

DRAM Statistics

Channel 0 RQ ROW_BUFFER_HIT:     128909
  ROW_BUFFER_MISS:     460244
 AVG DBUS CONGESTED CYCLE: 3.979
WQ ROW_BUFFER_HIT: Channel 0 
  ROW_BUFFER_MISS:     107005
  FULL:     400835
