WARNING: physical memory size is smaller than virtual memory size.

*** ChampSim Multicore Out-of-Order Simulator ***
Warmup Instructions: 50000000
Simulation Instructions: 600000000
Number of CPUs: 1
Page size: 4096

Off-chip DRAM Size: 4 GiB Channels: 1 Width: 64-bit Data Race: 3200 MT/s
Heartbeat CPU 0 instructions: 10000001 cycles: 2500202 heartbeat IPC: 4 cumulative IPC: 4 (Simulation time: 00 hr 00 min 52 sec)
Heartbeat CPU 0 instructions: 20000001 cycles: 5000202 heartbeat IPC: 4 cumulative IPC: 4 (Simulation time: 00 hr 01 min 33 sec)
Heartbeat CPU 0 instructions: 30000001 cycles: 7500202 heartbeat IPC: 4 cumulative IPC: 4 (Simulation time: 00 hr 02 min 15 sec)
Heartbeat CPU 0 instructions: 40000001 cycles: 10000202 heartbeat IPC: 4 cumulative IPC: 4 (Simulation time: 00 hr 02 min 56 sec)
Heartbeat CPU 0 instructions: 50000001 cycles: 12500202 heartbeat IPC: 4 cumulative IPC: 4 (Simulation time: 00 hr 03 min 38 sec)
Warmup finished CPU 0 instructions: 50000001 cycles: 12500203 cumulative IPC: 4 (Simulation time: 00 hr 03 min 38 sec)
Warmup complete CPU 0 instructions: 50000001 cycles: 12500203 cumulative IPC: 4 (Simulation time: 00 hr 03 min 38 sec)
Heartbeat CPU 0 instructions: 60000002 cycles: 15732035 heartbeat IPC: 3.094 cumulative IPC: 3.094 (Simulation time: 00 hr 04 min 28 sec)
Heartbeat CPU 0 instructions: 70000002 cycles: 18385043 heartbeat IPC: 3.769 cumulative IPC: 3.399 (Simulation time: 00 hr 05 min 15 sec)
Heartbeat CPU 0 instructions: 80000002 cycles: 21037379 heartbeat IPC: 3.77 cumulative IPC: 3.514 (Simulation time: 00 hr 06 min 01 sec)
Heartbeat CPU 0 instructions: 90000004 cycles: 23689640 heartbeat IPC: 3.77 cumulative IPC: 3.575 (Simulation time: 00 hr 06 min 46 sec)
Heartbeat CPU 0 instructions: 100000000 cycles: 26341948 heartbeat IPC: 3.77 cumulative IPC: 3.612 (Simulation time: 00 hr 07 min 31 sec)
Heartbeat CPU 0 instructions: 110000004 cycles: 28994438 heartbeat IPC: 3.77 cumulative IPC: 3.638 (Simulation time: 00 hr 08 min 16 sec)
Heartbeat CPU 0 instructions: 120000000 cycles: 31647525 heartbeat IPC: 3.769 cumulative IPC: 3.656 (Simulation time: 00 hr 09 min 02 sec)
Heartbeat CPU 0 instructions: 130000000 cycles: 34300220 heartbeat IPC: 3.77 cumulative IPC: 3.67 (Simulation time: 00 hr 09 min 46 sec)
Heartbeat CPU 0 instructions: 140000001 cycles: 36952473 heartbeat IPC: 3.77 cumulative IPC: 3.681 (Simulation time: 00 hr 10 min 30 sec)
Heartbeat CPU 0 instructions: 150000002 cycles: 39604722 heartbeat IPC: 3.77 cumulative IPC: 3.689 (Simulation time: 00 hr 11 min 15 sec)
Heartbeat CPU 0 instructions: 160000004 cycles: 42256908 heartbeat IPC: 3.77 cumulative IPC: 3.697 (Simulation time: 00 hr 11 min 59 sec)
Heartbeat CPU 0 instructions: 170000004 cycles: 44910432 heartbeat IPC: 3.769 cumulative IPC: 3.703 (Simulation time: 00 hr 12 min 43 sec)
Heartbeat CPU 0 instructions: 180000001 cycles: 47562537 heartbeat IPC: 3.771 cumulative IPC: 3.708 (Simulation time: 00 hr 13 min 26 sec)
Heartbeat CPU 0 instructions: 190000002 cycles: 50215546 heartbeat IPC: 3.769 cumulative IPC: 3.712 (Simulation time: 00 hr 14 min 09 sec)
Heartbeat CPU 0 instructions: 200000001 cycles: 52867802 heartbeat IPC: 3.77 cumulative IPC: 3.716 (Simulation time: 00 hr 14 min 54 sec)
Heartbeat CPU 0 instructions: 210000000 cycles: 55519889 heartbeat IPC: 3.771 cumulative IPC: 3.719 (Simulation time: 00 hr 15 min 37 sec)
Heartbeat CPU 0 instructions: 220000000 cycles: 58174263 heartbeat IPC: 3.767 cumulative IPC: 3.722 (Simulation time: 00 hr 16 min 19 sec)
Heartbeat CPU 0 instructions: 230000002 cycles: 60826536 heartbeat IPC: 3.77 cumulative IPC: 3.725 (Simulation time: 00 hr 17 min 03 sec)
Heartbeat CPU 0 instructions: 240000003 cycles: 63478809 heartbeat IPC: 3.77 cumulative IPC: 3.727 (Simulation time: 00 hr 17 min 45 sec)
Heartbeat CPU 0 instructions: 250000000 cycles: 66131126 heartbeat IPC: 3.77 cumulative IPC: 3.729 (Simulation time: 00 hr 18 min 27 sec)
Heartbeat CPU 0 instructions: 260000001 cycles: 68783570 heartbeat IPC: 3.77 cumulative IPC: 3.731 (Simulation time: 00 hr 19 min 11 sec)
Heartbeat CPU 0 instructions: 270000003 cycles: 71436703 heartbeat IPC: 3.769 cumulative IPC: 3.733 (Simulation time: 00 hr 19 min 53 sec)
Heartbeat CPU 0 instructions: 280000003 cycles: 74088964 heartbeat IPC: 3.77 cumulative IPC: 3.734 (Simulation time: 00 hr 20 min 35 sec)
Heartbeat CPU 0 instructions: 290000004 cycles: 76741214 heartbeat IPC: 3.77 cumulative IPC: 3.736 (Simulation time: 00 hr 21 min 18 sec)
Heartbeat CPU 0 instructions: 300000003 cycles: 79393428 heartbeat IPC: 3.77 cumulative IPC: 3.737 (Simulation time: 00 hr 21 min 59 sec)
Heartbeat CPU 0 instructions: 310000000 cycles: 82045568 heartbeat IPC: 3.771 cumulative IPC: 3.739 (Simulation time: 00 hr 22 min 40 sec)
Heartbeat CPU 0 instructions: 320000004 cycles: 84699126 heartbeat IPC: 3.769 cumulative IPC: 3.74 (Simulation time: 00 hr 23 min 22 sec)
Heartbeat CPU 0 instructions: 330000000 cycles: 87351328 heartbeat IPC: 3.77 cumulative IPC: 3.741 (Simulation time: 00 hr 24 min 03 sec)
Heartbeat CPU 0 instructions: 340000001 cycles: 90005083 heartbeat IPC: 3.768 cumulative IPC: 3.742 (Simulation time: 00 hr 24 min 45 sec)
Heartbeat CPU 0 instructions: 350000002 cycles: 92657311 heartbeat IPC: 3.77 cumulative IPC: 3.743 (Simulation time: 00 hr 25 min 27 sec)
Heartbeat CPU 0 instructions: 360000003 cycles: 95309337 heartbeat IPC: 3.771 cumulative IPC: 3.744 (Simulation time: 00 hr 26 min 07 sec)
Heartbeat CPU 0 instructions: 370000004 cycles: 97962738 heartbeat IPC: 3.769 cumulative IPC: 3.744 (Simulation time: 00 hr 26 min 49 sec)
Heartbeat CPU 0 instructions: 380000000 cycles: 100614956 heartbeat IPC: 3.77 cumulative IPC: 3.745 (Simulation time: 00 hr 27 min 30 sec)
Heartbeat CPU 0 instructions: 390000004 cycles: 103267211 heartbeat IPC: 3.77 cumulative IPC: 3.746 (Simulation time: 00 hr 28 min 12 sec)
Heartbeat CPU 0 instructions: 400000001 cycles: 105919313 heartbeat IPC: 3.771 cumulative IPC: 3.747 (Simulation time: 00 hr 28 min 53 sec)
Heartbeat CPU 0 instructions: 410000004 cycles: 108573212 heartbeat IPC: 3.768 cumulative IPC: 3.747 (Simulation time: 00 hr 29 min 35 sec)
Heartbeat CPU 0 instructions: 420000001 cycles: 111225911 heartbeat IPC: 3.77 cumulative IPC: 3.748 (Simulation time: 00 hr 30 min 15 sec)
Heartbeat CPU 0 instructions: 430000002 cycles: 113878090 heartbeat IPC: 3.77 cumulative IPC: 3.748 (Simulation time: 00 hr 30 min 57 sec)
Heartbeat CPU 0 instructions: 440000004 cycles: 116530410 heartbeat IPC: 3.77 cumulative IPC: 3.749 (Simulation time: 00 hr 31 min 38 sec)
Heartbeat CPU 0 instructions: 450000004 cycles: 119182464 heartbeat IPC: 3.771 cumulative IPC: 3.749 (Simulation time: 00 hr 32 min 19 sec)
Heartbeat CPU 0 instructions: 460000002 cycles: 121834598 heartbeat IPC: 3.771 cumulative IPC: 3.75 (Simulation time: 00 hr 33 min 01 sec)
Heartbeat CPU 0 instructions: 470000002 cycles: 124486760 heartbeat IPC: 3.771 cumulative IPC: 3.75 (Simulation time: 00 hr 33 min 42 sec)
Heartbeat CPU 0 instructions: 480000003 cycles: 127139070 heartbeat IPC: 3.77 cumulative IPC: 3.751 (Simulation time: 00 hr 34 min 24 sec)
Heartbeat CPU 0 instructions: 490000000 cycles: 129791777 heartbeat IPC: 3.77 cumulative IPC: 3.751 (Simulation time: 00 hr 35 min 06 sec)
Heartbeat CPU 0 instructions: 500000001 cycles: 132443897 heartbeat IPC: 3.771 cumulative IPC: 3.752 (Simulation time: 00 hr 35 min 48 sec)
Heartbeat CPU 0 instructions: 510000003 cycles: 135095987 heartbeat IPC: 3.771 cumulative IPC: 3.752 (Simulation time: 00 hr 36 min 30 sec)
Heartbeat CPU 0 instructions: 520000004 cycles: 137750783 heartbeat IPC: 3.767 cumulative IPC: 3.752 (Simulation time: 00 hr 37 min 12 sec)
Heartbeat CPU 0 instructions: 530000000 cycles: 140402961 heartbeat IPC: 3.77 cumulative IPC: 3.753 (Simulation time: 00 hr 37 min 53 sec)
Heartbeat CPU 0 instructions: 540000001 cycles: 143055172 heartbeat IPC: 3.77 cumulative IPC: 3.753 (Simulation time: 00 hr 38 min 34 sec)
Heartbeat CPU 0 instructions: 550000001 cycles: 145707240 heartbeat IPC: 3.771 cumulative IPC: 3.754 (Simulation time: 00 hr 39 min 15 sec)
Heartbeat CPU 0 instructions: 560000003 cycles: 148361915 heartbeat IPC: 3.767 cumulative IPC: 3.754 (Simulation time: 00 hr 39 min 57 sec)
Heartbeat CPU 0 instructions: 570000004 cycles: 151014933 heartbeat IPC: 3.769 cumulative IPC: 3.754 (Simulation time: 00 hr 40 min 39 sec)
Heartbeat CPU 0 instructions: 580000003 cycles: 153667190 heartbeat IPC: 3.77 cumulative IPC: 3.754 (Simulation time: 00 hr 41 min 20 sec)
Heartbeat CPU 0 instructions: 590000000 cycles: 156319370 heartbeat IPC: 3.77 cumulative IPC: 3.755 (Simulation time: 00 hr 42 min 02 sec)
*** Reached end of trace: (0, "traces/convolution.champsimtrace")
Heartbeat CPU 0 instructions: 600000001 cycles: 158971353 heartbeat IPC: 3.771 cumulative IPC: 3.755 (Simulation time: 00 hr 42 min 43 sec)
Heartbeat CPU 0 instructions: 610000004 cycles: 187647328 heartbeat IPC: 0.3487 cumulative IPC: 3.197 (Simulation time: 00 hr 47 min 14 sec)
Heartbeat CPU 0 instructions: 620000002 cycles: 214887425 heartbeat IPC: 0.3671 cumulative IPC: 2.816 (Simulation time: 00 hr 51 min 39 sec)
Heartbeat CPU 0 instructions: 630000002 cycles: 227172066 heartbeat IPC: 0.814 cumulative IPC: 2.702 (Simulation time: 00 hr 53 min 53 sec)
Heartbeat CPU 0 instructions: 640000002 cycles: 238345343 heartbeat IPC: 0.895 cumulative IPC: 2.612 (Simulation time: 00 hr 55 min 55 sec)
Heartbeat CPU 0 instructions: 650000002 cycles: 249099494 heartbeat IPC: 0.9299 cumulative IPC: 2.536 (Simulation time: 00 hr 57 min 47 sec)
Simulation finished CPU 0 instructions: 600000001 cycles: 236599292 cumulative IPC: 2.536 (Simulation time: 00 hr 57 min 47 sec)
Simulation complete CPU 0 instructions: 600000001 cycles: 236599292 cumulative IPC: 2.536 (Simulation time: 00 hr 57 min 47 sec)

ChampSim completed all CPUs

=== Simulation ===
CPU 0 runs traces/convolution.champsimtrace
Region of Interest Statistics

CPU 0 cumulative IPC: 2.536 instructions: 600000001 cycles: 236599292
CPU 0 Branch Prediction Accuracy: 99.47% MPKI: 0.9508 Average ROB Occupancy at Mispredict: 68.86
Branch type MPKI
BRANCH_DIRECT_JUMP: 0.000107
BRANCH_INDIRECT: 4e-05
BRANCH_CONDITIONAL: 0.95
BRANCH_DIRECT_CALL: 0.000103
BRANCH_INDIRECT_CALL: 8.33e-06
BRANCH_RETURN: 1.83e-05

LLC TOTAL        ACCESS:    1183271 HIT:     516119 MISS:     667152
LLC LOAD         ACCESS:       2893 HIT:       2144 MISS:        749
LLC RFO          ACCESS:     535131 HIT:       1571 MISS:     533560
LLC PREFETCH     ACCESS:          0 HIT:          0 MISS:          0
LLC WRITE        ACCESS:     535185 HIT:     511445 MISS:      23740
LLC TRANSLATION  ACCESS:     110062 HIT:        959 MISS:     109103
LLC PREFETCH REQUESTED:          0 ISSUED:          0 USEFUL:          0 USELESS:          0
LLC AVERAGE MISS LATENCY: 1084 cycles
cpu0_DTLB TOTAL        ACCESS:  120059942 HIT:  119706047 MISS:     353895
cpu0_DTLB LOAD         ACCESS:  120059942 HIT:  119706047 MISS:     353895
cpu0_DTLB RFO          ACCESS:          0 HIT:          0 MISS:          0
cpu0_DTLB PREFETCH     ACCESS:          0 HIT:          0 MISS:          0
cpu0_DTLB WRITE        ACCESS:          0 HIT:          0 MISS:          0
cpu0_DTLB TRANSLATION  ACCESS:          0 HIT:          0 MISS:          0
cpu0_DTLB PREFETCH REQUESTED:          0 ISSUED:          0 USEFUL:          0 USELESS:          0
cpu0_DTLB AVERAGE MISS LATENCY: 784.8 cycles
cpu0_ITLB TOTAL        ACCESS:       2000 HIT:       1962 MISS:         38
cpu0_ITLB LOAD         ACCESS:       2000 HIT:       1962 MISS:         38
cpu0_ITLB RFO          ACCESS:          0 HIT:          0 MISS:          0
cpu0_ITLB PREFETCH     ACCESS:          0 HIT:          0 MISS:          0
cpu0_ITLB WRITE        ACCESS:          0 HIT:          0 MISS:          0
cpu0_ITLB TRANSLATION  ACCESS:          0 HIT:          0 MISS:          0
cpu0_ITLB PREFETCH REQUESTED:          0 ISSUED:          0 USEFUL:          0 USELESS:          0
cpu0_ITLB AVERAGE MISS LATENCY: 370.4 cycles
cpu0_L1D TOTAL        ACCESS:  161185408 HIT:  155021462 MISS:    6163946
cpu0_L1D LOAD         ACCESS:   88966843 HIT:   88960321 MISS:       6522
cpu0_L1D RFO          ACCESS:          0 HIT:          0 MISS:          0
cpu0_L1D PREFETCH     ACCESS:          0 HIT:          0 MISS:          0
cpu0_L1D WRITE        ACCESS:   72037751 HIT:   66023018 MISS:    6014733
cpu0_L1D TRANSLATION  ACCESS:     180814 HIT:      38123 MISS:     142691
cpu0_L1D PREFETCH REQUESTED:          0 ISSUED:          0 USEFUL:          0 USELESS:          0
cpu0_L1D AVERAGE MISS LATENCY: 91.77 cycles
cpu0_L1I TOTAL        ACCESS:       2296 HIT:       1002 MISS:       1294
cpu0_L1I LOAD         ACCESS:       2296 HIT:       1002 MISS:       1294
cpu0_L1I RFO          ACCESS:          0 HIT:          0 MISS:          0
cpu0_L1I PREFETCH     ACCESS:          0 HIT:          0 MISS:          0
cpu0_L1I WRITE        ACCESS:          0 HIT:          0 MISS:          0
cpu0_L1I TRANSLATION  ACCESS:          0 HIT:          0 MISS:          0
cpu0_L1I PREFETCH REQUESTED:          0 ISSUED:          0 USEFUL:          0 USELESS:          0
cpu0_L1I AVERAGE MISS LATENCY: 116.7 cycles
cpu0_L2C TOTAL        ACCESS:    1190324 HIT:     542221 MISS:     648103
cpu0_L2C LOAD         ACCESS:       3320 HIT:        427 MISS:       2893
cpu0_L2C RFO          ACCESS:     537770 HIT:       2638 MISS:     535132
cpu0_L2C PREFETCH     ACCESS:          0 HIT:          0 MISS:          0
cpu0_L2C WRITE        ACCESS:     537895 HIT:     537879 MISS:         16
cpu0_L2C TRANSLATION  ACCESS:     111339 HIT:       1277 MISS:     110062
cpu0_L2C PREFETCH REQUESTED:          0 ISSUED:          0 USEFUL:          0 USELESS:          0
cpu0_L2C AVERAGE MISS LATENCY: 1137 cycles
cpu0_STLB TOTAL        ACCESS:     156164 HIT:         50 MISS:     156114
cpu0_STLB LOAD         ACCESS:     156164 HIT:         50 MISS:     156114
cpu0_STLB RFO          ACCESS:          0 HIT:          0 MISS:          0
cpu0_STLB PREFETCH     ACCESS:          0 HIT:          0 MISS:          0
cpu0_STLB WRITE        ACCESS:          0 HIT:          0 MISS:          0
cpu0_STLB TRANSLATION  ACCESS:          0 HIT:          0 MISS:          0
cpu0_STLB PREFETCH REQUESTED:          0 ISSUED:          0 USEFUL:          0 USELESS:          0
cpu0_STLB AVERAGE MISS LATENCY: 1993 cycles

DRAM Statistics

Channel 0 RQ ROW_BUFFER_HIT:     140539
  ROW_BUFFER_MISS:     502868
 AVG DBUS CONGESTED CYCLE: 3.985
WQ ROW_BUFFER_HIT: Channel 0 
  ROW_BUFFER_MISS:       6958
  FULL:     525616
