WARNING: physical memory size is smaller than virtual memory size.

*** ChampSim Multicore Out-of-Order Simulator ***
Warmup Instructions: 50000000
Simulation Instructions: 600000000
Number of CPUs: 1
Page size: 4096

CPU 0 Tage branch predictor
Off-chip DRAM Size: 4 GiB Channels: 1 Width: 64-bit Data Race: 3200 MT/s
Heartbeat CPU 0 instructions: 10000000 cycles: 2500202 heartbeat IPC: 4 cumulative IPC: 4 (Simulation time: 00 hr 00 min 37 sec)
Heartbeat CPU 0 instructions: 20000000 cycles: 5000202 heartbeat IPC: 4 cumulative IPC: 4 (Simulation time: 00 hr 01 min 16 sec)
Heartbeat CPU 0 instructions: 30000000 cycles: 7500202 heartbeat IPC: 4 cumulative IPC: 4 (Simulation time: 00 hr 01 min 55 sec)
Heartbeat CPU 0 instructions: 40000000 cycles: 10000202 heartbeat IPC: 4 cumulative IPC: 4 (Simulation time: 00 hr 02 min 33 sec)
Heartbeat CPU 0 instructions: 50000000 cycles: 12500202 heartbeat IPC: 4 cumulative IPC: 4 (Simulation time: 00 hr 03 min 11 sec)
Warmup finished CPU 0 instructions: 50000000 cycles: 12500203 cumulative IPC: 4 (Simulation time: 00 hr 03 min 11 sec)
Warmup complete CPU 0 instructions: 50000000 cycles: 12500203 cumulative IPC: 4 (Simulation time: 00 hr 03 min 11 sec)
Heartbeat CPU 0 instructions: 60000002 cycles: 15605805 heartbeat IPC: 3.22 cumulative IPC: 3.22 (Simulation time: 00 hr 03 min 59 sec)
Heartbeat CPU 0 instructions: 70000002 cycles: 18107499 heartbeat IPC: 3.997 cumulative IPC: 3.567 (Simulation time: 00 hr 04 min 45 sec)
Heartbeat CPU 0 instructions: 80000003 cycles: 20607521 heartbeat IPC: 4 cumulative IPC: 3.7 (Simulation time: 00 hr 05 min 28 sec)
Heartbeat CPU 0 instructions: 90000004 cycles: 23107542 heartbeat IPC: 4 cumulative IPC: 3.771 (Simulation time: 00 hr 06 min 16 sec)
Heartbeat CPU 0 instructions: 100000003 cycles: 25610423 heartbeat IPC: 3.995 cumulative IPC: 3.814 (Simulation time: 00 hr 07 min 04 sec)
Heartbeat CPU 0 instructions: 110000000 cycles: 28111820 heartbeat IPC: 3.998 cumulative IPC: 3.843 (Simulation time: 00 hr 07 min 48 sec)
Heartbeat CPU 0 instructions: 120000000 cycles: 30611844 heartbeat IPC: 4 cumulative IPC: 3.865 (Simulation time: 00 hr 08 min 32 sec)
Heartbeat CPU 0 instructions: 130000000 cycles: 33111867 heartbeat IPC: 4 cumulative IPC: 3.881 (Simulation time: 00 hr 09 min 14 sec)
Heartbeat CPU 0 instructions: 140000001 cycles: 35611904 heartbeat IPC: 4 cumulative IPC: 3.894 (Simulation time: 00 hr 09 min 56 sec)
Heartbeat CPU 0 instructions: 150000003 cycles: 38111926 heartbeat IPC: 4 cumulative IPC: 3.904 (Simulation time: 00 hr 10 min 40 sec)
Heartbeat CPU 0 instructions: 160000004 cycles: 40613819 heartbeat IPC: 3.997 cumulative IPC: 3.913 (Simulation time: 00 hr 11 min 23 sec)
Heartbeat CPU 0 instructions: 170000001 cycles: 43114640 heartbeat IPC: 3.999 cumulative IPC: 3.92 (Simulation time: 00 hr 12 min 09 sec)
Heartbeat CPU 0 instructions: 180000001 cycles: 45614661 heartbeat IPC: 4 cumulative IPC: 3.926 (Simulation time: 00 hr 12 min 51 sec)
Heartbeat CPU 0 instructions: 190000002 cycles: 48115582 heartbeat IPC: 3.999 cumulative IPC: 3.931 (Simulation time: 00 hr 13 min 35 sec)
Heartbeat CPU 0 instructions: 200000001 cycles: 50615603 heartbeat IPC: 4 cumulative IPC: 3.935 (Simulation time: 00 hr 14 min 17 sec)
Heartbeat CPU 0 instructions: 210000000 cycles: 53117827 heartbeat IPC: 3.996 cumulative IPC: 3.939 (Simulation time: 00 hr 15 min 01 sec)
Heartbeat CPU 0 instructions: 220000001 cycles: 55623953 heartbeat IPC: 3.99 cumulative IPC: 3.942 (Simulation time: 00 hr 15 min 43 sec)
Heartbeat CPU 0 instructions: 230000002 cycles: 58126928 heartbeat IPC: 3.995 cumulative IPC: 3.945 (Simulation time: 00 hr 16 min 23 sec)
Heartbeat CPU 0 instructions: 240000004 cycles: 60628955 heartbeat IPC: 3.997 cumulative IPC: 3.948 (Simulation time: 00 hr 17 min 06 sec)
Heartbeat CPU 0 instructions: 250000000 cycles: 63131197 heartbeat IPC: 3.996 cumulative IPC: 3.95 (Simulation time: 00 hr 17 min 48 sec)
Heartbeat CPU 0 instructions: 260000000 cycles: 65633758 heartbeat IPC: 3.996 cumulative IPC: 3.952 (Simulation time: 00 hr 18 min 30 sec)
Heartbeat CPU 0 instructions: 270000002 cycles: 68133843 heartbeat IPC: 4 cumulative IPC: 3.954 (Simulation time: 00 hr 19 min 11 sec)
Heartbeat CPU 0 instructions: 280000003 cycles: 70633944 heartbeat IPC: 4 cumulative IPC: 3.956 (Simulation time: 00 hr 19 min 51 sec)
Heartbeat CPU 0 instructions: 290000000 cycles: 73133965 heartbeat IPC: 4 cumulative IPC: 3.958 (Simulation time: 00 hr 20 min 31 sec)
Heartbeat CPU 0 instructions: 300000000 cycles: 75635903 heartbeat IPC: 3.997 cumulative IPC: 3.96 (Simulation time: 00 hr 21 min 11 sec)
Heartbeat CPU 0 instructions: 310000002 cycles: 78135940 heartbeat IPC: 4 cumulative IPC: 3.961 (Simulation time: 00 hr 21 min 54 sec)
Heartbeat CPU 0 instructions: 320000004 cycles: 80635962 heartbeat IPC: 4 cumulative IPC: 3.963 (Simulation time: 00 hr 22 min 37 sec)
Heartbeat CPU 0 instructions: 330000000 cycles: 83136452 heartbeat IPC: 3.999 cumulative IPC: 3.964 (Simulation time: 00 hr 23 min 18 sec)
Heartbeat CPU 0 instructions: 340000002 cycles: 85636918 heartbeat IPC: 3.999 cumulative IPC: 3.965 (Simulation time: 00 hr 24 min 00 sec)
Heartbeat CPU 0 instructions: 350000002 cycles: 88137230 heartbeat IPC: 4 cumulative IPC: 3.966 (Simulation time: 00 hr 24 min 40 sec)
Heartbeat CPU 0 instructions: 360000004 cycles: 90642516 heartbeat IPC: 3.992 cumulative IPC: 3.967 (Simulation time: 00 hr 25 min 22 sec)
Heartbeat CPU 0 instructions: 370000004 cycles: 93143362 heartbeat IPC: 3.999 cumulative IPC: 3.968 (Simulation time: 00 hr 26 min 04 sec)
Heartbeat CPU 0 instructions: 380000000 cycles: 95643382 heartbeat IPC: 4 cumulative IPC: 3.969 (Simulation time: 00 hr 26 min 46 sec)
Heartbeat CPU 0 instructions: 390000000 cycles: 98143404 heartbeat IPC: 4 cumulative IPC: 3.97 (Simulation time: 00 hr 27 min 28 sec)
Heartbeat CPU 0 instructions: 400000000 cycles: 100646057 heartbeat IPC: 3.996 cumulative IPC: 3.971 (Simulation time: 00 hr 28 min 10 sec)
Heartbeat CPU 0 instructions: 410000000 cycles: 103147109 heartbeat IPC: 3.998 cumulative IPC: 3.971 (Simulation time: 00 hr 28 min 52 sec)
Heartbeat CPU 0 instructions: 420000001 cycles: 105647567 heartbeat IPC: 3.999 cumulative IPC: 3.972 (Simulation time: 00 hr 29 min 35 sec)
Heartbeat CPU 0 instructions: 430000003 cycles: 108147588 heartbeat IPC: 4 cumulative IPC: 3.973 (Simulation time: 00 hr 30 min 25 sec)
Heartbeat CPU 0 instructions: 440000003 cycles: 110647610 heartbeat IPC: 4 cumulative IPC: 3.974 (Simulation time: 00 hr 31 min 17 sec)
Heartbeat CPU 0 instructions: 450000000 cycles: 113149994 heartbeat IPC: 3.996 cumulative IPC: 3.974 (Simulation time: 00 hr 32 min 06 sec)
Heartbeat CPU 0 instructions: 460000002 cycles: 115650015 heartbeat IPC: 4 cumulative IPC: 3.975 (Simulation time: 00 hr 32 min 54 sec)
Heartbeat CPU 0 instructions: 470000002 cycles: 118150036 heartbeat IPC: 4 cumulative IPC: 3.975 (Simulation time: 00 hr 33 min 44 sec)
Heartbeat CPU 0 instructions: 480000001 cycles: 120650714 heartbeat IPC: 3.999 cumulative IPC: 3.976 (Simulation time: 00 hr 34 min 38 sec)
Heartbeat CPU 0 instructions: 490000000 cycles: 123152668 heartbeat IPC: 3.997 cumulative IPC: 3.976 (Simulation time: 00 hr 35 min 36 sec)
Heartbeat CPU 0 instructions: 500000002 cycles: 125656157 heartbeat IPC: 3.994 cumulative IPC: 3.977 (Simulation time: 00 hr 36 min 30 sec)
Heartbeat CPU 0 instructions: 510000003 cycles: 128156179 heartbeat IPC: 4 cumulative IPC: 3.977 (Simulation time: 00 hr 37 min 21 sec)
Heartbeat CPU 0 instructions: 520000004 cycles: 130656200 heartbeat IPC: 4 cumulative IPC: 3.978 (Simulation time: 00 hr 38 min 11 sec)
Heartbeat CPU 0 instructions: 530000000 cycles: 133156243 heartbeat IPC: 4 cumulative IPC: 3.978 (Simulation time: 00 hr 38 min 58 sec)
Heartbeat CPU 0 instructions: 540000001 cycles: 135658155 heartbeat IPC: 3.997 cumulative IPC: 3.979 (Simulation time: 00 hr 39 min 44 sec)
Heartbeat CPU 0 instructions: 550000002 cycles: 138158175 heartbeat IPC: 4 cumulative IPC: 3.979 (Simulation time: 00 hr 40 min 32 sec)
Heartbeat CPU 0 instructions: 560000003 cycles: 140658641 heartbeat IPC: 3.999 cumulative IPC: 3.979 (Simulation time: 00 hr 41 min 20 sec)
Heartbeat CPU 0 instructions: 570000004 cycles: 143158663 heartbeat IPC: 4 cumulative IPC: 3.98 (Simulation time: 00 hr 42 min 06 sec)
Heartbeat CPU 0 instructions: 580000000 cycles: 145658759 heartbeat IPC: 4 cumulative IPC: 3.98 (Simulation time: 00 hr 42 min 49 sec)
Heartbeat CPU 0 instructions: 590000002 cycles: 148158796 heartbeat IPC: 4 cumulative IPC: 3.981 (Simulation time: 00 hr 43 min 35 sec)
*** Reached end of trace: (0, "traces/convolution.champsimtrace")
Heartbeat CPU 0 instructions: 600000000 cycles: 150668286 heartbeat IPC: 3.985 cumulative IPC: 3.981 (Simulation time: 00 hr 44 min 19 sec)
Heartbeat CPU 0 instructions: 610000002 cycles: 174424225 heartbeat IPC: 0.4209 cumulative IPC: 3.458 (Simulation time: 00 hr 47 min 59 sec)
Heartbeat CPU 0 instructions: 620000001 cycles: 195720097 heartbeat IPC: 0.4696 cumulative IPC: 3.111 (Simulation time: 00 hr 51 min 15 sec)
Heartbeat CPU 0 instructions: 630000001 cycles: 208849818 heartbeat IPC: 0.7616 cumulative IPC: 2.954 (Simulation time: 00 hr 53 min 20 sec)
Heartbeat CPU 0 instructions: 640000004 cycles: 219531750 heartbeat IPC: 0.9362 cumulative IPC: 2.85 (Simulation time: 00 hr 55 min 02 sec)
Heartbeat CPU 0 instructions: 650000001 cycles: 230097786 heartbeat IPC: 0.9464 cumulative IPC: 2.757 (Simulation time: 00 hr 56 min 42 sec)
Simulation finished CPU 0 instructions: 600000001 cycles: 217597584 cumulative IPC: 2.757 (Simulation time: 00 hr 56 min 42 sec)
Simulation complete CPU 0 instructions: 600000001 cycles: 217597584 cumulative IPC: 2.757 (Simulation time: 00 hr 56 min 42 sec)

ChampSim completed all CPUs

=== Simulation ===
CPU 0 runs traces/convolution.champsimtrace
Region of Interest Statistics

CPU 0 cumulative IPC: 2.757 instructions: 600000001 cycles: 217597584
CPU 0 Branch Prediction Accuracy: 100% MPKI: 0.002858 Average ROB Occupancy at Mispredict: 78.57
Branch type MPKI
BRANCH_DIRECT_JUMP: 0.000107
BRANCH_INDIRECT: 4.17e-05
BRANCH_CONDITIONAL: 0.00258
BRANCH_DIRECT_CALL: 0.000103
BRANCH_INDIRECT_CALL: 8.33e-06
BRANCH_RETURN: 1.83e-05

LLC TOTAL        ACCESS:    1185304 HIT:     420792 MISS:     764512
LLC LOAD         ACCESS:       2887 HIT:        584 MISS:       2303
LLC RFO          ACCESS:     535119 HIT:         82 MISS:     535037
LLC PREFETCH     ACCESS:       2121 HIT:        589 MISS:       1532
LLC WRITE        ACCESS:     535165 HIT:     418930 MISS:     116235
LLC TRANSLATION  ACCESS:     110012 HIT:        607 MISS:     109405
LLC PREFETCH REQUESTED:       2121 ISSUED:       2121 USEFUL:        799 USELESS:         45
LLC AVERAGE MISS LATENCY: 907.1 cycles
cpu0_DTLB TOTAL        ACCESS:  113107695 HIT:  112754132 MISS:     353563
cpu0_DTLB LOAD         ACCESS:  113107695 HIT:  112754132 MISS:     353563
cpu0_DTLB RFO          ACCESS:          0 HIT:          0 MISS:          0
cpu0_DTLB PREFETCH     ACCESS:          0 HIT:          0 MISS:          0
cpu0_DTLB WRITE        ACCESS:          0 HIT:          0 MISS:          0
cpu0_DTLB TRANSLATION  ACCESS:          0 HIT:          0 MISS:          0
cpu0_DTLB PREFETCH REQUESTED:          0 ISSUED:          0 USEFUL:          0 USELESS:          0
cpu0_DTLB AVERAGE MISS LATENCY: 655.9 cycles
cpu0_ITLB TOTAL        ACCESS:       2121 HIT:       2087 MISS:         34
cpu0_ITLB LOAD         ACCESS:       2121 HIT:       2087 MISS:         34
cpu0_ITLB RFO          ACCESS:          0 HIT:          0 MISS:          0
cpu0_ITLB PREFETCH     ACCESS:          0 HIT:          0 MISS:          0
cpu0_ITLB WRITE        ACCESS:          0 HIT:          0 MISS:          0
cpu0_ITLB TRANSLATION  ACCESS:          0 HIT:          0 MISS:          0
cpu0_ITLB PREFETCH REQUESTED:          0 ISSUED:          0 USEFUL:          0 USELESS:          0
cpu0_ITLB AVERAGE MISS LATENCY: 856 cycles
cpu0_L1D TOTAL        ACCESS:  146346292 HIT:  140153115 MISS:    6193177
cpu0_L1D LOAD         ACCESS:   74194558 HIT:   74186537 MISS:       8021
cpu0_L1D RFO          ACCESS:          0 HIT:          0 MISS:          0
cpu0_L1D PREFETCH     ACCESS:          0 HIT:          0 MISS:          0
cpu0_L1D WRITE        ACCESS:   71970929 HIT:   65928187 MISS:    6042742
cpu0_L1D TRANSLATION  ACCESS:     180805 HIT:      38391 MISS:     142414
cpu0_L1D PREFETCH REQUESTED:          0 ISSUED:          0 USEFUL:          0 USELESS:          0
cpu0_L1D AVERAGE MISS LATENCY: 88.41 cycles
cpu0_L1I TOTAL        ACCESS:       2475 HIT:        989 MISS:       1486
cpu0_L1I LOAD         ACCESS:       2475 HIT:        989 MISS:       1486
cpu0_L1I RFO          ACCESS:          0 HIT:          0 MISS:          0
cpu0_L1I PREFETCH     ACCESS:          0 HIT:          0 MISS:          0
cpu0_L1I WRITE        ACCESS:          0 HIT:          0 MISS:          0
cpu0_L1I TRANSLATION  ACCESS:          0 HIT:          0 MISS:          0
cpu0_L1I PREFETCH REQUESTED:          0 ISSUED:          0 USEFUL:          0 USELESS:          0
cpu0_L1I AVERAGE MISS LATENCY: 728.4 cycles
cpu0_L2C TOTAL        ACCESS:    1193635 HIT:     545602 MISS:     648033
cpu0_L2C LOAD         ACCESS:       3312 HIT:        425 MISS:       2887
cpu0_L2C RFO          ACCESS:     539274 HIT:       4155 MISS:     535119
cpu0_L2C PREFETCH     ACCESS:          0 HIT:          0 MISS:          0
cpu0_L2C WRITE        ACCESS:     539634 HIT:     539619 MISS:         15
cpu0_L2C TRANSLATION  ACCESS:     111415 HIT:       1403 MISS:     110012
cpu0_L2C PREFETCH REQUESTED:          0 ISSUED:          0 USEFUL:          0 USELESS:          0
cpu0_L2C AVERAGE MISS LATENCY: 1089 cycles
cpu0_STLB TOTAL        ACCESS:     156147 HIT:         41 MISS:     156106
cpu0_STLB LOAD         ACCESS:     156147 HIT:         41 MISS:     156106
cpu0_STLB RFO          ACCESS:          0 HIT:          0 MISS:          0
cpu0_STLB PREFETCH     ACCESS:          0 HIT:          0 MISS:          0
cpu0_STLB WRITE        ACCESS:          0 HIT:          0 MISS:          0
cpu0_STLB TRANSLATION  ACCESS:          0 HIT:          0 MISS:          0
cpu0_STLB PREFETCH REQUESTED:          0 ISSUED:          0 USEFUL:          0 USELESS:          0
cpu0_STLB AVERAGE MISS LATENCY: 1698 cycles

DRAM Statistics

Channel 0 RQ ROW_BUFFER_HIT:     144201
  ROW_BUFFER_MISS:     503169
 AVG DBUS CONGESTED CYCLE: 3.985
WQ ROW_BUFFER_HIT: Channel 0 
  ROW_BUFFER_MISS:      62979
  FULL:     472365
