WARNING: physical memory size is smaller than virtual memory size.

*** ChampSim Multicore Out-of-Order Simulator ***
Warmup Instructions: 50000000
Simulation Instructions: 600000000
Number of CPUs: 1
Page size: 4096

Off-chip DRAM Size: 4 GiB Channels: 1 Width: 64-bit Data Race: 3200 MT/s
Heartbeat CPU 0 instructions: 10000000 cycles: 2500202 heartbeat IPC: 4 cumulative IPC: 4 (Simulation time: 00 hr 00 min 49 sec)
Heartbeat CPU 0 instructions: 20000000 cycles: 5000202 heartbeat IPC: 4 cumulative IPC: 4 (Simulation time: 00 hr 01 min 40 sec)
Heartbeat CPU 0 instructions: 30000000 cycles: 7500202 heartbeat IPC: 4 cumulative IPC: 4 (Simulation time: 00 hr 02 min 26 sec)
Heartbeat CPU 0 instructions: 40000000 cycles: 10000202 heartbeat IPC: 4 cumulative IPC: 4 (Simulation time: 00 hr 03 min 15 sec)
Heartbeat CPU 0 instructions: 50000000 cycles: 12500202 heartbeat IPC: 4 cumulative IPC: 4 (Simulation time: 00 hr 04 min 03 sec)
Warmup finished CPU 0 instructions: 50000000 cycles: 12500203 cumulative IPC: 4 (Simulation time: 00 hr 04 min 03 sec)
Warmup complete CPU 0 instructions: 50000000 cycles: 12500203 cumulative IPC: 4 (Simulation time: 00 hr 04 min 03 sec)
Heartbeat CPU 0 instructions: 60000002 cycles: 15755513 heartbeat IPC: 3.072 cumulative IPC: 3.072 (Simulation time: 00 hr 05 min 07 sec)
Heartbeat CPU 0 instructions: 70000002 cycles: 18460960 heartbeat IPC: 3.696 cumulative IPC: 3.355 (Simulation time: 00 hr 06 min 05 sec)
Heartbeat CPU 0 instructions: 80000003 cycles: 21164557 heartbeat IPC: 3.699 cumulative IPC: 3.462 (Simulation time: 00 hr 07 min 00 sec)
Heartbeat CPU 0 instructions: 90000004 cycles: 23868120 heartbeat IPC: 3.699 cumulative IPC: 3.519 (Simulation time: 00 hr 08 min 01 sec)
Heartbeat CPU 0 instructions: 100000003 cycles: 26573323 heartbeat IPC: 3.697 cumulative IPC: 3.553 (Simulation time: 00 hr 08 min 55 sec)
Heartbeat CPU 0 instructions: 110000000 cycles: 29276586 heartbeat IPC: 3.699 cumulative IPC: 3.576 (Simulation time: 00 hr 09 min 50 sec)
Heartbeat CPU 0 instructions: 120000000 cycles: 31979940 heartbeat IPC: 3.699 cumulative IPC: 3.593 (Simulation time: 00 hr 10 min 43 sec)
Heartbeat CPU 0 instructions: 130000000 cycles: 34683561 heartbeat IPC: 3.699 cumulative IPC: 3.606 (Simulation time: 00 hr 11 min 31 sec)
Heartbeat CPU 0 instructions: 140000001 cycles: 37387110 heartbeat IPC: 3.699 cumulative IPC: 3.616 (Simulation time: 00 hr 12 min 21 sec)
Heartbeat CPU 0 instructions: 150000003 cycles: 40090694 heartbeat IPC: 3.699 cumulative IPC: 3.624 (Simulation time: 00 hr 13 min 11 sec)
Heartbeat CPU 0 instructions: 160000003 cycles: 42797277 heartbeat IPC: 3.695 cumulative IPC: 3.631 (Simulation time: 00 hr 14 min 03 sec)
Heartbeat CPU 0 instructions: 170000001 cycles: 45500539 heartbeat IPC: 3.699 cumulative IPC: 3.636 (Simulation time: 00 hr 14 min 55 sec)
Heartbeat CPU 0 instructions: 180000001 cycles: 48204112 heartbeat IPC: 3.699 cumulative IPC: 3.641 (Simulation time: 00 hr 15 min 48 sec)
Heartbeat CPU 0 instructions: 190000002 cycles: 50907637 heartbeat IPC: 3.699 cumulative IPC: 3.645 (Simulation time: 00 hr 16 min 25 sec)
Heartbeat CPU 0 instructions: 200000001 cycles: 53611223 heartbeat IPC: 3.699 cumulative IPC: 3.649 (Simulation time: 00 hr 17 min 01 sec)
Heartbeat CPU 0 instructions: 210000000 cycles: 56316975 heartbeat IPC: 3.696 cumulative IPC: 3.652 (Simulation time: 00 hr 17 min 37 sec)
Heartbeat CPU 0 instructions: 220000001 cycles: 59020332 heartbeat IPC: 3.699 cumulative IPC: 3.654 (Simulation time: 00 hr 18 min 14 sec)
Heartbeat CPU 0 instructions: 230000002 cycles: 61723954 heartbeat IPC: 3.699 cumulative IPC: 3.657 (Simulation time: 00 hr 18 min 49 sec)
Heartbeat CPU 0 instructions: 240000004 cycles: 64427587 heartbeat IPC: 3.699 cumulative IPC: 3.659 (Simulation time: 00 hr 19 min 24 sec)
Heartbeat CPU 0 instructions: 250000000 cycles: 67134176 heartbeat IPC: 3.695 cumulative IPC: 3.661 (Simulation time: 00 hr 19 min 58 sec)
Heartbeat CPU 0 instructions: 260000000 cycles: 69837352 heartbeat IPC: 3.699 cumulative IPC: 3.663 (Simulation time: 00 hr 20 min 33 sec)
Heartbeat CPU 0 instructions: 270000002 cycles: 72540715 heartbeat IPC: 3.699 cumulative IPC: 3.664 (Simulation time: 00 hr 21 min 10 sec)
Heartbeat CPU 0 instructions: 280000003 cycles: 75244340 heartbeat IPC: 3.699 cumulative IPC: 3.666 (Simulation time: 00 hr 21 min 47 sec)
Heartbeat CPU 0 instructions: 290000003 cycles: 77947995 heartbeat IPC: 3.699 cumulative IPC: 3.667 (Simulation time: 00 hr 22 min 23 sec)
Heartbeat CPU 0 instructions: 300000000 cycles: 80654661 heartbeat IPC: 3.695 cumulative IPC: 3.668 (Simulation time: 00 hr 22 min 58 sec)
Heartbeat CPU 0 instructions: 310000002 cycles: 83357908 heartbeat IPC: 3.699 cumulative IPC: 3.669 (Simulation time: 00 hr 23 min 35 sec)
Heartbeat CPU 0 instructions: 320000004 cycles: 86061285 heartbeat IPC: 3.699 cumulative IPC: 3.67 (Simulation time: 00 hr 24 min 13 sec)
Heartbeat CPU 0 instructions: 330000000 cycles: 88764895 heartbeat IPC: 3.699 cumulative IPC: 3.671 (Simulation time: 00 hr 24 min 56 sec)
Heartbeat CPU 0 instructions: 340000002 cycles: 91468545 heartbeat IPC: 3.699 cumulative IPC: 3.672 (Simulation time: 00 hr 25 min 30 sec)
Heartbeat CPU 0 instructions: 350000002 cycles: 94171990 heartbeat IPC: 3.699 cumulative IPC: 3.673 (Simulation time: 00 hr 26 min 07 sec)
Heartbeat CPU 0 instructions: 360000001 cycles: 96877351 heartbeat IPC: 3.696 cumulative IPC: 3.674 (Simulation time: 00 hr 26 min 51 sec)
Heartbeat CPU 0 instructions: 370000004 cycles: 99580700 heartbeat IPC: 3.699 cumulative IPC: 3.675 (Simulation time: 00 hr 27 min 38 sec)
Heartbeat CPU 0 instructions: 380000000 cycles: 102284268 heartbeat IPC: 3.699 cumulative IPC: 3.675 (Simulation time: 00 hr 28 min 43 sec)
Heartbeat CPU 0 instructions: 390000004 cycles: 104987988 heartbeat IPC: 3.699 cumulative IPC: 3.676 (Simulation time: 00 hr 30 min 05 sec)
Heartbeat CPU 0 instructions: 400000000 cycles: 107693814 heartbeat IPC: 3.696 cumulative IPC: 3.677 (Simulation time: 00 hr 30 min 47 sec)
Heartbeat CPU 0 instructions: 410000000 cycles: 110397027 heartbeat IPC: 3.699 cumulative IPC: 3.677 (Simulation time: 00 hr 31 min 33 sec)
Heartbeat CPU 0 instructions: 420000001 cycles: 113100473 heartbeat IPC: 3.699 cumulative IPC: 3.678 (Simulation time: 00 hr 32 min 10 sec)
Heartbeat CPU 0 instructions: 430000003 cycles: 115804181 heartbeat IPC: 3.699 cumulative IPC: 3.678 (Simulation time: 00 hr 32 min 48 sec)
Heartbeat CPU 0 instructions: 440000003 cycles: 118507874 heartbeat IPC: 3.699 cumulative IPC: 3.679 (Simulation time: 00 hr 33 min 29 sec)
Heartbeat CPU 0 instructions: 450000004 cycles: 121213811 heartbeat IPC: 3.696 cumulative IPC: 3.679 (Simulation time: 00 hr 34 min 04 sec)
Heartbeat CPU 0 instructions: 460000001 cycles: 123917168 heartbeat IPC: 3.699 cumulative IPC: 3.68 (Simulation time: 00 hr 34 min 39 sec)
Heartbeat CPU 0 instructions: 470000002 cycles: 126620644 heartbeat IPC: 3.699 cumulative IPC: 3.68 (Simulation time: 00 hr 35 min 18 sec)
Heartbeat CPU 0 instructions: 480000001 cycles: 129324393 heartbeat IPC: 3.699 cumulative IPC: 3.681 (Simulation time: 00 hr 36 min 14 sec)
Heartbeat CPU 0 instructions: 490000000 cycles: 132027992 heartbeat IPC: 3.699 cumulative IPC: 3.681 (Simulation time: 00 hr 36 min 50 sec)
Heartbeat CPU 0 instructions: 500000002 cycles: 134733862 heartbeat IPC: 3.696 cumulative IPC: 3.681 (Simulation time: 00 hr 37 min 33 sec)
Heartbeat CPU 0 instructions: 510000003 cycles: 137437187 heartbeat IPC: 3.699 cumulative IPC: 3.682 (Simulation time: 00 hr 38 min 15 sec)
Heartbeat CPU 0 instructions: 520000004 cycles: 140140659 heartbeat IPC: 3.699 cumulative IPC: 3.682 (Simulation time: 00 hr 38 min 58 sec)
Heartbeat CPU 0 instructions: 530000000 cycles: 142844316 heartbeat IPC: 3.699 cumulative IPC: 3.683 (Simulation time: 00 hr 39 min 38 sec)
Heartbeat CPU 0 instructions: 540000000 cycles: 145549861 heartbeat IPC: 3.696 cumulative IPC: 3.683 (Simulation time: 00 hr 40 min 15 sec)
Heartbeat CPU 0 instructions: 550000003 cycles: 148253245 heartbeat IPC: 3.699 cumulative IPC: 3.683 (Simulation time: 00 hr 40 min 56 sec)
Heartbeat CPU 0 instructions: 560000003 cycles: 150956592 heartbeat IPC: 3.699 cumulative IPC: 3.683 (Simulation time: 00 hr 41 min 40 sec)
Heartbeat CPU 0 instructions: 570000004 cycles: 153659931 heartbeat IPC: 3.699 cumulative IPC: 3.684 (Simulation time: 00 hr 42 min 27 sec)
Heartbeat CPU 0 instructions: 580000000 cycles: 156363635 heartbeat IPC: 3.699 cumulative IPC: 3.684 (Simulation time: 00 hr 43 min 15 sec)
Heartbeat CPU 0 instructions: 590000002 cycles: 159067218 heartbeat IPC: 3.699 cumulative IPC: 3.684 (Simulation time: 00 hr 44 min 00 sec)
*** Reached end of trace: (0, "traces/convolution.champsimtrace")
Heartbeat CPU 0 instructions: 600000000 cycles: 161779793 heartbeat IPC: 3.687 cumulative IPC: 3.684 (Simulation time: 00 hr 44 min 46 sec)
Heartbeat CPU 0 instructions: 610000002 cycles: 185806473 heartbeat IPC: 0.4162 cumulative IPC: 3.231 (Simulation time: 00 hr 48 min 27 sec)
Heartbeat CPU 0 instructions: 620000001 cycles: 207383088 heartbeat IPC: 0.4635 cumulative IPC: 2.925 (Simulation time: 00 hr 51 min 50 sec)
Heartbeat CPU 0 instructions: 630000001 cycles: 219963263 heartbeat IPC: 0.7949 cumulative IPC: 2.796 (Simulation time: 00 hr 54 min 00 sec)
Heartbeat CPU 0 instructions: 640000004 cycles: 230589418 heartbeat IPC: 0.9411 cumulative IPC: 2.705 (Simulation time: 00 hr 55 min 48 sec)
Heartbeat CPU 0 instructions: 650000001 cycles: 241082548 heartbeat IPC: 0.953 cumulative IPC: 2.625 (Simulation time: 00 hr 57 min 33 sec)
Simulation finished CPU 0 instructions: 600000001 cycles: 228582346 cumulative IPC: 2.625 (Simulation time: 00 hr 57 min 33 sec)
Simulation complete CPU 0 instructions: 600000001 cycles: 228582346 cumulative IPC: 2.625 (Simulation time: 00 hr 57 min 33 sec)

ChampSim completed all CPUs

=== Simulation ===
CPU 0 runs traces/convolution.champsimtrace
Region of Interest Statistics

CPU 0 cumulative IPC: 2.625 instructions: 600000001 cycles: 228582346
CPU 0 Branch Prediction Accuracy: 99.3% MPKI: 1.265 Average ROB Occupancy at Mispredict: 63.96
Branch type MPKI
BRANCH_DIRECT_JUMP: 0.000107
BRANCH_INDIRECT: 4.17e-05
BRANCH_CONDITIONAL: 1.26
BRANCH_DIRECT_CALL: 0.000103
BRANCH_INDIRECT_CALL: 8.33e-06
BRANCH_RETURN: 1.83e-05

LLC TOTAL        ACCESS:    1185864 HIT:     537028 MISS:     648836
LLC LOAD         ACCESS:       2890 HIT:        876 MISS:       2014
LLC RFO          ACCESS:     535119 HIT:         73 MISS:     535046
LLC PREFETCH     ACCESS:       2890 HIT:        279 MISS:       2611
LLC WRITE        ACCESS:     535168 HIT:     535146 MISS:         22
LLC TRANSLATION  ACCESS:     109797 HIT:        654 MISS:     109143
LLC PREFETCH REQUESTED:       2890 ISSUED:       2890 USEFUL:       1656 USELESS:        350
LLC AVERAGE MISS LATENCY: 1012 cycles
cpu0_DTLB TOTAL        ACCESS:  121558755 HIT:  121205524 MISS:     353231
cpu0_DTLB LOAD         ACCESS:  121558755 HIT:  121205524 MISS:     353231
cpu0_DTLB RFO          ACCESS:          0 HIT:          0 MISS:          0
cpu0_DTLB PREFETCH     ACCESS:          0 HIT:          0 MISS:          0
cpu0_DTLB WRITE        ACCESS:          0 HIT:          0 MISS:          0
cpu0_DTLB TRANSLATION  ACCESS:          0 HIT:          0 MISS:          0
cpu0_DTLB PREFETCH REQUESTED:          0 ISSUED:          0 USEFUL:          0 USELESS:          0
cpu0_DTLB AVERAGE MISS LATENCY: 655.1 cycles
cpu0_ITLB TOTAL        ACCESS:       2024 HIT:       1990 MISS:         34
cpu0_ITLB LOAD         ACCESS:       2024 HIT:       1990 MISS:         34
cpu0_ITLB RFO          ACCESS:          0 HIT:          0 MISS:          0
cpu0_ITLB PREFETCH     ACCESS:          0 HIT:          0 MISS:          0
cpu0_ITLB WRITE        ACCESS:          0 HIT:          0 MISS:          0
cpu0_ITLB TRANSLATION  ACCESS:          0 HIT:          0 MISS:          0
cpu0_ITLB PREFETCH REQUESTED:          0 ISSUED:          0 USEFUL:          0 USELESS:          0
cpu0_ITLB AVERAGE MISS LATENCY: 668.2 cycles
cpu0_L1D TOTAL        ACCESS:  162710844 HIT:  156563636 MISS:    6147208
cpu0_L1D LOAD         ACCESS:   90492638 HIT:   90486413 MISS:       6225
cpu0_L1D RFO          ACCESS:          0 HIT:          0 MISS:          0
cpu0_L1D PREFETCH     ACCESS:          0 HIT:          0 MISS:          0
cpu0_L1D WRITE        ACCESS:   72037568 HIT:   66038840 MISS:    5998728
cpu0_L1D TRANSLATION  ACCESS:     180638 HIT:      38383 MISS:     142255
cpu0_L1D PREFETCH REQUESTED:          0 ISSUED:          0 USEFUL:          0 USELESS:          0
cpu0_L1D AVERAGE MISS LATENCY: 81.47 cycles
cpu0_L1I TOTAL        ACCESS:       2338 HIT:       1019 MISS:       1319
cpu0_L1I LOAD         ACCESS:       2338 HIT:       1019 MISS:       1319
cpu0_L1I RFO          ACCESS:          0 HIT:          0 MISS:          0
cpu0_L1I PREFETCH     ACCESS:          0 HIT:          0 MISS:          0
cpu0_L1I WRITE        ACCESS:          0 HIT:          0 MISS:          0
cpu0_L1I TRANSLATION  ACCESS:          0 HIT:          0 MISS:          0
cpu0_L1I PREFETCH REQUESTED:          0 ISSUED:          0 USEFUL:          0 USELESS:          0
cpu0_L1I AVERAGE MISS LATENCY: 611.8 cycles
cpu0_L2C TOTAL        ACCESS:    1190744 HIT:     542920 MISS:     647824
cpu0_L2C LOAD         ACCESS:       3314 HIT:        424 MISS:       2890
cpu0_L2C RFO          ACCESS:     538086 HIT:       2967 MISS:     535119
cpu0_L2C PREFETCH     ACCESS:          0 HIT:          0 MISS:          0
cpu0_L2C WRITE        ACCESS:     538216 HIT:     538199 MISS:         17
cpu0_L2C TRANSLATION  ACCESS:     111128 HIT:       1330 MISS:     109798
cpu0_L2C PREFETCH REQUESTED:          0 ISSUED:          0 USEFUL:          0 USELESS:          0
cpu0_L2C AVERAGE MISS LATENCY: 1032 cycles
cpu0_STLB TOTAL        ACCESS:     156156 HIT:         48 MISS:     156108
cpu0_STLB LOAD         ACCESS:     156156 HIT:         48 MISS:     156108
cpu0_STLB RFO          ACCESS:          0 HIT:          0 MISS:          0
cpu0_STLB PREFETCH     ACCESS:          0 HIT:          0 MISS:          0
cpu0_STLB WRITE        ACCESS:          0 HIT:          0 MISS:          0
cpu0_STLB TRANSLATION  ACCESS:          0 HIT:          0 MISS:          0
cpu0_STLB PREFETCH REQUESTED:          0 ISSUED:          0 USEFUL:          0 USELESS:          0
cpu0_STLB AVERAGE MISS LATENCY: 1691 cycles

DRAM Statistics

Channel 0 RQ ROW_BUFFER_HIT:     141705
  ROW_BUFFER_MISS:     505722
 AVG DBUS CONGESTED CYCLE: 3.979
WQ ROW_BUFFER_HIT: Channel 0 
  ROW_BUFFER_MISS:      99473
  FULL:     435575
