WARNING: physical memory size is smaller than virtual memory size.

*** ChampSim Multicore Out-of-Order Simulator ***
Warmup Instructions: 50000000
Simulation Instructions: 600000000
Number of CPUs: 1
Page size: 4096

Off-chip DRAM Size: 4 GiB Channels: 1 Width: 64-bit Data Race: 3200 MT/s
Heartbeat CPU 0 instructions: 10000000 cycles: 2500202 heartbeat IPC: 4 cumulative IPC: 4 (Simulation time: 00 hr 01 min 08 sec)
Heartbeat CPU 0 instructions: 20000000 cycles: 5000202 heartbeat IPC: 4 cumulative IPC: 4 (Simulation time: 00 hr 02 min 20 sec)
Heartbeat CPU 0 instructions: 30000000 cycles: 7500202 heartbeat IPC: 4 cumulative IPC: 4 (Simulation time: 00 hr 03 min 26 sec)
Heartbeat CPU 0 instructions: 40000000 cycles: 10000202 heartbeat IPC: 4 cumulative IPC: 4 (Simulation time: 00 hr 04 min 36 sec)
Heartbeat CPU 0 instructions: 50000000 cycles: 12500202 heartbeat IPC: 4 cumulative IPC: 4 (Simulation time: 00 hr 05 min 42 sec)
Warmup finished CPU 0 instructions: 50000000 cycles: 12500203 cumulative IPC: 4 (Simulation time: 00 hr 05 min 42 sec)
Warmup complete CPU 0 instructions: 50000000 cycles: 12500203 cumulative IPC: 4 (Simulation time: 00 hr 05 min 42 sec)
Heartbeat CPU 0 instructions: 60000002 cycles: 15772783 heartbeat IPC: 3.056 cumulative IPC: 3.056 (Simulation time: 00 hr 07 min 22 sec)
Heartbeat CPU 0 instructions: 70000002 cycles: 18479338 heartbeat IPC: 3.695 cumulative IPC: 3.345 (Simulation time: 00 hr 09 min 30 sec)
Heartbeat CPU 0 instructions: 80000003 cycles: 21188085 heartbeat IPC: 3.692 cumulative IPC: 3.453 (Simulation time: 00 hr 11 min 45 sec)
Heartbeat CPU 0 instructions: 90000004 cycles: 23895112 heartbeat IPC: 3.694 cumulative IPC: 3.51 (Simulation time: 00 hr 13 min 47 sec)
Heartbeat CPU 0 instructions: 100000003 cycles: 26605536 heartbeat IPC: 3.689 cumulative IPC: 3.545 (Simulation time: 00 hr 15 min 26 sec)
Heartbeat CPU 0 instructions: 110000000 cycles: 29313491 heartbeat IPC: 3.693 cumulative IPC: 3.569 (Simulation time: 00 hr 16 min 05 sec)
Heartbeat CPU 0 instructions: 120000000 cycles: 32021504 heartbeat IPC: 3.693 cumulative IPC: 3.586 (Simulation time: 00 hr 16 min 55 sec)
Heartbeat CPU 0 instructions: 130000000 cycles: 34728397 heartbeat IPC: 3.694 cumulative IPC: 3.599 (Simulation time: 00 hr 17 min 46 sec)
Heartbeat CPU 0 instructions: 140000001 cycles: 37434625 heartbeat IPC: 3.695 cumulative IPC: 3.609 (Simulation time: 00 hr 18 min 40 sec)
Heartbeat CPU 0 instructions: 150000003 cycles: 40146448 heartbeat IPC: 3.688 cumulative IPC: 3.617 (Simulation time: 00 hr 19 min 35 sec)
Heartbeat CPU 0 instructions: 160000003 cycles: 42857339 heartbeat IPC: 3.689 cumulative IPC: 3.624 (Simulation time: 00 hr 20 min 35 sec)
Heartbeat CPU 0 instructions: 170000001 cycles: 45564558 heartbeat IPC: 3.694 cumulative IPC: 3.629 (Simulation time: 00 hr 21 min 39 sec)
Heartbeat CPU 0 instructions: 180000001 cycles: 48269280 heartbeat IPC: 3.697 cumulative IPC: 3.634 (Simulation time: 00 hr 22 min 32 sec)
Heartbeat CPU 0 instructions: 190000002 cycles: 50979949 heartbeat IPC: 3.689 cumulative IPC: 3.638 (Simulation time: 00 hr 23 min 22 sec)
Heartbeat CPU 0 instructions: 200000001 cycles: 53693083 heartbeat IPC: 3.686 cumulative IPC: 3.641 (Simulation time: 00 hr 24 min 20 sec)
Heartbeat CPU 0 instructions: 210000000 cycles: 56406762 heartbeat IPC: 3.685 cumulative IPC: 3.644 (Simulation time: 00 hr 25 min 15 sec)
Heartbeat CPU 0 instructions: 220000001 cycles: 59113921 heartbeat IPC: 3.694 cumulative IPC: 3.647 (Simulation time: 00 hr 26 min 15 sec)
Heartbeat CPU 0 instructions: 230000002 cycles: 61823413 heartbeat IPC: 3.691 cumulative IPC: 3.649 (Simulation time: 00 hr 27 min 20 sec)
Heartbeat CPU 0 instructions: 240000004 cycles: 64532000 heartbeat IPC: 3.692 cumulative IPC: 3.652 (Simulation time: 00 hr 28 min 23 sec)
Heartbeat CPU 0 instructions: 250000000 cycles: 67238801 heartbeat IPC: 3.694 cumulative IPC: 3.654 (Simulation time: 00 hr 29 min 21 sec)
Heartbeat CPU 0 instructions: 260000000 cycles: 69946090 heartbeat IPC: 3.694 cumulative IPC: 3.656 (Simulation time: 00 hr 30 min 15 sec)
Heartbeat CPU 0 instructions: 270000002 cycles: 72654174 heartbeat IPC: 3.693 cumulative IPC: 3.657 (Simulation time: 00 hr 30 min 51 sec)
Heartbeat CPU 0 instructions: 280000003 cycles: 75361341 heartbeat IPC: 3.694 cumulative IPC: 3.659 (Simulation time: 00 hr 31 min 28 sec)
Heartbeat CPU 0 instructions: 290000003 cycles: 78067263 heartbeat IPC: 3.696 cumulative IPC: 3.66 (Simulation time: 00 hr 32 min 04 sec)
Heartbeat CPU 0 instructions: 300000000 cycles: 80776153 heartbeat IPC: 3.692 cumulative IPC: 3.662 (Simulation time: 00 hr 32 min 39 sec)
Heartbeat CPU 0 instructions: 310000002 cycles: 83481438 heartbeat IPC: 3.696 cumulative IPC: 3.663 (Simulation time: 00 hr 33 min 14 sec)
Heartbeat CPU 0 instructions: 320000004 cycles: 86190047 heartbeat IPC: 3.692 cumulative IPC: 3.664 (Simulation time: 00 hr 33 min 53 sec)
Heartbeat CPU 0 instructions: 330000000 cycles: 88900043 heartbeat IPC: 3.69 cumulative IPC: 3.665 (Simulation time: 00 hr 34 min 30 sec)
Heartbeat CPU 0 instructions: 340000002 cycles: 91607643 heartbeat IPC: 3.693 cumulative IPC: 3.666 (Simulation time: 00 hr 35 min 05 sec)
Heartbeat CPU 0 instructions: 350000002 cycles: 94313703 heartbeat IPC: 3.695 cumulative IPC: 3.667 (Simulation time: 00 hr 35 min 40 sec)
Heartbeat CPU 0 instructions: 360000001 cycles: 97022190 heartbeat IPC: 3.692 cumulative IPC: 3.668 (Simulation time: 00 hr 36 min 15 sec)
Heartbeat CPU 0 instructions: 370000004 cycles: 99732320 heartbeat IPC: 3.69 cumulative IPC: 3.668 (Simulation time: 00 hr 36 min 53 sec)
Heartbeat CPU 0 instructions: 380000000 cycles: 102438378 heartbeat IPC: 3.695 cumulative IPC: 3.669 (Simulation time: 00 hr 37 min 29 sec)
Heartbeat CPU 0 instructions: 390000004 cycles: 105145025 heartbeat IPC: 3.695 cumulative IPC: 3.67 (Simulation time: 00 hr 38 min 04 sec)
Heartbeat CPU 0 instructions: 400000000 cycles: 107851441 heartbeat IPC: 3.695 cumulative IPC: 3.671 (Simulation time: 00 hr 38 min 40 sec)
Heartbeat CPU 0 instructions: 410000000 cycles: 110560217 heartbeat IPC: 3.692 cumulative IPC: 3.671 (Simulation time: 00 hr 39 min 15 sec)
Heartbeat CPU 0 instructions: 420000001 cycles: 113264881 heartbeat IPC: 3.697 cumulative IPC: 3.672 (Simulation time: 00 hr 39 min 50 sec)
Heartbeat CPU 0 instructions: 430000003 cycles: 115972954 heartbeat IPC: 3.693 cumulative IPC: 3.672 (Simulation time: 00 hr 40 min 25 sec)
Heartbeat CPU 0 instructions: 440000003 cycles: 118683833 heartbeat IPC: 3.689 cumulative IPC: 3.673 (Simulation time: 00 hr 40 min 59 sec)
Heartbeat CPU 0 instructions: 450000004 cycles: 121399940 heartbeat IPC: 3.682 cumulative IPC: 3.673 (Simulation time: 00 hr 41 min 34 sec)
Heartbeat CPU 0 instructions: 460000001 cycles: 124110852 heartbeat IPC: 3.689 cumulative IPC: 3.673 (Simulation time: 00 hr 42 min 09 sec)
Heartbeat CPU 0 instructions: 470000002 cycles: 126823337 heartbeat IPC: 3.687 cumulative IPC: 3.674 (Simulation time: 00 hr 42 min 44 sec)
Heartbeat CPU 0 instructions: 480000001 cycles: 129530851 heartbeat IPC: 3.693 cumulative IPC: 3.674 (Simulation time: 00 hr 43 min 18 sec)
Heartbeat CPU 0 instructions: 490000000 cycles: 132240424 heartbeat IPC: 3.691 cumulative IPC: 3.675 (Simulation time: 00 hr 44 min 01 sec)
Heartbeat CPU 0 instructions: 500000002 cycles: 134949943 heartbeat IPC: 3.691 cumulative IPC: 3.675 (Simulation time: 00 hr 44 min 42 sec)
Heartbeat CPU 0 instructions: 510000003 cycles: 137658452 heartbeat IPC: 3.692 cumulative IPC: 3.675 (Simulation time: 00 hr 45 min 22 sec)
Heartbeat CPU 0 instructions: 520000004 cycles: 140368082 heartbeat IPC: 3.691 cumulative IPC: 3.676 (Simulation time: 00 hr 46 min 01 sec)
Heartbeat CPU 0 instructions: 530000000 cycles: 143077010 heartbeat IPC: 3.691 cumulative IPC: 3.676 (Simulation time: 00 hr 46 min 41 sec)
Heartbeat CPU 0 instructions: 540000000 cycles: 145789631 heartbeat IPC: 3.686 cumulative IPC: 3.676 (Simulation time: 00 hr 47 min 19 sec)
Heartbeat CPU 0 instructions: 550000003 cycles: 148499208 heartbeat IPC: 3.691 cumulative IPC: 3.676 (Simulation time: 00 hr 48 min 00 sec)
Heartbeat CPU 0 instructions: 560000003 cycles: 151207849 heartbeat IPC: 3.692 cumulative IPC: 3.677 (Simulation time: 00 hr 48 min 38 sec)
Heartbeat CPU 0 instructions: 570000004 cycles: 153915996 heartbeat IPC: 3.693 cumulative IPC: 3.677 (Simulation time: 00 hr 49 min 15 sec)
Heartbeat CPU 0 instructions: 580000000 cycles: 156625522 heartbeat IPC: 3.691 cumulative IPC: 3.677 (Simulation time: 00 hr 49 min 53 sec)
Heartbeat CPU 0 instructions: 590000002 cycles: 159336310 heartbeat IPC: 3.689 cumulative IPC: 3.678 (Simulation time: 00 hr 50 min 31 sec)
*** Reached end of trace: (0, "traces/convolution.champsimtrace")
Heartbeat CPU 0 instructions: 600000000 cycles: 162047614 heartbeat IPC: 3.688 cumulative IPC: 3.678 (Simulation time: 00 hr 51 min 06 sec)
Heartbeat CPU 0 instructions: 610000002 cycles: 182130470 heartbeat IPC: 0.4979 cumulative IPC: 3.301 (Simulation time: 00 hr 53 min 53 sec)
Heartbeat CPU 0 instructions: 620000001 cycles: 201132450 heartbeat IPC: 0.5263 cumulative IPC: 3.022 (Simulation time: 00 hr 56 min 34 sec)
Heartbeat CPU 0 instructions: 630000001 cycles: 205681571 heartbeat IPC: 2.198 cumulative IPC: 3.002 (Simulation time: 00 hr 57 min 28 sec)
Heartbeat CPU 0 instructions: 640000004 cycles: 212420258 heartbeat IPC: 1.484 cumulative IPC: 2.951 (Simulation time: 00 hr 58 min 35 sec)
Heartbeat CPU 0 instructions: 650000001 cycles: 222630628 heartbeat IPC: 0.9794 cumulative IPC: 2.855 (Simulation time: 01 hr 00 min 06 sec)
Simulation finished CPU 0 instructions: 600000001 cycles: 210130426 cumulative IPC: 2.855 (Simulation time: 01 hr 00 min 06 sec)
Simulation complete CPU 0 instructions: 600000001 cycles: 210130426 cumulative IPC: 2.855 (Simulation time: 01 hr 00 min 06 sec)

ChampSim completed all CPUs

=== Simulation ===
CPU 0 runs traces/convolution.champsimtrace
Region of Interest Statistics

CPU 0 cumulative IPC: 2.855 instructions: 600000001 cycles: 210130426
CPU 0 Branch Prediction Accuracy: 99.3% MPKI: 1.265 Average ROB Occupancy at Mispredict: 64.14
Branch type MPKI
BRANCH_DIRECT_JUMP: 0.000107
BRANCH_INDIRECT: 4.17e-05
BRANCH_CONDITIONAL: 1.26
BRANCH_DIRECT_CALL: 0.000103
BRANCH_INDIRECT_CALL: 8.33e-06
BRANCH_RETURN: 1.83e-05

LLC TOTAL        ACCESS:    1185612 HIT:     260977 MISS:     924635
LLC LOAD         ACCESS:       2890 HIT:       1679 MISS:       1211
LLC RFO          ACCESS:     535120 HIT:      59997 MISS:     475123
LLC PREFETCH     ACCESS:       2890 HIT:       1617 MISS:       1273
LLC WRITE        ACCESS:     535171 HIT:     197039 MISS:     338132
LLC TRANSLATION  ACCESS:     109541 HIT:        645 MISS:     108896
LLC PREFETCH REQUESTED:       2890 ISSUED:       2890 USEFUL:        395 USELESS:        333
LLC AVERAGE MISS LATENCY: 585.7 cycles
cpu0_DTLB TOTAL        ACCESS:  121652297 HIT:  121298884 MISS:     353413
cpu0_DTLB LOAD         ACCESS:  121652297 HIT:  121298884 MISS:     353413
cpu0_DTLB RFO          ACCESS:          0 HIT:          0 MISS:          0
cpu0_DTLB PREFETCH     ACCESS:          0 HIT:          0 MISS:          0
cpu0_DTLB WRITE        ACCESS:          0 HIT:          0 MISS:          0
cpu0_DTLB TRANSLATION  ACCESS:          0 HIT:          0 MISS:          0
cpu0_DTLB PREFETCH REQUESTED:          0 ISSUED:          0 USEFUL:          0 USELESS:          0
cpu0_DTLB AVERAGE MISS LATENCY: 532.3 cycles
cpu0_ITLB TOTAL        ACCESS:       2015 HIT:       1980 MISS:         35
cpu0_ITLB LOAD         ACCESS:       2015 HIT:       1980 MISS:         35
cpu0_ITLB RFO          ACCESS:          0 HIT:          0 MISS:          0
cpu0_ITLB PREFETCH     ACCESS:          0 HIT:          0 MISS:          0
cpu0_ITLB WRITE        ACCESS:          0 HIT:          0 MISS:          0
cpu0_ITLB TRANSLATION  ACCESS:          0 HIT:          0 MISS:          0
cpu0_ITLB PREFETCH REQUESTED:          0 ISSUED:          0 USEFUL:          0 USELESS:          0
cpu0_ITLB AVERAGE MISS LATENCY: 632.5 cycles
cpu0_L1D TOTAL        ACCESS:  162757793 HIT:  156637009 MISS:    6120784
cpu0_L1D LOAD         ACCESS:   90529917 HIT:   90523751 MISS:       6166
cpu0_L1D RFO          ACCESS:          0 HIT:          0 MISS:          0
cpu0_L1D PREFETCH     ACCESS:          0 HIT:          0 MISS:          0
cpu0_L1D WRITE        ACCESS:   72047352 HIT:   66074538 MISS:    5972814
cpu0_L1D TRANSLATION  ACCESS:     180524 HIT:      38720 MISS:     141804
cpu0_L1D PREFETCH REQUESTED:          0 ISSUED:          0 USEFUL:          0 USELESS:          0
cpu0_L1D AVERAGE MISS LATENCY: 66.7 cycles
cpu0_L1I TOTAL        ACCESS:       2331 HIT:       1027 MISS:       1304
cpu0_L1I LOAD         ACCESS:       2331 HIT:       1027 MISS:       1304
cpu0_L1I RFO          ACCESS:          0 HIT:          0 MISS:          0
cpu0_L1I PREFETCH     ACCESS:          0 HIT:          0 MISS:          0
cpu0_L1I WRITE        ACCESS:          0 HIT:          0 MISS:          0
cpu0_L1I TRANSLATION  ACCESS:          0 HIT:          0 MISS:          0
cpu0_L1I PREFETCH REQUESTED:          0 ISSUED:          0 USEFUL:          0 USELESS:          0
cpu0_L1I AVERAGE MISS LATENCY: 391 cycles
cpu0_L2C TOTAL        ACCESS:    1190392 HIT:     542821 MISS:     647571
cpu0_L2C LOAD         ACCESS:       3314 HIT:        424 MISS:       2890
cpu0_L2C RFO          ACCESS:     538008 HIT:       2888 MISS:     535120
cpu0_L2C PREFETCH     ACCESS:          0 HIT:          0 MISS:          0
cpu0_L2C WRITE        ACCESS:     538181 HIT:     538162 MISS:         19
cpu0_L2C TRANSLATION  ACCESS:     110889 HIT:       1347 MISS:     109542
cpu0_L2C PREFETCH REQUESTED:          0 ISSUED:          0 USEFUL:          0 USELESS:          0
cpu0_L2C AVERAGE MISS LATENCY: 856.5 cycles
cpu0_STLB TOTAL        ACCESS:     156152 HIT:         43 MISS:     156109
cpu0_STLB LOAD         ACCESS:     156152 HIT:         43 MISS:     156109
cpu0_STLB RFO          ACCESS:          0 HIT:          0 MISS:          0
cpu0_STLB PREFETCH     ACCESS:          0 HIT:          0 MISS:          0
cpu0_STLB WRITE        ACCESS:          0 HIT:          0 MISS:          0
cpu0_STLB TRANSLATION  ACCESS:          0 HIT:          0 MISS:          0
cpu0_STLB PREFETCH REQUESTED:          0 ISSUED:          0 USEFUL:          0 USELESS:          0
cpu0_STLB AVERAGE MISS LATENCY: 1339 cycles

DRAM Statistics

Channel 0 RQ ROW_BUFFER_HIT:     139225
  ROW_BUFFER_MISS:     446411
 AVG DBUS CONGESTED CYCLE: 3.976
WQ ROW_BUFFER_HIT: Channel 0 
  ROW_BUFFER_MISS:     121284
  FULL:     354223
