WARNING: physical memory size is smaller than virtual memory size.

*** ChampSim Multicore Out-of-Order Simulator ***
Warmup Instructions: 50000000
Simulation Instructions: 600000000
Number of CPUs: 1
Page size: 4096

Off-chip DRAM Size: 4 GiB Channels: 1 Width: 64-bit Data Race: 3200 MT/s
Heartbeat CPU 0 instructions: 10000000 cycles: 2500202 heartbeat IPC: 4 cumulative IPC: 4 (Simulation time: 00 hr 00 min 33 sec)
Heartbeat CPU 0 instructions: 20000000 cycles: 5000202 heartbeat IPC: 4 cumulative IPC: 4 (Simulation time: 00 hr 01 min 07 sec)
Heartbeat CPU 0 instructions: 30000000 cycles: 7500202 heartbeat IPC: 4 cumulative IPC: 4 (Simulation time: 00 hr 01 min 41 sec)
Heartbeat CPU 0 instructions: 40000000 cycles: 10000202 heartbeat IPC: 4 cumulative IPC: 4 (Simulation time: 00 hr 02 min 15 sec)
Heartbeat CPU 0 instructions: 50000000 cycles: 12500202 heartbeat IPC: 4 cumulative IPC: 4 (Simulation time: 00 hr 02 min 50 sec)
Warmup finished CPU 0 instructions: 50000000 cycles: 12500203 cumulative IPC: 4 (Simulation time: 00 hr 02 min 50 sec)
Warmup complete CPU 0 instructions: 50000000 cycles: 12500203 cumulative IPC: 4 (Simulation time: 00 hr 02 min 50 sec)
Heartbeat CPU 0 instructions: 60000002 cycles: 15730127 heartbeat IPC: 3.096 cumulative IPC: 3.096 (Simulation time: 00 hr 03 min 31 sec)
Heartbeat CPU 0 instructions: 70000002 cycles: 18384734 heartbeat IPC: 3.767 cumulative IPC: 3.399 (Simulation time: 00 hr 04 min 09 sec)
Heartbeat CPU 0 instructions: 80000003 cycles: 21045574 heartbeat IPC: 3.758 cumulative IPC: 3.511 (Simulation time: 00 hr 04 min 44 sec)
Heartbeat CPU 0 instructions: 90000004 cycles: 23704758 heartbeat IPC: 3.761 cumulative IPC: 3.57 (Simulation time: 00 hr 05 min 21 sec)
Heartbeat CPU 0 instructions: 100000003 cycles: 26362901 heartbeat IPC: 3.762 cumulative IPC: 3.607 (Simulation time: 00 hr 05 min 58 sec)
Heartbeat CPU 0 instructions: 110000000 cycles: 29019013 heartbeat IPC: 3.765 cumulative IPC: 3.632 (Simulation time: 00 hr 06 min 34 sec)
Heartbeat CPU 0 instructions: 120000000 cycles: 31678392 heartbeat IPC: 3.76 cumulative IPC: 3.65 (Simulation time: 00 hr 07 min 10 sec)
Heartbeat CPU 0 instructions: 130000000 cycles: 34335087 heartbeat IPC: 3.764 cumulative IPC: 3.664 (Simulation time: 00 hr 07 min 51 sec)
Heartbeat CPU 0 instructions: 140000001 cycles: 36993200 heartbeat IPC: 3.762 cumulative IPC: 3.675 (Simulation time: 00 hr 08 min 30 sec)
Heartbeat CPU 0 instructions: 150000003 cycles: 39649904 heartbeat IPC: 3.764 cumulative IPC: 3.683 (Simulation time: 00 hr 09 min 08 sec)
Heartbeat CPU 0 instructions: 160000003 cycles: 42305414 heartbeat IPC: 3.766 cumulative IPC: 3.691 (Simulation time: 00 hr 09 min 46 sec)
Heartbeat CPU 0 instructions: 170000001 cycles: 44963539 heartbeat IPC: 3.762 cumulative IPC: 3.696 (Simulation time: 00 hr 10 min 23 sec)
Heartbeat CPU 0 instructions: 180000001 cycles: 47617126 heartbeat IPC: 3.768 cumulative IPC: 3.702 (Simulation time: 00 hr 11 min 02 sec)
Heartbeat CPU 0 instructions: 190000002 cycles: 50271165 heartbeat IPC: 3.768 cumulative IPC: 3.707 (Simulation time: 00 hr 11 min 40 sec)
Heartbeat CPU 0 instructions: 200000001 cycles: 52925834 heartbeat IPC: 3.767 cumulative IPC: 3.711 (Simulation time: 00 hr 12 min 16 sec)
Heartbeat CPU 0 instructions: 210000000 cycles: 55582680 heartbeat IPC: 3.764 cumulative IPC: 3.714 (Simulation time: 00 hr 12 min 54 sec)
Heartbeat CPU 0 instructions: 220000001 cycles: 58246421 heartbeat IPC: 3.754 cumulative IPC: 3.716 (Simulation time: 00 hr 13 min 30 sec)
Heartbeat CPU 0 instructions: 230000002 cycles: 60904917 heartbeat IPC: 3.762 cumulative IPC: 3.719 (Simulation time: 00 hr 14 min 08 sec)
Heartbeat CPU 0 instructions: 240000004 cycles: 63562722 heartbeat IPC: 3.763 cumulative IPC: 3.721 (Simulation time: 00 hr 14 min 47 sec)
Heartbeat CPU 0 instructions: 250000000 cycles: 66221251 heartbeat IPC: 3.761 cumulative IPC: 3.723 (Simulation time: 00 hr 15 min 29 sec)
Heartbeat CPU 0 instructions: 260000000 cycles: 68882715 heartbeat IPC: 3.757 cumulative IPC: 3.725 (Simulation time: 00 hr 16 min 09 sec)
Heartbeat CPU 0 instructions: 270000002 cycles: 71537812 heartbeat IPC: 3.766 cumulative IPC: 3.726 (Simulation time: 00 hr 16 min 50 sec)
Heartbeat CPU 0 instructions: 280000003 cycles: 74196168 heartbeat IPC: 3.762 cumulative IPC: 3.728 (Simulation time: 00 hr 17 min 27 sec)
Heartbeat CPU 0 instructions: 290000002 cycles: 76853742 heartbeat IPC: 3.763 cumulative IPC: 3.729 (Simulation time: 00 hr 18 min 03 sec)
Heartbeat CPU 0 instructions: 300000000 cycles: 79512452 heartbeat IPC: 3.761 cumulative IPC: 3.731 (Simulation time: 00 hr 18 min 39 sec)
Heartbeat CPU 0 instructions: 310000002 cycles: 82171461 heartbeat IPC: 3.761 cumulative IPC: 3.732 (Simulation time: 00 hr 19 min 17 sec)
Heartbeat CPU 0 instructions: 320000004 cycles: 84826832 heartbeat IPC: 3.766 cumulative IPC: 3.733 (Simulation time: 00 hr 19 min 56 sec)
Heartbeat CPU 0 instructions: 330000000 cycles: 87484690 heartbeat IPC: 3.762 cumulative IPC: 3.734 (Simulation time: 00 hr 20 min 36 sec)
Heartbeat CPU 0 instructions: 340000002 cycles: 90142612 heartbeat IPC: 3.762 cumulative IPC: 3.735 (Simulation time: 00 hr 21 min 16 sec)
Heartbeat CPU 0 instructions: 350000002 cycles: 92799585 heartbeat IPC: 3.764 cumulative IPC: 3.736 (Simulation time: 00 hr 21 min 56 sec)
Heartbeat CPU 0 instructions: 360000001 cycles: 95457291 heartbeat IPC: 3.763 cumulative IPC: 3.737 (Simulation time: 00 hr 22 min 34 sec)
Heartbeat CPU 0 instructions: 370000004 cycles: 98112754 heartbeat IPC: 3.766 cumulative IPC: 3.738 (Simulation time: 00 hr 23 min 08 sec)
Heartbeat CPU 0 instructions: 380000000 cycles: 100770634 heartbeat IPC: 3.762 cumulative IPC: 3.739 (Simulation time: 00 hr 23 min 43 sec)
Heartbeat CPU 0 instructions: 390000003 cycles: 103427413 heartbeat IPC: 3.764 cumulative IPC: 3.739 (Simulation time: 00 hr 24 min 18 sec)
Heartbeat CPU 0 instructions: 400000000 cycles: 106083709 heartbeat IPC: 3.765 cumulative IPC: 3.74 (Simulation time: 00 hr 24 min 53 sec)
Heartbeat CPU 0 instructions: 410000000 cycles: 108742486 heartbeat IPC: 3.761 cumulative IPC: 3.741 (Simulation time: 00 hr 25 min 28 sec)
Heartbeat CPU 0 instructions: 420000001 cycles: 111398061 heartbeat IPC: 3.766 cumulative IPC: 3.741 (Simulation time: 00 hr 26 min 04 sec)
Heartbeat CPU 0 instructions: 430000003 cycles: 114051521 heartbeat IPC: 3.769 cumulative IPC: 3.742 (Simulation time: 00 hr 26 min 42 sec)
Heartbeat CPU 0 instructions: 440000003 cycles: 116713530 heartbeat IPC: 3.757 cumulative IPC: 3.742 (Simulation time: 00 hr 27 min 18 sec)
Heartbeat CPU 0 instructions: 450000004 cycles: 119377401 heartbeat IPC: 3.754 cumulative IPC: 3.743 (Simulation time: 00 hr 27 min 52 sec)
Heartbeat CPU 0 instructions: 460000001 cycles: 122038480 heartbeat IPC: 3.758 cumulative IPC: 3.743 (Simulation time: 00 hr 28 min 26 sec)
Heartbeat CPU 0 instructions: 470000002 cycles: 124695328 heartbeat IPC: 3.764 cumulative IPC: 3.743 (Simulation time: 00 hr 29 min 00 sec)
Heartbeat CPU 0 instructions: 480000001 cycles: 127352715 heartbeat IPC: 3.763 cumulative IPC: 3.744 (Simulation time: 00 hr 29 min 35 sec)
Heartbeat CPU 0 instructions: 490000000 cycles: 130013236 heartbeat IPC: 3.759 cumulative IPC: 3.744 (Simulation time: 00 hr 30 min 16 sec)
Heartbeat CPU 0 instructions: 500000002 cycles: 132678250 heartbeat IPC: 3.752 cumulative IPC: 3.744 (Simulation time: 00 hr 30 min 54 sec)
Heartbeat CPU 0 instructions: 510000003 cycles: 135334606 heartbeat IPC: 3.765 cumulative IPC: 3.745 (Simulation time: 00 hr 31 min 32 sec)
Heartbeat CPU 0 instructions: 520000004 cycles: 137995496 heartbeat IPC: 3.758 cumulative IPC: 3.745 (Simulation time: 00 hr 32 min 11 sec)
Heartbeat CPU 0 instructions: 530000000 cycles: 140651067 heartbeat IPC: 3.766 cumulative IPC: 3.746 (Simulation time: 00 hr 32 min 45 sec)
Heartbeat CPU 0 instructions: 540000000 cycles: 143313975 heartbeat IPC: 3.755 cumulative IPC: 3.746 (Simulation time: 00 hr 33 min 19 sec)
Heartbeat CPU 0 instructions: 550000003 cycles: 145970546 heartbeat IPC: 3.764 cumulative IPC: 3.746 (Simulation time: 00 hr 33 min 55 sec)
Heartbeat CPU 0 instructions: 560000003 cycles: 148628301 heartbeat IPC: 3.763 cumulative IPC: 3.746 (Simulation time: 00 hr 35 min 00 sec)
Heartbeat CPU 0 instructions: 570000004 cycles: 151286022 heartbeat IPC: 3.763 cumulative IPC: 3.747 (Simulation time: 00 hr 36 min 11 sec)
Heartbeat CPU 0 instructions: 580000000 cycles: 153944254 heartbeat IPC: 3.762 cumulative IPC: 3.747 (Simulation time: 00 hr 37 min 32 sec)
Heartbeat CPU 0 instructions: 590000002 cycles: 156603944 heartbeat IPC: 3.76 cumulative IPC: 3.747 (Simulation time: 00 hr 38 min 52 sec)
*** Reached end of trace: (0, "traces/convolution.champsimtrace")
Heartbeat CPU 0 instructions: 600000000 cycles: 159265300 heartbeat IPC: 3.757 cumulative IPC: 3.747 (Simulation time: 00 hr 40 min 07 sec)
Heartbeat CPU 0 instructions: 610000002 cycles: 181532465 heartbeat IPC: 0.4491 cumulative IPC: 3.313 (Simulation time: 00 hr 46 min 23 sec)
Heartbeat CPU 0 instructions: 620000001 cycles: 201408628 heartbeat IPC: 0.5031 cumulative IPC: 3.017 (Simulation time: 00 hr 52 min 25 sec)
Heartbeat CPU 0 instructions: 630000001 cycles: 206078992 heartbeat IPC: 2.141 cumulative IPC: 2.996 (Simulation time: 00 hr 54 min 23 sec)
Heartbeat CPU 0 instructions: 640000004 cycles: 216358263 heartbeat IPC: 0.9728 cumulative IPC: 2.894 (Simulation time: 00 hr 57 min 45 sec)
Heartbeat CPU 0 instructions: 650000001 cycles: 227152903 heartbeat IPC: 0.9264 cumulative IPC: 2.795 (Simulation time: 01 hr 01 min 08 sec)
Simulation finished CPU 0 instructions: 600000001 cycles: 214652701 cumulative IPC: 2.795 (Simulation time: 01 hr 01 min 08 sec)
Simulation complete CPU 0 instructions: 600000001 cycles: 214652701 cumulative IPC: 2.795 (Simulation time: 01 hr 01 min 08 sec)

ChampSim completed all CPUs

=== Simulation ===
CPU 0 runs traces/convolution.champsimtrace
Region of Interest Statistics

CPU 0 cumulative IPC: 2.795 instructions: 600000001 cycles: 214652701
CPU 0 Branch Prediction Accuracy: 99.47% MPKI: 0.9507 Average ROB Occupancy at Mispredict: 69.18
Branch type MPKI
BRANCH_DIRECT_JUMP: 0.000107
BRANCH_INDIRECT: 4.17e-05
BRANCH_CONDITIONAL: 0.95
BRANCH_DIRECT_CALL: 0.000103
BRANCH_INDIRECT_CALL: 8.33e-06
BRANCH_RETURN: 1.83e-05

LLC TOTAL        ACCESS:    1185576 HIT:     241052 MISS:     944524
LLC LOAD         ACCESS:       2888 HIT:       1481 MISS:       1407
LLC RFO          ACCESS:     535118 HIT:      30808 MISS:     504310
LLC PREFETCH     ACCESS:       2888 HIT:       1071 MISS:       1817
LLC WRITE        ACCESS:     535166 HIT:     177180 MISS:     357986
LLC TRANSLATION  ACCESS:     109516 HIT:      30512 MISS:      79004
LLC PREFETCH REQUESTED:       2888 ISSUED:       2888 USEFUL:       1095 USELESS:        308
LLC AVERAGE MISS LATENCY: 643.4 cycles
cpu0_DTLB TOTAL        ACCESS:  120371374 HIT:  120055952 MISS:     315422
cpu0_DTLB LOAD         ACCESS:  120371374 HIT:  120055952 MISS:     315422
cpu0_DTLB RFO          ACCESS:          0 HIT:          0 MISS:          0
cpu0_DTLB PREFETCH     ACCESS:          0 HIT:          0 MISS:          0
cpu0_DTLB WRITE        ACCESS:          0 HIT:          0 MISS:          0
cpu0_DTLB TRANSLATION  ACCESS:          0 HIT:          0 MISS:          0
cpu0_DTLB PREFETCH REQUESTED:          0 ISSUED:          0 USEFUL:          0 USELESS:          0
cpu0_DTLB AVERAGE MISS LATENCY: 660.6 cycles
cpu0_ITLB TOTAL        ACCESS:       2015 HIT:       1983 MISS:         32
cpu0_ITLB LOAD         ACCESS:       2015 HIT:       1983 MISS:         32
cpu0_ITLB RFO          ACCESS:          0 HIT:          0 MISS:          0
cpu0_ITLB PREFETCH     ACCESS:          0 HIT:          0 MISS:          0
cpu0_ITLB WRITE        ACCESS:          0 HIT:          0 MISS:          0
cpu0_ITLB TRANSLATION  ACCESS:          0 HIT:          0 MISS:          0
cpu0_ITLB PREFETCH REQUESTED:          0 ISSUED:          0 USEFUL:          0 USELESS:          0
cpu0_ITLB AVERAGE MISS LATENCY: 651.7 cycles
cpu0_L1D TOTAL        ACCESS:  161408406 HIT:  155286044 MISS:    6122362
cpu0_L1D LOAD         ACCESS:   89136604 HIT:   89130439 MISS:       6165
cpu0_L1D RFO          ACCESS:          0 HIT:          0 MISS:          0
cpu0_L1D PREFETCH     ACCESS:          0 HIT:          0 MISS:          0
cpu0_L1D WRITE        ACCESS:   72091324 HIT:   66121952 MISS:    5969372
cpu0_L1D TRANSLATION  ACCESS:     180478 HIT:      33653 MISS:     146825
cpu0_L1D PREFETCH REQUESTED:          0 ISSUED:          0 USEFUL:          0 USELESS:          0
cpu0_L1D AVERAGE MISS LATENCY: 78.95 cycles
cpu0_L1I TOTAL        ACCESS:       2311 HIT:       1014 MISS:       1297
cpu0_L1I LOAD         ACCESS:       2311 HIT:       1014 MISS:       1297
cpu0_L1I RFO          ACCESS:          0 HIT:          0 MISS:          0
cpu0_L1I PREFETCH     ACCESS:          0 HIT:          0 MISS:          0
cpu0_L1I WRITE        ACCESS:          0 HIT:          0 MISS:          0
cpu0_L1I TRANSLATION  ACCESS:          0 HIT:          0 MISS:          0
cpu0_L1I PREFETCH REQUESTED:          0 ISSUED:          0 USEFUL:          0 USELESS:          0
cpu0_L1I AVERAGE MISS LATENCY: 466.3 cycles
cpu0_L2C TOTAL        ACCESS:    1190388 HIT:     542848 MISS:     647540
cpu0_L2C LOAD         ACCESS:       3314 HIT:        426 MISS:       2888
cpu0_L2C RFO          ACCESS:     538011 HIT:       2893 MISS:     535118
cpu0_L2C PREFETCH     ACCESS:          0 HIT:          0 MISS:          0
cpu0_L2C WRITE        ACCESS:     538204 HIT:     538186 MISS:         18
cpu0_L2C TRANSLATION  ACCESS:     110859 HIT:       1343 MISS:     109516
cpu0_L2C PREFETCH REQUESTED:          0 ISSUED:          0 USEFUL:          0 USELESS:          0
cpu0_L2C AVERAGE MISS LATENCY: 957.6 cycles
cpu0_STLB TOTAL        ACCESS:     156162 HIT:         49 MISS:     156113
cpu0_STLB LOAD         ACCESS:     156162 HIT:         49 MISS:     156113
cpu0_STLB RFO          ACCESS:          0 HIT:          0 MISS:          0
cpu0_STLB PREFETCH     ACCESS:          0 HIT:          0 MISS:          0
cpu0_STLB WRITE        ACCESS:          0 HIT:          0 MISS:          0
cpu0_STLB TRANSLATION  ACCESS:          0 HIT:          0 MISS:          0
cpu0_STLB PREFETCH REQUESTED:          0 ISSUED:          0 USEFUL:          0 USELESS:          0
cpu0_STLB AVERAGE MISS LATENCY: 1480 cycles

DRAM Statistics

Channel 0 RQ ROW_BUFFER_HIT:     128181
  ROW_BUFFER_MISS:     457451
 AVG DBUS CONGESTED CYCLE: 3.977
WQ ROW_BUFFER_HIT: Channel 0 
  ROW_BUFFER_MISS:     113889
  FULL:     390433
