WARNING: physical memory size is smaller than virtual memory size.

*** ChampSim Multicore Out-of-Order Simulator ***
Warmup Instructions: 50000000
Simulation Instructions: 600000000
Number of CPUs: 1
Page size: 4096

Off-chip DRAM Size: 4 GiB Channels: 1 Width: 64-bit Data Race: 3200 MT/s
Heartbeat CPU 0 instructions: 10000002 cycles: 2500202 heartbeat IPC: 4 cumulative IPC: 4 (Simulation time: 00 hr 00 min 47 sec)
Heartbeat CPU 0 instructions: 20000002 cycles: 5000202 heartbeat IPC: 4 cumulative IPC: 4 (Simulation time: 00 hr 01 min 37 sec)
Heartbeat CPU 0 instructions: 30000002 cycles: 7500202 heartbeat IPC: 4 cumulative IPC: 4 (Simulation time: 00 hr 02 min 25 sec)
Heartbeat CPU 0 instructions: 40000002 cycles: 10000202 heartbeat IPC: 4 cumulative IPC: 4 (Simulation time: 00 hr 03 min 13 sec)
Heartbeat CPU 0 instructions: 50000002 cycles: 12500202 heartbeat IPC: 4 cumulative IPC: 4 (Simulation time: 00 hr 04 min 07 sec)
Warmup finished CPU 0 instructions: 50000002 cycles: 12500203 cumulative IPC: 4 (Simulation time: 00 hr 04 min 07 sec)
Warmup complete CPU 0 instructions: 50000002 cycles: 12500203 cumulative IPC: 4 (Simulation time: 00 hr 04 min 07 sec)
Heartbeat CPU 0 instructions: 60000004 cycles: 15770399 heartbeat IPC: 3.058 cumulative IPC: 3.058 (Simulation time: 00 hr 05 min 17 sec)
Heartbeat CPU 0 instructions: 70000000 cycles: 18464364 heartbeat IPC: 3.712 cumulative IPC: 3.353 (Simulation time: 00 hr 06 min 21 sec)
Heartbeat CPU 0 instructions: 80000003 cycles: 21160151 heartbeat IPC: 3.709 cumulative IPC: 3.464 (Simulation time: 00 hr 07 min 26 sec)
Heartbeat CPU 0 instructions: 90000004 cycles: 23854143 heartbeat IPC: 3.712 cumulative IPC: 3.523 (Simulation time: 00 hr 08 min 31 sec)
Heartbeat CPU 0 instructions: 100000004 cycles: 26548121 heartbeat IPC: 3.712 cumulative IPC: 3.559 (Simulation time: 00 hr 09 min 33 sec)
Heartbeat CPU 0 instructions: 110000004 cycles: 29242420 heartbeat IPC: 3.712 cumulative IPC: 3.584 (Simulation time: 00 hr 10 min 32 sec)
Heartbeat CPU 0 instructions: 120000000 cycles: 31939698 heartbeat IPC: 3.707 cumulative IPC: 3.601 (Simulation time: 00 hr 11 min 30 sec)
Heartbeat CPU 0 instructions: 130000000 cycles: 34633966 heartbeat IPC: 3.712 cumulative IPC: 3.614 (Simulation time: 00 hr 12 min 27 sec)
Heartbeat CPU 0 instructions: 140000004 cycles: 37328031 heartbeat IPC: 3.712 cumulative IPC: 3.625 (Simulation time: 00 hr 13 min 23 sec)
Heartbeat CPU 0 instructions: 150000004 cycles: 40021923 heartbeat IPC: 3.712 cumulative IPC: 3.633 (Simulation time: 00 hr 14 min 20 sec)
Heartbeat CPU 0 instructions: 160000000 cycles: 42715767 heartbeat IPC: 3.712 cumulative IPC: 3.641 (Simulation time: 00 hr 15 min 18 sec)
Heartbeat CPU 0 instructions: 170000000 cycles: 45409495 heartbeat IPC: 3.712 cumulative IPC: 3.646 (Simulation time: 00 hr 16 min 15 sec)
Heartbeat CPU 0 instructions: 180000000 cycles: 48106789 heartbeat IPC: 3.707 cumulative IPC: 3.651 (Simulation time: 00 hr 17 min 11 sec)
Heartbeat CPU 0 instructions: 190000000 cycles: 50802966 heartbeat IPC: 3.709 cumulative IPC: 3.655 (Simulation time: 00 hr 18 min 05 sec)
Heartbeat CPU 0 instructions: 200000003 cycles: 53496777 heartbeat IPC: 3.712 cumulative IPC: 3.659 (Simulation time: 00 hr 19 min 06 sec)
Heartbeat CPU 0 instructions: 210000004 cycles: 56190682 heartbeat IPC: 3.712 cumulative IPC: 3.662 (Simulation time: 00 hr 20 min 03 sec)
Heartbeat CPU 0 instructions: 220000004 cycles: 58887418 heartbeat IPC: 3.708 cumulative IPC: 3.665 (Simulation time: 00 hr 21 min 01 sec)
Heartbeat CPU 0 instructions: 230000000 cycles: 61582202 heartbeat IPC: 3.711 cumulative IPC: 3.667 (Simulation time: 00 hr 21 min 59 sec)
Heartbeat CPU 0 instructions: 240000000 cycles: 64276266 heartbeat IPC: 3.712 cumulative IPC: 3.67 (Simulation time: 00 hr 22 min 57 sec)
Heartbeat CPU 0 instructions: 250000003 cycles: 66970120 heartbeat IPC: 3.712 cumulative IPC: 3.672 (Simulation time: 00 hr 23 min 56 sec)
Heartbeat CPU 0 instructions: 260000004 cycles: 69665426 heartbeat IPC: 3.71 cumulative IPC: 3.674 (Simulation time: 00 hr 24 min 55 sec)
Heartbeat CPU 0 instructions: 270000004 cycles: 72363111 heartbeat IPC: 3.707 cumulative IPC: 3.675 (Simulation time: 00 hr 25 min 54 sec)
Heartbeat CPU 0 instructions: 280000000 cycles: 75058470 heartbeat IPC: 3.71 cumulative IPC: 3.677 (Simulation time: 00 hr 26 min 53 sec)
Heartbeat CPU 0 instructions: 290000000 cycles: 77752409 heartbeat IPC: 3.712 cumulative IPC: 3.678 (Simulation time: 00 hr 27 min 50 sec)
Heartbeat CPU 0 instructions: 300000001 cycles: 80446313 heartbeat IPC: 3.712 cumulative IPC: 3.679 (Simulation time: 00 hr 28 min 53 sec)
Heartbeat CPU 0 instructions: 310000004 cycles: 83140075 heartbeat IPC: 3.712 cumulative IPC: 3.681 (Simulation time: 00 hr 29 min 54 sec)
Heartbeat CPU 0 instructions: 320000003 cycles: 85838129 heartbeat IPC: 3.706 cumulative IPC: 3.682 (Simulation time: 00 hr 30 min 53 sec)
Heartbeat CPU 0 instructions: 330000004 cycles: 88532517 heartbeat IPC: 3.711 cumulative IPC: 3.683 (Simulation time: 00 hr 31 min 52 sec)
Heartbeat CPU 0 instructions: 340000004 cycles: 91226526 heartbeat IPC: 3.712 cumulative IPC: 3.684 (Simulation time: 00 hr 32 min 50 sec)
Heartbeat CPU 0 instructions: 350000000 cycles: 93920308 heartbeat IPC: 3.712 cumulative IPC: 3.685 (Simulation time: 00 hr 33 min 49 sec)
Heartbeat CPU 0 instructions: 360000000 cycles: 96614148 heartbeat IPC: 3.712 cumulative IPC: 3.685 (Simulation time: 00 hr 34 min 48 sec)
Heartbeat CPU 0 instructions: 370000004 cycles: 99310889 heartbeat IPC: 3.708 cumulative IPC: 3.686 (Simulation time: 00 hr 35 min 32 sec)
Heartbeat CPU 0 instructions: 380000004 cycles: 102005398 heartbeat IPC: 3.711 cumulative IPC: 3.687 (Simulation time: 00 hr 36 min 16 sec)
Heartbeat CPU 0 instructions: 390000004 cycles: 104699340 heartbeat IPC: 3.712 cumulative IPC: 3.688 (Simulation time: 00 hr 37 min 00 sec)
Heartbeat CPU 0 instructions: 400000000 cycles: 107393257 heartbeat IPC: 3.712 cumulative IPC: 3.688 (Simulation time: 00 hr 37 min 43 sec)
Heartbeat CPU 0 instructions: 410000000 cycles: 110088598 heartbeat IPC: 3.71 cumulative IPC: 3.689 (Simulation time: 00 hr 38 min 27 sec)
Heartbeat CPU 0 instructions: 420000004 cycles: 112784683 heartbeat IPC: 3.709 cumulative IPC: 3.69 (Simulation time: 00 hr 39 min 17 sec)
Heartbeat CPU 0 instructions: 430000004 cycles: 115480013 heartbeat IPC: 3.71 cumulative IPC: 3.69 (Simulation time: 00 hr 40 min 07 sec)
Heartbeat CPU 0 instructions: 440000004 cycles: 118173910 heartbeat IPC: 3.712 cumulative IPC: 3.691 (Simulation time: 00 hr 40 min 53 sec)
Heartbeat CPU 0 instructions: 450000004 cycles: 120867766 heartbeat IPC: 3.712 cumulative IPC: 3.691 (Simulation time: 00 hr 41 min 39 sec)
Heartbeat CPU 0 instructions: 460000004 cycles: 123563955 heartbeat IPC: 3.709 cumulative IPC: 3.692 (Simulation time: 00 hr 42 min 25 sec)
Heartbeat CPU 0 instructions: 470000000 cycles: 126258736 heartbeat IPC: 3.711 cumulative IPC: 3.692 (Simulation time: 00 hr 43 min 09 sec)
Heartbeat CPU 0 instructions: 480000000 cycles: 128954218 heartbeat IPC: 3.71 cumulative IPC: 3.692 (Simulation time: 00 hr 43 min 53 sec)
Heartbeat CPU 0 instructions: 490000004 cycles: 131648144 heartbeat IPC: 3.712 cumulative IPC: 3.693 (Simulation time: 00 hr 44 min 36 sec)
Heartbeat CPU 0 instructions: 500000004 cycles: 134341971 heartbeat IPC: 3.712 cumulative IPC: 3.693 (Simulation time: 00 hr 45 min 18 sec)
Heartbeat CPU 0 instructions: 510000004 cycles: 137038602 heartbeat IPC: 3.708 cumulative IPC: 3.694 (Simulation time: 00 hr 46 min 01 sec)
Heartbeat CPU 0 instructions: 520000000 cycles: 139732889 heartbeat IPC: 3.712 cumulative IPC: 3.694 (Simulation time: 00 hr 46 min 43 sec)
Heartbeat CPU 0 instructions: 530000000 cycles: 142426791 heartbeat IPC: 3.712 cumulative IPC: 3.694 (Simulation time: 00 hr 47 min 25 sec)
Heartbeat CPU 0 instructions: 540000004 cycles: 145120778 heartbeat IPC: 3.712 cumulative IPC: 3.695 (Simulation time: 00 hr 48 min 07 sec)
Heartbeat CPU 0 instructions: 550000004 cycles: 147814552 heartbeat IPC: 3.712 cumulative IPC: 3.695 (Simulation time: 00 hr 48 min 51 sec)
Heartbeat CPU 0 instructions: 560000000 cycles: 150513312 heartbeat IPC: 3.705 cumulative IPC: 3.695 (Simulation time: 00 hr 49 min 37 sec)
Heartbeat CPU 0 instructions: 570000000 cycles: 153208689 heartbeat IPC: 3.71 cumulative IPC: 3.696 (Simulation time: 00 hr 50 min 28 sec)
Heartbeat CPU 0 instructions: 580000000 cycles: 155902565 heartbeat IPC: 3.712 cumulative IPC: 3.696 (Simulation time: 00 hr 51 min 17 sec)
Heartbeat CPU 0 instructions: 590000000 cycles: 158596427 heartbeat IPC: 3.712 cumulative IPC: 3.696 (Simulation time: 00 hr 52 min 07 sec)
*** Reached end of trace: (0, "traces/convolution.champsimtrace")
Heartbeat CPU 0 instructions: 600000000 cycles: 161297735 heartbeat IPC: 3.702 cumulative IPC: 3.696 (Simulation time: 00 hr 52 min 56 sec)
Heartbeat CPU 0 instructions: 610000004 cycles: 187184941 heartbeat IPC: 0.3863 cumulative IPC: 3.206 (Simulation time: 00 hr 57 min 09 sec)
Heartbeat CPU 0 instructions: 620000000 cycles: 210400403 heartbeat IPC: 0.4307 cumulative IPC: 2.88 (Simulation time: 01 hr 00 min 56 sec)
Heartbeat CPU 0 instructions: 630000001 cycles: 220802297 heartbeat IPC: 0.9614 cumulative IPC: 2.784 (Simulation time: 01 hr 02 min 48 sec)
Heartbeat CPU 0 instructions: 640000002 cycles: 231169069 heartbeat IPC: 0.9646 cumulative IPC: 2.698 (Simulation time: 01 hr 04 min 41 sec)
Heartbeat CPU 0 instructions: 650000004 cycles: 241491487 heartbeat IPC: 0.9688 cumulative IPC: 2.62 (Simulation time: 01 hr 06 min 33 sec)
Simulation finished CPU 0 instructions: 600000002 cycles: 228991285 cumulative IPC: 2.62 (Simulation time: 01 hr 06 min 33 sec)
Simulation complete CPU 0 instructions: 600000002 cycles: 228991285 cumulative IPC: 2.62 (Simulation time: 01 hr 06 min 33 sec)

ChampSim completed all CPUs

=== Simulation ===
CPU 0 runs traces/convolution.champsimtrace
Region of Interest Statistics

CPU 0 cumulative IPC: 2.62 instructions: 600000002 cycles: 228991285
CPU 0 Branch Prediction Accuracy: 99.34% MPKI: 1.278 Average ROB Occupancy at Mispredict: 84.5
Branch type MPKI
BRANCH_DIRECT_JUMP: 1e-05
BRANCH_INDIRECT: 4.67e-05
BRANCH_CONDITIONAL: 1.28
BRANCH_DIRECT_CALL: 6.67e-06
BRANCH_INDIRECT_CALL: 8.33e-06
BRANCH_RETURN: 2.17e-05

LLC TOTAL        ACCESS:    1191908 HIT:     242720 MISS:     949188
LLC LOAD         ACCESS:       2893 HIT:         21 MISS:       2872
LLC RFO          ACCESS:     539059 HIT:        157 MISS:     538902
LLC PREFETCH     ACCESS:          0 HIT:          0 MISS:          0
LLC WRITE        ACCESS:     539105 HIT:     242520 MISS:     296585
LLC TRANSLATION  ACCESS:     110851 HIT:         22 MISS:     110829
LLC PREFETCH REQUESTED:          0 ISSUED:          0 USEFUL:          0 USELESS:          0
LLC AVERAGE MISS LATENCY: 695.2 cycles
cpu0_DTLB TOTAL        ACCESS:  122863821 HIT:  122511934 MISS:     351887
cpu0_DTLB LOAD         ACCESS:  122863821 HIT:  122511934 MISS:     351887
cpu0_DTLB RFO          ACCESS:          0 HIT:          0 MISS:          0
cpu0_DTLB PREFETCH     ACCESS:          0 HIT:          0 MISS:          0
cpu0_DTLB WRITE        ACCESS:          0 HIT:          0 MISS:          0
cpu0_DTLB TRANSLATION  ACCESS:          0 HIT:          0 MISS:          0
cpu0_DTLB PREFETCH REQUESTED:          0 ISSUED:          0 USEFUL:          0 USELESS:          0
cpu0_DTLB AVERAGE MISS LATENCY: 681.4 cycles
cpu0_ITLB TOTAL        ACCESS:       2028 HIT:       1969 MISS:         59
cpu0_ITLB LOAD         ACCESS:       2028 HIT:       1969 MISS:         59
cpu0_ITLB RFO          ACCESS:          0 HIT:          0 MISS:          0
cpu0_ITLB PREFETCH     ACCESS:          0 HIT:          0 MISS:          0
cpu0_ITLB WRITE        ACCESS:          0 HIT:          0 MISS:          0
cpu0_ITLB TRANSLATION  ACCESS:          0 HIT:          0 MISS:          0
cpu0_ITLB PREFETCH REQUESTED:          0 ISSUED:          0 USEFUL:          0 USELESS:          0
cpu0_ITLB AVERAGE MISS LATENCY: 1077 cycles
cpu0_L1D TOTAL        ACCESS:  155163401 HIT:  148925301 MISS:    6238100
cpu0_L1D LOAD         ACCESS:   82265598 HIT:   82259386 MISS:       6212
cpu0_L1D RFO          ACCESS:          0 HIT:          0 MISS:          0
cpu0_L1D PREFETCH     ACCESS:          0 HIT:          0 MISS:          0
cpu0_L1D WRITE        ACCESS:   72716140 HIT:   66626901 MISS:    6089239
cpu0_L1D TRANSLATION  ACCESS:     181663 HIT:      39014 MISS:     142649
cpu0_L1D PREFETCH REQUESTED:          0 ISSUED:          0 USEFUL:          0 USELESS:          0
cpu0_L1D AVERAGE MISS LATENCY: 81 cycles
cpu0_L1I TOTAL        ACCESS:       2369 HIT:       1041 MISS:       1328
cpu0_L1I LOAD         ACCESS:       2369 HIT:       1041 MISS:       1328
cpu0_L1I RFO          ACCESS:          0 HIT:          0 MISS:          0
cpu0_L1I PREFETCH     ACCESS:          0 HIT:          0 MISS:          0
cpu0_L1I WRITE        ACCESS:          0 HIT:          0 MISS:          0
cpu0_L1I TRANSLATION  ACCESS:          0 HIT:          0 MISS:          0
cpu0_L1I PREFETCH REQUESTED:          0 ISSUED:          0 USEFUL:          0 USELESS:          0
cpu0_L1I AVERAGE MISS LATENCY: 1037 cycles
cpu0_L2C TOTAL        ACCESS:    1200656 HIT:     547836 MISS:     652820
cpu0_L2C LOAD         ACCESS:       3321 HIT:        428 MISS:       2893
cpu0_L2C RFO          ACCESS:     542397 HIT:       3338 MISS:     539059
cpu0_L2C PREFETCH     ACCESS:          0 HIT:          0 MISS:          0
cpu0_L2C WRITE        ACCESS:     542550 HIT:     542533 MISS:         17
cpu0_L2C TRANSLATION  ACCESS:     112388 HIT:       1537 MISS:     110851
cpu0_L2C PREFETCH REQUESTED:          0 ISSUED:          0 USEFUL:          0 USELESS:          0
cpu0_L2C AVERAGE MISS LATENCY: 1032 cycles
cpu0_STLB TOTAL        ACCESS:     156214 HIT:         40 MISS:     156174
cpu0_STLB LOAD         ACCESS:     156214 HIT:         40 MISS:     156174
cpu0_STLB RFO          ACCESS:          0 HIT:          0 MISS:          0
cpu0_STLB PREFETCH     ACCESS:          0 HIT:          0 MISS:          0
cpu0_STLB WRITE        ACCESS:          0 HIT:          0 MISS:          0
cpu0_STLB TRANSLATION  ACCESS:          0 HIT:          0 MISS:          0
cpu0_STLB PREFETCH REQUESTED:          0 ISSUED:          0 USEFUL:          0 USELESS:          0
cpu0_STLB AVERAGE MISS LATENCY: 1731 cycles

DRAM Statistics

Channel 0 RQ ROW_BUFFER_HIT:     142804
  ROW_BUFFER_MISS:     509792
 AVG DBUS CONGESTED CYCLE: 3.978
WQ ROW_BUFFER_HIT: Channel 0 
  ROW_BUFFER_MISS:      76933
  FULL:     456086
