WARNING: physical memory size is smaller than virtual memory size.

*** ChampSim Multicore Out-of-Order Simulator ***
Warmup Instructions: 50000000
Simulation Instructions: 600000000
Number of CPUs: 1
Page size: 4096

CPU 0 Tage branch predictor
Off-chip DRAM Size: 4 GiB Channels: 1 Width: 64-bit Data Race: 3200 MT/s
Heartbeat CPU 0 instructions: 10000000 cycles: 2500202 heartbeat IPC: 4 cumulative IPC: 4 (Simulation time: 00 hr 00 min 44 sec)
Heartbeat CPU 0 instructions: 20000000 cycles: 5000202 heartbeat IPC: 4 cumulative IPC: 4 (Simulation time: 00 hr 01 min 30 sec)
Heartbeat CPU 0 instructions: 30000000 cycles: 7500202 heartbeat IPC: 4 cumulative IPC: 4 (Simulation time: 00 hr 02 min 14 sec)
Heartbeat CPU 0 instructions: 40000000 cycles: 10000202 heartbeat IPC: 4 cumulative IPC: 4 (Simulation time: 00 hr 02 min 55 sec)
Heartbeat CPU 0 instructions: 50000000 cycles: 12500202 heartbeat IPC: 4 cumulative IPC: 4 (Simulation time: 00 hr 03 min 38 sec)
Warmup finished CPU 0 instructions: 50000000 cycles: 12500203 cumulative IPC: 4 (Simulation time: 00 hr 03 min 38 sec)
Warmup complete CPU 0 instructions: 50000000 cycles: 12500203 cumulative IPC: 4 (Simulation time: 00 hr 03 min 38 sec)
Heartbeat CPU 0 instructions: 60000002 cycles: 15589550 heartbeat IPC: 3.237 cumulative IPC: 3.237 (Simulation time: 00 hr 04 min 29 sec)
Heartbeat CPU 0 instructions: 70000002 cycles: 18093642 heartbeat IPC: 3.993 cumulative IPC: 3.576 (Simulation time: 00 hr 05 min 25 sec)
Heartbeat CPU 0 instructions: 80000003 cycles: 20603488 heartbeat IPC: 3.984 cumulative IPC: 3.702 (Simulation time: 00 hr 06 min 18 sec)
Heartbeat CPU 0 instructions: 90000004 cycles: 23110721 heartbeat IPC: 3.988 cumulative IPC: 3.77 (Simulation time: 00 hr 07 min 03 sec)
Heartbeat CPU 0 instructions: 100000003 cycles: 25622208 heartbeat IPC: 3.982 cumulative IPC: 3.81 (Simulation time: 00 hr 08 min 00 sec)
Heartbeat CPU 0 instructions: 110000000 cycles: 28128834 heartbeat IPC: 3.989 cumulative IPC: 3.839 (Simulation time: 00 hr 08 min 57 sec)
Heartbeat CPU 0 instructions: 120000000 cycles: 30635192 heartbeat IPC: 3.99 cumulative IPC: 3.86 (Simulation time: 00 hr 09 min 49 sec)
Heartbeat CPU 0 instructions: 130000000 cycles: 33141284 heartbeat IPC: 3.99 cumulative IPC: 3.876 (Simulation time: 00 hr 10 min 37 sec)
Heartbeat CPU 0 instructions: 140000001 cycles: 35650278 heartbeat IPC: 3.986 cumulative IPC: 3.888 (Simulation time: 00 hr 11 min 24 sec)
Heartbeat CPU 0 instructions: 150000003 cycles: 38155031 heartbeat IPC: 3.992 cumulative IPC: 3.898 (Simulation time: 00 hr 12 min 12 sec)
Heartbeat CPU 0 instructions: 160000003 cycles: 40661195 heartbeat IPC: 3.99 cumulative IPC: 3.906 (Simulation time: 00 hr 13 min 02 sec)
Heartbeat CPU 0 instructions: 170000000 cycles: 43170592 heartbeat IPC: 3.985 cumulative IPC: 3.913 (Simulation time: 00 hr 13 min 48 sec)
Heartbeat CPU 0 instructions: 180000001 cycles: 45673429 heartbeat IPC: 3.995 cumulative IPC: 3.919 (Simulation time: 00 hr 14 min 35 sec)
Heartbeat CPU 0 instructions: 190000002 cycles: 48173973 heartbeat IPC: 3.999 cumulative IPC: 3.924 (Simulation time: 00 hr 15 min 23 sec)
Heartbeat CPU 0 instructions: 200000002 cycles: 50682741 heartbeat IPC: 3.986 cumulative IPC: 3.928 (Simulation time: 00 hr 16 min 04 sec)
Heartbeat CPU 0 instructions: 210000000 cycles: 53187979 heartbeat IPC: 3.992 cumulative IPC: 3.932 (Simulation time: 00 hr 16 min 45 sec)
Heartbeat CPU 0 instructions: 220000001 cycles: 55699768 heartbeat IPC: 3.981 cumulative IPC: 3.935 (Simulation time: 00 hr 17 min 29 sec)
Heartbeat CPU 0 instructions: 230000002 cycles: 58212924 heartbeat IPC: 3.979 cumulative IPC: 3.938 (Simulation time: 00 hr 18 min 12 sec)
Heartbeat CPU 0 instructions: 240000004 cycles: 60720564 heartbeat IPC: 3.988 cumulative IPC: 3.94 (Simulation time: 00 hr 18 min 57 sec)
Heartbeat CPU 0 instructions: 250000000 cycles: 63230862 heartbeat IPC: 3.984 cumulative IPC: 3.942 (Simulation time: 00 hr 19 min 41 sec)
Heartbeat CPU 0 instructions: 260000000 cycles: 65742444 heartbeat IPC: 3.982 cumulative IPC: 3.944 (Simulation time: 00 hr 20 min 24 sec)
Heartbeat CPU 0 instructions: 270000002 cycles: 68252737 heartbeat IPC: 3.984 cumulative IPC: 3.946 (Simulation time: 00 hr 21 min 07 sec)
Heartbeat CPU 0 instructions: 280000003 cycles: 70763661 heartbeat IPC: 3.983 cumulative IPC: 3.948 (Simulation time: 00 hr 21 min 51 sec)
Heartbeat CPU 0 instructions: 290000000 cycles: 73271394 heartbeat IPC: 3.988 cumulative IPC: 3.949 (Simulation time: 00 hr 22 min 36 sec)
Heartbeat CPU 0 instructions: 300000000 cycles: 75781135 heartbeat IPC: 3.984 cumulative IPC: 3.951 (Simulation time: 00 hr 23 min 21 sec)
Heartbeat CPU 0 instructions: 310000002 cycles: 78288890 heartbeat IPC: 3.988 cumulative IPC: 3.952 (Simulation time: 00 hr 24 min 03 sec)
Heartbeat CPU 0 instructions: 320000004 cycles: 80796030 heartbeat IPC: 3.989 cumulative IPC: 3.953 (Simulation time: 00 hr 24 min 46 sec)
Heartbeat CPU 0 instructions: 330000000 cycles: 83307012 heartbeat IPC: 3.983 cumulative IPC: 3.954 (Simulation time: 00 hr 25 min 28 sec)
Heartbeat CPU 0 instructions: 340000002 cycles: 85814845 heartbeat IPC: 3.988 cumulative IPC: 3.956 (Simulation time: 00 hr 26 min 09 sec)
Heartbeat CPU 0 instructions: 350000002 cycles: 88321708 heartbeat IPC: 3.989 cumulative IPC: 3.957 (Simulation time: 00 hr 26 min 53 sec)
Heartbeat CPU 0 instructions: 360000000 cycles: 90827072 heartbeat IPC: 3.991 cumulative IPC: 3.958 (Simulation time: 00 hr 27 min 35 sec)
Heartbeat CPU 0 instructions: 370000004 cycles: 93340855 heartbeat IPC: 3.978 cumulative IPC: 3.958 (Simulation time: 00 hr 28 min 21 sec)
Heartbeat CPU 0 instructions: 380000000 cycles: 95850199 heartbeat IPC: 3.985 cumulative IPC: 3.959 (Simulation time: 00 hr 29 min 08 sec)
Heartbeat CPU 0 instructions: 390000000 cycles: 98353061 heartbeat IPC: 3.995 cumulative IPC: 3.96 (Simulation time: 00 hr 29 min 54 sec)
Heartbeat CPU 0 instructions: 400000000 cycles: 100857331 heartbeat IPC: 3.993 cumulative IPC: 3.961 (Simulation time: 00 hr 30 min 39 sec)
Heartbeat CPU 0 instructions: 410000000 cycles: 103367154 heartbeat IPC: 3.984 cumulative IPC: 3.962 (Simulation time: 00 hr 31 min 23 sec)
Heartbeat CPU 0 instructions: 420000001 cycles: 105870953 heartbeat IPC: 3.994 cumulative IPC: 3.963 (Simulation time: 00 hr 32 min 07 sec)
Heartbeat CPU 0 instructions: 430000003 cycles: 108379938 heartbeat IPC: 3.986 cumulative IPC: 3.963 (Simulation time: 00 hr 32 min 50 sec)
Heartbeat CPU 0 instructions: 440000003 cycles: 110894084 heartbeat IPC: 3.977 cumulative IPC: 3.964 (Simulation time: 00 hr 33 min 34 sec)
Heartbeat CPU 0 instructions: 450000004 cycles: 113408030 heartbeat IPC: 3.978 cumulative IPC: 3.964 (Simulation time: 00 hr 34 min 17 sec)
Heartbeat CPU 0 instructions: 460000001 cycles: 115917512 heartbeat IPC: 3.985 cumulative IPC: 3.965 (Simulation time: 00 hr 35 min 03 sec)
Heartbeat CPU 0 instructions: 470000002 cycles: 118426106 heartbeat IPC: 3.986 cumulative IPC: 3.965 (Simulation time: 00 hr 35 min 49 sec)
Heartbeat CPU 0 instructions: 480000002 cycles: 120936286 heartbeat IPC: 3.984 cumulative IPC: 3.965 (Simulation time: 00 hr 36 min 34 sec)
Heartbeat CPU 0 instructions: 490000000 cycles: 123446087 heartbeat IPC: 3.984 cumulative IPC: 3.966 (Simulation time: 00 hr 37 min 16 sec)
Heartbeat CPU 0 instructions: 500000002 cycles: 125962167 heartbeat IPC: 3.974 cumulative IPC: 3.966 (Simulation time: 00 hr 38 min 01 sec)
Heartbeat CPU 0 instructions: 510000003 cycles: 128471111 heartbeat IPC: 3.986 cumulative IPC: 3.967 (Simulation time: 00 hr 38 min 43 sec)
Heartbeat CPU 0 instructions: 520000004 cycles: 130976826 heartbeat IPC: 3.991 cumulative IPC: 3.967 (Simulation time: 00 hr 39 min 24 sec)
Heartbeat CPU 0 instructions: 530000000 cycles: 133489859 heartbeat IPC: 3.979 cumulative IPC: 3.967 (Simulation time: 00 hr 40 min 05 sec)
Heartbeat CPU 0 instructions: 540000001 cycles: 136002664 heartbeat IPC: 3.98 cumulative IPC: 3.968 (Simulation time: 00 hr 40 min 46 sec)
Heartbeat CPU 0 instructions: 550000002 cycles: 138510104 heartbeat IPC: 3.988 cumulative IPC: 3.968 (Simulation time: 00 hr 41 min 29 sec)
Heartbeat CPU 0 instructions: 560000003 cycles: 141017105 heartbeat IPC: 3.989 cumulative IPC: 3.968 (Simulation time: 00 hr 42 min 10 sec)
Heartbeat CPU 0 instructions: 570000004 cycles: 143525340 heartbeat IPC: 3.987 cumulative IPC: 3.969 (Simulation time: 00 hr 42 min 51 sec)
Heartbeat CPU 0 instructions: 580000000 cycles: 146032861 heartbeat IPC: 3.988 cumulative IPC: 3.969 (Simulation time: 00 hr 43 min 33 sec)
Heartbeat CPU 0 instructions: 590000002 cycles: 148542820 heartbeat IPC: 3.984 cumulative IPC: 3.969 (Simulation time: 00 hr 44 min 14 sec)
*** Reached end of trace: (0, "traces/convolution.champsimtrace")
Heartbeat CPU 0 instructions: 600000000 cycles: 151058411 heartbeat IPC: 3.975 cumulative IPC: 3.969 (Simulation time: 00 hr 44 min 55 sec)
Heartbeat CPU 0 instructions: 610000002 cycles: 173365839 heartbeat IPC: 0.4483 cumulative IPC: 3.481 (Simulation time: 00 hr 51 min 11 sec)
Heartbeat CPU 0 instructions: 620000001 cycles: 193248250 heartbeat IPC: 0.503 cumulative IPC: 3.154 (Simulation time: 00 hr 57 min 03 sec)
Heartbeat CPU 0 instructions: 630000001 cycles: 197918917 heartbeat IPC: 2.141 cumulative IPC: 3.128 (Simulation time: 00 hr 59 min 20 sec)
Heartbeat CPU 0 instructions: 640000004 cycles: 208192111 heartbeat IPC: 0.9734 cumulative IPC: 3.015 (Simulation time: 01 hr 03 min 14 sec)
Heartbeat CPU 0 instructions: 650000001 cycles: 218944066 heartbeat IPC: 0.9301 cumulative IPC: 2.906 (Simulation time: 01 hr 06 min 56 sec)
Simulation finished CPU 0 instructions: 600000001 cycles: 206443864 cumulative IPC: 2.906 (Simulation time: 01 hr 06 min 56 sec)
Simulation complete CPU 0 instructions: 600000001 cycles: 206443864 cumulative IPC: 2.906 (Simulation time: 01 hr 06 min 56 sec)

ChampSim completed all CPUs

=== Simulation ===
CPU 0 runs traces/convolution.champsimtrace
Region of Interest Statistics

CPU 0 cumulative IPC: 2.906 instructions: 600000001 cycles: 206443864
CPU 0 Branch Prediction Accuracy: 100% MPKI: 0.002858 Average ROB Occupancy at Mispredict: 78.87
Branch type MPKI
BRANCH_DIRECT_JUMP: 0.000107
BRANCH_INDIRECT: 4.17e-05
BRANCH_CONDITIONAL: 0.00258
BRANCH_DIRECT_CALL: 0.000103
BRANCH_INDIRECT_CALL: 8.33e-06
BRANCH_RETURN: 1.83e-05

LLC TOTAL        ACCESS:    1184724 HIT:     242170 MISS:     942554
LLC LOAD         ACCESS:       2887 HIT:       1291 MISS:       1596
LLC RFO          ACCESS:     535119 HIT:      30465 MISS:     504654
LLC PREFETCH     ACCESS:       2078 HIT:       2048 MISS:         30
LLC WRITE        ACCESS:     535168 HIT:     177841 MISS:     357327
LLC TRANSLATION  ACCESS:     109472 HIT:      30525 MISS:      78947
LLC PREFETCH REQUESTED:       2078 ISSUED:       2078 USEFUL:          7 USELESS:         16
LLC AVERAGE MISS LATENCY: 651.4 cycles
cpu0_DTLB TOTAL        ACCESS:  113388483 HIT:  113073243 MISS:     315240
cpu0_DTLB LOAD         ACCESS:  113388483 HIT:  113073243 MISS:     315240
cpu0_DTLB RFO          ACCESS:          0 HIT:          0 MISS:          0
cpu0_DTLB PREFETCH     ACCESS:          0 HIT:          0 MISS:          0
cpu0_DTLB WRITE        ACCESS:          0 HIT:          0 MISS:          0
cpu0_DTLB TRANSLATION  ACCESS:          0 HIT:          0 MISS:          0
cpu0_DTLB PREFETCH REQUESTED:          0 ISSUED:          0 USEFUL:          0 USELESS:          0
cpu0_DTLB AVERAGE MISS LATENCY: 661.7 cycles
cpu0_ITLB TOTAL        ACCESS:       2113 HIT:       2079 MISS:         34
cpu0_ITLB LOAD         ACCESS:       2113 HIT:       2079 MISS:         34
cpu0_ITLB RFO          ACCESS:          0 HIT:          0 MISS:          0
cpu0_ITLB PREFETCH     ACCESS:          0 HIT:          0 MISS:          0
cpu0_ITLB WRITE        ACCESS:          0 HIT:          0 MISS:          0
cpu0_ITLB TRANSLATION  ACCESS:          0 HIT:          0 MISS:          0
cpu0_ITLB PREFETCH REQUESTED:          0 ISSUED:          0 USEFUL:          0 USELESS:          0
cpu0_ITLB AVERAGE MISS LATENCY: 644.1 cycles
cpu0_L1D TOTAL        ACCESS:  146550893 HIT:  140404569 MISS:    6146324
cpu0_L1D LOAD         ACCESS:   74370730 HIT:   74362828 MISS:       7902
cpu0_L1D RFO          ACCESS:          0 HIT:          0 MISS:          0
cpu0_L1D PREFETCH     ACCESS:          0 HIT:          0 MISS:          0
cpu0_L1D WRITE        ACCESS:   71999724 HIT:   66008050 MISS:    5991674
cpu0_L1D TRANSLATION  ACCESS:     180439 HIT:      33691 MISS:     146748
cpu0_L1D PREFETCH REQUESTED:          0 ISSUED:          0 USEFUL:          0 USELESS:          0
cpu0_L1D AVERAGE MISS LATENCY: 80.85 cycles
cpu0_L1I TOTAL        ACCESS:       2469 HIT:       1004 MISS:       1465
cpu0_L1I LOAD         ACCESS:       2469 HIT:       1004 MISS:       1465
cpu0_L1I RFO          ACCESS:          0 HIT:          0 MISS:          0
cpu0_L1I PREFETCH     ACCESS:          0 HIT:          0 MISS:          0
cpu0_L1I WRITE        ACCESS:          0 HIT:          0 MISS:          0
cpu0_L1I TRANSLATION  ACCESS:          0 HIT:          0 MISS:          0
cpu0_L1I PREFETCH REQUESTED:          0 ISSUED:          0 USEFUL:          0 USELESS:          0
cpu0_L1I AVERAGE MISS LATENCY: 478.9 cycles
cpu0_L2C TOTAL        ACCESS:    1192923 HIT:     545427 MISS:     647496
cpu0_L2C LOAD         ACCESS:       3312 HIT:        425 MISS:       2887
cpu0_L2C RFO          ACCESS:     539186 HIT:       4066 MISS:     535120
cpu0_L2C PREFETCH     ACCESS:          0 HIT:          0 MISS:          0
cpu0_L2C WRITE        ACCESS:     539619 HIT:     539603 MISS:         16
cpu0_L2C TRANSLATION  ACCESS:     110806 HIT:       1333 MISS:     109473
cpu0_L2C PREFETCH REQUESTED:          0 ISSUED:          0 USEFUL:          0 USELESS:          0
cpu0_L2C AVERAGE MISS LATENCY: 969.1 cycles
cpu0_STLB TOTAL        ACCESS:     156156 HIT:         46 MISS:     156110
cpu0_STLB LOAD         ACCESS:     156156 HIT:         46 MISS:     156110
cpu0_STLB RFO          ACCESS:          0 HIT:          0 MISS:          0
cpu0_STLB PREFETCH     ACCESS:          0 HIT:          0 MISS:          0
cpu0_STLB WRITE        ACCESS:          0 HIT:          0 MISS:          0
cpu0_STLB TRANSLATION  ACCESS:          0 HIT:          0 MISS:          0
cpu0_STLB PREFETCH REQUESTED:          0 ISSUED:          0 USEFUL:          0 USELESS:          0
cpu0_STLB AVERAGE MISS LATENCY: 1481 cycles

DRAM Statistics

Channel 0 RQ ROW_BUFFER_HIT:     128073
  ROW_BUFFER_MISS:     457136
 AVG DBUS CONGESTED CYCLE: 3.979
WQ ROW_BUFFER_HIT: Channel 0 
  ROW_BUFFER_MISS:     113431
  FULL:     391206
