WARNING: physical memory size is smaller than virtual memory size.

*** ChampSim Multicore Out-of-Order Simulator ***
Warmup Instructions: 50000000
Simulation Instructions: 600000000
Number of CPUs: 1
Page size: 4096

Off-chip DRAM Size: 4 GiB Channels: 1 Width: 64-bit Data Race: 3200 MT/s
Heartbeat CPU 0 instructions: 10000000 cycles: 2500202 heartbeat IPC: 4 cumulative IPC: 4 (Simulation time: 00 hr 00 min 33 sec)
Heartbeat CPU 0 instructions: 20000000 cycles: 5000202 heartbeat IPC: 4 cumulative IPC: 4 (Simulation time: 00 hr 01 min 07 sec)
Heartbeat CPU 0 instructions: 30000000 cycles: 7500202 heartbeat IPC: 4 cumulative IPC: 4 (Simulation time: 00 hr 01 min 38 sec)
Heartbeat CPU 0 instructions: 40000000 cycles: 10000202 heartbeat IPC: 4 cumulative IPC: 4 (Simulation time: 00 hr 02 min 10 sec)
Heartbeat CPU 0 instructions: 50000000 cycles: 12500202 heartbeat IPC: 4 cumulative IPC: 4 (Simulation time: 00 hr 02 min 43 sec)
Warmup finished CPU 0 instructions: 50000000 cycles: 12500203 cumulative IPC: 4 (Simulation time: 00 hr 02 min 43 sec)
Warmup complete CPU 0 instructions: 50000000 cycles: 12500203 cumulative IPC: 4 (Simulation time: 00 hr 02 min 43 sec)
Heartbeat CPU 0 instructions: 60000002 cycles: 15728339 heartbeat IPC: 3.098 cumulative IPC: 3.098 (Simulation time: 00 hr 03 min 25 sec)
Heartbeat CPU 0 instructions: 70000002 cycles: 18384107 heartbeat IPC: 3.765 cumulative IPC: 3.399 (Simulation time: 00 hr 04 min 02 sec)
Heartbeat CPU 0 instructions: 80000003 cycles: 21036329 heartbeat IPC: 3.77 cumulative IPC: 3.514 (Simulation time: 00 hr 04 min 40 sec)
Heartbeat CPU 0 instructions: 90000004 cycles: 23688528 heartbeat IPC: 3.77 cumulative IPC: 3.575 (Simulation time: 00 hr 05 min 17 sec)
Heartbeat CPU 0 instructions: 100000003 cycles: 26343221 heartbeat IPC: 3.767 cumulative IPC: 3.612 (Simulation time: 00 hr 05 min 56 sec)
Heartbeat CPU 0 instructions: 110000000 cycles: 29000129 heartbeat IPC: 3.764 cumulative IPC: 3.636 (Simulation time: 00 hr 06 min 34 sec)
Heartbeat CPU 0 instructions: 120000000 cycles: 31656131 heartbeat IPC: 3.765 cumulative IPC: 3.654 (Simulation time: 00 hr 07 min 11 sec)
Heartbeat CPU 0 instructions: 130000000 cycles: 34311004 heartbeat IPC: 3.767 cumulative IPC: 3.668 (Simulation time: 00 hr 07 min 48 sec)
Heartbeat CPU 0 instructions: 140000001 cycles: 36965588 heartbeat IPC: 3.767 cumulative IPC: 3.679 (Simulation time: 00 hr 08 min 27 sec)
Heartbeat CPU 0 instructions: 150000003 cycles: 39621616 heartbeat IPC: 3.765 cumulative IPC: 3.687 (Simulation time: 00 hr 09 min 05 sec)
Heartbeat CPU 0 instructions: 160000003 cycles: 42276559 heartbeat IPC: 3.767 cumulative IPC: 3.694 (Simulation time: 00 hr 09 min 42 sec)
Heartbeat CPU 0 instructions: 170000001 cycles: 44930224 heartbeat IPC: 3.768 cumulative IPC: 3.7 (Simulation time: 00 hr 10 min 19 sec)
Heartbeat CPU 0 instructions: 180000001 cycles: 47582478 heartbeat IPC: 3.77 cumulative IPC: 3.706 (Simulation time: 00 hr 10 min 56 sec)
Heartbeat CPU 0 instructions: 190000002 cycles: 50242017 heartbeat IPC: 3.76 cumulative IPC: 3.709 (Simulation time: 00 hr 11 min 34 sec)
Heartbeat CPU 0 instructions: 200000001 cycles: 52903394 heartbeat IPC: 3.757 cumulative IPC: 3.713 (Simulation time: 00 hr 12 min 12 sec)
Heartbeat CPU 0 instructions: 210000000 cycles: 55560673 heartbeat IPC: 3.763 cumulative IPC: 3.716 (Simulation time: 00 hr 12 min 48 sec)
Heartbeat CPU 0 instructions: 220000001 cycles: 58218551 heartbeat IPC: 3.762 cumulative IPC: 3.718 (Simulation time: 00 hr 13 min 24 sec)
Heartbeat CPU 0 instructions: 230000002 cycles: 60874131 heartbeat IPC: 3.766 cumulative IPC: 3.721 (Simulation time: 00 hr 13 min 59 sec)
Heartbeat CPU 0 instructions: 240000004 cycles: 63534871 heartbeat IPC: 3.758 cumulative IPC: 3.723 (Simulation time: 00 hr 14 min 36 sec)
Heartbeat CPU 0 instructions: 250000000 cycles: 66197359 heartbeat IPC: 3.756 cumulative IPC: 3.725 (Simulation time: 00 hr 15 min 11 sec)
Heartbeat CPU 0 instructions: 260000000 cycles: 68851657 heartbeat IPC: 3.767 cumulative IPC: 3.727 (Simulation time: 00 hr 15 min 46 sec)
Heartbeat CPU 0 instructions: 270000002 cycles: 71507133 heartbeat IPC: 3.766 cumulative IPC: 3.728 (Simulation time: 00 hr 16 min 21 sec)
Heartbeat CPU 0 instructions: 280000003 cycles: 74164382 heartbeat IPC: 3.763 cumulative IPC: 3.73 (Simulation time: 00 hr 17 min 00 sec)
Heartbeat CPU 0 instructions: 290000002 cycles: 76819424 heartbeat IPC: 3.766 cumulative IPC: 3.731 (Simulation time: 00 hr 17 min 35 sec)
Heartbeat CPU 0 instructions: 300000000 cycles: 79479567 heartbeat IPC: 3.759 cumulative IPC: 3.732 (Simulation time: 00 hr 18 min 11 sec)
Heartbeat CPU 0 instructions: 310000002 cycles: 82135317 heartbeat IPC: 3.765 cumulative IPC: 3.734 (Simulation time: 00 hr 18 min 47 sec)
Heartbeat CPU 0 instructions: 320000004 cycles: 84789402 heartbeat IPC: 3.768 cumulative IPC: 3.735 (Simulation time: 00 hr 19 min 24 sec)
Heartbeat CPU 0 instructions: 330000000 cycles: 87449971 heartbeat IPC: 3.759 cumulative IPC: 3.736 (Simulation time: 00 hr 19 min 59 sec)
Heartbeat CPU 0 instructions: 340000002 cycles: 90109434 heartbeat IPC: 3.76 cumulative IPC: 3.737 (Simulation time: 00 hr 20 min 36 sec)
Heartbeat CPU 0 instructions: 350000002 cycles: 92765647 heartbeat IPC: 3.765 cumulative IPC: 3.738 (Simulation time: 00 hr 21 min 15 sec)
Heartbeat CPU 0 instructions: 360000001 cycles: 95426103 heartbeat IPC: 3.759 cumulative IPC: 3.738 (Simulation time: 00 hr 21 min 51 sec)
Heartbeat CPU 0 instructions: 370000004 cycles: 98080739 heartbeat IPC: 3.767 cumulative IPC: 3.739 (Simulation time: 00 hr 22 min 26 sec)
Heartbeat CPU 0 instructions: 380000000 cycles: 100735294 heartbeat IPC: 3.767 cumulative IPC: 3.74 (Simulation time: 00 hr 23 min 03 sec)
Heartbeat CPU 0 instructions: 390000003 cycles: 103388105 heartbeat IPC: 3.77 cumulative IPC: 3.741 (Simulation time: 00 hr 23 min 40 sec)
Heartbeat CPU 0 instructions: 400000000 cycles: 106044490 heartbeat IPC: 3.765 cumulative IPC: 3.742 (Simulation time: 00 hr 24 min 19 sec)
Heartbeat CPU 0 instructions: 410000000 cycles: 108704292 heartbeat IPC: 3.76 cumulative IPC: 3.742 (Simulation time: 00 hr 24 min 53 sec)
Heartbeat CPU 0 instructions: 420000001 cycles: 111359348 heartbeat IPC: 3.766 cumulative IPC: 3.743 (Simulation time: 00 hr 25 min 27 sec)
Heartbeat CPU 0 instructions: 430000003 cycles: 114012387 heartbeat IPC: 3.769 cumulative IPC: 3.743 (Simulation time: 00 hr 26 min 01 sec)
Heartbeat CPU 0 instructions: 440000003 cycles: 116672858 heartbeat IPC: 3.759 cumulative IPC: 3.744 (Simulation time: 00 hr 26 min 36 sec)
Heartbeat CPU 0 instructions: 450000004 cycles: 119336827 heartbeat IPC: 3.754 cumulative IPC: 3.744 (Simulation time: 00 hr 27 min 10 sec)
Heartbeat CPU 0 instructions: 460000001 cycles: 121996902 heartbeat IPC: 3.759 cumulative IPC: 3.744 (Simulation time: 00 hr 27 min 46 sec)
Heartbeat CPU 0 instructions: 470000002 cycles: 124655717 heartbeat IPC: 3.761 cumulative IPC: 3.745 (Simulation time: 00 hr 28 min 21 sec)
Heartbeat CPU 0 instructions: 480000001 cycles: 127314993 heartbeat IPC: 3.76 cumulative IPC: 3.745 (Simulation time: 00 hr 28 min 56 sec)
Heartbeat CPU 0 instructions: 490000000 cycles: 129973278 heartbeat IPC: 3.762 cumulative IPC: 3.746 (Simulation time: 00 hr 29 min 31 sec)
Heartbeat CPU 0 instructions: 500000002 cycles: 132637860 heartbeat IPC: 3.753 cumulative IPC: 3.746 (Simulation time: 00 hr 30 min 06 sec)
Heartbeat CPU 0 instructions: 510000003 cycles: 135293978 heartbeat IPC: 3.765 cumulative IPC: 3.746 (Simulation time: 00 hr 30 min 41 sec)
Heartbeat CPU 0 instructions: 520000004 cycles: 137948097 heartbeat IPC: 3.768 cumulative IPC: 3.747 (Simulation time: 00 hr 31 min 16 sec)
Heartbeat CPU 0 instructions: 530000000 cycles: 140600407 heartbeat IPC: 3.77 cumulative IPC: 3.747 (Simulation time: 00 hr 31 min 51 sec)
Heartbeat CPU 0 instructions: 540000000 cycles: 143254229 heartbeat IPC: 3.768 cumulative IPC: 3.747 (Simulation time: 00 hr 32 min 26 sec)
Heartbeat CPU 0 instructions: 550000003 cycles: 145913365 heartbeat IPC: 3.761 cumulative IPC: 3.748 (Simulation time: 00 hr 33 min 00 sec)
Heartbeat CPU 0 instructions: 560000003 cycles: 148567277 heartbeat IPC: 3.768 cumulative IPC: 3.748 (Simulation time: 00 hr 33 min 35 sec)
Heartbeat CPU 0 instructions: 570000004 cycles: 151222972 heartbeat IPC: 3.765 cumulative IPC: 3.748 (Simulation time: 00 hr 34 min 11 sec)
Heartbeat CPU 0 instructions: 580000000 cycles: 153879273 heartbeat IPC: 3.765 cumulative IPC: 3.749 (Simulation time: 00 hr 34 min 45 sec)
Heartbeat CPU 0 instructions: 590000002 cycles: 156537058 heartbeat IPC: 3.763 cumulative IPC: 3.749 (Simulation time: 00 hr 35 min 20 sec)
*** Reached end of trace: (0, "traces/convolution.champsimtrace")
Heartbeat CPU 0 instructions: 600000000 cycles: 159200943 heartbeat IPC: 3.754 cumulative IPC: 3.749 (Simulation time: 00 hr 35 min 54 sec)
Heartbeat CPU 0 instructions: 610000004 cycles: 182094304 heartbeat IPC: 0.4368 cumulative IPC: 3.302 (Simulation time: 00 hr 38 min 55 sec)
Heartbeat CPU 0 instructions: 620000001 cycles: 202889122 heartbeat IPC: 0.4809 cumulative IPC: 2.994 (Simulation time: 00 hr 41 min 52 sec)
Heartbeat CPU 0 instructions: 630000001 cycles: 213671974 heartbeat IPC: 0.9274 cumulative IPC: 2.883 (Simulation time: 00 hr 43 min 35 sec)
Heartbeat CPU 0 instructions: 640000004 cycles: 224491178 heartbeat IPC: 0.9243 cumulative IPC: 2.783 (Simulation time: 00 hr 45 min 35 sec)
Heartbeat CPU 0 instructions: 650000001 cycles: 235563891 heartbeat IPC: 0.9031 cumulative IPC: 2.69 (Simulation time: 00 hr 47 min 36 sec)
Simulation finished CPU 0 instructions: 600000001 cycles: 223063689 cumulative IPC: 2.69 (Simulation time: 00 hr 47 min 36 sec)
Simulation complete CPU 0 instructions: 600000001 cycles: 223063689 cumulative IPC: 2.69 (Simulation time: 00 hr 47 min 36 sec)

ChampSim completed all CPUs

=== Simulation ===
CPU 0 runs traces/convolution.champsimtrace
Region of Interest Statistics

CPU 0 cumulative IPC: 2.69 instructions: 600000001 cycles: 223063689
CPU 0 Branch Prediction Accuracy: 99.47% MPKI: 0.9507 Average ROB Occupancy at Mispredict: 69.13
Branch type MPKI
BRANCH_DIRECT_JUMP: 0.000107
BRANCH_INDIRECT: 4.17e-05
BRANCH_CONDITIONAL: 0.95
BRANCH_DIRECT_CALL: 0.000103
BRANCH_INDIRECT_CALL: 8.33e-06
BRANCH_RETURN: 1.83e-05

LLC TOTAL        ACCESS:    1186078 HIT:     203969 MISS:     982109
LLC LOAD         ACCESS:       2887 HIT:        567 MISS:       2320
LLC RFO          ACCESS:     535119 HIT:       1129 MISS:     533990
LLC PREFETCH     ACCESS:       2112 HIT:        532 MISS:       1580
LLC WRITE        ACCESS:     535174 HIT:     198775 MISS:     336399
LLC TRANSLATION  ACCESS:     110786 HIT:       2966 MISS:     107820
LLC PREFETCH REQUESTED:       2112 ISSUED:       2112 USEFUL:        810 USELESS:          7
LLC AVERAGE MISS LATENCY: 689.2 cycles
cpu0_DTLB TOTAL        ACCESS:  120056672 HIT:  119708566 MISS:     348106
cpu0_DTLB LOAD         ACCESS:  120056672 HIT:  119708566 MISS:     348106
cpu0_DTLB RFO          ACCESS:          0 HIT:          0 MISS:          0
cpu0_DTLB PREFETCH     ACCESS:          0 HIT:          0 MISS:          0
cpu0_DTLB WRITE        ACCESS:          0 HIT:          0 MISS:          0
cpu0_DTLB TRANSLATION  ACCESS:          0 HIT:          0 MISS:          0
cpu0_DTLB PREFETCH REQUESTED:          0 ISSUED:          0 USEFUL:          0 USELESS:          0
cpu0_DTLB AVERAGE MISS LATENCY: 643.3 cycles
cpu0_ITLB TOTAL        ACCESS:       2014 HIT:       1982 MISS:         32
cpu0_ITLB LOAD         ACCESS:       2014 HIT:       1982 MISS:         32
cpu0_ITLB RFO          ACCESS:          0 HIT:          0 MISS:          0
cpu0_ITLB PREFETCH     ACCESS:          0 HIT:          0 MISS:          0
cpu0_ITLB WRITE        ACCESS:          0 HIT:          0 MISS:          0
cpu0_ITLB TRANSLATION  ACCESS:          0 HIT:          0 MISS:          0
cpu0_ITLB PREFETCH REQUESTED:          0 ISSUED:          0 USEFUL:          0 USELESS:          0
cpu0_ITLB AVERAGE MISS LATENCY: 768.2 cycles
cpu0_L1D TOTAL        ACCESS:  161170128 HIT:  155017861 MISS:    6152267
cpu0_L1D LOAD         ACCESS:   88950336 HIT:   88944244 MISS:       6092
cpu0_L1D RFO          ACCESS:          0 HIT:          0 MISS:          0
cpu0_L1D PREFETCH     ACCESS:          0 HIT:          0 MISS:          0
cpu0_L1D WRITE        ACCESS:   72038286 HIT:   66035175 MISS:    6003111
cpu0_L1D TRANSLATION  ACCESS:     181506 HIT:      38442 MISS:     143064
cpu0_L1D PREFETCH REQUESTED:          0 ISSUED:          0 USEFUL:          0 USELESS:          0
cpu0_L1D AVERAGE MISS LATENCY: 85.64 cycles
cpu0_L1I TOTAL        ACCESS:       2313 HIT:       1010 MISS:       1303
cpu0_L1I LOAD         ACCESS:       2313 HIT:       1010 MISS:       1303
cpu0_L1I RFO          ACCESS:          0 HIT:          0 MISS:          0
cpu0_L1I PREFETCH     ACCESS:          0 HIT:          0 MISS:          0
cpu0_L1I WRITE        ACCESS:          0 HIT:          0 MISS:          0
cpu0_L1I TRANSLATION  ACCESS:          0 HIT:          0 MISS:          0
cpu0_L1I PREFETCH REQUESTED:          0 ISSUED:          0 USEFUL:          0 USELESS:          0
cpu0_L1I AVERAGE MISS LATENCY: 697.7 cycles
cpu0_L2C TOTAL        ACCESS:    1192072 HIT:     543263 MISS:     648809
cpu0_L2C LOAD         ACCESS:       3313 HIT:        426 MISS:       2887
cpu0_L2C RFO          ACCESS:     538109 HIT:       2990 MISS:     535119
cpu0_L2C PREFETCH     ACCESS:          0 HIT:          0 MISS:          0
cpu0_L2C WRITE        ACCESS:     538231 HIT:     538214 MISS:         17
cpu0_L2C TRANSLATION  ACCESS:     112419 HIT:       1633 MISS:     110786
cpu0_L2C PREFETCH REQUESTED:          0 ISSUED:          0 USEFUL:          0 USELESS:          0
cpu0_L2C AVERAGE MISS LATENCY: 1063 cycles
cpu0_STLB TOTAL        ACCESS:     156156 HIT:         49 MISS:     156107
cpu0_STLB LOAD         ACCESS:     156156 HIT:         49 MISS:     156107
cpu0_STLB RFO          ACCESS:          0 HIT:          0 MISS:          0
cpu0_STLB PREFETCH     ACCESS:          0 HIT:          0 MISS:          0
cpu0_STLB WRITE        ACCESS:          0 HIT:          0 MISS:          0
cpu0_STLB TRANSLATION  ACCESS:          0 HIT:          0 MISS:          0
cpu0_STLB PREFETCH REQUESTED:          0 ISSUED:          0 USEFUL:          0 USELESS:          0
cpu0_STLB AVERAGE MISS LATENCY: 1634 cycles

DRAM Statistics

Channel 0 RQ ROW_BUFFER_HIT:     150272
  ROW_BUFFER_MISS:     494445
 AVG DBUS CONGESTED CYCLE: 3.976
WQ ROW_BUFFER_HIT: Channel 0 
  ROW_BUFFER_MISS:     105439
  FULL:     407201
Final OPTGen Hits: 411
Final OPTGen Access: 14338
Final OPTGEN Hit Rate: 2.86651
