WARNING: physical memory size is smaller than virtual memory size.

*** ChampSim Multicore Out-of-Order Simulator ***
Warmup Instructions: 50000000
Simulation Instructions: 600000000
Number of CPUs: 1
Page size: 4096

Off-chip DRAM Size: 4 GiB Channels: 1 Width: 64-bit Data Race: 3200 MT/s
Heartbeat CPU 0 instructions: 10000000 cycles: 2500202 heartbeat IPC: 4 cumulative IPC: 4 (Simulation time: 00 hr 00 min 32 sec)
Heartbeat CPU 0 instructions: 20000000 cycles: 5000202 heartbeat IPC: 4 cumulative IPC: 4 (Simulation time: 00 hr 01 min 10 sec)
Heartbeat CPU 0 instructions: 30000000 cycles: 7500202 heartbeat IPC: 4 cumulative IPC: 4 (Simulation time: 00 hr 01 min 46 sec)
Heartbeat CPU 0 instructions: 40000000 cycles: 10000202 heartbeat IPC: 4 cumulative IPC: 4 (Simulation time: 00 hr 02 min 19 sec)
Heartbeat CPU 0 instructions: 50000000 cycles: 12500202 heartbeat IPC: 4 cumulative IPC: 4 (Simulation time: 00 hr 02 min 51 sec)
Warmup finished CPU 0 instructions: 50000000 cycles: 12500203 cumulative IPC: 4 (Simulation time: 00 hr 02 min 51 sec)
Warmup complete CPU 0 instructions: 50000000 cycles: 12500203 cumulative IPC: 4 (Simulation time: 00 hr 02 min 51 sec)
Heartbeat CPU 0 instructions: 60000002 cycles: 15722459 heartbeat IPC: 3.103 cumulative IPC: 3.103 (Simulation time: 00 hr 03 min 31 sec)
Heartbeat CPU 0 instructions: 70000002 cycles: 18376561 heartbeat IPC: 3.768 cumulative IPC: 3.403 (Simulation time: 00 hr 04 min 05 sec)
Heartbeat CPU 0 instructions: 80000003 cycles: 21028783 heartbeat IPC: 3.77 cumulative IPC: 3.518 (Simulation time: 00 hr 04 min 41 sec)
Heartbeat CPU 0 instructions: 90000004 cycles: 23680982 heartbeat IPC: 3.77 cumulative IPC: 3.578 (Simulation time: 00 hr 05 min 29 sec)
Heartbeat CPU 0 instructions: 100000003 cycles: 26334868 heartbeat IPC: 3.768 cumulative IPC: 3.614 (Simulation time: 00 hr 06 min 18 sec)
Heartbeat CPU 0 instructions: 110000000 cycles: 28988612 heartbeat IPC: 3.768 cumulative IPC: 3.639 (Simulation time: 00 hr 07 min 04 sec)
Heartbeat CPU 0 instructions: 120000000 cycles: 31640613 heartbeat IPC: 3.771 cumulative IPC: 3.657 (Simulation time: 00 hr 07 min 50 sec)
Heartbeat CPU 0 instructions: 130000000 cycles: 34292858 heartbeat IPC: 3.77 cumulative IPC: 3.671 (Simulation time: 00 hr 08 min 27 sec)
Heartbeat CPU 0 instructions: 140000001 cycles: 36945046 heartbeat IPC: 3.77 cumulative IPC: 3.682 (Simulation time: 00 hr 09 min 02 sec)
Heartbeat CPU 0 instructions: 150000003 cycles: 39597275 heartbeat IPC: 3.77 cumulative IPC: 3.69 (Simulation time: 00 hr 09 min 39 sec)
Heartbeat CPU 0 instructions: 160000003 cycles: 42251556 heartbeat IPC: 3.767 cumulative IPC: 3.697 (Simulation time: 00 hr 10 min 16 sec)
Heartbeat CPU 0 instructions: 170000001 cycles: 44904343 heartbeat IPC: 3.77 cumulative IPC: 3.703 (Simulation time: 00 hr 11 min 03 sec)
Heartbeat CPU 0 instructions: 180000001 cycles: 47556512 heartbeat IPC: 3.77 cumulative IPC: 3.708 (Simulation time: 00 hr 11 min 46 sec)
Heartbeat CPU 0 instructions: 190000002 cycles: 50210229 heartbeat IPC: 3.768 cumulative IPC: 3.713 (Simulation time: 00 hr 12 min 28 sec)
Heartbeat CPU 0 instructions: 200000001 cycles: 52862449 heartbeat IPC: 3.77 cumulative IPC: 3.716 (Simulation time: 00 hr 13 min 07 sec)
Heartbeat CPU 0 instructions: 210000000 cycles: 55517881 heartbeat IPC: 3.766 cumulative IPC: 3.719 (Simulation time: 00 hr 13 min 43 sec)
Heartbeat CPU 0 instructions: 220000001 cycles: 58170242 heartbeat IPC: 3.77 cumulative IPC: 3.722 (Simulation time: 00 hr 14 min 19 sec)
Heartbeat CPU 0 instructions: 230000002 cycles: 60822458 heartbeat IPC: 3.77 cumulative IPC: 3.725 (Simulation time: 00 hr 14 min 56 sec)
Heartbeat CPU 0 instructions: 240000004 cycles: 63474742 heartbeat IPC: 3.77 cumulative IPC: 3.727 (Simulation time: 00 hr 15 min 34 sec)
Heartbeat CPU 0 instructions: 250000000 cycles: 66129598 heartbeat IPC: 3.767 cumulative IPC: 3.729 (Simulation time: 00 hr 16 min 11 sec)
Heartbeat CPU 0 instructions: 260000000 cycles: 68783883 heartbeat IPC: 3.767 cumulative IPC: 3.731 (Simulation time: 00 hr 16 min 47 sec)
Heartbeat CPU 0 instructions: 270000002 cycles: 71435890 heartbeat IPC: 3.771 cumulative IPC: 3.733 (Simulation time: 00 hr 17 min 24 sec)
Heartbeat CPU 0 instructions: 280000003 cycles: 74088134 heartbeat IPC: 3.77 cumulative IPC: 3.734 (Simulation time: 00 hr 17 min 59 sec)
Heartbeat CPU 0 instructions: 290000002 cycles: 76740411 heartbeat IPC: 3.77 cumulative IPC: 3.736 (Simulation time: 00 hr 18 min 35 sec)
Heartbeat CPU 0 instructions: 300000000 cycles: 79396307 heartbeat IPC: 3.765 cumulative IPC: 3.737 (Simulation time: 00 hr 19 min 12 sec)
Heartbeat CPU 0 instructions: 310000002 cycles: 82049408 heartbeat IPC: 3.769 cumulative IPC: 3.738 (Simulation time: 00 hr 19 min 51 sec)
Heartbeat CPU 0 instructions: 320000004 cycles: 84701449 heartbeat IPC: 3.771 cumulative IPC: 3.74 (Simulation time: 00 hr 20 min 27 sec)
Heartbeat CPU 0 instructions: 330000000 cycles: 87353638 heartbeat IPC: 3.77 cumulative IPC: 3.741 (Simulation time: 00 hr 21 min 06 sec)
Heartbeat CPU 0 instructions: 340000002 cycles: 90007446 heartbeat IPC: 3.768 cumulative IPC: 3.742 (Simulation time: 00 hr 21 min 42 sec)
Heartbeat CPU 0 instructions: 350000002 cycles: 92659562 heartbeat IPC: 3.771 cumulative IPC: 3.743 (Simulation time: 00 hr 22 min 19 sec)
Heartbeat CPU 0 instructions: 360000001 cycles: 95314595 heartbeat IPC: 3.766 cumulative IPC: 3.743 (Simulation time: 00 hr 22 min 57 sec)
Heartbeat CPU 0 instructions: 370000004 cycles: 97968005 heartbeat IPC: 3.769 cumulative IPC: 3.744 (Simulation time: 00 hr 23 min 36 sec)
Heartbeat CPU 0 instructions: 380000000 cycles: 100620182 heartbeat IPC: 3.77 cumulative IPC: 3.745 (Simulation time: 00 hr 24 min 14 sec)
Heartbeat CPU 0 instructions: 390000003 cycles: 103272529 heartbeat IPC: 3.77 cumulative IPC: 3.746 (Simulation time: 00 hr 24 min 56 sec)
Heartbeat CPU 0 instructions: 400000000 cycles: 105926989 heartbeat IPC: 3.767 cumulative IPC: 3.746 (Simulation time: 00 hr 25 min 42 sec)
Heartbeat CPU 0 instructions: 410000000 cycles: 108580844 heartbeat IPC: 3.768 cumulative IPC: 3.747 (Simulation time: 00 hr 26 min 33 sec)
Heartbeat CPU 0 instructions: 420000001 cycles: 111232930 heartbeat IPC: 3.771 cumulative IPC: 3.747 (Simulation time: 00 hr 27 min 16 sec)
Heartbeat CPU 0 instructions: 430000003 cycles: 113885251 heartbeat IPC: 3.77 cumulative IPC: 3.748 (Simulation time: 00 hr 27 min 57 sec)
Heartbeat CPU 0 instructions: 440000003 cycles: 116537593 heartbeat IPC: 3.77 cumulative IPC: 3.749 (Simulation time: 00 hr 28 min 37 sec)
Heartbeat CPU 0 instructions: 450000004 cycles: 119192837 heartbeat IPC: 3.766 cumulative IPC: 3.749 (Simulation time: 00 hr 29 min 22 sec)
Heartbeat CPU 0 instructions: 460000001 cycles: 121845201 heartbeat IPC: 3.77 cumulative IPC: 3.75 (Simulation time: 00 hr 29 min 59 sec)
Heartbeat CPU 0 instructions: 470000002 cycles: 124497300 heartbeat IPC: 3.771 cumulative IPC: 3.75 (Simulation time: 00 hr 30 min 35 sec)
Heartbeat CPU 0 instructions: 480000001 cycles: 127149651 heartbeat IPC: 3.77 cumulative IPC: 3.751 (Simulation time: 00 hr 31 min 13 sec)
Heartbeat CPU 0 instructions: 490000000 cycles: 129802340 heartbeat IPC: 3.77 cumulative IPC: 3.751 (Simulation time: 00 hr 31 min 59 sec)
Heartbeat CPU 0 instructions: 500000002 cycles: 132457212 heartbeat IPC: 3.767 cumulative IPC: 3.751 (Simulation time: 00 hr 32 min 35 sec)
Heartbeat CPU 0 instructions: 510000003 cycles: 135110261 heartbeat IPC: 3.769 cumulative IPC: 3.752 (Simulation time: 00 hr 33 min 10 sec)
Heartbeat CPU 0 instructions: 520000004 cycles: 137762393 heartbeat IPC: 3.771 cumulative IPC: 3.752 (Simulation time: 00 hr 33 min 45 sec)
Heartbeat CPU 0 instructions: 530000000 cycles: 140414703 heartbeat IPC: 3.77 cumulative IPC: 3.753 (Simulation time: 00 hr 34 min 21 sec)
Heartbeat CPU 0 instructions: 540000000 cycles: 143069311 heartbeat IPC: 3.767 cumulative IPC: 3.753 (Simulation time: 00 hr 34 min 56 sec)
Heartbeat CPU 0 instructions: 550000003 cycles: 145722813 heartbeat IPC: 3.769 cumulative IPC: 3.753 (Simulation time: 00 hr 35 min 32 sec)
Heartbeat CPU 0 instructions: 560000003 cycles: 148375277 heartbeat IPC: 3.77 cumulative IPC: 3.753 (Simulation time: 00 hr 36 min 09 sec)
Heartbeat CPU 0 instructions: 570000004 cycles: 151027263 heartbeat IPC: 3.771 cumulative IPC: 3.754 (Simulation time: 00 hr 36 min 45 sec)
Heartbeat CPU 0 instructions: 580000000 cycles: 153679558 heartbeat IPC: 3.77 cumulative IPC: 3.754 (Simulation time: 00 hr 37 min 23 sec)
Heartbeat CPU 0 instructions: 590000002 cycles: 156331829 heartbeat IPC: 3.77 cumulative IPC: 3.754 (Simulation time: 00 hr 38 min 06 sec)
*** Reached end of trace: (0, "traces/convolution.champsimtrace")
Heartbeat CPU 0 instructions: 600000000 cycles: 158992122 heartbeat IPC: 3.759 cumulative IPC: 3.754 (Simulation time: 00 hr 38 min 53 sec)
Heartbeat CPU 0 instructions: 610000002 cycles: 183550012 heartbeat IPC: 0.4072 cumulative IPC: 3.274 (Simulation time: 00 hr 42 min 10 sec)
Heartbeat CPU 0 instructions: 620000001 cycles: 205089364 heartbeat IPC: 0.4643 cumulative IPC: 2.96 (Simulation time: 00 hr 45 min 07 sec)
Heartbeat CPU 0 instructions: 630000001 cycles: 217450921 heartbeat IPC: 0.809 cumulative IPC: 2.83 (Simulation time: 00 hr 46 min 56 sec)
Heartbeat CPU 0 instructions: 640000004 cycles: 228080373 heartbeat IPC: 0.9408 cumulative IPC: 2.737 (Simulation time: 00 hr 48 min 33 sec)
Heartbeat CPU 0 instructions: 650000001 cycles: 238609213 heartbeat IPC: 0.9498 cumulative IPC: 2.654 (Simulation time: 00 hr 50 min 09 sec)
Simulation finished CPU 0 instructions: 600000001 cycles: 226109011 cumulative IPC: 2.654 (Simulation time: 00 hr 50 min 09 sec)
Simulation complete CPU 0 instructions: 600000001 cycles: 226109011 cumulative IPC: 2.654 (Simulation time: 00 hr 50 min 09 sec)

ChampSim completed all CPUs

=== Simulation ===
CPU 0 runs traces/convolution.champsimtrace
Region of Interest Statistics

CPU 0 cumulative IPC: 2.654 instructions: 600000001 cycles: 226109011
CPU 0 Branch Prediction Accuracy: 99.47% MPKI: 0.9507 Average ROB Occupancy at Mispredict: 68.96
Branch type MPKI
BRANCH_DIRECT_JUMP: 0.000107
BRANCH_INDIRECT: 4.17e-05
BRANCH_CONDITIONAL: 0.95
BRANCH_DIRECT_CALL: 0.000103
BRANCH_INDIRECT_CALL: 8.33e-06
BRANCH_RETURN: 1.83e-05

LLC TOTAL        ACCESS:    1182930 HIT:     535781 MISS:     647149
LLC LOAD         ACCESS:       2886 HIT:          6 MISS:       2880
LLC RFO          ACCESS:     535120 HIT:         62 MISS:     535058
LLC PREFETCH     ACCESS:          0 HIT:          0 MISS:          0
LLC WRITE        ACCESS:     535168 HIT:     535070 MISS:         98
LLC TRANSLATION  ACCESS:     109756 HIT:        643 MISS:     109113
LLC PREFETCH REQUESTED:          0 ISSUED:          0 USEFUL:          0 USELESS:          0
LLC AVERAGE MISS LATENCY: 1013 cycles
cpu0_DTLB TOTAL        ACCESS:  120041305 HIT:  119687536 MISS:     353769
cpu0_DTLB LOAD         ACCESS:  120041305 HIT:  119687536 MISS:     353769
cpu0_DTLB RFO          ACCESS:          0 HIT:          0 MISS:          0
cpu0_DTLB PREFETCH     ACCESS:          0 HIT:          0 MISS:          0
cpu0_DTLB WRITE        ACCESS:          0 HIT:          0 MISS:          0
cpu0_DTLB TRANSLATION  ACCESS:          0 HIT:          0 MISS:          0
cpu0_DTLB PREFETCH REQUESTED:          0 ISSUED:          0 USEFUL:          0 USELESS:          0
cpu0_DTLB AVERAGE MISS LATENCY: 654.5 cycles
cpu0_ITLB TOTAL        ACCESS:       2015 HIT:       1983 MISS:         32
cpu0_ITLB LOAD         ACCESS:       2015 HIT:       1983 MISS:         32
cpu0_ITLB RFO          ACCESS:          0 HIT:          0 MISS:          0
cpu0_ITLB PREFETCH     ACCESS:          0 HIT:          0 MISS:          0
cpu0_ITLB WRITE        ACCESS:          0 HIT:          0 MISS:          0
cpu0_ITLB TRANSLATION  ACCESS:          0 HIT:          0 MISS:          0
cpu0_ITLB PREFETCH REQUESTED:          0 ISSUED:          0 USEFUL:          0 USELESS:          0
cpu0_ITLB AVERAGE MISS LATENCY: 647.6 cycles
cpu0_L1D TOTAL        ACCESS:  161171910 HIT:  155019529 MISS:    6152381
cpu0_L1D LOAD         ACCESS:   88954830 HIT:   88948912 MISS:       5918
cpu0_L1D RFO          ACCESS:          0 HIT:          0 MISS:          0
cpu0_L1D PREFETCH     ACCESS:          0 HIT:          0 MISS:          0
cpu0_L1D WRITE        ACCESS:   72036469 HIT:   66032270 MISS:    6004199
cpu0_L1D TRANSLATION  ACCESS:     180611 HIT:      38347 MISS:     142264
cpu0_L1D PREFETCH REQUESTED:          0 ISSUED:          0 USEFUL:          0 USELESS:          0
cpu0_L1D AVERAGE MISS LATENCY: 81.86 cycles
cpu0_L1I TOTAL        ACCESS:       2316 HIT:       1005 MISS:       1311
cpu0_L1I LOAD         ACCESS:       2316 HIT:       1005 MISS:       1311
cpu0_L1I RFO          ACCESS:          0 HIT:          0 MISS:          0
cpu0_L1I PREFETCH     ACCESS:          0 HIT:          0 MISS:          0
cpu0_L1I WRITE        ACCESS:          0 HIT:          0 MISS:          0
cpu0_L1I TRANSLATION  ACCESS:          0 HIT:          0 MISS:          0
cpu0_L1I PREFETCH REQUESTED:          0 ISSUED:          0 USEFUL:          0 USELESS:          0
cpu0_L1I AVERAGE MISS LATENCY: 699.1 cycles
cpu0_L2C TOTAL        ACCESS:    1190693 HIT:     542914 MISS:     647779
cpu0_L2C LOAD         ACCESS:       3312 HIT:        426 MISS:       2886
cpu0_L2C RFO          ACCESS:     538082 HIT:       2962 MISS:     535120
cpu0_L2C PREFETCH     ACCESS:          0 HIT:          0 MISS:          0
cpu0_L2C WRITE        ACCESS:     538217 HIT:     538200 MISS:         17
cpu0_L2C TRANSLATION  ACCESS:     111082 HIT:       1326 MISS:     109756
cpu0_L2C PREFETCH REQUESTED:          0 ISSUED:          0 USEFUL:          0 USELESS:          0
cpu0_L2C AVERAGE MISS LATENCY: 1033 cycles
cpu0_STLB TOTAL        ACCESS:     156155 HIT:         46 MISS:     156109
cpu0_STLB LOAD         ACCESS:     156155 HIT:         46 MISS:     156109
cpu0_STLB RFO          ACCESS:          0 HIT:          0 MISS:          0
cpu0_STLB PREFETCH     ACCESS:          0 HIT:          0 MISS:          0
cpu0_STLB WRITE        ACCESS:          0 HIT:          0 MISS:          0
cpu0_STLB TRANSLATION  ACCESS:          0 HIT:          0 MISS:          0
cpu0_STLB PREFETCH REQUESTED:          0 ISSUED:          0 USEFUL:          0 USELESS:          0
cpu0_STLB AVERAGE MISS LATENCY: 1692 cycles

DRAM Statistics

Channel 0 RQ ROW_BUFFER_HIT:     141733
  ROW_BUFFER_MISS:     505311
 AVG DBUS CONGESTED CYCLE: 3.979
WQ ROW_BUFFER_HIT: Channel 0 
  ROW_BUFFER_MISS:      99346
  FULL:     435923
