WARNING: physical memory size is smaller than virtual memory size.

*** ChampSim Multicore Out-of-Order Simulator ***
Warmup Instructions: 50000000
Simulation Instructions: 600000000
Number of CPUs: 1
Page size: 4096

CPU 0 Tage branch predictor
Off-chip DRAM Size: 4 GiB Channels: 1 Width: 64-bit Data Race: 3200 MT/s
Heartbeat CPU 0 instructions: 10000000 cycles: 2500202 heartbeat IPC: 4 cumulative IPC: 4 (Simulation time: 00 hr 01 min 52 sec)
Heartbeat CPU 0 instructions: 20000000 cycles: 5000202 heartbeat IPC: 4 cumulative IPC: 4 (Simulation time: 00 hr 03 min 57 sec)
Heartbeat CPU 0 instructions: 30000000 cycles: 7500202 heartbeat IPC: 4 cumulative IPC: 4 (Simulation time: 00 hr 05 min 02 sec)
Heartbeat CPU 0 instructions: 40000000 cycles: 10000202 heartbeat IPC: 4 cumulative IPC: 4 (Simulation time: 00 hr 05 min 49 sec)
Heartbeat CPU 0 instructions: 50000000 cycles: 12500202 heartbeat IPC: 4 cumulative IPC: 4 (Simulation time: 00 hr 06 min 42 sec)
Warmup finished CPU 0 instructions: 50000000 cycles: 12500203 cumulative IPC: 4 (Simulation time: 00 hr 06 min 42 sec)
Warmup complete CPU 0 instructions: 50000000 cycles: 12500203 cumulative IPC: 4 (Simulation time: 00 hr 06 min 42 sec)
Heartbeat CPU 0 instructions: 60000002 cycles: 15590739 heartbeat IPC: 3.236 cumulative IPC: 3.236 (Simulation time: 00 hr 07 min 50 sec)
Heartbeat CPU 0 instructions: 70000002 cycles: 18099848 heartbeat IPC: 3.985 cumulative IPC: 3.572 (Simulation time: 00 hr 08 min 56 sec)
Heartbeat CPU 0 instructions: 80000003 cycles: 20605926 heartbeat IPC: 3.99 cumulative IPC: 3.701 (Simulation time: 00 hr 10 min 04 sec)
Heartbeat CPU 0 instructions: 90000004 cycles: 23118530 heartbeat IPC: 3.98 cumulative IPC: 3.767 (Simulation time: 00 hr 11 min 09 sec)
Heartbeat CPU 0 instructions: 100000003 cycles: 25629234 heartbeat IPC: 3.983 cumulative IPC: 3.808 (Simulation time: 00 hr 12 min 11 sec)
Heartbeat CPU 0 instructions: 110000000 cycles: 28135497 heartbeat IPC: 3.99 cumulative IPC: 3.837 (Simulation time: 00 hr 13 min 14 sec)
Heartbeat CPU 0 instructions: 120000000 cycles: 30643457 heartbeat IPC: 3.987 cumulative IPC: 3.858 (Simulation time: 00 hr 14 min 13 sec)
Heartbeat CPU 0 instructions: 130000000 cycles: 33150520 heartbeat IPC: 3.989 cumulative IPC: 3.874 (Simulation time: 00 hr 15 min 12 sec)
Heartbeat CPU 0 instructions: 140000001 cycles: 35662008 heartbeat IPC: 3.982 cumulative IPC: 3.886 (Simulation time: 00 hr 16 min 13 sec)
Heartbeat CPU 0 instructions: 150000003 cycles: 38163566 heartbeat IPC: 3.998 cumulative IPC: 3.897 (Simulation time: 00 hr 17 min 19 sec)
Heartbeat CPU 0 instructions: 160000003 cycles: 40670911 heartbeat IPC: 3.988 cumulative IPC: 3.905 (Simulation time: 00 hr 18 min 23 sec)
Heartbeat CPU 0 instructions: 170000000 cycles: 43178614 heartbeat IPC: 3.988 cumulative IPC: 3.912 (Simulation time: 00 hr 19 min 28 sec)
Heartbeat CPU 0 instructions: 180000001 cycles: 45684066 heartbeat IPC: 3.991 cumulative IPC: 3.918 (Simulation time: 00 hr 20 min 10 sec)
Heartbeat CPU 0 instructions: 190000002 cycles: 48186838 heartbeat IPC: 3.996 cumulative IPC: 3.923 (Simulation time: 00 hr 20 min 52 sec)
Heartbeat CPU 0 instructions: 200000002 cycles: 50693033 heartbeat IPC: 3.99 cumulative IPC: 3.927 (Simulation time: 00 hr 21 min 35 sec)
Heartbeat CPU 0 instructions: 210000000 cycles: 53198208 heartbeat IPC: 3.992 cumulative IPC: 3.931 (Simulation time: 00 hr 22 min 17 sec)
Heartbeat CPU 0 instructions: 220000001 cycles: 55708368 heartbeat IPC: 3.984 cumulative IPC: 3.934 (Simulation time: 00 hr 22 min 59 sec)
Heartbeat CPU 0 instructions: 230000002 cycles: 58218279 heartbeat IPC: 3.984 cumulative IPC: 3.937 (Simulation time: 00 hr 23 min 42 sec)
Heartbeat CPU 0 instructions: 240000004 cycles: 60727389 heartbeat IPC: 3.985 cumulative IPC: 3.94 (Simulation time: 00 hr 24 min 24 sec)
Heartbeat CPU 0 instructions: 250000000 cycles: 63234473 heartbeat IPC: 3.989 cumulative IPC: 3.942 (Simulation time: 00 hr 25 min 05 sec)
Heartbeat CPU 0 instructions: 260000000 cycles: 65745146 heartbeat IPC: 3.983 cumulative IPC: 3.944 (Simulation time: 00 hr 25 min 48 sec)
Heartbeat CPU 0 instructions: 270000002 cycles: 68249715 heartbeat IPC: 3.993 cumulative IPC: 3.946 (Simulation time: 00 hr 26 min 32 sec)
Heartbeat CPU 0 instructions: 280000003 cycles: 70761055 heartbeat IPC: 3.982 cumulative IPC: 3.948 (Simulation time: 00 hr 27 min 14 sec)
Heartbeat CPU 0 instructions: 290000000 cycles: 73273496 heartbeat IPC: 3.98 cumulative IPC: 3.949 (Simulation time: 00 hr 27 min 57 sec)
Heartbeat CPU 0 instructions: 300000000 cycles: 75787173 heartbeat IPC: 3.978 cumulative IPC: 3.95 (Simulation time: 00 hr 28 min 39 sec)
Heartbeat CPU 0 instructions: 310000002 cycles: 78298345 heartbeat IPC: 3.982 cumulative IPC: 3.951 (Simulation time: 00 hr 29 min 20 sec)
Heartbeat CPU 0 instructions: 320000004 cycles: 80803683 heartbeat IPC: 3.991 cumulative IPC: 3.953 (Simulation time: 00 hr 30 min 01 sec)
Heartbeat CPU 0 instructions: 330000000 cycles: 83307809 heartbeat IPC: 3.993 cumulative IPC: 3.954 (Simulation time: 00 hr 30 min 46 sec)
Heartbeat CPU 0 instructions: 340000002 cycles: 85816746 heartbeat IPC: 3.986 cumulative IPC: 3.955 (Simulation time: 00 hr 31 min 39 sec)
Heartbeat CPU 0 instructions: 350000002 cycles: 88323846 heartbeat IPC: 3.989 cumulative IPC: 3.957 (Simulation time: 00 hr 32 min 24 sec)
Heartbeat CPU 0 instructions: 360000000 cycles: 90833191 heartbeat IPC: 3.985 cumulative IPC: 3.957 (Simulation time: 00 hr 33 min 08 sec)
Heartbeat CPU 0 instructions: 370000004 cycles: 93344258 heartbeat IPC: 3.982 cumulative IPC: 3.958 (Simulation time: 00 hr 34 min 00 sec)
Heartbeat CPU 0 instructions: 380000000 cycles: 95855585 heartbeat IPC: 3.982 cumulative IPC: 3.959 (Simulation time: 00 hr 34 min 47 sec)
Heartbeat CPU 0 instructions: 390000000 cycles: 98359789 heartbeat IPC: 3.993 cumulative IPC: 3.96 (Simulation time: 00 hr 35 min 34 sec)
Heartbeat CPU 0 instructions: 400000000 cycles: 100866527 heartbeat IPC: 3.989 cumulative IPC: 3.961 (Simulation time: 00 hr 36 min 24 sec)
Heartbeat CPU 0 instructions: 410000000 cycles: 103372013 heartbeat IPC: 3.991 cumulative IPC: 3.962 (Simulation time: 00 hr 37 min 19 sec)
Heartbeat CPU 0 instructions: 420000001 cycles: 105872880 heartbeat IPC: 3.999 cumulative IPC: 3.963 (Simulation time: 00 hr 38 min 10 sec)
Heartbeat CPU 0 instructions: 430000003 cycles: 108380227 heartbeat IPC: 3.988 cumulative IPC: 3.963 (Simulation time: 00 hr 38 min 57 sec)
Heartbeat CPU 0 instructions: 440000003 cycles: 110888923 heartbeat IPC: 3.986 cumulative IPC: 3.964 (Simulation time: 00 hr 39 min 44 sec)
Heartbeat CPU 0 instructions: 450000004 cycles: 113406445 heartbeat IPC: 3.972 cumulative IPC: 3.964 (Simulation time: 00 hr 40 min 29 sec)
Heartbeat CPU 0 instructions: 460000001 cycles: 115915606 heartbeat IPC: 3.985 cumulative IPC: 3.965 (Simulation time: 00 hr 41 min 19 sec)
Heartbeat CPU 0 instructions: 470000002 cycles: 118421076 heartbeat IPC: 3.991 cumulative IPC: 3.965 (Simulation time: 00 hr 42 min 06 sec)
Heartbeat CPU 0 instructions: 480000001 cycles: 120928409 heartbeat IPC: 3.988 cumulative IPC: 3.966 (Simulation time: 00 hr 42 min 51 sec)
Heartbeat CPU 0 instructions: 490000000 cycles: 123435451 heartbeat IPC: 3.989 cumulative IPC: 3.966 (Simulation time: 00 hr 43 min 39 sec)
Heartbeat CPU 0 instructions: 500000002 cycles: 125951321 heartbeat IPC: 3.975 cumulative IPC: 3.966 (Simulation time: 00 hr 44 min 26 sec)
Heartbeat CPU 0 instructions: 510000003 cycles: 128459906 heartbeat IPC: 3.986 cumulative IPC: 3.967 (Simulation time: 00 hr 45 min 17 sec)
Heartbeat CPU 0 instructions: 520000004 cycles: 130966865 heartbeat IPC: 3.989 cumulative IPC: 3.967 (Simulation time: 00 hr 46 min 05 sec)
Heartbeat CPU 0 instructions: 530000000 cycles: 133475164 heartbeat IPC: 3.987 cumulative IPC: 3.968 (Simulation time: 00 hr 46 min 57 sec)
Heartbeat CPU 0 instructions: 540000001 cycles: 135986518 heartbeat IPC: 3.982 cumulative IPC: 3.968 (Simulation time: 00 hr 47 min 39 sec)
Heartbeat CPU 0 instructions: 550000002 cycles: 138492037 heartbeat IPC: 3.991 cumulative IPC: 3.969 (Simulation time: 00 hr 48 min 23 sec)
Heartbeat CPU 0 instructions: 560000003 cycles: 141001906 heartbeat IPC: 3.984 cumulative IPC: 3.969 (Simulation time: 00 hr 49 min 09 sec)
Heartbeat CPU 0 instructions: 570000004 cycles: 143514606 heartbeat IPC: 3.98 cumulative IPC: 3.969 (Simulation time: 00 hr 49 min 55 sec)
Heartbeat CPU 0 instructions: 580000000 cycles: 146031953 heartbeat IPC: 3.972 cumulative IPC: 3.969 (Simulation time: 00 hr 50 min 42 sec)
Heartbeat CPU 0 instructions: 590000002 cycles: 148542400 heartbeat IPC: 3.983 cumulative IPC: 3.969 (Simulation time: 00 hr 51 min 33 sec)
*** Reached end of trace: (0, "traces/convolution.champsimtrace")
Heartbeat CPU 0 instructions: 600000000 cycles: 151052785 heartbeat IPC: 3.983 cumulative IPC: 3.97 (Simulation time: 00 hr 52 min 29 sec)
Heartbeat CPU 0 instructions: 610000002 cycles: 171667688 heartbeat IPC: 0.4851 cumulative IPC: 3.518 (Simulation time: 00 hr 55 min 23 sec)
Heartbeat CPU 0 instructions: 620000001 cycles: 190686293 heartbeat IPC: 0.5258 cumulative IPC: 3.199 (Simulation time: 00 hr 58 min 10 sec)
Heartbeat CPU 0 instructions: 630000001 cycles: 195159308 heartbeat IPC: 2.236 cumulative IPC: 3.175 (Simulation time: 00 hr 59 min 10 sec)
Heartbeat CPU 0 instructions: 640000004 cycles: 201791750 heartbeat IPC: 1.508 cumulative IPC: 3.117 (Simulation time: 01 hr 00 min 26 sec)
Heartbeat CPU 0 instructions: 650000001 cycles: 211979605 heartbeat IPC: 0.9816 cumulative IPC: 3.008 (Simulation time: 01 hr 02 min 03 sec)
Simulation finished CPU 0 instructions: 600000001 cycles: 199479403 cumulative IPC: 3.008 (Simulation time: 01 hr 02 min 03 sec)
Simulation complete CPU 0 instructions: 600000001 cycles: 199479403 cumulative IPC: 3.008 (Simulation time: 01 hr 02 min 03 sec)

ChampSim completed all CPUs

=== Simulation ===
CPU 0 runs traces/convolution.champsimtrace
Region of Interest Statistics

CPU 0 cumulative IPC: 3.008 instructions: 600000001 cycles: 199479403
CPU 0 Branch Prediction Accuracy: 100% MPKI: 0.002858 Average ROB Occupancy at Mispredict: 78.35
Branch type MPKI
BRANCH_DIRECT_JUMP: 0.000107
BRANCH_INDIRECT: 4.17e-05
BRANCH_CONDITIONAL: 0.00258
BRANCH_DIRECT_CALL: 0.000103
BRANCH_INDIRECT_CALL: 8.33e-06
BRANCH_RETURN: 1.83e-05

LLC TOTAL        ACCESS:    1184972 HIT:     264427 MISS:     920545
LLC LOAD         ACCESS:       2886 HIT:        929 MISS:       1957
LLC RFO          ACCESS:     535121 HIT:      60668 MISS:     474453
LLC PREFETCH     ACCESS:       2066 HIT:       2002 MISS:         64
LLC WRITE        ACCESS:     535172 HIT:     200230 MISS:     334942
LLC TRANSLATION  ACCESS:     109727 HIT:        598 MISS:     109129
LLC PREFETCH REQUESTED:       2066 ISSUED:       2066 USEFUL:         12 USELESS:         29
LLC AVERAGE MISS LATENCY: 596.1 cycles
cpu0_DTLB TOTAL        ACCESS:  113153326 HIT:  112799366 MISS:     353960
cpu0_DTLB LOAD         ACCESS:  113153326 HIT:  112799366 MISS:     353960
cpu0_DTLB RFO          ACCESS:          0 HIT:          0 MISS:          0
cpu0_DTLB PREFETCH     ACCESS:          0 HIT:          0 MISS:          0
cpu0_DTLB WRITE        ACCESS:          0 HIT:          0 MISS:          0
cpu0_DTLB TRANSLATION  ACCESS:          0 HIT:          0 MISS:          0
cpu0_DTLB PREFETCH REQUESTED:          0 ISSUED:          0 USEFUL:          0 USELESS:          0
cpu0_DTLB AVERAGE MISS LATENCY: 531.7 cycles
cpu0_ITLB TOTAL        ACCESS:       2106 HIT:       2071 MISS:         35
cpu0_ITLB LOAD         ACCESS:       2106 HIT:       2071 MISS:         35
cpu0_ITLB RFO          ACCESS:          0 HIT:          0 MISS:          0
cpu0_ITLB PREFETCH     ACCESS:          0 HIT:          0 MISS:          0
cpu0_ITLB WRITE        ACCESS:          0 HIT:          0 MISS:          0
cpu0_ITLB TRANSLATION  ACCESS:          0 HIT:          0 MISS:          0
cpu0_ITLB PREFETCH REQUESTED:          0 ISSUED:          0 USEFUL:          0 USELESS:          0
cpu0_ITLB AVERAGE MISS LATENCY: 703.8 cycles
cpu0_L1D TOTAL        ACCESS:  146362517 HIT:  140211576 MISS:    6150941
cpu0_L1D LOAD         ACCESS:   74225486 HIT:   74216494 MISS:       8992
cpu0_L1D RFO          ACCESS:          0 HIT:          0 MISS:          0
cpu0_L1D PREFETCH     ACCESS:          0 HIT:          0 MISS:          0
cpu0_L1D WRITE        ACCESS:   71956392 HIT:   65956467 MISS:    5999925
cpu0_L1D TRANSLATION  ACCESS:     180639 HIT:      38615 MISS:     142024
cpu0_L1D PREFETCH REQUESTED:          0 ISSUED:          0 USEFUL:          0 USELESS:          0
cpu0_L1D AVERAGE MISS LATENCY: 69.03 cycles
cpu0_L1I TOTAL        ACCESS:       2459 HIT:        995 MISS:       1464
cpu0_L1I LOAD         ACCESS:       2459 HIT:        995 MISS:       1464
cpu0_L1I RFO          ACCESS:          0 HIT:          0 MISS:          0
cpu0_L1I PREFETCH     ACCESS:          0 HIT:          0 MISS:          0
cpu0_L1I WRITE        ACCESS:          0 HIT:          0 MISS:          0
cpu0_L1I TRANSLATION  ACCESS:          0 HIT:          0 MISS:          0
cpu0_L1I PREFETCH REQUESTED:          0 ISSUED:          0 USEFUL:          0 USELESS:          0
cpu0_L1I AVERAGE MISS LATENCY: 561.4 cycles
cpu0_L2C TOTAL        ACCESS:    1193250 HIT:     545497 MISS:     647753
cpu0_L2C LOAD         ACCESS:       3311 HIT:        425 MISS:       2886
cpu0_L2C RFO          ACCESS:     539205 HIT:       4083 MISS:     535122
cpu0_L2C PREFETCH     ACCESS:          0 HIT:          0 MISS:          0
cpu0_L2C WRITE        ACCESS:     539595 HIT:     539578 MISS:         17
cpu0_L2C TRANSLATION  ACCESS:     111139 HIT:       1411 MISS:     109728
cpu0_L2C PREFETCH REQUESTED:          0 ISSUED:          0 USEFUL:          0 USELESS:          0
cpu0_L2C AVERAGE MISS LATENCY: 867.9 cycles
cpu0_STLB TOTAL        ACCESS:     156150 HIT:         42 MISS:     156108
cpu0_STLB LOAD         ACCESS:     156150 HIT:         42 MISS:     156108
cpu0_STLB RFO          ACCESS:          0 HIT:          0 MISS:          0
cpu0_STLB PREFETCH     ACCESS:          0 HIT:          0 MISS:          0
cpu0_STLB WRITE        ACCESS:          0 HIT:          0 MISS:          0
cpu0_STLB TRANSLATION  ACCESS:          0 HIT:          0 MISS:          0
cpu0_STLB PREFETCH REQUESTED:          0 ISSUED:          0 USEFUL:          0 USELESS:          0
cpu0_STLB AVERAGE MISS LATENCY: 1338 cycles

DRAM Statistics

Channel 0 RQ ROW_BUFFER_HIT:     138754
  ROW_BUFFER_MISS:     446813
 AVG DBUS CONGESTED CYCLE: 3.978
WQ ROW_BUFFER_HIT: Channel 0 
  ROW_BUFFER_MISS:     121065
  FULL:     353726
