WARNING: physical memory size is smaller than virtual memory size.

*** ChampSim Multicore Out-of-Order Simulator ***
Warmup Instructions: 50000000
Simulation Instructions: 600000000
Number of CPUs: 1
Page size: 4096

CPU 0 Tage branch predictor
Off-chip DRAM Size: 4 GiB Channels: 1 Width: 64-bit Data Race: 3200 MT/s
Heartbeat CPU 0 instructions: 10000002 cycles: 2500202 heartbeat IPC: 4 cumulative IPC: 4 (Simulation time: 00 hr 00 min 40 sec)
Heartbeat CPU 0 instructions: 20000002 cycles: 5000202 heartbeat IPC: 4 cumulative IPC: 4 (Simulation time: 00 hr 01 min 18 sec)
Heartbeat CPU 0 instructions: 30000002 cycles: 7500202 heartbeat IPC: 4 cumulative IPC: 4 (Simulation time: 00 hr 01 min 54 sec)
Heartbeat CPU 0 instructions: 40000002 cycles: 10000202 heartbeat IPC: 4 cumulative IPC: 4 (Simulation time: 00 hr 02 min 30 sec)
Heartbeat CPU 0 instructions: 50000002 cycles: 12500202 heartbeat IPC: 4 cumulative IPC: 4 (Simulation time: 00 hr 03 min 06 sec)
Warmup finished CPU 0 instructions: 50000002 cycles: 12500203 cumulative IPC: 4 (Simulation time: 00 hr 03 min 06 sec)
Warmup complete CPU 0 instructions: 50000002 cycles: 12500203 cumulative IPC: 4 (Simulation time: 00 hr 03 min 06 sec)
Heartbeat CPU 0 instructions: 60000004 cycles: 15599664 heartbeat IPC: 3.226 cumulative IPC: 3.226 (Simulation time: 00 hr 03 min 50 sec)
Heartbeat CPU 0 instructions: 70000000 cycles: 18107584 heartbeat IPC: 3.987 cumulative IPC: 3.567 (Simulation time: 00 hr 04 min 30 sec)
Heartbeat CPU 0 instructions: 80000003 cycles: 20625871 heartbeat IPC: 3.971 cumulative IPC: 3.692 (Simulation time: 00 hr 05 min 09 sec)
Heartbeat CPU 0 instructions: 90000004 cycles: 23139825 heartbeat IPC: 3.978 cumulative IPC: 3.76 (Simulation time: 00 hr 05 min 49 sec)
Heartbeat CPU 0 instructions: 100000004 cycles: 25653681 heartbeat IPC: 3.978 cumulative IPC: 3.801 (Simulation time: 00 hr 06 min 27 sec)
Heartbeat CPU 0 instructions: 110000004 cycles: 28165258 heartbeat IPC: 3.982 cumulative IPC: 3.83 (Simulation time: 00 hr 07 min 05 sec)
Heartbeat CPU 0 instructions: 120000000 cycles: 30676094 heartbeat IPC: 3.983 cumulative IPC: 3.851 (Simulation time: 00 hr 07 min 42 sec)
Heartbeat CPU 0 instructions: 130000000 cycles: 33184391 heartbeat IPC: 3.987 cumulative IPC: 3.868 (Simulation time: 00 hr 08 min 18 sec)
Heartbeat CPU 0 instructions: 140000004 cycles: 35697146 heartbeat IPC: 3.98 cumulative IPC: 3.88 (Simulation time: 00 hr 08 min 55 sec)
Heartbeat CPU 0 instructions: 150000004 cycles: 38210119 heartbeat IPC: 3.979 cumulative IPC: 3.89 (Simulation time: 00 hr 09 min 32 sec)
Heartbeat CPU 0 instructions: 160000000 cycles: 40713242 heartbeat IPC: 3.995 cumulative IPC: 3.899 (Simulation time: 00 hr 10 min 08 sec)
Heartbeat CPU 0 instructions: 170000000 cycles: 43226662 heartbeat IPC: 3.979 cumulative IPC: 3.905 (Simulation time: 00 hr 10 min 46 sec)
Heartbeat CPU 0 instructions: 180000000 cycles: 45736766 heartbeat IPC: 3.984 cumulative IPC: 3.911 (Simulation time: 00 hr 11 min 22 sec)
Heartbeat CPU 0 instructions: 190000000 cycles: 48254655 heartbeat IPC: 3.972 cumulative IPC: 3.916 (Simulation time: 00 hr 11 min 59 sec)
Heartbeat CPU 0 instructions: 200000003 cycles: 50761157 heartbeat IPC: 3.99 cumulative IPC: 3.92 (Simulation time: 00 hr 12 min 35 sec)
Heartbeat CPU 0 instructions: 210000004 cycles: 53275180 heartbeat IPC: 3.978 cumulative IPC: 3.924 (Simulation time: 00 hr 13 min 13 sec)
Heartbeat CPU 0 instructions: 220000004 cycles: 55787151 heartbeat IPC: 3.981 cumulative IPC: 3.927 (Simulation time: 00 hr 13 min 50 sec)
Heartbeat CPU 0 instructions: 230000000 cycles: 58304098 heartbeat IPC: 3.973 cumulative IPC: 3.93 (Simulation time: 00 hr 14 min 26 sec)
Heartbeat CPU 0 instructions: 240000000 cycles: 60811935 heartbeat IPC: 3.987 cumulative IPC: 3.933 (Simulation time: 00 hr 15 min 02 sec)
Heartbeat CPU 0 instructions: 250000003 cycles: 63324949 heartbeat IPC: 3.979 cumulative IPC: 3.935 (Simulation time: 00 hr 15 min 38 sec)
Heartbeat CPU 0 instructions: 260000004 cycles: 65841669 heartbeat IPC: 3.973 cumulative IPC: 3.937 (Simulation time: 00 hr 16 min 15 sec)
Heartbeat CPU 0 instructions: 270000004 cycles: 68359162 heartbeat IPC: 3.972 cumulative IPC: 3.938 (Simulation time: 00 hr 16 min 51 sec)
Heartbeat CPU 0 instructions: 280000000 cycles: 70873661 heartbeat IPC: 3.977 cumulative IPC: 3.94 (Simulation time: 00 hr 17 min 28 sec)
Heartbeat CPU 0 instructions: 290000000 cycles: 73385279 heartbeat IPC: 3.981 cumulative IPC: 3.942 (Simulation time: 00 hr 18 min 04 sec)
Heartbeat CPU 0 instructions: 300000000 cycles: 75894414 heartbeat IPC: 3.985 cumulative IPC: 3.944 (Simulation time: 00 hr 18 min 41 sec)
Heartbeat CPU 0 instructions: 310000004 cycles: 78405318 heartbeat IPC: 3.983 cumulative IPC: 3.945 (Simulation time: 00 hr 19 min 18 sec)
Heartbeat CPU 0 instructions: 320000003 cycles: 80915670 heartbeat IPC: 3.984 cumulative IPC: 3.946 (Simulation time: 00 hr 19 min 54 sec)
Heartbeat CPU 0 instructions: 330000004 cycles: 83426184 heartbeat IPC: 3.983 cumulative IPC: 3.948 (Simulation time: 00 hr 20 min 30 sec)
Heartbeat CPU 0 instructions: 340000004 cycles: 85936373 heartbeat IPC: 3.984 cumulative IPC: 3.949 (Simulation time: 00 hr 21 min 06 sec)
Heartbeat CPU 0 instructions: 350000000 cycles: 88449942 heartbeat IPC: 3.978 cumulative IPC: 3.95 (Simulation time: 00 hr 21 min 43 sec)
Heartbeat CPU 0 instructions: 360000000 cycles: 90960576 heartbeat IPC: 3.983 cumulative IPC: 3.951 (Simulation time: 00 hr 22 min 19 sec)
Heartbeat CPU 0 instructions: 370000004 cycles: 93474825 heartbeat IPC: 3.977 cumulative IPC: 3.952 (Simulation time: 00 hr 22 min 55 sec)
Heartbeat CPU 0 instructions: 380000004 cycles: 95984005 heartbeat IPC: 3.985 cumulative IPC: 3.953 (Simulation time: 00 hr 23 min 31 sec)
Heartbeat CPU 0 instructions: 390000004 cycles: 98495965 heartbeat IPC: 3.981 cumulative IPC: 3.954 (Simulation time: 00 hr 24 min 07 sec)
Heartbeat CPU 0 instructions: 400000000 cycles: 101002925 heartbeat IPC: 3.989 cumulative IPC: 3.955 (Simulation time: 00 hr 24 min 44 sec)
Heartbeat CPU 0 instructions: 410000000 cycles: 103510794 heartbeat IPC: 3.987 cumulative IPC: 3.956 (Simulation time: 00 hr 25 min 20 sec)
Heartbeat CPU 0 instructions: 420000004 cycles: 106024427 heartbeat IPC: 3.978 cumulative IPC: 3.956 (Simulation time: 00 hr 25 min 56 sec)
Heartbeat CPU 0 instructions: 430000004 cycles: 108539568 heartbeat IPC: 3.976 cumulative IPC: 3.957 (Simulation time: 00 hr 26 min 32 sec)
Heartbeat CPU 0 instructions: 440000004 cycles: 111050227 heartbeat IPC: 3.983 cumulative IPC: 3.957 (Simulation time: 00 hr 27 min 09 sec)
Heartbeat CPU 0 instructions: 450000004 cycles: 113558387 heartbeat IPC: 3.987 cumulative IPC: 3.958 (Simulation time: 00 hr 27 min 44 sec)
Heartbeat CPU 0 instructions: 460000004 cycles: 116072495 heartbeat IPC: 3.978 cumulative IPC: 3.959 (Simulation time: 00 hr 28 min 20 sec)
Heartbeat CPU 0 instructions: 470000000 cycles: 118581700 heartbeat IPC: 3.985 cumulative IPC: 3.959 (Simulation time: 00 hr 28 min 57 sec)
Heartbeat CPU 0 instructions: 480000000 cycles: 121087529 heartbeat IPC: 3.991 cumulative IPC: 3.96 (Simulation time: 00 hr 29 min 34 sec)
Heartbeat CPU 0 instructions: 490000004 cycles: 123600196 heartbeat IPC: 3.98 cumulative IPC: 3.96 (Simulation time: 00 hr 30 min 10 sec)
Heartbeat CPU 0 instructions: 500000004 cycles: 126109518 heartbeat IPC: 3.985 cumulative IPC: 3.961 (Simulation time: 00 hr 30 min 46 sec)
Heartbeat CPU 0 instructions: 510000004 cycles: 128616571 heartbeat IPC: 3.989 cumulative IPC: 3.962 (Simulation time: 00 hr 31 min 22 sec)
Heartbeat CPU 0 instructions: 520000000 cycles: 131130561 heartbeat IPC: 3.978 cumulative IPC: 3.962 (Simulation time: 00 hr 31 min 58 sec)
Heartbeat CPU 0 instructions: 530000000 cycles: 133648317 heartbeat IPC: 3.972 cumulative IPC: 3.962 (Simulation time: 00 hr 32 min 34 sec)
Heartbeat CPU 0 instructions: 540000004 cycles: 136155257 heartbeat IPC: 3.989 cumulative IPC: 3.963 (Simulation time: 00 hr 33 min 11 sec)
Heartbeat CPU 0 instructions: 550000004 cycles: 138665198 heartbeat IPC: 3.984 cumulative IPC: 3.963 (Simulation time: 00 hr 33 min 46 sec)
Heartbeat CPU 0 instructions: 560000000 cycles: 141171346 heartbeat IPC: 3.99 cumulative IPC: 3.964 (Simulation time: 00 hr 34 min 19 sec)
Heartbeat CPU 0 instructions: 570000000 cycles: 143676144 heartbeat IPC: 3.992 cumulative IPC: 3.964 (Simulation time: 00 hr 34 min 53 sec)
Heartbeat CPU 0 instructions: 580000000 cycles: 146185671 heartbeat IPC: 3.985 cumulative IPC: 3.965 (Simulation time: 00 hr 35 min 23 sec)
Heartbeat CPU 0 instructions: 590000000 cycles: 148697419 heartbeat IPC: 3.981 cumulative IPC: 3.965 (Simulation time: 00 hr 35 min 53 sec)
*** Reached end of trace: (0, "traces/convolution.champsimtrace")
Heartbeat CPU 0 instructions: 600000000 cycles: 151217453 heartbeat IPC: 3.968 cumulative IPC: 3.965 (Simulation time: 00 hr 36 min 22 sec)
Heartbeat CPU 0 instructions: 610000004 cycles: 173623227 heartbeat IPC: 0.4463 cumulative IPC: 3.476 (Simulation time: 00 hr 37 min 53 sec)
Heartbeat CPU 0 instructions: 620000000 cycles: 193331012 heartbeat IPC: 0.5074 cumulative IPC: 3.152 (Simulation time: 00 hr 38 min 57 sec)
Heartbeat CPU 0 instructions: 630000003 cycles: 197941730 heartbeat IPC: 2.169 cumulative IPC: 3.128 (Simulation time: 00 hr 39 min 21 sec)
Heartbeat CPU 0 instructions: 640000002 cycles: 208170791 heartbeat IPC: 0.9776 cumulative IPC: 3.015 (Simulation time: 00 hr 39 min 57 sec)
Heartbeat CPU 0 instructions: 650000004 cycles: 218986796 heartbeat IPC: 0.9246 cumulative IPC: 2.906 (Simulation time: 00 hr 40 min 33 sec)
Simulation finished CPU 0 instructions: 600000002 cycles: 206486594 cumulative IPC: 2.906 (Simulation time: 00 hr 40 min 33 sec)
Simulation complete CPU 0 instructions: 600000002 cycles: 206486594 cumulative IPC: 2.906 (Simulation time: 00 hr 40 min 33 sec)

ChampSim completed all CPUs

=== Simulation ===
CPU 0 runs traces/convolution.champsimtrace
Region of Interest Statistics

CPU 0 cumulative IPC: 2.906 instructions: 600000002 cycles: 206486594
CPU 0 Branch Prediction Accuracy: 100% MPKI: 0.002727 Average ROB Occupancy at Mispredict: 81.71
Branch type MPKI
BRANCH_DIRECT_JUMP: 1e-05
BRANCH_INDIRECT: 4.67e-05
BRANCH_CONDITIONAL: 0.00263
BRANCH_DIRECT_CALL: 6.67e-06
BRANCH_INDIRECT_CALL: 8.33e-06
BRANCH_RETURN: 2.17e-05

LLC TOTAL        ACCESS:    1190580 HIT:     200819 MISS:     989761
LLC LOAD         ACCESS:       2892 HIT:        768 MISS:       2124
LLC RFO          ACCESS:     539060 HIT:      31219 MISS:     507841
LLC PREFETCH     ACCESS:          0 HIT:          0 MISS:          0
LLC WRITE        ACCESS:     539115 HIT:     138513 MISS:     400602
LLC TRANSLATION  ACCESS:     109513 HIT:      30319 MISS:      79194
LLC PREFETCH REQUESTED:          0 ISSUED:          0 USEFUL:          0 USELESS:          0
LLC AVERAGE MISS LATENCY: 633.1 cycles
cpu0_DTLB TOTAL        ACCESS:  108730794 HIT:  108415603 MISS:     315191
cpu0_DTLB LOAD         ACCESS:  108730794 HIT:  108415603 MISS:     315191
cpu0_DTLB RFO          ACCESS:          0 HIT:          0 MISS:          0
cpu0_DTLB PREFETCH     ACCESS:          0 HIT:          0 MISS:          0
cpu0_DTLB WRITE        ACCESS:          0 HIT:          0 MISS:          0
cpu0_DTLB TRANSLATION  ACCESS:          0 HIT:          0 MISS:          0
cpu0_DTLB PREFETCH REQUESTED:          0 ISSUED:          0 USEFUL:          0 USELESS:          0
cpu0_DTLB AVERAGE MISS LATENCY: 656.2 cycles
cpu0_ITLB TOTAL        ACCESS:       2077 HIT:       2021 MISS:         56
cpu0_ITLB LOAD         ACCESS:       2077 HIT:       2021 MISS:         56
cpu0_ITLB RFO          ACCESS:          0 HIT:          0 MISS:          0
cpu0_ITLB PREFETCH     ACCESS:          0 HIT:          0 MISS:          0
cpu0_ITLB WRITE        ACCESS:          0 HIT:          0 MISS:          0
cpu0_ITLB TRANSLATION  ACCESS:          0 HIT:          0 MISS:          0
cpu0_ITLB PREFETCH REQUESTED:          0 ISSUED:          0 USEFUL:          0 USELESS:          0
cpu0_ITLB AVERAGE MISS LATENCY: 529.5 cycles
cpu0_L1D TOTAL        ACCESS:  142646109 HIT:  136441380 MISS:    6204729
cpu0_L1D LOAD         ACCESS:   69785994 HIT:   69778064 MISS:       7930
cpu0_L1D RFO          ACCESS:          0 HIT:          0 MISS:          0
cpu0_L1D PREFETCH     ACCESS:          0 HIT:          0 MISS:          0
cpu0_L1D WRITE        ACCESS:   72679595 HIT:   66629092 MISS:    6050503
cpu0_L1D TRANSLATION  ACCESS:     180520 HIT:      34224 MISS:     146296
cpu0_L1D PREFETCH REQUESTED:          0 ISSUED:          0 USEFUL:          0 USELESS:          0
cpu0_L1D AVERAGE MISS LATENCY: 82.13 cycles
cpu0_L1I TOTAL        ACCESS:       2424 HIT:        996 MISS:       1428
cpu0_L1I LOAD         ACCESS:       2424 HIT:        996 MISS:       1428
cpu0_L1I RFO          ACCESS:          0 HIT:          0 MISS:          0
cpu0_L1I PREFETCH     ACCESS:          0 HIT:          0 MISS:          0
cpu0_L1I WRITE        ACCESS:          0 HIT:          0 MISS:          0
cpu0_L1I TRANSLATION  ACCESS:          0 HIT:          0 MISS:          0
cpu0_L1I PREFETCH REQUESTED:          0 ISSUED:          0 USEFUL:          0 USELESS:          0
cpu0_L1I AVERAGE MISS LATENCY: 504.5 cycles
cpu0_L2C TOTAL        ACCESS:    1201625 HIT:     550139 MISS:     651486
cpu0_L2C LOAD         ACCESS:       3320 HIT:        428 MISS:       2892
cpu0_L2C RFO          ACCESS:     543626 HIT:       4566 MISS:     539060
cpu0_L2C PREFETCH     ACCESS:          0 HIT:          0 MISS:          0
cpu0_L2C WRITE        ACCESS:     543967 HIT:     543946 MISS:         21
cpu0_L2C TRANSLATION  ACCESS:     110712 HIT:       1199 MISS:     109513
cpu0_L2C PREFETCH REQUESTED:          0 ISSUED:          0 USEFUL:          0 USELESS:          0
cpu0_L2C AVERAGE MISS LATENCY: 982.7 cycles
cpu0_STLB TOTAL        ACCESS:     156216 HIT:         40 MISS:     156176
cpu0_STLB LOAD         ACCESS:     156216 HIT:         40 MISS:     156176
cpu0_STLB RFO          ACCESS:          0 HIT:          0 MISS:          0
cpu0_STLB PREFETCH     ACCESS:          0 HIT:          0 MISS:          0
cpu0_STLB WRITE        ACCESS:          0 HIT:          0 MISS:          0
cpu0_STLB TRANSLATION  ACCESS:          0 HIT:          0 MISS:          0
cpu0_STLB PREFETCH REQUESTED:          0 ISSUED:          0 USEFUL:          0 USELESS:          0
cpu0_STLB AVERAGE MISS LATENCY: 1469 cycles

DRAM Statistics

Channel 0 RQ ROW_BUFFER_HIT:     128656
  ROW_BUFFER_MISS:     460499
 AVG DBUS CONGESTED CYCLE: 3.981
WQ ROW_BUFFER_HIT: Channel 0 
  ROW_BUFFER_MISS:     106762
  FULL:     401077
