WARNING: physical memory size is smaller than virtual memory size.

*** ChampSim Multicore Out-of-Order Simulator ***
Warmup Instructions: 50000000
Simulation Instructions: 600000000
Number of CPUs: 1
Page size: 4096

Off-chip DRAM Size: 4 GiB Channels: 1 Width: 64-bit Data Race: 3200 MT/s
Heartbeat CPU 0 instructions: 10000000 cycles: 2500202 heartbeat IPC: 4 cumulative IPC: 4 (Simulation time: 00 hr 00 min 30 sec)
Heartbeat CPU 0 instructions: 20000000 cycles: 5000202 heartbeat IPC: 4 cumulative IPC: 4 (Simulation time: 00 hr 01 min 03 sec)
Heartbeat CPU 0 instructions: 30000000 cycles: 7500202 heartbeat IPC: 4 cumulative IPC: 4 (Simulation time: 00 hr 01 min 35 sec)
Heartbeat CPU 0 instructions: 40000000 cycles: 10000202 heartbeat IPC: 4 cumulative IPC: 4 (Simulation time: 00 hr 02 min 07 sec)
Heartbeat CPU 0 instructions: 50000000 cycles: 12500202 heartbeat IPC: 4 cumulative IPC: 4 (Simulation time: 00 hr 02 min 40 sec)
Warmup finished CPU 0 instructions: 50000000 cycles: 12500203 cumulative IPC: 4 (Simulation time: 00 hr 02 min 40 sec)
Warmup complete CPU 0 instructions: 50000000 cycles: 12500203 cumulative IPC: 4 (Simulation time: 00 hr 02 min 40 sec)
Heartbeat CPU 0 instructions: 60000002 cycles: 15728339 heartbeat IPC: 3.098 cumulative IPC: 3.098 (Simulation time: 00 hr 03 min 22 sec)
Heartbeat CPU 0 instructions: 70000002 cycles: 18384057 heartbeat IPC: 3.765 cumulative IPC: 3.399 (Simulation time: 00 hr 04 min 00 sec)
Heartbeat CPU 0 instructions: 80000003 cycles: 21036279 heartbeat IPC: 3.77 cumulative IPC: 3.514 (Simulation time: 00 hr 04 min 38 sec)
Heartbeat CPU 0 instructions: 90000004 cycles: 23688478 heartbeat IPC: 3.77 cumulative IPC: 3.575 (Simulation time: 00 hr 05 min 15 sec)
Heartbeat CPU 0 instructions: 100000003 cycles: 26345479 heartbeat IPC: 3.764 cumulative IPC: 3.611 (Simulation time: 00 hr 05 min 55 sec)
Heartbeat CPU 0 instructions: 110000000 cycles: 29001795 heartbeat IPC: 3.765 cumulative IPC: 3.636 (Simulation time: 00 hr 06 min 33 sec)
Heartbeat CPU 0 instructions: 120000000 cycles: 31658505 heartbeat IPC: 3.764 cumulative IPC: 3.654 (Simulation time: 00 hr 07 min 09 sec)
Heartbeat CPU 0 instructions: 130000000 cycles: 34315100 heartbeat IPC: 3.764 cumulative IPC: 3.667 (Simulation time: 00 hr 07 min 49 sec)
Heartbeat CPU 0 instructions: 140000001 cycles: 36974900 heartbeat IPC: 3.76 cumulative IPC: 3.677 (Simulation time: 00 hr 08 min 27 sec)
Heartbeat CPU 0 instructions: 150000003 cycles: 39631081 heartbeat IPC: 3.765 cumulative IPC: 3.686 (Simulation time: 00 hr 09 min 08 sec)
Heartbeat CPU 0 instructions: 160000003 cycles: 42288416 heartbeat IPC: 3.763 cumulative IPC: 3.693 (Simulation time: 00 hr 09 min 46 sec)
Heartbeat CPU 0 instructions: 170000001 cycles: 44943567 heartbeat IPC: 3.766 cumulative IPC: 3.699 (Simulation time: 00 hr 10 min 22 sec)
Heartbeat CPU 0 instructions: 180000001 cycles: 47595736 heartbeat IPC: 3.77 cumulative IPC: 3.704 (Simulation time: 00 hr 10 min 58 sec)
Heartbeat CPU 0 instructions: 190000002 cycles: 50248512 heartbeat IPC: 3.77 cumulative IPC: 3.709 (Simulation time: 00 hr 11 min 35 sec)
Heartbeat CPU 0 instructions: 200000001 cycles: 52912151 heartbeat IPC: 3.754 cumulative IPC: 3.712 (Simulation time: 00 hr 12 min 11 sec)
Heartbeat CPU 0 instructions: 210000000 cycles: 55568004 heartbeat IPC: 3.765 cumulative IPC: 3.715 (Simulation time: 00 hr 12 min 48 sec)
Heartbeat CPU 0 instructions: 220000001 cycles: 58226126 heartbeat IPC: 3.762 cumulative IPC: 3.718 (Simulation time: 00 hr 13 min 25 sec)
Heartbeat CPU 0 instructions: 230000002 cycles: 60881712 heartbeat IPC: 3.766 cumulative IPC: 3.72 (Simulation time: 00 hr 14 min 04 sec)
Heartbeat CPU 0 instructions: 240000004 cycles: 63540544 heartbeat IPC: 3.761 cumulative IPC: 3.723 (Simulation time: 00 hr 14 min 40 sec)
Heartbeat CPU 0 instructions: 250000000 cycles: 66202336 heartbeat IPC: 3.757 cumulative IPC: 3.724 (Simulation time: 00 hr 15 min 16 sec)
Heartbeat CPU 0 instructions: 260000000 cycles: 68859771 heartbeat IPC: 3.763 cumulative IPC: 3.726 (Simulation time: 00 hr 15 min 55 sec)
Heartbeat CPU 0 instructions: 270000002 cycles: 71514565 heartbeat IPC: 3.767 cumulative IPC: 3.728 (Simulation time: 00 hr 16 min 31 sec)
Heartbeat CPU 0 instructions: 280000003 cycles: 74168255 heartbeat IPC: 3.768 cumulative IPC: 3.73 (Simulation time: 00 hr 17 min 05 sec)
Heartbeat CPU 0 instructions: 290000002 cycles: 76822780 heartbeat IPC: 3.767 cumulative IPC: 3.731 (Simulation time: 00 hr 17 min 42 sec)
Heartbeat CPU 0 instructions: 300000000 cycles: 79487157 heartbeat IPC: 3.753 cumulative IPC: 3.732 (Simulation time: 00 hr 18 min 18 sec)
Heartbeat CPU 0 instructions: 310000002 cycles: 82140182 heartbeat IPC: 3.769 cumulative IPC: 3.733 (Simulation time: 00 hr 18 min 53 sec)
Heartbeat CPU 0 instructions: 320000004 cycles: 84796703 heartbeat IPC: 3.764 cumulative IPC: 3.735 (Simulation time: 00 hr 19 min 29 sec)
Heartbeat CPU 0 instructions: 330000000 cycles: 87457487 heartbeat IPC: 3.758 cumulative IPC: 3.735 (Simulation time: 00 hr 20 min 04 sec)
Heartbeat CPU 0 instructions: 340000002 cycles: 90121604 heartbeat IPC: 3.754 cumulative IPC: 3.736 (Simulation time: 00 hr 20 min 39 sec)
Heartbeat CPU 0 instructions: 350000002 cycles: 92777817 heartbeat IPC: 3.765 cumulative IPC: 3.737 (Simulation time: 00 hr 21 min 13 sec)
Heartbeat CPU 0 instructions: 360000001 cycles: 95438273 heartbeat IPC: 3.759 cumulative IPC: 3.738 (Simulation time: 00 hr 21 min 49 sec)
Heartbeat CPU 0 instructions: 370000004 cycles: 98092909 heartbeat IPC: 3.767 cumulative IPC: 3.739 (Simulation time: 00 hr 22 min 24 sec)
Heartbeat CPU 0 instructions: 380000000 cycles: 100747716 heartbeat IPC: 3.767 cumulative IPC: 3.739 (Simulation time: 00 hr 22 min 59 sec)
Heartbeat CPU 0 instructions: 390000003 cycles: 103401483 heartbeat IPC: 3.768 cumulative IPC: 3.74 (Simulation time: 00 hr 23 min 35 sec)
Heartbeat CPU 0 instructions: 400000000 cycles: 106056900 heartbeat IPC: 3.766 cumulative IPC: 3.741 (Simulation time: 00 hr 24 min 11 sec)
Heartbeat CPU 0 instructions: 410000000 cycles: 108713963 heartbeat IPC: 3.764 cumulative IPC: 3.742 (Simulation time: 00 hr 24 min 48 sec)
Heartbeat CPU 0 instructions: 420000001 cycles: 111371285 heartbeat IPC: 3.763 cumulative IPC: 3.742 (Simulation time: 00 hr 25 min 22 sec)
Heartbeat CPU 0 instructions: 430000003 cycles: 114026912 heartbeat IPC: 3.766 cumulative IPC: 3.743 (Simulation time: 00 hr 25 min 59 sec)
Heartbeat CPU 0 instructions: 440000003 cycles: 116682728 heartbeat IPC: 3.765 cumulative IPC: 3.743 (Simulation time: 00 hr 26 min 34 sec)
Heartbeat CPU 0 instructions: 450000004 cycles: 119344245 heartbeat IPC: 3.757 cumulative IPC: 3.744 (Simulation time: 00 hr 27 min 11 sec)
Heartbeat CPU 0 instructions: 460000001 cycles: 121999868 heartbeat IPC: 3.766 cumulative IPC: 3.744 (Simulation time: 00 hr 27 min 48 sec)
Heartbeat CPU 0 instructions: 470000002 cycles: 124656260 heartbeat IPC: 3.765 cumulative IPC: 3.745 (Simulation time: 00 hr 28 min 24 sec)
Heartbeat CPU 0 instructions: 480000001 cycles: 127313800 heartbeat IPC: 3.763 cumulative IPC: 3.745 (Simulation time: 00 hr 28 min 59 sec)
Heartbeat CPU 0 instructions: 490000000 cycles: 129971642 heartbeat IPC: 3.762 cumulative IPC: 3.746 (Simulation time: 00 hr 29 min 34 sec)
Heartbeat CPU 0 instructions: 500000002 cycles: 132636476 heartbeat IPC: 3.753 cumulative IPC: 3.746 (Simulation time: 00 hr 30 min 09 sec)
Heartbeat CPU 0 instructions: 510000003 cycles: 135292630 heartbeat IPC: 3.765 cumulative IPC: 3.746 (Simulation time: 00 hr 30 min 47 sec)
Heartbeat CPU 0 instructions: 520000004 cycles: 137947606 heartbeat IPC: 3.767 cumulative IPC: 3.747 (Simulation time: 00 hr 31 min 25 sec)
Heartbeat CPU 0 instructions: 530000000 cycles: 140599916 heartbeat IPC: 3.77 cumulative IPC: 3.747 (Simulation time: 00 hr 32 min 03 sec)
Heartbeat CPU 0 instructions: 540000000 cycles: 143256766 heartbeat IPC: 3.764 cumulative IPC: 3.747 (Simulation time: 00 hr 32 min 39 sec)
Heartbeat CPU 0 instructions: 550000003 cycles: 145912788 heartbeat IPC: 3.765 cumulative IPC: 3.748 (Simulation time: 00 hr 33 min 14 sec)
Heartbeat CPU 0 instructions: 560000003 cycles: 148566279 heartbeat IPC: 3.769 cumulative IPC: 3.748 (Simulation time: 00 hr 33 min 49 sec)
Heartbeat CPU 0 instructions: 570000004 cycles: 151219496 heartbeat IPC: 3.769 cumulative IPC: 3.749 (Simulation time: 00 hr 34 min 25 sec)
Heartbeat CPU 0 instructions: 580000000 cycles: 153874908 heartbeat IPC: 3.766 cumulative IPC: 3.749 (Simulation time: 00 hr 35 min 00 sec)
Heartbeat CPU 0 instructions: 590000002 cycles: 156530147 heartbeat IPC: 3.766 cumulative IPC: 3.749 (Simulation time: 00 hr 35 min 38 sec)
*** Reached end of trace: (0, "traces/convolution.champsimtrace")
Heartbeat CPU 0 instructions: 600000000 cycles: 159190838 heartbeat IPC: 3.758 cumulative IPC: 3.749 (Simulation time: 00 hr 36 min 14 sec)
Heartbeat CPU 0 instructions: 610000001 cycles: 182260629 heartbeat IPC: 0.4335 cumulative IPC: 3.299 (Simulation time: 00 hr 39 min 20 sec)
Heartbeat CPU 0 instructions: 620000001 cycles: 203029147 heartbeat IPC: 0.4815 cumulative IPC: 2.992 (Simulation time: 00 hr 42 min 26 sec)
Heartbeat CPU 0 instructions: 630000001 cycles: 213853136 heartbeat IPC: 0.9239 cumulative IPC: 2.881 (Simulation time: 00 hr 44 min 23 sec)
Heartbeat CPU 0 instructions: 640000004 cycles: 224719952 heartbeat IPC: 0.9202 cumulative IPC: 2.78 (Simulation time: 00 hr 46 min 16 sec)
Heartbeat CPU 0 instructions: 650000001 cycles: 235649386 heartbeat IPC: 0.915 cumulative IPC: 2.689 (Simulation time: 00 hr 48 min 06 sec)
Simulation finished CPU 0 instructions: 600000001 cycles: 223149184 cumulative IPC: 2.689 (Simulation time: 00 hr 48 min 06 sec)
Simulation complete CPU 0 instructions: 600000001 cycles: 223149184 cumulative IPC: 2.689 (Simulation time: 00 hr 48 min 06 sec)

ChampSim completed all CPUs

=== Simulation ===
CPU 0 runs traces/convolution.champsimtrace
Region of Interest Statistics

CPU 0 cumulative IPC: 2.689 instructions: 600000001 cycles: 223149184
CPU 0 Branch Prediction Accuracy: 99.47% MPKI: 0.9507 Average ROB Occupancy at Mispredict: 69.14
Branch type MPKI
BRANCH_DIRECT_JUMP: 0.000107
BRANCH_INDIRECT: 4.17e-05
BRANCH_CONDITIONAL: 0.95
BRANCH_DIRECT_CALL: 0.000103
BRANCH_INDIRECT_CALL: 8.33e-06
BRANCH_RETURN: 1.83e-05

LLC TOTAL        ACCESS:    1183974 HIT:     201964 MISS:     982010
LLC LOAD         ACCESS:       2887 HIT:         10 MISS:       2877
LLC RFO          ACCESS:     535121 HIT:       1141 MISS:     533980
LLC PREFETCH     ACCESS:          0 HIT:          0 MISS:          0
LLC WRITE        ACCESS:     535173 HIT:     197659 MISS:     337514
LLC TRANSLATION  ACCESS:     110793 HIT:       3154 MISS:     107639
LLC PREFETCH REQUESTED:          0 ISSUED:          0 USEFUL:          0 USELESS:          0
LLC AVERAGE MISS LATENCY: 688.5 cycles
cpu0_DTLB TOTAL        ACCESS:  120058768 HIT:  119711318 MISS:     347450
cpu0_DTLB LOAD         ACCESS:  120058768 HIT:  119711318 MISS:     347450
cpu0_DTLB RFO          ACCESS:          0 HIT:          0 MISS:          0
cpu0_DTLB PREFETCH     ACCESS:          0 HIT:          0 MISS:          0
cpu0_DTLB WRITE        ACCESS:          0 HIT:          0 MISS:          0
cpu0_DTLB TRANSLATION  ACCESS:          0 HIT:          0 MISS:          0
cpu0_DTLB PREFETCH REQUESTED:          0 ISSUED:          0 USEFUL:          0 USELESS:          0
cpu0_DTLB AVERAGE MISS LATENCY: 644.5 cycles
cpu0_ITLB TOTAL        ACCESS:       2012 HIT:       1981 MISS:         31
cpu0_ITLB LOAD         ACCESS:       2012 HIT:       1981 MISS:         31
cpu0_ITLB RFO          ACCESS:          0 HIT:          0 MISS:          0
cpu0_ITLB PREFETCH     ACCESS:          0 HIT:          0 MISS:          0
cpu0_ITLB WRITE        ACCESS:          0 HIT:          0 MISS:          0
cpu0_ITLB TRANSLATION  ACCESS:          0 HIT:          0 MISS:          0
cpu0_ITLB PREFETCH REQUESTED:          0 ISSUED:          0 USEFUL:          0 USELESS:          0
cpu0_ITLB AVERAGE MISS LATENCY: 858.4 cycles
cpu0_L1D TOTAL        ACCESS:  161171094 HIT:  155020066 MISS:    6151028
cpu0_L1D LOAD         ACCESS:   88951583 HIT:   88945702 MISS:       5881
cpu0_L1D RFO          ACCESS:          0 HIT:          0 MISS:          0
cpu0_L1D PREFETCH     ACCESS:          0 HIT:          0 MISS:          0
cpu0_L1D WRITE        ACCESS:   72037984 HIT:   66035879 MISS:    6002105
cpu0_L1D TRANSLATION  ACCESS:     181527 HIT:      38485 MISS:     143042
cpu0_L1D PREFETCH REQUESTED:          0 ISSUED:          0 USEFUL:          0 USELESS:          0
cpu0_L1D AVERAGE MISS LATENCY: 85.63 cycles
cpu0_L1I TOTAL        ACCESS:       2312 HIT:       1008 MISS:       1304
cpu0_L1I LOAD         ACCESS:       2312 HIT:       1008 MISS:       1304
cpu0_L1I RFO          ACCESS:          0 HIT:          0 MISS:          0
cpu0_L1I PREFETCH     ACCESS:          0 HIT:          0 MISS:          0
cpu0_L1I WRITE        ACCESS:          0 HIT:          0 MISS:          0
cpu0_L1I TRANSLATION  ACCESS:          0 HIT:          0 MISS:          0
cpu0_L1I PREFETCH REQUESTED:          0 ISSUED:          0 USEFUL:          0 USELESS:          0
cpu0_L1I AVERAGE MISS LATENCY: 658.8 cycles
cpu0_L2C TOTAL        ACCESS:    1192080 HIT:     543261 MISS:     648819
cpu0_L2C LOAD         ACCESS:       3313 HIT:        426 MISS:       2887
cpu0_L2C RFO          ACCESS:     538103 HIT:       2982 MISS:     535121
cpu0_L2C PREFETCH     ACCESS:          0 HIT:          0 MISS:          0
cpu0_L2C WRITE        ACCESS:     538233 HIT:     538216 MISS:         17
cpu0_L2C TRANSLATION  ACCESS:     112431 HIT:       1637 MISS:     110794
cpu0_L2C PREFETCH REQUESTED:          0 ISSUED:          0 USEFUL:          0 USELESS:          0
cpu0_L2C AVERAGE MISS LATENCY: 1063 cycles
cpu0_STLB TOTAL        ACCESS:     156156 HIT:         47 MISS:     156109
cpu0_STLB LOAD         ACCESS:     156156 HIT:         47 MISS:     156109
cpu0_STLB RFO          ACCESS:          0 HIT:          0 MISS:          0
cpu0_STLB PREFETCH     ACCESS:          0 HIT:          0 MISS:          0
cpu0_STLB WRITE        ACCESS:          0 HIT:          0 MISS:          0
cpu0_STLB TRANSLATION  ACCESS:          0 HIT:          0 MISS:          0
cpu0_STLB PREFETCH REQUESTED:          0 ISSUED:          0 USEFUL:          0 USELESS:          0
cpu0_STLB AVERAGE MISS LATENCY: 1633 cycles

DRAM Statistics

Channel 0 RQ ROW_BUFFER_HIT:     150483
  ROW_BUFFER_MISS:     494008
 AVG DBUS CONGESTED CYCLE: 3.976
WQ ROW_BUFFER_HIT: Channel 0 
  ROW_BUFFER_MISS:     105893
  FULL:     406599
Final OPTGen Hits: 348
Final OPTGen Access: 14351
Final OPTGEN Hit Rate: 2.42492
