WARNING: physical memory size is smaller than virtual memory size.

*** ChampSim Multicore Out-of-Order Simulator ***
Warmup Instructions: 50000000
Simulation Instructions: 600000000
Number of CPUs: 1
Page size: 4096

CPU 0 Tage branch predictor
Off-chip DRAM Size: 4 GiB Channels: 1 Width: 64-bit Data Race: 3200 MT/s
Heartbeat CPU 0 instructions: 10000000 cycles: 2500202 heartbeat IPC: 4 cumulative IPC: 4 (Simulation time: 00 hr 00 min 38 sec)
Heartbeat CPU 0 instructions: 20000000 cycles: 5000202 heartbeat IPC: 4 cumulative IPC: 4 (Simulation time: 00 hr 01 min 19 sec)
Heartbeat CPU 0 instructions: 30000000 cycles: 7500202 heartbeat IPC: 4 cumulative IPC: 4 (Simulation time: 00 hr 01 min 58 sec)
Heartbeat CPU 0 instructions: 40000000 cycles: 10000202 heartbeat IPC: 4 cumulative IPC: 4 (Simulation time: 00 hr 02 min 35 sec)
Heartbeat CPU 0 instructions: 50000000 cycles: 12500202 heartbeat IPC: 4 cumulative IPC: 4 (Simulation time: 00 hr 03 min 12 sec)
Warmup finished CPU 0 instructions: 50000000 cycles: 12500203 cumulative IPC: 4 (Simulation time: 00 hr 03 min 12 sec)
Warmup complete CPU 0 instructions: 50000000 cycles: 12500203 cumulative IPC: 4 (Simulation time: 00 hr 03 min 12 sec)
Heartbeat CPU 0 instructions: 60000002 cycles: 15588216 heartbeat IPC: 3.238 cumulative IPC: 3.238 (Simulation time: 00 hr 03 min 59 sec)
Heartbeat CPU 0 instructions: 70000002 cycles: 18092408 heartbeat IPC: 3.993 cumulative IPC: 3.576 (Simulation time: 00 hr 04 min 44 sec)
Heartbeat CPU 0 instructions: 80000003 cycles: 20597310 heartbeat IPC: 3.992 cumulative IPC: 3.705 (Simulation time: 00 hr 05 min 28 sec)
Heartbeat CPU 0 instructions: 90000004 cycles: 23104791 heartbeat IPC: 3.988 cumulative IPC: 3.772 (Simulation time: 00 hr 06 min 15 sec)
Heartbeat CPU 0 instructions: 100000003 cycles: 25613161 heartbeat IPC: 3.987 cumulative IPC: 3.813 (Simulation time: 00 hr 07 min 01 sec)
Heartbeat CPU 0 instructions: 110000000 cycles: 28123581 heartbeat IPC: 3.983 cumulative IPC: 3.84 (Simulation time: 00 hr 07 min 44 sec)
Heartbeat CPU 0 instructions: 120000000 cycles: 30632929 heartbeat IPC: 3.985 cumulative IPC: 3.86 (Simulation time: 00 hr 08 min 27 sec)
Heartbeat CPU 0 instructions: 130000000 cycles: 33138953 heartbeat IPC: 3.99 cumulative IPC: 3.876 (Simulation time: 00 hr 09 min 11 sec)
Heartbeat CPU 0 instructions: 140000001 cycles: 35645518 heartbeat IPC: 3.99 cumulative IPC: 3.888 (Simulation time: 00 hr 09 min 57 sec)
Heartbeat CPU 0 instructions: 150000003 cycles: 38149128 heartbeat IPC: 3.994 cumulative IPC: 3.899 (Simulation time: 00 hr 10 min 50 sec)
Heartbeat CPU 0 instructions: 160000003 cycles: 40655320 heartbeat IPC: 3.99 cumulative IPC: 3.907 (Simulation time: 00 hr 11 min 39 sec)
Heartbeat CPU 0 instructions: 170000000 cycles: 43159519 heartbeat IPC: 3.993 cumulative IPC: 3.914 (Simulation time: 00 hr 12 min 22 sec)
Heartbeat CPU 0 instructions: 180000001 cycles: 45663123 heartbeat IPC: 3.994 cumulative IPC: 3.92 (Simulation time: 00 hr 13 min 03 sec)
Heartbeat CPU 0 instructions: 190000002 cycles: 48163818 heartbeat IPC: 3.999 cumulative IPC: 3.926 (Simulation time: 00 hr 13 min 46 sec)
Heartbeat CPU 0 instructions: 200000002 cycles: 50672472 heartbeat IPC: 3.986 cumulative IPC: 3.93 (Simulation time: 00 hr 14 min 30 sec)
Heartbeat CPU 0 instructions: 210000000 cycles: 53180812 heartbeat IPC: 3.987 cumulative IPC: 3.933 (Simulation time: 00 hr 15 min 15 sec)
Heartbeat CPU 0 instructions: 220000001 cycles: 55689671 heartbeat IPC: 3.986 cumulative IPC: 3.936 (Simulation time: 00 hr 15 min 59 sec)
Heartbeat CPU 0 instructions: 230000002 cycles: 58198825 heartbeat IPC: 3.985 cumulative IPC: 3.939 (Simulation time: 00 hr 16 min 48 sec)
Heartbeat CPU 0 instructions: 240000004 cycles: 60711196 heartbeat IPC: 3.98 cumulative IPC: 3.941 (Simulation time: 00 hr 17 min 35 sec)
Heartbeat CPU 0 instructions: 250000000 cycles: 63223585 heartbeat IPC: 3.98 cumulative IPC: 3.943 (Simulation time: 00 hr 18 min 22 sec)
Heartbeat CPU 0 instructions: 260000000 cycles: 65734803 heartbeat IPC: 3.982 cumulative IPC: 3.945 (Simulation time: 00 hr 19 min 09 sec)
Heartbeat CPU 0 instructions: 270000002 cycles: 68245428 heartbeat IPC: 3.983 cumulative IPC: 3.947 (Simulation time: 00 hr 19 min 53 sec)
Heartbeat CPU 0 instructions: 280000003 cycles: 70757129 heartbeat IPC: 3.981 cumulative IPC: 3.948 (Simulation time: 00 hr 20 min 37 sec)
Heartbeat CPU 0 instructions: 290000000 cycles: 73263834 heartbeat IPC: 3.989 cumulative IPC: 3.95 (Simulation time: 00 hr 21 min 19 sec)
Heartbeat CPU 0 instructions: 300000000 cycles: 75770940 heartbeat IPC: 3.989 cumulative IPC: 3.951 (Simulation time: 00 hr 22 min 02 sec)
Heartbeat CPU 0 instructions: 310000002 cycles: 78279079 heartbeat IPC: 3.987 cumulative IPC: 3.953 (Simulation time: 00 hr 22 min 44 sec)
Heartbeat CPU 0 instructions: 320000004 cycles: 80790871 heartbeat IPC: 3.981 cumulative IPC: 3.954 (Simulation time: 00 hr 23 min 25 sec)
Heartbeat CPU 0 instructions: 330000000 cycles: 83301036 heartbeat IPC: 3.984 cumulative IPC: 3.955 (Simulation time: 00 hr 24 min 09 sec)
Heartbeat CPU 0 instructions: 340000002 cycles: 85811147 heartbeat IPC: 3.984 cumulative IPC: 3.956 (Simulation time: 00 hr 24 min 52 sec)
Heartbeat CPU 0 instructions: 350000002 cycles: 88319031 heartbeat IPC: 3.987 cumulative IPC: 3.957 (Simulation time: 00 hr 25 min 33 sec)
Heartbeat CPU 0 instructions: 360000000 cycles: 90827739 heartbeat IPC: 3.986 cumulative IPC: 3.958 (Simulation time: 00 hr 26 min 15 sec)
Heartbeat CPU 0 instructions: 370000004 cycles: 93335846 heartbeat IPC: 3.987 cumulative IPC: 3.959 (Simulation time: 00 hr 26 min 57 sec)
Heartbeat CPU 0 instructions: 380000000 cycles: 95846698 heartbeat IPC: 3.983 cumulative IPC: 3.959 (Simulation time: 00 hr 27 min 41 sec)
Heartbeat CPU 0 instructions: 390000000 cycles: 98351347 heartbeat IPC: 3.993 cumulative IPC: 3.96 (Simulation time: 00 hr 28 min 24 sec)
Heartbeat CPU 0 instructions: 400000000 cycles: 100856102 heartbeat IPC: 3.992 cumulative IPC: 3.961 (Simulation time: 00 hr 29 min 05 sec)
Heartbeat CPU 0 instructions: 410000000 cycles: 103363126 heartbeat IPC: 3.989 cumulative IPC: 3.962 (Simulation time: 00 hr 29 min 46 sec)
Heartbeat CPU 0 instructions: 420000001 cycles: 105867679 heartbeat IPC: 3.993 cumulative IPC: 3.963 (Simulation time: 00 hr 30 min 28 sec)
Heartbeat CPU 0 instructions: 430000003 cycles: 108371958 heartbeat IPC: 3.993 cumulative IPC: 3.964 (Simulation time: 00 hr 31 min 08 sec)
Heartbeat CPU 0 instructions: 440000003 cycles: 110887882 heartbeat IPC: 3.975 cumulative IPC: 3.964 (Simulation time: 00 hr 31 min 51 sec)
Heartbeat CPU 0 instructions: 450000004 cycles: 113407295 heartbeat IPC: 3.969 cumulative IPC: 3.964 (Simulation time: 00 hr 33 min 01 sec)
Heartbeat CPU 0 instructions: 460000001 cycles: 115922216 heartbeat IPC: 3.976 cumulative IPC: 3.964 (Simulation time: 00 hr 34 min 34 sec)
Heartbeat CPU 0 instructions: 470000002 cycles: 118429670 heartbeat IPC: 3.988 cumulative IPC: 3.965 (Simulation time: 00 hr 36 min 05 sec)
Heartbeat CPU 0 instructions: 480000001 cycles: 120932076 heartbeat IPC: 3.996 cumulative IPC: 3.966 (Simulation time: 00 hr 37 min 52 sec)
Heartbeat CPU 0 instructions: 490000000 cycles: 123442862 heartbeat IPC: 3.983 cumulative IPC: 3.966 (Simulation time: 00 hr 39 min 28 sec)
Heartbeat CPU 0 instructions: 500000002 cycles: 125962347 heartbeat IPC: 3.969 cumulative IPC: 3.966 (Simulation time: 00 hr 41 min 19 sec)
Heartbeat CPU 0 instructions: 510000003 cycles: 128468446 heartbeat IPC: 3.99 cumulative IPC: 3.967 (Simulation time: 00 hr 42 min 49 sec)
Heartbeat CPU 0 instructions: 520000004 cycles: 130974276 heartbeat IPC: 3.991 cumulative IPC: 3.967 (Simulation time: 00 hr 44 min 26 sec)
Heartbeat CPU 0 instructions: 530000000 cycles: 133482565 heartbeat IPC: 3.987 cumulative IPC: 3.968 (Simulation time: 00 hr 46 min 16 sec)
Heartbeat CPU 0 instructions: 540000000 cycles: 135999393 heartbeat IPC: 3.973 cumulative IPC: 3.968 (Simulation time: 00 hr 48 min 06 sec)
Heartbeat CPU 0 instructions: 550000002 cycles: 138505073 heartbeat IPC: 3.991 cumulative IPC: 3.968 (Simulation time: 00 hr 49 min 48 sec)
Heartbeat CPU 0 instructions: 560000003 cycles: 141015362 heartbeat IPC: 3.984 cumulative IPC: 3.968 (Simulation time: 00 hr 51 min 16 sec)
Heartbeat CPU 0 instructions: 570000004 cycles: 143529796 heartbeat IPC: 3.977 cumulative IPC: 3.969 (Simulation time: 00 hr 52 min 54 sec)
Heartbeat CPU 0 instructions: 580000000 cycles: 146037115 heartbeat IPC: 3.988 cumulative IPC: 3.969 (Simulation time: 00 hr 54 min 29 sec)
Heartbeat CPU 0 instructions: 590000002 cycles: 148546072 heartbeat IPC: 3.986 cumulative IPC: 3.969 (Simulation time: 00 hr 56 min 04 sec)
*** Reached end of trace: (0, "traces/convolution.champsimtrace")
Heartbeat CPU 0 instructions: 600000000 cycles: 151056432 heartbeat IPC: 3.983 cumulative IPC: 3.97 (Simulation time: 00 hr 57 min 39 sec)
Heartbeat CPU 0 instructions: 610000002 cycles: 173290060 heartbeat IPC: 0.4498 cumulative IPC: 3.483 (Simulation time: 01 hr 05 min 21 sec)
Heartbeat CPU 0 instructions: 620000001 cycles: 193165770 heartbeat IPC: 0.5031 cumulative IPC: 3.155 (Simulation time: 01 hr 11 min 43 sec)
Heartbeat CPU 0 instructions: 630000001 cycles: 197854880 heartbeat IPC: 2.133 cumulative IPC: 3.129 (Simulation time: 01 hr 13 min 04 sec)
Heartbeat CPU 0 instructions: 640000004 cycles: 208091979 heartbeat IPC: 0.9768 cumulative IPC: 3.016 (Simulation time: 01 hr 15 min 27 sec)
Heartbeat CPU 0 instructions: 650000001 cycles: 218881199 heartbeat IPC: 0.9269 cumulative IPC: 2.907 (Simulation time: 01 hr 17 min 56 sec)
Simulation finished CPU 0 instructions: 600000001 cycles: 206380997 cumulative IPC: 2.907 (Simulation time: 01 hr 17 min 57 sec)
Simulation complete CPU 0 instructions: 600000001 cycles: 206380997 cumulative IPC: 2.907 (Simulation time: 01 hr 17 min 57 sec)

ChampSim completed all CPUs

=== Simulation ===
CPU 0 runs traces/convolution.champsimtrace
Region of Interest Statistics

CPU 0 cumulative IPC: 2.907 instructions: 600000001 cycles: 206380997
CPU 0 Branch Prediction Accuracy: 100% MPKI: 0.002858 Average ROB Occupancy at Mispredict: 77.38
Branch type MPKI
BRANCH_DIRECT_JUMP: 0.000107
BRANCH_INDIRECT: 4.17e-05
BRANCH_CONDITIONAL: 0.00258
BRANCH_DIRECT_CALL: 0.000103
BRANCH_INDIRECT_CALL: 8.33e-06
BRANCH_RETURN: 1.83e-05

LLC TOTAL        ACCESS:    1185568 HIT:     241417 MISS:     944151
LLC LOAD         ACCESS:       2886 HIT:       1424 MISS:       1462
LLC RFO          ACCESS:     535121 HIT:      30804 MISS:     504317
LLC PREFETCH     ACCESS:       2886 HIT:       1070 MISS:       1816
LLC WRITE        ACCESS:     535169 HIT:     177598 MISS:     357571
LLC TRANSLATION  ACCESS:     109506 HIT:      30521 MISS:      78985
LLC PREFETCH REQUESTED:       2886 ISSUED:       2886 USEFUL:        962 USELESS:        306
LLC AVERAGE MISS LATENCY: 651.6 cycles
cpu0_DTLB TOTAL        ACCESS:  113390102 HIT:  113074815 MISS:     315287
cpu0_DTLB LOAD         ACCESS:  113390102 HIT:  113074815 MISS:     315287
cpu0_DTLB RFO          ACCESS:          0 HIT:          0 MISS:          0
cpu0_DTLB PREFETCH     ACCESS:          0 HIT:          0 MISS:          0
cpu0_DTLB WRITE        ACCESS:          0 HIT:          0 MISS:          0
cpu0_DTLB TRANSLATION  ACCESS:          0 HIT:          0 MISS:          0
cpu0_DTLB PREFETCH REQUESTED:          0 ISSUED:          0 USEFUL:          0 USELESS:          0
cpu0_DTLB AVERAGE MISS LATENCY: 661.4 cycles
cpu0_ITLB TOTAL        ACCESS:       2101 HIT:       2068 MISS:         33
cpu0_ITLB LOAD         ACCESS:       2101 HIT:       2068 MISS:         33
cpu0_ITLB RFO          ACCESS:          0 HIT:          0 MISS:          0
cpu0_ITLB PREFETCH     ACCESS:          0 HIT:          0 MISS:          0
cpu0_ITLB WRITE        ACCESS:          0 HIT:          0 MISS:          0
cpu0_ITLB TRANSLATION  ACCESS:          0 HIT:          0 MISS:          0
cpu0_ITLB PREFETCH REQUESTED:          0 ISSUED:          0 USEFUL:          0 USELESS:          0
cpu0_ITLB AVERAGE MISS LATENCY: 653 cycles
cpu0_L1D TOTAL        ACCESS:  146553521 HIT:  140408203 MISS:    6145318
cpu0_L1D LOAD         ACCESS:   74373194 HIT:   74365262 MISS:       7932
cpu0_L1D RFO          ACCESS:          0 HIT:          0 MISS:          0
cpu0_L1D PREFETCH     ACCESS:          0 HIT:          0 MISS:          0
cpu0_L1D WRITE        ACCESS:   71999863 HIT:   66009305 MISS:    5990558
cpu0_L1D TRANSLATION  ACCESS:     180464 HIT:      33636 MISS:     146828
cpu0_L1D PREFETCH REQUESTED:          0 ISSUED:          0 USEFUL:          0 USELESS:          0
cpu0_L1D AVERAGE MISS LATENCY: 80.96 cycles
cpu0_L1I TOTAL        ACCESS:       2458 HIT:       1001 MISS:       1457
cpu0_L1I LOAD         ACCESS:       2458 HIT:       1001 MISS:       1457
cpu0_L1I RFO          ACCESS:          0 HIT:          0 MISS:          0
cpu0_L1I PREFETCH     ACCESS:          0 HIT:          0 MISS:          0
cpu0_L1I WRITE        ACCESS:          0 HIT:          0 MISS:          0
cpu0_L1I TRANSLATION  ACCESS:          0 HIT:          0 MISS:          0
cpu0_L1I PREFETCH REQUESTED:          0 ISSUED:          0 USEFUL:          0 USELESS:          0
cpu0_L1I AVERAGE MISS LATENCY: 465.5 cycles
cpu0_L2C TOTAL        ACCESS:    1192956 HIT:     545426 MISS:     647530
cpu0_L2C LOAD         ACCESS:       3311 HIT:        425 MISS:       2886
cpu0_L2C RFO          ACCESS:     539174 HIT:       4053 MISS:     535121
cpu0_L2C PREFETCH     ACCESS:          0 HIT:          0 MISS:          0
cpu0_L2C WRITE        ACCESS:     539625 HIT:     539609 MISS:         16
cpu0_L2C TRANSLATION  ACCESS:     110846 HIT:       1339 MISS:     109507
cpu0_L2C PREFETCH REQUESTED:          0 ISSUED:          0 USEFUL:          0 USELESS:          0
cpu0_L2C AVERAGE MISS LATENCY: 969.2 cycles
cpu0_STLB TOTAL        ACCESS:     156150 HIT:         42 MISS:     156108
cpu0_STLB LOAD         ACCESS:     156150 HIT:         42 MISS:     156108
cpu0_STLB RFO          ACCESS:          0 HIT:          0 MISS:          0
cpu0_STLB PREFETCH     ACCESS:          0 HIT:          0 MISS:          0
cpu0_STLB WRITE        ACCESS:          0 HIT:          0 MISS:          0
cpu0_STLB TRANSLATION  ACCESS:          0 HIT:          0 MISS:          0
cpu0_STLB PREFETCH REQUESTED:          0 ISSUED:          0 USEFUL:          0 USELESS:          0
cpu0_STLB AVERAGE MISS LATENCY: 1481 cycles

DRAM Statistics

Channel 0 RQ ROW_BUFFER_HIT:     128253
  ROW_BUFFER_MISS:     457366
 AVG DBUS CONGESTED CYCLE: 3.979
WQ ROW_BUFFER_HIT: Channel 0 
  ROW_BUFFER_MISS:     112900
  FULL:     391429
