WARNING: physical memory size is smaller than virtual memory size.

*** ChampSim Multicore Out-of-Order Simulator ***
Warmup Instructions: 50000000
Simulation Instructions: 600000000
Number of CPUs: 1
Page size: 4096

Off-chip DRAM Size: 4 GiB Channels: 1 Width: 64-bit Data Race: 3200 MT/s
Heartbeat CPU 0 instructions: 10000002 cycles: 2500202 heartbeat IPC: 4 cumulative IPC: 4 (Simulation time: 00 hr 00 min 41 sec)
Heartbeat CPU 0 instructions: 20000002 cycles: 5000202 heartbeat IPC: 4 cumulative IPC: 4 (Simulation time: 00 hr 01 min 18 sec)
Heartbeat CPU 0 instructions: 30000002 cycles: 7500202 heartbeat IPC: 4 cumulative IPC: 4 (Simulation time: 00 hr 01 min 54 sec)
Heartbeat CPU 0 instructions: 40000002 cycles: 10000202 heartbeat IPC: 4 cumulative IPC: 4 (Simulation time: 00 hr 02 min 33 sec)
Heartbeat CPU 0 instructions: 50000002 cycles: 12500202 heartbeat IPC: 4 cumulative IPC: 4 (Simulation time: 00 hr 03 min 13 sec)
Warmup finished CPU 0 instructions: 50000002 cycles: 12500203 cumulative IPC: 4 (Simulation time: 00 hr 03 min 13 sec)
Warmup complete CPU 0 instructions: 50000002 cycles: 12500203 cumulative IPC: 4 (Simulation time: 00 hr 03 min 13 sec)
Heartbeat CPU 0 instructions: 60000004 cycles: 15781954 heartbeat IPC: 3.047 cumulative IPC: 3.047 (Simulation time: 00 hr 04 min 03 sec)
Heartbeat CPU 0 instructions: 70000000 cycles: 18485255 heartbeat IPC: 3.699 cumulative IPC: 3.342 (Simulation time: 00 hr 04 min 51 sec)
Heartbeat CPU 0 instructions: 80000003 cycles: 21189454 heartbeat IPC: 3.698 cumulative IPC: 3.453 (Simulation time: 00 hr 05 min 39 sec)
Heartbeat CPU 0 instructions: 90000004 cycles: 23895578 heartbeat IPC: 3.695 cumulative IPC: 3.51 (Simulation time: 00 hr 06 min 28 sec)
Heartbeat CPU 0 instructions: 100000004 cycles: 26600140 heartbeat IPC: 3.697 cumulative IPC: 3.546 (Simulation time: 00 hr 07 min 12 sec)
Heartbeat CPU 0 instructions: 110000004 cycles: 29298117 heartbeat IPC: 3.706 cumulative IPC: 3.572 (Simulation time: 00 hr 07 min 51 sec)
Heartbeat CPU 0 instructions: 120000000 cycles: 31998123 heartbeat IPC: 3.704 cumulative IPC: 3.59 (Simulation time: 00 hr 08 min 27 sec)
Heartbeat CPU 0 instructions: 130000000 cycles: 34697207 heartbeat IPC: 3.705 cumulative IPC: 3.604 (Simulation time: 00 hr 09 min 02 sec)
Heartbeat CPU 0 instructions: 140000004 cycles: 37398770 heartbeat IPC: 3.702 cumulative IPC: 3.615 (Simulation time: 00 hr 09 min 36 sec)
Heartbeat CPU 0 instructions: 150000004 cycles: 40101804 heartbeat IPC: 3.7 cumulative IPC: 3.623 (Simulation time: 00 hr 10 min 11 sec)
Heartbeat CPU 0 instructions: 160000000 cycles: 42797167 heartbeat IPC: 3.71 cumulative IPC: 3.631 (Simulation time: 00 hr 10 min 46 sec)
Heartbeat CPU 0 instructions: 170000000 cycles: 45495783 heartbeat IPC: 3.706 cumulative IPC: 3.637 (Simulation time: 00 hr 11 min 19 sec)
Heartbeat CPU 0 instructions: 180000000 cycles: 48197382 heartbeat IPC: 3.702 cumulative IPC: 3.642 (Simulation time: 00 hr 11 min 53 sec)
Heartbeat CPU 0 instructions: 190000000 cycles: 50905059 heartbeat IPC: 3.693 cumulative IPC: 3.645 (Simulation time: 00 hr 12 min 26 sec)
Heartbeat CPU 0 instructions: 200000003 cycles: 53604715 heartbeat IPC: 3.704 cumulative IPC: 3.649 (Simulation time: 00 hr 12 min 59 sec)
Heartbeat CPU 0 instructions: 210000004 cycles: 56308762 heartbeat IPC: 3.698 cumulative IPC: 3.652 (Simulation time: 00 hr 13 min 32 sec)
Heartbeat CPU 0 instructions: 220000004 cycles: 59014773 heartbeat IPC: 3.695 cumulative IPC: 3.655 (Simulation time: 00 hr 14 min 05 sec)
Heartbeat CPU 0 instructions: 230000000 cycles: 61719127 heartbeat IPC: 3.698 cumulative IPC: 3.657 (Simulation time: 00 hr 14 min 36 sec)
Heartbeat CPU 0 instructions: 240000000 cycles: 64420126 heartbeat IPC: 3.702 cumulative IPC: 3.659 (Simulation time: 00 hr 15 min 07 sec)
Heartbeat CPU 0 instructions: 250000003 cycles: 67119850 heartbeat IPC: 3.704 cumulative IPC: 3.662 (Simulation time: 00 hr 15 min 39 sec)
Heartbeat CPU 0 instructions: 260000004 cycles: 69823528 heartbeat IPC: 3.699 cumulative IPC: 3.663 (Simulation time: 00 hr 16 min 10 sec)
Heartbeat CPU 0 instructions: 270000004 cycles: 72529350 heartbeat IPC: 3.696 cumulative IPC: 3.665 (Simulation time: 00 hr 16 min 42 sec)
Heartbeat CPU 0 instructions: 280000000 cycles: 75230905 heartbeat IPC: 3.702 cumulative IPC: 3.666 (Simulation time: 00 hr 17 min 13 sec)
Heartbeat CPU 0 instructions: 290000000 cycles: 77932474 heartbeat IPC: 3.702 cumulative IPC: 3.668 (Simulation time: 00 hr 17 min 45 sec)
Heartbeat CPU 0 instructions: 300000001 cycles: 80633991 heartbeat IPC: 3.702 cumulative IPC: 3.669 (Simulation time: 00 hr 18 min 16 sec)
Heartbeat CPU 0 instructions: 310000004 cycles: 83332878 heartbeat IPC: 3.705 cumulative IPC: 3.671 (Simulation time: 00 hr 18 min 47 sec)
Heartbeat CPU 0 instructions: 320000003 cycles: 86036132 heartbeat IPC: 3.699 cumulative IPC: 3.672 (Simulation time: 00 hr 19 min 18 sec)
Heartbeat CPU 0 instructions: 330000004 cycles: 88734986 heartbeat IPC: 3.705 cumulative IPC: 3.673 (Simulation time: 00 hr 19 min 49 sec)
Heartbeat CPU 0 instructions: 340000004 cycles: 91431772 heartbeat IPC: 3.708 cumulative IPC: 3.674 (Simulation time: 00 hr 20 min 19 sec)
Heartbeat CPU 0 instructions: 350000000 cycles: 94133840 heartbeat IPC: 3.701 cumulative IPC: 3.675 (Simulation time: 00 hr 20 min 51 sec)
Heartbeat CPU 0 instructions: 360000000 cycles: 96834823 heartbeat IPC: 3.702 cumulative IPC: 3.676 (Simulation time: 00 hr 21 min 21 sec)
Heartbeat CPU 0 instructions: 370000004 cycles: 99538990 heartbeat IPC: 3.698 cumulative IPC: 3.677 (Simulation time: 00 hr 21 min 52 sec)
Heartbeat CPU 0 instructions: 380000004 cycles: 102241427 heartbeat IPC: 3.7 cumulative IPC: 3.677 (Simulation time: 00 hr 22 min 24 sec)
Heartbeat CPU 0 instructions: 390000004 cycles: 104944010 heartbeat IPC: 3.7 cumulative IPC: 3.678 (Simulation time: 00 hr 22 min 55 sec)
Heartbeat CPU 0 instructions: 400000000 cycles: 107640504 heartbeat IPC: 3.709 cumulative IPC: 3.679 (Simulation time: 00 hr 23 min 26 sec)
Heartbeat CPU 0 instructions: 410000000 cycles: 110340388 heartbeat IPC: 3.704 cumulative IPC: 3.679 (Simulation time: 00 hr 23 min 56 sec)
Heartbeat CPU 0 instructions: 420000004 cycles: 113046916 heartbeat IPC: 3.695 cumulative IPC: 3.68 (Simulation time: 00 hr 24 min 28 sec)
Heartbeat CPU 0 instructions: 430000004 cycles: 115749593 heartbeat IPC: 3.7 cumulative IPC: 3.68 (Simulation time: 00 hr 25 min 00 sec)
Heartbeat CPU 0 instructions: 440000004 cycles: 118446456 heartbeat IPC: 3.708 cumulative IPC: 3.681 (Simulation time: 00 hr 25 min 31 sec)
Heartbeat CPU 0 instructions: 450000004 cycles: 121143749 heartbeat IPC: 3.707 cumulative IPC: 3.682 (Simulation time: 00 hr 26 min 02 sec)
Heartbeat CPU 0 instructions: 460000004 cycles: 123844018 heartbeat IPC: 3.703 cumulative IPC: 3.682 (Simulation time: 00 hr 26 min 33 sec)
Heartbeat CPU 0 instructions: 470000000 cycles: 126546962 heartbeat IPC: 3.7 cumulative IPC: 3.683 (Simulation time: 00 hr 27 min 04 sec)
Heartbeat CPU 0 instructions: 480000000 cycles: 129247592 heartbeat IPC: 3.703 cumulative IPC: 3.683 (Simulation time: 00 hr 27 min 35 sec)
Heartbeat CPU 0 instructions: 490000004 cycles: 131952816 heartbeat IPC: 3.697 cumulative IPC: 3.683 (Simulation time: 00 hr 28 min 07 sec)
Heartbeat CPU 0 instructions: 500000004 cycles: 134653224 heartbeat IPC: 3.703 cumulative IPC: 3.684 (Simulation time: 00 hr 28 min 38 sec)
Heartbeat CPU 0 instructions: 510000004 cycles: 137355032 heartbeat IPC: 3.701 cumulative IPC: 3.684 (Simulation time: 00 hr 29 min 08 sec)
Heartbeat CPU 0 instructions: 520000000 cycles: 140058639 heartbeat IPC: 3.699 cumulative IPC: 3.685 (Simulation time: 00 hr 29 min 40 sec)
Heartbeat CPU 0 instructions: 530000000 cycles: 142763305 heartbeat IPC: 3.697 cumulative IPC: 3.685 (Simulation time: 00 hr 30 min 10 sec)
Heartbeat CPU 0 instructions: 540000004 cycles: 145461369 heartbeat IPC: 3.706 cumulative IPC: 3.685 (Simulation time: 00 hr 30 min 42 sec)
Heartbeat CPU 0 instructions: 550000004 cycles: 148169033 heartbeat IPC: 3.693 cumulative IPC: 3.685 (Simulation time: 00 hr 31 min 13 sec)
Heartbeat CPU 0 instructions: 560000000 cycles: 150868221 heartbeat IPC: 3.705 cumulative IPC: 3.686 (Simulation time: 00 hr 31 min 43 sec)
Heartbeat CPU 0 instructions: 570000000 cycles: 153568365 heartbeat IPC: 3.704 cumulative IPC: 3.686 (Simulation time: 00 hr 32 min 15 sec)
Heartbeat CPU 0 instructions: 580000000 cycles: 156271716 heartbeat IPC: 3.699 cumulative IPC: 3.686 (Simulation time: 00 hr 32 min 45 sec)
Heartbeat CPU 0 instructions: 590000000 cycles: 158971843 heartbeat IPC: 3.704 cumulative IPC: 3.687 (Simulation time: 00 hr 33 min 17 sec)
*** Reached end of trace: (0, "traces/convolution.champsimtrace")
Heartbeat CPU 0 instructions: 600000000 cycles: 161677180 heartbeat IPC: 3.696 cumulative IPC: 3.687 (Simulation time: 00 hr 33 min 48 sec)
Heartbeat CPU 0 instructions: 610000004 cycles: 183705757 heartbeat IPC: 0.454 cumulative IPC: 3.271 (Simulation time: 00 hr 36 min 17 sec)
Heartbeat CPU 0 instructions: 620000000 cycles: 203491915 heartbeat IPC: 0.5054 cumulative IPC: 2.984 (Simulation time: 00 hr 38 min 33 sec)
Heartbeat CPU 0 instructions: 630000001 cycles: 208196525 heartbeat IPC: 2.126 cumulative IPC: 2.964 (Simulation time: 00 hr 39 min 19 sec)
Heartbeat CPU 0 instructions: 640000002 cycles: 218461579 heartbeat IPC: 0.9742 cumulative IPC: 2.865 (Simulation time: 00 hr 40 min 39 sec)
Heartbeat CPU 0 instructions: 650000002 cycles: 229260251 heartbeat IPC: 0.926 cumulative IPC: 2.768 (Simulation time: 00 hr 41 min 56 sec)
Simulation finished CPU 0 instructions: 600000000 cycles: 216760049 cumulative IPC: 2.768 (Simulation time: 00 hr 41 min 56 sec)
Simulation complete CPU 0 instructions: 600000000 cycles: 216760049 cumulative IPC: 2.768 (Simulation time: 00 hr 41 min 56 sec)

ChampSim completed all CPUs

=== Simulation ===
CPU 0 runs traces/convolution.champsimtrace
Region of Interest Statistics

CPU 0 cumulative IPC: 2.768 instructions: 600000000 cycles: 216760049
CPU 0 Branch Prediction Accuracy: 99.34% MPKI: 1.278 Average ROB Occupancy at Mispredict: 84.63
Branch type MPKI
BRANCH_DIRECT_JUMP: 1e-05
BRANCH_INDIRECT: 4.67e-05
BRANCH_CONDITIONAL: 1.28
BRANCH_DIRECT_CALL: 6.67e-06
BRANCH_INDIRECT_CALL: 8.33e-06
BRANCH_RETURN: 2.17e-05

LLC TOTAL        ACCESS:    1193459 HIT:     202691 MISS:     990768
LLC LOAD         ACCESS:       2893 HIT:       2535 MISS:        358
LLC RFO          ACCESS:     539055 HIT:      29867 MISS:     509188
LLC PREFETCH     ACCESS:       2893 HIT:       2558 MISS:        335
LLC WRITE        ACCESS:     539100 HIT:     137940 MISS:     401160
LLC TRANSLATION  ACCESS:     109518 HIT:      29791 MISS:      79727
LLC PREFETCH REQUESTED:       2893 ISSUED:       2893 USEFUL:         19 USELESS:        288
LLC AVERAGE MISS LATENCY: 624.5 cycles
cpu0_DTLB TOTAL        ACCESS:  123162293 HIT:  122846588 MISS:     315705
cpu0_DTLB LOAD         ACCESS:  123162293 HIT:  122846588 MISS:     315705
cpu0_DTLB RFO          ACCESS:          0 HIT:          0 MISS:          0
cpu0_DTLB PREFETCH     ACCESS:          0 HIT:          0 MISS:          0
cpu0_DTLB WRITE        ACCESS:          0 HIT:          0 MISS:          0
cpu0_DTLB TRANSLATION  ACCESS:          0 HIT:          0 MISS:          0
cpu0_DTLB PREFETCH REQUESTED:          0 ISSUED:          0 USEFUL:          0 USELESS:          0
cpu0_DTLB AVERAGE MISS LATENCY: 659.2 cycles
cpu0_ITLB TOTAL        ACCESS:       1996 HIT:       1935 MISS:         61
cpu0_ITLB LOAD         ACCESS:       1996 HIT:       1935 MISS:         61
cpu0_ITLB RFO          ACCESS:          0 HIT:          0 MISS:          0
cpu0_ITLB PREFETCH     ACCESS:          0 HIT:          0 MISS:          0
cpu0_ITLB WRITE        ACCESS:          0 HIT:          0 MISS:          0
cpu0_ITLB TRANSLATION  ACCESS:          0 HIT:          0 MISS:          0
cpu0_ITLB PREFETCH REQUESTED:          0 ISSUED:          0 USEFUL:          0 USELESS:          0
cpu0_ITLB AVERAGE MISS LATENCY: 477 cycles
cpu0_L1D TOTAL        ACCESS:  155383219 HIT:  149203373 MISS:    6179846
cpu0_L1D LOAD         ACCESS:   82431963 HIT:   82426153 MISS:       5810
cpu0_L1D RFO          ACCESS:          0 HIT:          0 MISS:          0
cpu0_L1D PREFETCH     ACCESS:          0 HIT:          0 MISS:          0
cpu0_L1D WRITE        ACCESS:   72770737 HIT:   66742839 MISS:    6027898
cpu0_L1D TRANSLATION  ACCESS:     180519 HIT:      34381 MISS:     146138
cpu0_L1D PREFETCH REQUESTED:          0 ISSUED:          0 USEFUL:          0 USELESS:          0
cpu0_L1D AVERAGE MISS LATENCY: 79.5 cycles
cpu0_L1I TOTAL        ACCESS:       2329 HIT:       1072 MISS:       1257
cpu0_L1I LOAD         ACCESS:       2329 HIT:       1072 MISS:       1257
cpu0_L1I RFO          ACCESS:          0 HIT:          0 MISS:          0
cpu0_L1I PREFETCH     ACCESS:          0 HIT:          0 MISS:          0
cpu0_L1I WRITE        ACCESS:          0 HIT:          0 MISS:          0
cpu0_L1I TRANSLATION  ACCESS:          0 HIT:          0 MISS:          0
cpu0_L1I PREFETCH REQUESTED:          0 ISSUED:          0 USEFUL:          0 USELESS:          0
cpu0_L1I AVERAGE MISS LATENCY: 218.9 cycles
cpu0_L2C TOTAL        ACCESS:    1198847 HIT:     547359 MISS:     651488
cpu0_L2C LOAD         ACCESS:       3322 HIT:        429 MISS:       2893
cpu0_L2C RFO          ACCESS:     542284 HIT:       3228 MISS:     539056
cpu0_L2C PREFETCH     ACCESS:          0 HIT:          0 MISS:          0
cpu0_L2C WRITE        ACCESS:     542531 HIT:     542510 MISS:         21
cpu0_L2C TRANSLATION  ACCESS:     110710 HIT:       1192 MISS:     109518
cpu0_L2C PREFETCH REQUESTED:          0 ISSUED:          0 USEFUL:          0 USELESS:          0
cpu0_L2C AVERAGE MISS LATENCY: 970 cycles
cpu0_STLB TOTAL        ACCESS:     156210 HIT:         36 MISS:     156174
cpu0_STLB LOAD         ACCESS:     156210 HIT:         36 MISS:     156174
cpu0_STLB RFO          ACCESS:          0 HIT:          0 MISS:          0
cpu0_STLB PREFETCH     ACCESS:          0 HIT:          0 MISS:          0
cpu0_STLB WRITE        ACCESS:          0 HIT:          0 MISS:          0
cpu0_STLB TRANSLATION  ACCESS:          0 HIT:          0 MISS:          0
cpu0_STLB PREFETCH REQUESTED:          0 ISSUED:          0 USEFUL:          0 USELESS:          0
cpu0_STLB AVERAGE MISS LATENCY: 1478 cycles

DRAM Statistics

Channel 0 RQ ROW_BUFFER_HIT:     128861
  ROW_BUFFER_MISS:     460707
 AVG DBUS CONGESTED CYCLE: 3.979
WQ ROW_BUFFER_HIT: Channel 0 
  ROW_BUFFER_MISS:     107156
  FULL:     402003
