WARNING: physical memory size is smaller than virtual memory size.

*** ChampSim Multicore Out-of-Order Simulator ***
Warmup Instructions: 50000000
Simulation Instructions: 600000000
Number of CPUs: 1
Page size: 4096

CPU 0 Tage branch predictor
Off-chip DRAM Size: 4 GiB Channels: 1 Width: 64-bit Data Race: 3200 MT/s
Heartbeat CPU 0 instructions: 10000001 cycles: 2500202 heartbeat IPC: 4 cumulative IPC: 4 (Simulation time: 00 hr 01 min 01 sec)
Heartbeat CPU 0 instructions: 20000001 cycles: 5000202 heartbeat IPC: 4 cumulative IPC: 4 (Simulation time: 00 hr 01 min 54 sec)
Heartbeat CPU 0 instructions: 30000001 cycles: 7500202 heartbeat IPC: 4 cumulative IPC: 4 (Simulation time: 00 hr 02 min 43 sec)
Heartbeat CPU 0 instructions: 40000001 cycles: 10000202 heartbeat IPC: 4 cumulative IPC: 4 (Simulation time: 00 hr 03 min 33 sec)
Heartbeat CPU 0 instructions: 50000001 cycles: 12500202 heartbeat IPC: 4 cumulative IPC: 4 (Simulation time: 00 hr 04 min 23 sec)
Warmup finished CPU 0 instructions: 50000001 cycles: 12500203 cumulative IPC: 4 (Simulation time: 00 hr 04 min 23 sec)
Warmup complete CPU 0 instructions: 50000001 cycles: 12500203 cumulative IPC: 4 (Simulation time: 00 hr 04 min 23 sec)
Heartbeat CPU 0 instructions: 60000002 cycles: 15593101 heartbeat IPC: 3.233 cumulative IPC: 3.233 (Simulation time: 00 hr 05 min 24 sec)
Heartbeat CPU 0 instructions: 70000002 cycles: 18094201 heartbeat IPC: 3.998 cumulative IPC: 3.575 (Simulation time: 00 hr 06 min 19 sec)
Heartbeat CPU 0 instructions: 80000002 cycles: 20594222 heartbeat IPC: 4 cumulative IPC: 3.706 (Simulation time: 00 hr 07 min 14 sec)
Heartbeat CPU 0 instructions: 90000004 cycles: 23094243 heartbeat IPC: 4 cumulative IPC: 3.776 (Simulation time: 00 hr 08 min 09 sec)
Heartbeat CPU 0 instructions: 100000000 cycles: 25594264 heartbeat IPC: 4 cumulative IPC: 3.819 (Simulation time: 00 hr 09 min 03 sec)
Heartbeat CPU 0 instructions: 110000002 cycles: 28094746 heartbeat IPC: 3.999 cumulative IPC: 3.847 (Simulation time: 00 hr 09 min 57 sec)
Heartbeat CPU 0 instructions: 120000000 cycles: 30596094 heartbeat IPC: 3.998 cumulative IPC: 3.868 (Simulation time: 00 hr 10 min 49 sec)
Heartbeat CPU 0 instructions: 130000000 cycles: 33096623 heartbeat IPC: 3.999 cumulative IPC: 3.884 (Simulation time: 00 hr 11 min 43 sec)
Heartbeat CPU 0 instructions: 140000001 cycles: 35596644 heartbeat IPC: 4 cumulative IPC: 3.897 (Simulation time: 00 hr 12 min 34 sec)
Heartbeat CPU 0 instructions: 150000002 cycles: 38096666 heartbeat IPC: 4 cumulative IPC: 3.907 (Simulation time: 00 hr 13 min 27 sec)
Heartbeat CPU 0 instructions: 160000004 cycles: 40596702 heartbeat IPC: 4 cumulative IPC: 3.915 (Simulation time: 00 hr 14 min 17 sec)
Heartbeat CPU 0 instructions: 170000004 cycles: 43099313 heartbeat IPC: 3.996 cumulative IPC: 3.922 (Simulation time: 00 hr 15 min 11 sec)
Heartbeat CPU 0 instructions: 180000001 cycles: 45599333 heartbeat IPC: 4 cumulative IPC: 3.928 (Simulation time: 00 hr 16 min 01 sec)
Heartbeat CPU 0 instructions: 190000002 cycles: 48100747 heartbeat IPC: 3.998 cumulative IPC: 3.933 (Simulation time: 00 hr 16 min 52 sec)
Heartbeat CPU 0 instructions: 200000002 cycles: 50600768 heartbeat IPC: 4 cumulative IPC: 3.937 (Simulation time: 00 hr 17 min 44 sec)
Heartbeat CPU 0 instructions: 210000000 cycles: 53100790 heartbeat IPC: 4 cumulative IPC: 3.941 (Simulation time: 00 hr 18 min 34 sec)
Heartbeat CPU 0 instructions: 220000000 cycles: 55602172 heartbeat IPC: 3.998 cumulative IPC: 3.944 (Simulation time: 00 hr 19 min 24 sec)
Heartbeat CPU 0 instructions: 230000002 cycles: 58102195 heartbeat IPC: 4 cumulative IPC: 3.947 (Simulation time: 00 hr 20 min 14 sec)
Heartbeat CPU 0 instructions: 240000003 cycles: 60602217 heartbeat IPC: 4 cumulative IPC: 3.95 (Simulation time: 00 hr 21 min 03 sec)
Heartbeat CPU 0 instructions: 250000000 cycles: 63102236 heartbeat IPC: 4 cumulative IPC: 3.952 (Simulation time: 00 hr 21 min 54 sec)
Heartbeat CPU 0 instructions: 260000001 cycles: 65602258 heartbeat IPC: 4 cumulative IPC: 3.955 (Simulation time: 00 hr 22 min 43 sec)
Heartbeat CPU 0 instructions: 270000002 cycles: 68103793 heartbeat IPC: 3.998 cumulative IPC: 3.957 (Simulation time: 00 hr 23 min 31 sec)
Heartbeat CPU 0 instructions: 280000003 cycles: 70603823 heartbeat IPC: 4 cumulative IPC: 3.958 (Simulation time: 00 hr 24 min 21 sec)
Heartbeat CPU 0 instructions: 290000004 cycles: 73103844 heartbeat IPC: 4 cumulative IPC: 3.96 (Simulation time: 00 hr 25 min 11 sec)
Heartbeat CPU 0 instructions: 300000004 cycles: 75603865 heartbeat IPC: 4 cumulative IPC: 3.962 (Simulation time: 00 hr 26 min 00 sec)
Heartbeat CPU 0 instructions: 310000000 cycles: 78103961 heartbeat IPC: 4 cumulative IPC: 3.963 (Simulation time: 00 hr 26 min 50 sec)
Heartbeat CPU 0 instructions: 320000004 cycles: 80604394 heartbeat IPC: 3.999 cumulative IPC: 3.965 (Simulation time: 00 hr 27 min 40 sec)
Heartbeat CPU 0 instructions: 330000000 cycles: 83104423 heartbeat IPC: 4 cumulative IPC: 3.966 (Simulation time: 00 hr 28 min 31 sec)
Heartbeat CPU 0 instructions: 340000001 cycles: 85604888 heartbeat IPC: 3.999 cumulative IPC: 3.967 (Simulation time: 00 hr 29 min 21 sec)
Heartbeat CPU 0 instructions: 350000002 cycles: 88104910 heartbeat IPC: 4 cumulative IPC: 3.968 (Simulation time: 00 hr 30 min 12 sec)
Heartbeat CPU 0 instructions: 360000004 cycles: 90604931 heartbeat IPC: 4 cumulative IPC: 3.969 (Simulation time: 00 hr 31 min 01 sec)
Heartbeat CPU 0 instructions: 370000004 cycles: 93107761 heartbeat IPC: 3.995 cumulative IPC: 3.97 (Simulation time: 00 hr 31 min 52 sec)
Heartbeat CPU 0 instructions: 380000000 cycles: 95607781 heartbeat IPC: 4 cumulative IPC: 3.971 (Simulation time: 00 hr 32 min 41 sec)
Heartbeat CPU 0 instructions: 390000004 cycles: 98107804 heartbeat IPC: 4 cumulative IPC: 3.972 (Simulation time: 00 hr 33 min 32 sec)
Heartbeat CPU 0 instructions: 400000001 cycles: 100607824 heartbeat IPC: 4 cumulative IPC: 3.972 (Simulation time: 00 hr 34 min 22 sec)
Heartbeat CPU 0 instructions: 410000004 cycles: 103109586 heartbeat IPC: 3.997 cumulative IPC: 3.973 (Simulation time: 00 hr 35 min 12 sec)
Heartbeat CPU 0 instructions: 420000001 cycles: 105609613 heartbeat IPC: 4 cumulative IPC: 3.974 (Simulation time: 00 hr 36 min 03 sec)
Heartbeat CPU 0 instructions: 430000002 cycles: 108109634 heartbeat IPC: 4 cumulative IPC: 3.975 (Simulation time: 00 hr 36 min 54 sec)
Heartbeat CPU 0 instructions: 440000004 cycles: 110609656 heartbeat IPC: 4 cumulative IPC: 3.975 (Simulation time: 00 hr 37 min 43 sec)
Heartbeat CPU 0 instructions: 450000004 cycles: 113109676 heartbeat IPC: 4 cumulative IPC: 3.976 (Simulation time: 00 hr 38 min 33 sec)
Heartbeat CPU 0 instructions: 460000001 cycles: 115610657 heartbeat IPC: 3.998 cumulative IPC: 3.976 (Simulation time: 00 hr 39 min 24 sec)
Heartbeat CPU 0 instructions: 470000002 cycles: 118110678 heartbeat IPC: 4 cumulative IPC: 3.977 (Simulation time: 00 hr 40 min 15 sec)
Heartbeat CPU 0 instructions: 480000003 cycles: 120610700 heartbeat IPC: 4 cumulative IPC: 3.977 (Simulation time: 00 hr 41 min 05 sec)
Heartbeat CPU 0 instructions: 490000000 cycles: 123110723 heartbeat IPC: 4 cumulative IPC: 3.978 (Simulation time: 00 hr 41 min 55 sec)
Heartbeat CPU 0 instructions: 500000001 cycles: 125610746 heartbeat IPC: 4 cumulative IPC: 3.978 (Simulation time: 00 hr 42 min 45 sec)
Heartbeat CPU 0 instructions: 510000003 cycles: 128110768 heartbeat IPC: 4 cumulative IPC: 3.979 (Simulation time: 00 hr 43 min 35 sec)
Heartbeat CPU 0 instructions: 520000004 cycles: 130613008 heartbeat IPC: 3.996 cumulative IPC: 3.979 (Simulation time: 00 hr 44 min 25 sec)
Heartbeat CPU 0 instructions: 530000000 cycles: 133113050 heartbeat IPC: 4 cumulative IPC: 3.98 (Simulation time: 00 hr 45 min 14 sec)
Heartbeat CPU 0 instructions: 540000001 cycles: 135613070 heartbeat IPC: 4 cumulative IPC: 3.98 (Simulation time: 00 hr 46 min 03 sec)
Heartbeat CPU 0 instructions: 550000001 cycles: 138113091 heartbeat IPC: 4 cumulative IPC: 3.98 (Simulation time: 00 hr 46 min 53 sec)
Heartbeat CPU 0 instructions: 560000003 cycles: 140616666 heartbeat IPC: 3.994 cumulative IPC: 3.981 (Simulation time: 00 hr 47 min 42 sec)
Heartbeat CPU 0 instructions: 570000004 cycles: 143117192 heartbeat IPC: 3.999 cumulative IPC: 3.981 (Simulation time: 00 hr 48 min 33 sec)
Heartbeat CPU 0 instructions: 580000003 cycles: 145617213 heartbeat IPC: 4 cumulative IPC: 3.981 (Simulation time: 00 hr 49 min 24 sec)
Heartbeat CPU 0 instructions: 590000000 cycles: 148117236 heartbeat IPC: 4 cumulative IPC: 3.982 (Simulation time: 00 hr 50 min 14 sec)
*** Reached end of trace: (0, "traces/convolution.champsimtrace")
Heartbeat CPU 0 instructions: 600000003 cycles: 150617258 heartbeat IPC: 4 cumulative IPC: 3.982 (Simulation time: 00 hr 51 min 04 sec)
Heartbeat CPU 0 instructions: 610000004 cycles: 179274889 heartbeat IPC: 0.3489 cumulative IPC: 3.358 (Simulation time: 00 hr 55 min 45 sec)
Heartbeat CPU 0 instructions: 620000002 cycles: 206516044 heartbeat IPC: 0.3671 cumulative IPC: 2.938 (Simulation time: 00 hr 59 min 09 sec)
Heartbeat CPU 0 instructions: 630000002 cycles: 218829238 heartbeat IPC: 0.8121 cumulative IPC: 2.811 (Simulation time: 01 hr 00 min 24 sec)
Heartbeat CPU 0 instructions: 640000002 cycles: 230015119 heartbeat IPC: 0.894 cumulative IPC: 2.712 (Simulation time: 01 hr 01 min 35 sec)
Heartbeat CPU 0 instructions: 650000004 cycles: 240758361 heartbeat IPC: 0.9308 cumulative IPC: 2.629 (Simulation time: 01 hr 02 min 44 sec)
Simulation finished CPU 0 instructions: 600000003 cycles: 228258159 cumulative IPC: 2.629 (Simulation time: 01 hr 02 min 44 sec)
Simulation complete CPU 0 instructions: 600000003 cycles: 228258159 cumulative IPC: 2.629 (Simulation time: 01 hr 02 min 44 sec)

ChampSim completed all CPUs

=== Simulation ===
CPU 0 runs traces/convolution.champsimtrace
Region of Interest Statistics

CPU 0 cumulative IPC: 2.629 instructions: 600000003 cycles: 228258159
CPU 0 Branch Prediction Accuracy: 100% MPKI: 0.00296 Average ROB Occupancy at Mispredict: 67.86
Branch type MPKI
BRANCH_DIRECT_JUMP: 0.000107
BRANCH_INDIRECT: 4e-05
BRANCH_CONDITIONAL: 0.00268
BRANCH_DIRECT_CALL: 0.000103
BRANCH_INDIRECT_CALL: 8.33e-06
BRANCH_RETURN: 1.83e-05

LLC TOTAL        ACCESS:    1185331 HIT:     517601 MISS:     667730
LLC LOAD         ACCESS:       2893 HIT:       2271 MISS:        622
LLC RFO          ACCESS:     535131 HIT:       1561 MISS:     533570
LLC PREFETCH     ACCESS:       2116 HIT:       1525 MISS:        591
LLC WRITE        ACCESS:     535182 HIT:     511287 MISS:      23895
LLC TRANSLATION  ACCESS:     110009 HIT:        957 MISS:     109052
LLC PREFETCH REQUESTED:       2116 ISSUED:       2116 USEFUL:        253 USELESS:         20
LLC AVERAGE MISS LATENCY: 1092 cycles
cpu0_DTLB TOTAL        ACCESS:  113123357 HIT:  112769385 MISS:     353972
cpu0_DTLB LOAD         ACCESS:  113123357 HIT:  112769385 MISS:     353972
cpu0_DTLB RFO          ACCESS:          0 HIT:          0 MISS:          0
cpu0_DTLB PREFETCH     ACCESS:          0 HIT:          0 MISS:          0
cpu0_DTLB WRITE        ACCESS:          0 HIT:          0 MISS:          0
cpu0_DTLB TRANSLATION  ACCESS:          0 HIT:          0 MISS:          0
cpu0_DTLB PREFETCH REQUESTED:          0 ISSUED:          0 USEFUL:          0 USELESS:          0
cpu0_DTLB AVERAGE MISS LATENCY: 785.6 cycles
cpu0_ITLB TOTAL        ACCESS:       2110 HIT:       2071 MISS:         39
cpu0_ITLB LOAD         ACCESS:       2110 HIT:       2071 MISS:         39
cpu0_ITLB RFO          ACCESS:          0 HIT:          0 MISS:          0
cpu0_ITLB PREFETCH     ACCESS:          0 HIT:          0 MISS:          0
cpu0_ITLB WRITE        ACCESS:          0 HIT:          0 MISS:          0
cpu0_ITLB TRANSLATION  ACCESS:          0 HIT:          0 MISS:          0
cpu0_ITLB PREFETCH REQUESTED:          0 ISSUED:          0 USEFUL:          0 USELESS:          0
cpu0_ITLB AVERAGE MISS LATENCY: 406.4 cycles
cpu0_L1D TOTAL        ACCESS:  146353700 HIT:  140167566 MISS:    6186134
cpu0_L1D LOAD         ACCESS:   74199923 HIT:   74191783 MISS:       8140
cpu0_L1D RFO          ACCESS:          0 HIT:          0 MISS:          0
cpu0_L1D PREFETCH     ACCESS:          0 HIT:          0 MISS:          0
cpu0_L1D WRITE        ACCESS:   71972998 HIT:   65937630 MISS:    6035368
cpu0_L1D TRANSLATION  ACCESS:     180779 HIT:      38153 MISS:     142626
cpu0_L1D PREFETCH REQUESTED:          0 ISSUED:          0 USEFUL:          0 USELESS:          0
cpu0_L1D AVERAGE MISS LATENCY: 93.47 cycles
cpu0_L1I TOTAL        ACCESS:       2438 HIT:       1025 MISS:       1413
cpu0_L1I LOAD         ACCESS:       2438 HIT:       1025 MISS:       1413
cpu0_L1I RFO          ACCESS:          0 HIT:          0 MISS:          0
cpu0_L1I PREFETCH     ACCESS:          0 HIT:          0 MISS:          0
cpu0_L1I WRITE        ACCESS:          0 HIT:          0 MISS:          0
cpu0_L1I TRANSLATION  ACCESS:          0 HIT:          0 MISS:          0
cpu0_L1I PREFETCH REQUESTED:          0 ISSUED:          0 USEFUL:          0 USELESS:          0
cpu0_L1I AVERAGE MISS LATENCY: 128 cycles
cpu0_L2C TOTAL        ACCESS:    1193529 HIT:     545482 MISS:     648047
cpu0_L2C LOAD         ACCESS:       3320 HIT:        427 MISS:       2893
cpu0_L2C RFO          ACCESS:     539414 HIT:       4283 MISS:     535131
cpu0_L2C PREFETCH     ACCESS:          0 HIT:          0 MISS:          0
cpu0_L2C WRITE        ACCESS:     539533 HIT:     539519 MISS:         14
cpu0_L2C TRANSLATION  ACCESS:     111262 HIT:       1253 MISS:     110009
cpu0_L2C PREFETCH REQUESTED:          0 ISSUED:          0 USEFUL:          0 USELESS:          0
cpu0_L2C AVERAGE MISS LATENCY: 1146 cycles
cpu0_STLB TOTAL        ACCESS:     156153 HIT:         45 MISS:     156108
cpu0_STLB LOAD         ACCESS:     156153 HIT:         45 MISS:     156108
cpu0_STLB RFO          ACCESS:          0 HIT:          0 MISS:          0
cpu0_STLB PREFETCH     ACCESS:          0 HIT:          0 MISS:          0
cpu0_STLB WRITE        ACCESS:          0 HIT:          0 MISS:          0
cpu0_STLB TRANSLATION  ACCESS:          0 HIT:          0 MISS:          0
cpu0_STLB PREFETCH REQUESTED:          0 ISSUED:          0 USEFUL:          0 USELESS:          0
cpu0_STLB AVERAGE MISS LATENCY: 1996 cycles

DRAM Statistics

Channel 0 RQ ROW_BUFFER_HIT:     140692
  ROW_BUFFER_MISS:     502699
 AVG DBUS CONGESTED CYCLE: 3.988
WQ ROW_BUFFER_HIT: Channel 0 
  ROW_BUFFER_MISS:       6932
  FULL:     525383
