WARNING: physical memory size is smaller than virtual memory size.

*** ChampSim Multicore Out-of-Order Simulator ***
Warmup Instructions: 50000000
Simulation Instructions: 600000000
Number of CPUs: 1
Page size: 4096

Off-chip DRAM Size: 4 GiB Channels: 1 Width: 64-bit Data Race: 3200 MT/s
Heartbeat CPU 0 instructions: 10000000 cycles: 2500202 heartbeat IPC: 4 cumulative IPC: 4 (Simulation time: 00 hr 00 min 34 sec)
Heartbeat CPU 0 instructions: 20000000 cycles: 5000202 heartbeat IPC: 4 cumulative IPC: 4 (Simulation time: 00 hr 01 min 08 sec)
Heartbeat CPU 0 instructions: 30000000 cycles: 7500202 heartbeat IPC: 4 cumulative IPC: 4 (Simulation time: 00 hr 01 min 38 sec)
Heartbeat CPU 0 instructions: 40000000 cycles: 10000202 heartbeat IPC: 4 cumulative IPC: 4 (Simulation time: 00 hr 02 min 09 sec)
Heartbeat CPU 0 instructions: 50000000 cycles: 12500202 heartbeat IPC: 4 cumulative IPC: 4 (Simulation time: 00 hr 02 min 39 sec)
Warmup finished CPU 0 instructions: 50000000 cycles: 12500203 cumulative IPC: 4 (Simulation time: 00 hr 02 min 39 sec)
Warmup complete CPU 0 instructions: 50000000 cycles: 12500203 cumulative IPC: 4 (Simulation time: 00 hr 02 min 39 sec)
Heartbeat CPU 0 instructions: 60000002 cycles: 15780092 heartbeat IPC: 3.049 cumulative IPC: 3.049 (Simulation time: 00 hr 03 min 23 sec)
Heartbeat CPU 0 instructions: 70000002 cycles: 18486775 heartbeat IPC: 3.695 cumulative IPC: 3.341 (Simulation time: 00 hr 04 min 04 sec)
Heartbeat CPU 0 instructions: 80000003 cycles: 21196040 heartbeat IPC: 3.691 cumulative IPC: 3.45 (Simulation time: 00 hr 04 min 45 sec)
Heartbeat CPU 0 instructions: 90000004 cycles: 23906283 heartbeat IPC: 3.69 cumulative IPC: 3.507 (Simulation time: 00 hr 05 min 25 sec)
Heartbeat CPU 0 instructions: 100000003 cycles: 26612468 heartbeat IPC: 3.695 cumulative IPC: 3.543 (Simulation time: 00 hr 06 min 01 sec)
Heartbeat CPU 0 instructions: 110000000 cycles: 29319040 heartbeat IPC: 3.695 cumulative IPC: 3.567 (Simulation time: 00 hr 06 min 37 sec)
Heartbeat CPU 0 instructions: 120000000 cycles: 32029673 heartbeat IPC: 3.689 cumulative IPC: 3.584 (Simulation time: 00 hr 07 min 15 sec)
Heartbeat CPU 0 instructions: 130000000 cycles: 34737925 heartbeat IPC: 3.692 cumulative IPC: 3.597 (Simulation time: 00 hr 07 min 54 sec)
Heartbeat CPU 0 instructions: 140000001 cycles: 37446284 heartbeat IPC: 3.692 cumulative IPC: 3.608 (Simulation time: 00 hr 08 min 32 sec)
Heartbeat CPU 0 instructions: 150000003 cycles: 40150497 heartbeat IPC: 3.698 cumulative IPC: 3.617 (Simulation time: 00 hr 09 min 13 sec)
Heartbeat CPU 0 instructions: 160000003 cycles: 42857816 heartbeat IPC: 3.694 cumulative IPC: 3.623 (Simulation time: 00 hr 09 min 52 sec)
Heartbeat CPU 0 instructions: 170000001 cycles: 45563013 heartbeat IPC: 3.697 cumulative IPC: 3.629 (Simulation time: 00 hr 10 min 34 sec)
Heartbeat CPU 0 instructions: 180000001 cycles: 48269800 heartbeat IPC: 3.694 cumulative IPC: 3.634 (Simulation time: 00 hr 11 min 12 sec)
Heartbeat CPU 0 instructions: 190000002 cycles: 50973771 heartbeat IPC: 3.698 cumulative IPC: 3.639 (Simulation time: 00 hr 11 min 48 sec)
Heartbeat CPU 0 instructions: 200000001 cycles: 53681450 heartbeat IPC: 3.693 cumulative IPC: 3.642 (Simulation time: 00 hr 12 min 28 sec)
Heartbeat CPU 0 instructions: 210000000 cycles: 56387982 heartbeat IPC: 3.695 cumulative IPC: 3.646 (Simulation time: 00 hr 13 min 10 sec)
Heartbeat CPU 0 instructions: 220000001 cycles: 59098384 heartbeat IPC: 3.689 cumulative IPC: 3.648 (Simulation time: 00 hr 13 min 49 sec)
Heartbeat CPU 0 instructions: 230000002 cycles: 61808192 heartbeat IPC: 3.69 cumulative IPC: 3.651 (Simulation time: 00 hr 14 min 26 sec)
Heartbeat CPU 0 instructions: 240000004 cycles: 64516174 heartbeat IPC: 3.693 cumulative IPC: 3.653 (Simulation time: 00 hr 15 min 02 sec)
Heartbeat CPU 0 instructions: 250000000 cycles: 67227390 heartbeat IPC: 3.688 cumulative IPC: 3.654 (Simulation time: 00 hr 15 min 40 sec)
Heartbeat CPU 0 instructions: 260000000 cycles: 69936206 heartbeat IPC: 3.692 cumulative IPC: 3.656 (Simulation time: 00 hr 16 min 21 sec)
Heartbeat CPU 0 instructions: 270000002 cycles: 72644545 heartbeat IPC: 3.692 cumulative IPC: 3.658 (Simulation time: 00 hr 17 min 04 sec)
Heartbeat CPU 0 instructions: 280000003 cycles: 75354071 heartbeat IPC: 3.691 cumulative IPC: 3.659 (Simulation time: 00 hr 17 min 42 sec)
Heartbeat CPU 0 instructions: 290000003 cycles: 78061072 heartbeat IPC: 3.694 cumulative IPC: 3.661 (Simulation time: 00 hr 18 min 20 sec)
Heartbeat CPU 0 instructions: 300000000 cycles: 80774036 heartbeat IPC: 3.686 cumulative IPC: 3.662 (Simulation time: 00 hr 19 min 01 sec)
Heartbeat CPU 0 instructions: 310000002 cycles: 83484645 heartbeat IPC: 3.689 cumulative IPC: 3.663 (Simulation time: 00 hr 19 min 40 sec)
Heartbeat CPU 0 instructions: 320000004 cycles: 86191161 heartbeat IPC: 3.695 cumulative IPC: 3.664 (Simulation time: 00 hr 20 min 14 sec)
Heartbeat CPU 0 instructions: 330000000 cycles: 88900415 heartbeat IPC: 3.691 cumulative IPC: 3.665 (Simulation time: 00 hr 20 min 50 sec)
Heartbeat CPU 0 instructions: 340000002 cycles: 91608574 heartbeat IPC: 3.693 cumulative IPC: 3.666 (Simulation time: 00 hr 21 min 26 sec)
Heartbeat CPU 0 instructions: 350000002 cycles: 94314503 heartbeat IPC: 3.696 cumulative IPC: 3.667 (Simulation time: 00 hr 22 min 02 sec)
Heartbeat CPU 0 instructions: 360000001 cycles: 97025721 heartbeat IPC: 3.688 cumulative IPC: 3.668 (Simulation time: 00 hr 22 min 40 sec)
Heartbeat CPU 0 instructions: 370000004 cycles: 99733009 heartbeat IPC: 3.694 cumulative IPC: 3.668 (Simulation time: 00 hr 23 min 15 sec)
Heartbeat CPU 0 instructions: 380000000 cycles: 102447008 heartbeat IPC: 3.685 cumulative IPC: 3.669 (Simulation time: 00 hr 23 min 54 sec)
Heartbeat CPU 0 instructions: 390000004 cycles: 105154833 heartbeat IPC: 3.693 cumulative IPC: 3.67 (Simulation time: 00 hr 24 min 31 sec)
Heartbeat CPU 0 instructions: 400000000 cycles: 107863576 heartbeat IPC: 3.692 cumulative IPC: 3.67 (Simulation time: 00 hr 25 min 08 sec)
Heartbeat CPU 0 instructions: 410000000 cycles: 110573365 heartbeat IPC: 3.69 cumulative IPC: 3.671 (Simulation time: 00 hr 25 min 46 sec)
Heartbeat CPU 0 instructions: 420000001 cycles: 113279612 heartbeat IPC: 3.695 cumulative IPC: 3.671 (Simulation time: 00 hr 26 min 22 sec)
Heartbeat CPU 0 instructions: 430000003 cycles: 115984539 heartbeat IPC: 3.697 cumulative IPC: 3.672 (Simulation time: 00 hr 27 min 00 sec)
Heartbeat CPU 0 instructions: 440000003 cycles: 118698372 heartbeat IPC: 3.685 cumulative IPC: 3.672 (Simulation time: 00 hr 27 min 36 sec)
Heartbeat CPU 0 instructions: 450000004 cycles: 121411902 heartbeat IPC: 3.685 cumulative IPC: 3.673 (Simulation time: 00 hr 28 min 13 sec)
Heartbeat CPU 0 instructions: 460000001 cycles: 124123191 heartbeat IPC: 3.688 cumulative IPC: 3.673 (Simulation time: 00 hr 28 min 49 sec)
Heartbeat CPU 0 instructions: 470000002 cycles: 126830239 heartbeat IPC: 3.694 cumulative IPC: 3.674 (Simulation time: 00 hr 29 min 27 sec)
Heartbeat CPU 0 instructions: 480000001 cycles: 129538779 heartbeat IPC: 3.692 cumulative IPC: 3.674 (Simulation time: 00 hr 30 min 02 sec)
Heartbeat CPU 0 instructions: 490000000 cycles: 132249862 heartbeat IPC: 3.689 cumulative IPC: 3.674 (Simulation time: 00 hr 30 min 38 sec)
Heartbeat CPU 0 instructions: 500000002 cycles: 134965371 heartbeat IPC: 3.683 cumulative IPC: 3.675 (Simulation time: 00 hr 31 min 23 sec)
Heartbeat CPU 0 instructions: 510000003 cycles: 137674404 heartbeat IPC: 3.691 cumulative IPC: 3.675 (Simulation time: 00 hr 32 min 37 sec)
Heartbeat CPU 0 instructions: 520000004 cycles: 140382090 heartbeat IPC: 3.693 cumulative IPC: 3.675 (Simulation time: 00 hr 33 min 58 sec)
Heartbeat CPU 0 instructions: 530000000 cycles: 143090903 heartbeat IPC: 3.692 cumulative IPC: 3.676 (Simulation time: 00 hr 35 min 15 sec)
Heartbeat CPU 0 instructions: 540000000 cycles: 145802571 heartbeat IPC: 3.688 cumulative IPC: 3.676 (Simulation time: 00 hr 36 min 31 sec)
Heartbeat CPU 0 instructions: 550000003 cycles: 148508879 heartbeat IPC: 3.695 cumulative IPC: 3.676 (Simulation time: 00 hr 37 min 50 sec)
Heartbeat CPU 0 instructions: 560000003 cycles: 151218782 heartbeat IPC: 3.69 cumulative IPC: 3.677 (Simulation time: 00 hr 39 min 11 sec)
Heartbeat CPU 0 instructions: 570000004 cycles: 153927115 heartbeat IPC: 3.692 cumulative IPC: 3.677 (Simulation time: 00 hr 40 min 36 sec)
Heartbeat CPU 0 instructions: 580000000 cycles: 156634906 heartbeat IPC: 3.693 cumulative IPC: 3.677 (Simulation time: 00 hr 41 min 51 sec)
Heartbeat CPU 0 instructions: 590000002 cycles: 159344600 heartbeat IPC: 3.69 cumulative IPC: 3.677 (Simulation time: 00 hr 43 min 11 sec)
*** Reached end of trace: (0, "traces/convolution.champsimtrace")
Heartbeat CPU 0 instructions: 600000000 cycles: 162055367 heartbeat IPC: 3.689 cumulative IPC: 3.678 (Simulation time: 00 hr 44 min 31 sec)
Heartbeat CPU 0 instructions: 610000002 cycles: 184448158 heartbeat IPC: 0.4466 cumulative IPC: 3.257 (Simulation time: 00 hr 51 min 03 sec)
Heartbeat CPU 0 instructions: 620000001 cycles: 204345258 heartbeat IPC: 0.5026 cumulative IPC: 2.971 (Simulation time: 00 hr 56 min 48 sec)
Heartbeat CPU 0 instructions: 630000001 cycles: 209004386 heartbeat IPC: 2.146 cumulative IPC: 2.952 (Simulation time: 00 hr 58 min 47 sec)
Heartbeat CPU 0 instructions: 640000004 cycles: 219246875 heartbeat IPC: 0.9763 cumulative IPC: 2.854 (Simulation time: 01 hr 02 min 30 sec)
Heartbeat CPU 0 instructions: 650000001 cycles: 230023290 heartbeat IPC: 0.928 cumulative IPC: 2.758 (Simulation time: 01 hr 07 min 40 sec)
Simulation finished CPU 0 instructions: 600000001 cycles: 217523088 cumulative IPC: 2.758 (Simulation time: 01 hr 07 min 40 sec)
Simulation complete CPU 0 instructions: 600000001 cycles: 217523088 cumulative IPC: 2.758 (Simulation time: 01 hr 07 min 40 sec)

ChampSim completed all CPUs

=== Simulation ===
CPU 0 runs traces/convolution.champsimtrace
Region of Interest Statistics

CPU 0 cumulative IPC: 2.758 instructions: 600000001 cycles: 217523088
CPU 0 Branch Prediction Accuracy: 99.3% MPKI: 1.265 Average ROB Occupancy at Mispredict: 64.14
Branch type MPKI
BRANCH_DIRECT_JUMP: 0.000107
BRANCH_INDIRECT: 4.17e-05
BRANCH_CONDITIONAL: 1.26
BRANCH_DIRECT_CALL: 0.000103
BRANCH_INDIRECT_CALL: 8.33e-06
BRANCH_RETURN: 1.83e-05

LLC TOTAL        ACCESS:    1184796 HIT:     241031 MISS:     943765
LLC LOAD         ACCESS:       2889 HIT:       1090 MISS:       1799
LLC RFO          ACCESS:     535120 HIT:      30842 MISS:     504278
LLC PREFETCH     ACCESS:       2107 HIT:       1158 MISS:        949
LLC WRITE        ACCESS:     535168 HIT:     177300 MISS:     357868
LLC TRANSLATION  ACCESS:     109512 HIT:      30641 MISS:      78871
LLC PREFETCH REQUESTED:       2107 ISSUED:       2107 USEFUL:        489 USELESS:         25
LLC AVERAGE MISS LATENCY: 641.7 cycles
cpu0_DTLB TOTAL        ACCESS:  121893500 HIT:  121578979 MISS:     314521
cpu0_DTLB LOAD         ACCESS:  121893500 HIT:  121578979 MISS:     314521
cpu0_DTLB RFO          ACCESS:          0 HIT:          0 MISS:          0
cpu0_DTLB PREFETCH     ACCESS:          0 HIT:          0 MISS:          0
cpu0_DTLB WRITE        ACCESS:          0 HIT:          0 MISS:          0
cpu0_DTLB TRANSLATION  ACCESS:          0 HIT:          0 MISS:          0
cpu0_DTLB PREFETCH REQUESTED:          0 ISSUED:          0 USEFUL:          0 USELESS:          0
cpu0_DTLB AVERAGE MISS LATENCY: 662.2 cycles
cpu0_ITLB TOTAL        ACCESS:       2031 HIT:       1996 MISS:         35
cpu0_ITLB LOAD         ACCESS:       2031 HIT:       1996 MISS:         35
cpu0_ITLB RFO          ACCESS:          0 HIT:          0 MISS:          0
cpu0_ITLB PREFETCH     ACCESS:          0 HIT:          0 MISS:          0
cpu0_ITLB WRITE        ACCESS:          0 HIT:          0 MISS:          0
cpu0_ITLB TRANSLATION  ACCESS:          0 HIT:          0 MISS:          0
cpu0_ITLB PREFETCH REQUESTED:          0 ISSUED:          0 USEFUL:          0 USELESS:          0
cpu0_ITLB AVERAGE MISS LATENCY: 519.8 cycles
cpu0_L1D TOTAL        ACCESS:  162953098 HIT:  156835750 MISS:    6117348
cpu0_L1D LOAD         ACCESS:   90680614 HIT:   90674274 MISS:       6340
cpu0_L1D RFO          ACCESS:          0 HIT:          0 MISS:          0
cpu0_L1D PREFETCH     ACCESS:          0 HIT:          0 MISS:          0
cpu0_L1D WRITE        ACCESS:   72092013 HIT:   66127840 MISS:    5964173
cpu0_L1D TRANSLATION  ACCESS:     180471 HIT:      33636 MISS:     146835
cpu0_L1D PREFETCH REQUESTED:          0 ISSUED:          0 USEFUL:          0 USELESS:          0
cpu0_L1D AVERAGE MISS LATENCY: 78.4 cycles
cpu0_L1I TOTAL        ACCESS:       2345 HIT:       1032 MISS:       1313
cpu0_L1I LOAD         ACCESS:       2345 HIT:       1032 MISS:       1313
cpu0_L1I RFO          ACCESS:          0 HIT:          0 MISS:          0
cpu0_L1I PREFETCH     ACCESS:          0 HIT:          0 MISS:          0
cpu0_L1I WRITE        ACCESS:          0 HIT:          0 MISS:          0
cpu0_L1I TRANSLATION  ACCESS:          0 HIT:          0 MISS:          0
cpu0_L1I PREFETCH REQUESTED:          0 ISSUED:          0 USEFUL:          0 USELESS:          0
cpu0_L1I AVERAGE MISS LATENCY: 497.4 cycles
cpu0_L2C TOTAL        ACCESS:    1190368 HIT:     542828 MISS:     647540
cpu0_L2C LOAD         ACCESS:       3313 HIT:        424 MISS:       2889
cpu0_L2C RFO          ACCESS:     537998 HIT:       2878 MISS:     535120
cpu0_L2C PREFETCH     ACCESS:          0 HIT:          0 MISS:          0
cpu0_L2C WRITE        ACCESS:     538208 HIT:     538190 MISS:         18
cpu0_L2C TRANSLATION  ACCESS:     110849 HIT:       1336 MISS:     109513
cpu0_L2C PREFETCH REQUESTED:          0 ISSUED:          0 USEFUL:          0 USELESS:          0
cpu0_L2C AVERAGE MISS LATENCY: 955.6 cycles
cpu0_STLB TOTAL        ACCESS:     156153 HIT:         45 MISS:     156108
cpu0_STLB LOAD         ACCESS:     156153 HIT:         45 MISS:     156108
cpu0_STLB RFO          ACCESS:          0 HIT:          0 MISS:          0
cpu0_STLB PREFETCH     ACCESS:          0 HIT:          0 MISS:          0
cpu0_STLB WRITE        ACCESS:          0 HIT:          0 MISS:          0
cpu0_STLB TRANSLATION  ACCESS:          0 HIT:          0 MISS:          0
cpu0_STLB PREFETCH REQUESTED:          0 ISSUED:          0 USEFUL:          0 USELESS:          0
cpu0_STLB AVERAGE MISS LATENCY: 1480 cycles

DRAM Statistics

Channel 0 RQ ROW_BUFFER_HIT:     128401
  ROW_BUFFER_MISS:     456866
 AVG DBUS CONGESTED CYCLE: 3.977
WQ ROW_BUFFER_HIT: Channel 0 
  ROW_BUFFER_MISS:     113579
  FULL:     390703
