WARNING: physical memory size is smaller than virtual memory size.

*** ChampSim Multicore Out-of-Order Simulator ***
Warmup Instructions: 50000000
Simulation Instructions: 600000000
Number of CPUs: 1
Page size: 4096

CPU 0 Tage branch predictor
Off-chip DRAM Size: 4 GiB Channels: 1 Width: 64-bit Data Race: 3200 MT/s
Heartbeat CPU 0 instructions: 10000000 cycles: 2500202 heartbeat IPC: 4 cumulative IPC: 4 (Simulation time: 00 hr 00 min 42 sec)
Heartbeat CPU 0 instructions: 20000000 cycles: 5000202 heartbeat IPC: 4 cumulative IPC: 4 (Simulation time: 00 hr 01 min 24 sec)
Heartbeat CPU 0 instructions: 30000000 cycles: 7500202 heartbeat IPC: 4 cumulative IPC: 4 (Simulation time: 00 hr 02 min 06 sec)
Heartbeat CPU 0 instructions: 40000000 cycles: 10000202 heartbeat IPC: 4 cumulative IPC: 4 (Simulation time: 00 hr 02 min 45 sec)
Heartbeat CPU 0 instructions: 50000000 cycles: 12500202 heartbeat IPC: 4 cumulative IPC: 4 (Simulation time: 00 hr 03 min 29 sec)
Warmup finished CPU 0 instructions: 50000000 cycles: 12500203 cumulative IPC: 4 (Simulation time: 00 hr 03 min 29 sec)
Warmup complete CPU 0 instructions: 50000000 cycles: 12500203 cumulative IPC: 4 (Simulation time: 00 hr 03 min 29 sec)
Heartbeat CPU 0 instructions: 60000002 cycles: 15590113 heartbeat IPC: 3.236 cumulative IPC: 3.236 (Simulation time: 00 hr 04 min 22 sec)
Heartbeat CPU 0 instructions: 70000002 cycles: 18095995 heartbeat IPC: 3.991 cumulative IPC: 3.574 (Simulation time: 00 hr 05 min 10 sec)
Heartbeat CPU 0 instructions: 80000003 cycles: 20600250 heartbeat IPC: 3.993 cumulative IPC: 3.704 (Simulation time: 00 hr 05 min 57 sec)
Heartbeat CPU 0 instructions: 90000004 cycles: 23108623 heartbeat IPC: 3.987 cumulative IPC: 3.771 (Simulation time: 00 hr 06 min 42 sec)
Heartbeat CPU 0 instructions: 100000003 cycles: 25619774 heartbeat IPC: 3.982 cumulative IPC: 3.811 (Simulation time: 00 hr 07 min 27 sec)
Heartbeat CPU 0 instructions: 110000000 cycles: 28130045 heartbeat IPC: 3.984 cumulative IPC: 3.839 (Simulation time: 00 hr 08 min 13 sec)
Heartbeat CPU 0 instructions: 120000000 cycles: 30638179 heartbeat IPC: 3.987 cumulative IPC: 3.859 (Simulation time: 00 hr 08 min 57 sec)
Heartbeat CPU 0 instructions: 130000000 cycles: 33142862 heartbeat IPC: 3.993 cumulative IPC: 3.875 (Simulation time: 00 hr 09 min 43 sec)
Heartbeat CPU 0 instructions: 140000001 cycles: 35654199 heartbeat IPC: 3.982 cumulative IPC: 3.887 (Simulation time: 00 hr 10 min 29 sec)
Heartbeat CPU 0 instructions: 150000003 cycles: 38157382 heartbeat IPC: 3.995 cumulative IPC: 3.898 (Simulation time: 00 hr 11 min 11 sec)
Heartbeat CPU 0 instructions: 160000003 cycles: 40662181 heartbeat IPC: 3.992 cumulative IPC: 3.906 (Simulation time: 00 hr 12 min 00 sec)
Heartbeat CPU 0 instructions: 170000000 cycles: 43166270 heartbeat IPC: 3.993 cumulative IPC: 3.913 (Simulation time: 00 hr 13 min 02 sec)
Heartbeat CPU 0 instructions: 180000001 cycles: 45670424 heartbeat IPC: 3.993 cumulative IPC: 3.919 (Simulation time: 00 hr 14 min 03 sec)
Heartbeat CPU 0 instructions: 190000002 cycles: 48170975 heartbeat IPC: 3.999 cumulative IPC: 3.925 (Simulation time: 00 hr 15 min 16 sec)
Heartbeat CPU 0 instructions: 200000002 cycles: 50679220 heartbeat IPC: 3.987 cumulative IPC: 3.929 (Simulation time: 00 hr 16 min 14 sec)
Heartbeat CPU 0 instructions: 210000000 cycles: 53186363 heartbeat IPC: 3.989 cumulative IPC: 3.933 (Simulation time: 00 hr 17 min 21 sec)
Heartbeat CPU 0 instructions: 220000001 cycles: 55697255 heartbeat IPC: 3.983 cumulative IPC: 3.935 (Simulation time: 00 hr 18 min 26 sec)
Heartbeat CPU 0 instructions: 230000002 cycles: 58207988 heartbeat IPC: 3.983 cumulative IPC: 3.938 (Simulation time: 00 hr 19 min 26 sec)
Heartbeat CPU 0 instructions: 240000004 cycles: 60716871 heartbeat IPC: 3.986 cumulative IPC: 3.941 (Simulation time: 00 hr 20 min 25 sec)
Heartbeat CPU 0 instructions: 250000000 cycles: 63224414 heartbeat IPC: 3.988 cumulative IPC: 3.943 (Simulation time: 00 hr 21 min 28 sec)
Heartbeat CPU 0 instructions: 260000000 cycles: 65730625 heartbeat IPC: 3.99 cumulative IPC: 3.945 (Simulation time: 00 hr 22 min 27 sec)
Heartbeat CPU 0 instructions: 270000002 cycles: 68236776 heartbeat IPC: 3.99 cumulative IPC: 3.947 (Simulation time: 00 hr 23 min 25 sec)
Heartbeat CPU 0 instructions: 280000003 cycles: 70750991 heartbeat IPC: 3.977 cumulative IPC: 3.948 (Simulation time: 00 hr 24 min 24 sec)
Heartbeat CPU 0 instructions: 290000000 cycles: 73258112 heartbeat IPC: 3.989 cumulative IPC: 3.95 (Simulation time: 00 hr 25 min 24 sec)
Heartbeat CPU 0 instructions: 300000000 cycles: 75770694 heartbeat IPC: 3.98 cumulative IPC: 3.951 (Simulation time: 00 hr 26 min 23 sec)
Heartbeat CPU 0 instructions: 310000002 cycles: 78282554 heartbeat IPC: 3.981 cumulative IPC: 3.952 (Simulation time: 00 hr 27 min 24 sec)
Heartbeat CPU 0 instructions: 320000004 cycles: 80792835 heartbeat IPC: 3.984 cumulative IPC: 3.954 (Simulation time: 00 hr 28 min 30 sec)
Heartbeat CPU 0 instructions: 330000000 cycles: 83297046 heartbeat IPC: 3.993 cumulative IPC: 3.955 (Simulation time: 00 hr 29 min 30 sec)
Heartbeat CPU 0 instructions: 340000002 cycles: 85806799 heartbeat IPC: 3.984 cumulative IPC: 3.956 (Simulation time: 00 hr 30 min 13 sec)
Heartbeat CPU 0 instructions: 350000002 cycles: 88313677 heartbeat IPC: 3.989 cumulative IPC: 3.957 (Simulation time: 00 hr 30 min 56 sec)
Heartbeat CPU 0 instructions: 360000000 cycles: 90822269 heartbeat IPC: 3.986 cumulative IPC: 3.958 (Simulation time: 00 hr 31 min 38 sec)
Heartbeat CPU 0 instructions: 370000004 cycles: 93331083 heartbeat IPC: 3.986 cumulative IPC: 3.959 (Simulation time: 00 hr 32 min 20 sec)
Heartbeat CPU 0 instructions: 380000000 cycles: 95837990 heartbeat IPC: 3.989 cumulative IPC: 3.96 (Simulation time: 00 hr 33 min 02 sec)
Heartbeat CPU 0 instructions: 390000000 cycles: 98345723 heartbeat IPC: 3.988 cumulative IPC: 3.961 (Simulation time: 00 hr 33 min 44 sec)
Heartbeat CPU 0 instructions: 400000000 cycles: 100850133 heartbeat IPC: 3.993 cumulative IPC: 3.962 (Simulation time: 00 hr 34 min 29 sec)
Heartbeat CPU 0 instructions: 410000000 cycles: 103359513 heartbeat IPC: 3.985 cumulative IPC: 3.962 (Simulation time: 00 hr 35 min 14 sec)
Heartbeat CPU 0 instructions: 420000001 cycles: 105866648 heartbeat IPC: 3.989 cumulative IPC: 3.963 (Simulation time: 00 hr 35 min 57 sec)
Heartbeat CPU 0 instructions: 430000003 cycles: 108369926 heartbeat IPC: 3.995 cumulative IPC: 3.964 (Simulation time: 00 hr 36 min 40 sec)
Heartbeat CPU 0 instructions: 440000003 cycles: 110880501 heartbeat IPC: 3.983 cumulative IPC: 3.964 (Simulation time: 00 hr 37 min 29 sec)
Heartbeat CPU 0 instructions: 450000004 cycles: 113401110 heartbeat IPC: 3.967 cumulative IPC: 3.964 (Simulation time: 00 hr 38 min 15 sec)
Heartbeat CPU 0 instructions: 460000001 cycles: 115912620 heartbeat IPC: 3.982 cumulative IPC: 3.965 (Simulation time: 00 hr 38 min 59 sec)
Heartbeat CPU 0 instructions: 470000002 cycles: 118420287 heartbeat IPC: 3.988 cumulative IPC: 3.965 (Simulation time: 00 hr 39 min 42 sec)
Heartbeat CPU 0 instructions: 480000001 cycles: 120928301 heartbeat IPC: 3.987 cumulative IPC: 3.966 (Simulation time: 00 hr 40 min 26 sec)
Heartbeat CPU 0 instructions: 490000000 cycles: 123435975 heartbeat IPC: 3.988 cumulative IPC: 3.966 (Simulation time: 00 hr 41 min 14 sec)
Heartbeat CPU 0 instructions: 500000002 cycles: 125955679 heartbeat IPC: 3.969 cumulative IPC: 3.966 (Simulation time: 00 hr 42 min 49 sec)
Heartbeat CPU 0 instructions: 510000003 cycles: 128464684 heartbeat IPC: 3.986 cumulative IPC: 3.967 (Simulation time: 00 hr 43 min 53 sec)
Heartbeat CPU 0 instructions: 520000004 cycles: 130972189 heartbeat IPC: 3.988 cumulative IPC: 3.967 (Simulation time: 00 hr 44 min 36 sec)
Heartbeat CPU 0 instructions: 530000000 cycles: 133479143 heartbeat IPC: 3.989 cumulative IPC: 3.968 (Simulation time: 00 hr 45 min 27 sec)
Heartbeat CPU 0 instructions: 540000000 cycles: 135990746 heartbeat IPC: 3.982 cumulative IPC: 3.968 (Simulation time: 00 hr 46 min 18 sec)
Heartbeat CPU 0 instructions: 550000002 cycles: 138498279 heartbeat IPC: 3.988 cumulative IPC: 3.968 (Simulation time: 00 hr 47 min 09 sec)
Heartbeat CPU 0 instructions: 560000003 cycles: 141005280 heartbeat IPC: 3.989 cumulative IPC: 3.969 (Simulation time: 00 hr 47 min 51 sec)
Heartbeat CPU 0 instructions: 570000004 cycles: 143513515 heartbeat IPC: 3.987 cumulative IPC: 3.969 (Simulation time: 00 hr 48 min 37 sec)
Heartbeat CPU 0 instructions: 580000000 cycles: 146021036 heartbeat IPC: 3.988 cumulative IPC: 3.969 (Simulation time: 00 hr 49 min 41 sec)
Heartbeat CPU 0 instructions: 590000002 cycles: 148530995 heartbeat IPC: 3.984 cumulative IPC: 3.97 (Simulation time: 00 hr 50 min 26 sec)
*** Reached end of trace: (0, "traces/convolution.champsimtrace")
Heartbeat CPU 0 instructions: 600000000 cycles: 151046586 heartbeat IPC: 3.975 cumulative IPC: 3.97 (Simulation time: 00 hr 51 min 13 sec)
Heartbeat CPU 0 instructions: 610000002 cycles: 173431194 heartbeat IPC: 0.4467 cumulative IPC: 3.48 (Simulation time: 00 hr 54 min 32 sec)
Heartbeat CPU 0 instructions: 620000001 cycles: 193333647 heartbeat IPC: 0.5025 cumulative IPC: 3.152 (Simulation time: 00 hr 57 min 42 sec)
Heartbeat CPU 0 instructions: 630000001 cycles: 197973141 heartbeat IPC: 2.155 cumulative IPC: 3.127 (Simulation time: 00 hr 58 min 53 sec)
Heartbeat CPU 0 instructions: 640000004 cycles: 208198800 heartbeat IPC: 0.9779 cumulative IPC: 3.015 (Simulation time: 01 hr 00 min 48 sec)
Heartbeat CPU 0 instructions: 650000001 cycles: 218950046 heartbeat IPC: 0.9301 cumulative IPC: 2.906 (Simulation time: 01 hr 02 min 54 sec)
Simulation finished CPU 0 instructions: 600000001 cycles: 206449844 cumulative IPC: 2.906 (Simulation time: 01 hr 02 min 54 sec)
Simulation complete CPU 0 instructions: 600000001 cycles: 206449844 cumulative IPC: 2.906 (Simulation time: 01 hr 02 min 54 sec)

ChampSim completed all CPUs

=== Simulation ===
CPU 0 runs traces/convolution.champsimtrace
Region of Interest Statistics

CPU 0 cumulative IPC: 2.906 instructions: 600000001 cycles: 206449844
CPU 0 Branch Prediction Accuracy: 100% MPKI: 0.002858 Average ROB Occupancy at Mispredict: 78.48
Branch type MPKI
BRANCH_DIRECT_JUMP: 0.000107
BRANCH_INDIRECT: 4.17e-05
BRANCH_CONDITIONAL: 0.00258
BRANCH_DIRECT_CALL: 0.000103
BRANCH_INDIRECT_CALL: 8.33e-06
BRANCH_RETURN: 1.83e-05

LLC TOTAL        ACCESS:    1184777 HIT:     241314 MISS:     943463
LLC LOAD         ACCESS:       2886 HIT:       1018 MISS:       1868
LLC RFO          ACCESS:     535121 HIT:      30554 MISS:     504567
LLC PREFETCH     ACCESS:       2095 HIT:       1166 MISS:        929
LLC WRITE        ACCESS:     535170 HIT:     177951 MISS:     357219
LLC TRANSLATION  ACCESS:     109505 HIT:      30625 MISS:      78880
LLC PREFETCH REQUESTED:       2095 ISSUED:       2095 USEFUL:        476 USELESS:         24
LLC AVERAGE MISS LATENCY: 650.6 cycles
cpu0_DTLB TOTAL        ACCESS:  113392710 HIT:  113077710 MISS:     315000
cpu0_DTLB LOAD         ACCESS:  113392710 HIT:  113077710 MISS:     315000
cpu0_DTLB RFO          ACCESS:          0 HIT:          0 MISS:          0
cpu0_DTLB PREFETCH     ACCESS:          0 HIT:          0 MISS:          0
cpu0_DTLB WRITE        ACCESS:          0 HIT:          0 MISS:          0
cpu0_DTLB TRANSLATION  ACCESS:          0 HIT:          0 MISS:          0
cpu0_DTLB PREFETCH REQUESTED:          0 ISSUED:          0 USEFUL:          0 USELESS:          0
cpu0_DTLB AVERAGE MISS LATENCY: 661.6 cycles
cpu0_ITLB TOTAL        ACCESS:       2105 HIT:       2072 MISS:         33
cpu0_ITLB LOAD         ACCESS:       2105 HIT:       2072 MISS:         33
cpu0_ITLB RFO          ACCESS:          0 HIT:          0 MISS:          0
cpu0_ITLB PREFETCH     ACCESS:          0 HIT:          0 MISS:          0
cpu0_ITLB WRITE        ACCESS:          0 HIT:          0 MISS:          0
cpu0_ITLB TRANSLATION  ACCESS:          0 HIT:          0 MISS:          0
cpu0_ITLB PREFETCH REQUESTED:          0 ISSUED:          0 USEFUL:          0 USELESS:          0
cpu0_ITLB AVERAGE MISS LATENCY: 663 cycles
cpu0_L1D TOTAL        ACCESS:  146553680 HIT:  140406385 MISS:    6147295
cpu0_L1D LOAD         ACCESS:   74372140 HIT:   74364393 MISS:       7747
cpu0_L1D RFO          ACCESS:          0 HIT:          0 MISS:          0
cpu0_L1D PREFETCH     ACCESS:          0 HIT:          0 MISS:          0
cpu0_L1D WRITE        ACCESS:   72001075 HIT:   66008324 MISS:    5992751
cpu0_L1D TRANSLATION  ACCESS:     180465 HIT:      33668 MISS:     146797
cpu0_L1D PREFETCH REQUESTED:          0 ISSUED:          0 USEFUL:          0 USELESS:          0
cpu0_L1D AVERAGE MISS LATENCY: 80.74 cycles
cpu0_L1I TOTAL        ACCESS:       2463 HIT:       1000 MISS:       1463
cpu0_L1I LOAD         ACCESS:       2463 HIT:       1000 MISS:       1463
cpu0_L1I RFO          ACCESS:          0 HIT:          0 MISS:          0
cpu0_L1I PREFETCH     ACCESS:          0 HIT:          0 MISS:          0
cpu0_L1I WRITE        ACCESS:          0 HIT:          0 MISS:          0
cpu0_L1I TRANSLATION  ACCESS:          0 HIT:          0 MISS:          0
cpu0_L1I PREFETCH REQUESTED:          0 ISSUED:          0 USEFUL:          0 USELESS:          0
cpu0_L1I AVERAGE MISS LATENCY: 504 cycles
cpu0_L2C TOTAL        ACCESS:    1192964 HIT:     545434 MISS:     647530
cpu0_L2C LOAD         ACCESS:       3311 HIT:        425 MISS:       2886
cpu0_L2C RFO          ACCESS:     539186 HIT:       4064 MISS:     535122
cpu0_L2C PREFETCH     ACCESS:          0 HIT:          0 MISS:          0
cpu0_L2C WRITE        ACCESS:     539625 HIT:     539609 MISS:         16
cpu0_L2C TRANSLATION  ACCESS:     110842 HIT:       1336 MISS:     109506
cpu0_L2C PREFETCH REQUESTED:          0 ISSUED:          0 USEFUL:          0 USELESS:          0
cpu0_L2C AVERAGE MISS LATENCY: 968.4 cycles
cpu0_STLB TOTAL        ACCESS:     156155 HIT:         47 MISS:     156108
cpu0_STLB LOAD         ACCESS:     156155 HIT:         47 MISS:     156108
cpu0_STLB RFO          ACCESS:          0 HIT:          0 MISS:          0
cpu0_STLB PREFETCH     ACCESS:          0 HIT:          0 MISS:          0
cpu0_STLB WRITE        ACCESS:          0 HIT:          0 MISS:          0
cpu0_STLB TRANSLATION  ACCESS:          0 HIT:          0 MISS:          0
cpu0_STLB PREFETCH REQUESTED:          0 ISSUED:          0 USEFUL:          0 USELESS:          0
cpu0_STLB AVERAGE MISS LATENCY: 1480 cycles

DRAM Statistics

Channel 0 RQ ROW_BUFFER_HIT:     127970
  ROW_BUFFER_MISS:     457655
 AVG DBUS CONGESTED CYCLE: 3.979
WQ ROW_BUFFER_HIT: Channel 0 
  ROW_BUFFER_MISS:     112963
  FULL:     391554
