WARNING: physical memory size is smaller than virtual memory size.

*** ChampSim Multicore Out-of-Order Simulator ***
Warmup Instructions: 50000000
Simulation Instructions: 600000000
Number of CPUs: 1
Page size: 4096

Off-chip DRAM Size: 4 GiB Channels: 1 Width: 64-bit Data Race: 3200 MT/s
Heartbeat CPU 0 instructions: 10000002 cycles: 2500203 heartbeat IPC: 4 cumulative IPC: 4 (Simulation time: 00 hr 00 min 28 sec)
Heartbeat CPU 0 instructions: 20000002 cycles: 5000203 heartbeat IPC: 4 cumulative IPC: 4 (Simulation time: 00 hr 00 min 57 sec)
Heartbeat CPU 0 instructions: 30000002 cycles: 7500203 heartbeat IPC: 4 cumulative IPC: 4 (Simulation time: 00 hr 01 min 25 sec)
Heartbeat CPU 0 instructions: 40000002 cycles: 10000203 heartbeat IPC: 4 cumulative IPC: 4 (Simulation time: 00 hr 01 min 53 sec)
Heartbeat CPU 0 instructions: 50000002 cycles: 12500203 heartbeat IPC: 4 cumulative IPC: 4 (Simulation time: 00 hr 02 min 21 sec)
Warmup finished CPU 0 instructions: 50000002 cycles: 12500204 cumulative IPC: 4 (Simulation time: 00 hr 02 min 21 sec)
Warmup complete CPU 0 instructions: 50000002 cycles: 12500204 cumulative IPC: 4 (Simulation time: 00 hr 02 min 21 sec)
Heartbeat CPU 0 instructions: 60000000 cycles: 16955546 heartbeat IPC: 2.244 cumulative IPC: 2.244 (Simulation time: 00 hr 03 min 10 sec)
Heartbeat CPU 0 instructions: 70000000 cycles: 21411679 heartbeat IPC: 2.244 cumulative IPC: 2.244 (Simulation time: 00 hr 03 min 59 sec)
Heartbeat CPU 0 instructions: 80000000 cycles: 25867122 heartbeat IPC: 2.244 cumulative IPC: 2.244 (Simulation time: 00 hr 04 min 47 sec)
Heartbeat CPU 0 instructions: 90000000 cycles: 30322570 heartbeat IPC: 2.244 cumulative IPC: 2.244 (Simulation time: 00 hr 05 min 38 sec)
Heartbeat CPU 0 instructions: 100000002 cycles: 34778017 heartbeat IPC: 2.244 cumulative IPC: 2.244 (Simulation time: 00 hr 06 min 26 sec)
Heartbeat CPU 0 instructions: 110000000 cycles: 39233464 heartbeat IPC: 2.244 cumulative IPC: 2.244 (Simulation time: 00 hr 07 min 14 sec)
Heartbeat CPU 0 instructions: 120000000 cycles: 43688906 heartbeat IPC: 2.244 cumulative IPC: 2.244 (Simulation time: 00 hr 08 min 02 sec)
Heartbeat CPU 0 instructions: 130000000 cycles: 48144349 heartbeat IPC: 2.244 cumulative IPC: 2.244 (Simulation time: 00 hr 08 min 50 sec)
Heartbeat CPU 0 instructions: 140000000 cycles: 52599797 heartbeat IPC: 2.244 cumulative IPC: 2.244 (Simulation time: 00 hr 09 min 38 sec)
Heartbeat CPU 0 instructions: 150000001 cycles: 57055243 heartbeat IPC: 2.244 cumulative IPC: 2.244 (Simulation time: 00 hr 10 min 26 sec)
Heartbeat CPU 0 instructions: 160000000 cycles: 61510689 heartbeat IPC: 2.244 cumulative IPC: 2.244 (Simulation time: 00 hr 11 min 18 sec)
Heartbeat CPU 0 instructions: 170000002 cycles: 65966133 heartbeat IPC: 2.244 cumulative IPC: 2.244 (Simulation time: 00 hr 12 min 07 sec)
Heartbeat CPU 0 instructions: 180000004 cycles: 70422272 heartbeat IPC: 2.244 cumulative IPC: 2.244 (Simulation time: 00 hr 12 min 57 sec)
Heartbeat CPU 0 instructions: 190000004 cycles: 74877720 heartbeat IPC: 2.244 cumulative IPC: 2.244 (Simulation time: 00 hr 13 min 47 sec)
Heartbeat CPU 0 instructions: 200000004 cycles: 79333168 heartbeat IPC: 2.244 cumulative IPC: 2.244 (Simulation time: 00 hr 14 min 37 sec)
Heartbeat CPU 0 instructions: 210000000 cycles: 83788613 heartbeat IPC: 2.244 cumulative IPC: 2.244 (Simulation time: 00 hr 15 min 29 sec)
Heartbeat CPU 0 instructions: 220000000 cycles: 88244056 heartbeat IPC: 2.244 cumulative IPC: 2.244 (Simulation time: 00 hr 16 min 21 sec)
Heartbeat CPU 0 instructions: 230000000 cycles: 92699498 heartbeat IPC: 2.244 cumulative IPC: 2.244 (Simulation time: 00 hr 17 min 14 sec)
Heartbeat CPU 0 instructions: 240000002 cycles: 97154946 heartbeat IPC: 2.244 cumulative IPC: 2.244 (Simulation time: 00 hr 18 min 03 sec)
Heartbeat CPU 0 instructions: 250000003 cycles: 101610392 heartbeat IPC: 2.244 cumulative IPC: 2.244 (Simulation time: 00 hr 18 min 52 sec)
Heartbeat CPU 0 instructions: 260000001 cycles: 106065839 heartbeat IPC: 2.244 cumulative IPC: 2.244 (Simulation time: 00 hr 19 min 40 sec)
Heartbeat CPU 0 instructions: 270000001 cycles: 110521282 heartbeat IPC: 2.244 cumulative IPC: 2.244 (Simulation time: 00 hr 20 min 28 sec)
Heartbeat CPU 0 instructions: 280000001 cycles: 114977414 heartbeat IPC: 2.244 cumulative IPC: 2.244 (Simulation time: 00 hr 21 min 18 sec)
Heartbeat CPU 0 instructions: 290000003 cycles: 119432862 heartbeat IPC: 2.244 cumulative IPC: 2.244 (Simulation time: 00 hr 22 min 08 sec)
Heartbeat CPU 0 instructions: 300000000 cycles: 123888308 heartbeat IPC: 2.244 cumulative IPC: 2.244 (Simulation time: 00 hr 22 min 57 sec)
Heartbeat CPU 0 instructions: 310000003 cycles: 128343756 heartbeat IPC: 2.244 cumulative IPC: 2.244 (Simulation time: 00 hr 23 min 49 sec)
Heartbeat CPU 0 instructions: 320000001 cycles: 132799199 heartbeat IPC: 2.244 cumulative IPC: 2.244 (Simulation time: 00 hr 24 min 38 sec)
Heartbeat CPU 0 instructions: 330000001 cycles: 137254641 heartbeat IPC: 2.244 cumulative IPC: 2.244 (Simulation time: 00 hr 25 min 27 sec)
Heartbeat CPU 0 instructions: 340000003 cycles: 141710089 heartbeat IPC: 2.244 cumulative IPC: 2.244 (Simulation time: 00 hr 26 min 15 sec)
Heartbeat CPU 0 instructions: 350000004 cycles: 146165535 heartbeat IPC: 2.244 cumulative IPC: 2.244 (Simulation time: 00 hr 27 min 03 sec)
Heartbeat CPU 0 instructions: 360000000 cycles: 150620982 heartbeat IPC: 2.244 cumulative IPC: 2.244 (Simulation time: 00 hr 27 min 53 sec)
Heartbeat CPU 0 instructions: 370000000 cycles: 155076424 heartbeat IPC: 2.244 cumulative IPC: 2.244 (Simulation time: 00 hr 28 min 44 sec)
Heartbeat CPU 0 instructions: 380000002 cycles: 159531872 heartbeat IPC: 2.244 cumulative IPC: 2.244 (Simulation time: 00 hr 29 min 34 sec)
Heartbeat CPU 0 instructions: 390000002 cycles: 163987515 heartbeat IPC: 2.244 cumulative IPC: 2.244 (Simulation time: 00 hr 30 min 25 sec)
Heartbeat CPU 0 instructions: 400000002 cycles: 168442963 heartbeat IPC: 2.244 cumulative IPC: 2.244 (Simulation time: 00 hr 31 min 14 sec)
Heartbeat CPU 0 instructions: 410000001 cycles: 172898410 heartbeat IPC: 2.244 cumulative IPC: 2.244 (Simulation time: 00 hr 32 min 04 sec)
Heartbeat CPU 0 instructions: 420000000 cycles: 177353853 heartbeat IPC: 2.244 cumulative IPC: 2.244 (Simulation time: 00 hr 32 min 55 sec)
Heartbeat CPU 0 instructions: 430000001 cycles: 181809295 heartbeat IPC: 2.244 cumulative IPC: 2.244 (Simulation time: 00 hr 33 min 50 sec)
Heartbeat CPU 0 instructions: 440000000 cycles: 186264741 heartbeat IPC: 2.244 cumulative IPC: 2.244 (Simulation time: 00 hr 34 min 40 sec)
Heartbeat CPU 0 instructions: 450000001 cycles: 190720187 heartbeat IPC: 2.244 cumulative IPC: 2.244 (Simulation time: 00 hr 35 min 29 sec)
Heartbeat CPU 0 instructions: 460000001 cycles: 195175635 heartbeat IPC: 2.244 cumulative IPC: 2.244 (Simulation time: 00 hr 36 min 17 sec)
Heartbeat CPU 0 instructions: 470000000 cycles: 199631078 heartbeat IPC: 2.244 cumulative IPC: 2.244 (Simulation time: 00 hr 37 min 05 sec)
Heartbeat CPU 0 instructions: 480000000 cycles: 204086520 heartbeat IPC: 2.244 cumulative IPC: 2.244 (Simulation time: 00 hr 37 min 54 sec)
Heartbeat CPU 0 instructions: 490000001 cycles: 208541967 heartbeat IPC: 2.244 cumulative IPC: 2.244 (Simulation time: 00 hr 38 min 42 sec)
Heartbeat CPU 0 instructions: 500000003 cycles: 212998104 heartbeat IPC: 2.244 cumulative IPC: 2.244 (Simulation time: 00 hr 39 min 30 sec)
Heartbeat CPU 0 instructions: 510000001 cycles: 217453551 heartbeat IPC: 2.244 cumulative IPC: 2.244 (Simulation time: 00 hr 40 min 19 sec)
Heartbeat CPU 0 instructions: 520000000 cycles: 221908995 heartbeat IPC: 2.244 cumulative IPC: 2.244 (Simulation time: 00 hr 41 min 11 sec)
Heartbeat CPU 0 instructions: 530000000 cycles: 226364437 heartbeat IPC: 2.244 cumulative IPC: 2.244 (Simulation time: 00 hr 42 min 09 sec)
Heartbeat CPU 0 instructions: 540000001 cycles: 230819884 heartbeat IPC: 2.244 cumulative IPC: 2.244 (Simulation time: 00 hr 43 min 08 sec)
Heartbeat CPU 0 instructions: 550000002 cycles: 235275330 heartbeat IPC: 2.244 cumulative IPC: 2.244 (Simulation time: 00 hr 44 min 05 sec)
Heartbeat CPU 0 instructions: 560000002 cycles: 239730778 heartbeat IPC: 2.244 cumulative IPC: 2.244 (Simulation time: 00 hr 45 min 02 sec)
Heartbeat CPU 0 instructions: 570000001 cycles: 244186221 heartbeat IPC: 2.244 cumulative IPC: 2.244 (Simulation time: 00 hr 46 min 01 sec)
Heartbeat CPU 0 instructions: 580000000 cycles: 248641667 heartbeat IPC: 2.244 cumulative IPC: 2.244 (Simulation time: 00 hr 46 min 58 sec)
Heartbeat CPU 0 instructions: 590000000 cycles: 253097115 heartbeat IPC: 2.244 cumulative IPC: 2.244 (Simulation time: 00 hr 47 min 55 sec)
*** Reached end of trace: (0, "traces/is.A.champsimtrace")
Heartbeat CPU 0 instructions: 600000000 cycles: 257552758 heartbeat IPC: 2.244 cumulative IPC: 2.244 (Simulation time: 00 hr 48 min 49 sec)
Heartbeat CPU 0 instructions: 610000001 cycles: 263054688 heartbeat IPC: 1.818 cumulative IPC: 2.235 (Simulation time: 00 hr 49 min 46 sec)
Heartbeat CPU 0 instructions: 620000001 cycles: 267510131 heartbeat IPC: 2.244 cumulative IPC: 2.235 (Simulation time: 00 hr 50 min 38 sec)
Heartbeat CPU 0 instructions: 630000001 cycles: 271965573 heartbeat IPC: 2.244 cumulative IPC: 2.235 (Simulation time: 00 hr 51 min 31 sec)
Heartbeat CPU 0 instructions: 640000003 cycles: 276421021 heartbeat IPC: 2.244 cumulative IPC: 2.236 (Simulation time: 00 hr 52 min 24 sec)
Heartbeat CPU 0 instructions: 650000004 cycles: 280876467 heartbeat IPC: 2.244 cumulative IPC: 2.236 (Simulation time: 00 hr 53 min 17 sec)
Simulation finished CPU 0 instructions: 600000002 cycles: 268376264 cumulative IPC: 2.236 (Simulation time: 00 hr 53 min 17 sec)
Simulation complete CPU 0 instructions: 600000002 cycles: 268376264 cumulative IPC: 2.236 (Simulation time: 00 hr 53 min 17 sec)

ChampSim completed all CPUs

=== Simulation ===
CPU 0 runs traces/is.A.champsimtrace
Region of Interest Statistics

CPU 0 cumulative IPC: 2.236 instructions: 600000002 cycles: 268376264
CPU 0 Branch Prediction Accuracy: 99.98% MPKI: 0.006835 Average ROB Occupancy at Mispredict: 31.07
Branch type MPKI
BRANCH_DIRECT_JUMP: 3.33e-06
BRANCH_INDIRECT: 8.67e-05
BRANCH_CONDITIONAL: 0.00669
BRANCH_DIRECT_CALL: 0
BRANCH_INDIRECT_CALL: 3.67e-05
BRANCH_RETURN: 2e-05

LLC TOTAL        ACCESS:     375819 HIT:     163860 MISS:     211959
LLC LOAD         ACCESS:       3279 HIT:       1538 MISS:       1741
LLC RFO          ACCESS:     186181 HIT:        447 MISS:     185734
LLC PREFETCH     ACCESS:          0 HIT:          0 MISS:          0
LLC WRITE        ACCESS:     186226 HIT:     161813 MISS:      24413
LLC TRANSLATION  ACCESS:        133 HIT:         62 MISS:         71
LLC PREFETCH REQUESTED:          0 ISSUED:          0 USEFUL:          0 USELESS:          0
LLC AVERAGE MISS LATENCY: 402.1 cycles
cpu0_DTLB TOTAL        ACCESS:   71303607 HIT:   71295049 MISS:       8558
cpu0_DTLB LOAD         ACCESS:   71303607 HIT:   71295049 MISS:       8558
cpu0_DTLB RFO          ACCESS:          0 HIT:          0 MISS:          0
cpu0_DTLB PREFETCH     ACCESS:          0 HIT:          0 MISS:          0
cpu0_DTLB WRITE        ACCESS:          0 HIT:          0 MISS:          0
cpu0_DTLB TRANSLATION  ACCESS:          0 HIT:          0 MISS:          0
cpu0_DTLB PREFETCH REQUESTED:          0 ISSUED:          0 USEFUL:          0 USELESS:          0
cpu0_DTLB AVERAGE MISS LATENCY: 14.83 cycles
cpu0_ITLB TOTAL        ACCESS:       2803 HIT:       2651 MISS:        152
cpu0_ITLB LOAD         ACCESS:       2803 HIT:       2651 MISS:        152
cpu0_ITLB RFO          ACCESS:          0 HIT:          0 MISS:          0
cpu0_ITLB PREFETCH     ACCESS:          0 HIT:          0 MISS:          0
cpu0_ITLB WRITE        ACCESS:          0 HIT:          0 MISS:          0
cpu0_ITLB TRANSLATION  ACCESS:          0 HIT:          0 MISS:          0
cpu0_ITLB PREFETCH REQUESTED:          0 ISSUED:          0 USEFUL:          0 USELESS:          0
cpu0_ITLB AVERAGE MISS LATENCY: 289.6 cycles
cpu0_L1D TOTAL        ACCESS:   83193291 HIT:   82142764 MISS:    1050527
cpu0_L1D LOAD         ACCESS:   47544620 HIT:   47537423 MISS:       7197
cpu0_L1D RFO          ACCESS:          0 HIT:          0 MISS:          0
cpu0_L1D PREFETCH     ACCESS:          0 HIT:          0 MISS:          0
cpu0_L1D WRITE        ACCESS:   35645611 HIT:   34602427 MISS:    1043184
cpu0_L1D TRANSLATION  ACCESS:       3060 HIT:       2914 MISS:        146
cpu0_L1D PREFETCH REQUESTED:          0 ISSUED:          0 USEFUL:          0 USELESS:          0
cpu0_L1D AVERAGE MISS LATENCY: 13.64 cycles
cpu0_L1I TOTAL        ACCESS:       3232 HIT:       1632 MISS:       1600
cpu0_L1I LOAD         ACCESS:       3232 HIT:       1632 MISS:       1600
cpu0_L1I RFO          ACCESS:          0 HIT:          0 MISS:          0
cpu0_L1I PREFETCH     ACCESS:          0 HIT:          0 MISS:          0
cpu0_L1I WRITE        ACCESS:          0 HIT:          0 MISS:          0
cpu0_L1I TRANSLATION  ACCESS:          0 HIT:          0 MISS:          0
cpu0_L1I PREFETCH REQUESTED:          0 ISSUED:          0 USEFUL:          0 USELESS:          0
cpu0_L1I AVERAGE MISS LATENCY: 349.4 cycles
cpu0_L2C TOTAL        ACCESS:     377233 HIT:     187638 MISS:     189595
cpu0_L2C LOAD         ACCESS:       3800 HIT:        521 MISS:       3279
cpu0_L2C RFO          ACCESS:     186605 HIT:        424 MISS:     186181
cpu0_L2C PREFETCH     ACCESS:          0 HIT:          0 MISS:          0
cpu0_L2C WRITE        ACCESS:     186683 HIT:     186681 MISS:          2
cpu0_L2C TRANSLATION  ACCESS:        145 HIT:         12 MISS:        133
cpu0_L2C PREFETCH REQUESTED:          0 ISSUED:          0 USEFUL:          0 USELESS:          0
cpu0_L2C AVERAGE MISS LATENCY: 470.5 cycles
cpu0_STLB TOTAL        ACCESS:       3065 HIT:         11 MISS:       3054
cpu0_STLB LOAD         ACCESS:       3065 HIT:         11 MISS:       3054
cpu0_STLB RFO          ACCESS:          0 HIT:          0 MISS:          0
cpu0_STLB PREFETCH     ACCESS:          0 HIT:          0 MISS:          0
cpu0_STLB WRITE        ACCESS:          0 HIT:          0 MISS:          0
cpu0_STLB TRANSLATION  ACCESS:          0 HIT:          0 MISS:          0
cpu0_STLB PREFETCH REQUESTED:          0 ISSUED:          0 USEFUL:          0 USELESS:          0
cpu0_STLB AVERAGE MISS LATENCY: 206.3 cycles

DRAM Statistics

Channel 0 RQ ROW_BUFFER_HIT:      27157
  ROW_BUFFER_MISS:     160388
 AVG DBUS CONGESTED CYCLE: 3.971
WQ ROW_BUFFER_HIT: Channel 0 
  ROW_BUFFER_MISS:        211
  FULL:     171227
