WARNING: physical memory size is smaller than virtual memory size.

*** ChampSim Multicore Out-of-Order Simulator ***
Warmup Instructions: 50000000
Simulation Instructions: 600000000
Number of CPUs: 1
Page size: 4096

CPU 0 Tage branch predictor
Off-chip DRAM Size: 4 GiB Channels: 1 Width: 64-bit Data Race: 3200 MT/s
Heartbeat CPU 0 instructions: 10000002 cycles: 2500203 heartbeat IPC: 4 cumulative IPC: 4 (Simulation time: 00 hr 01 min 00 sec)
Heartbeat CPU 0 instructions: 20000002 cycles: 5000203 heartbeat IPC: 4 cumulative IPC: 4 (Simulation time: 00 hr 01 min 48 sec)
Heartbeat CPU 0 instructions: 30000002 cycles: 7500203 heartbeat IPC: 4 cumulative IPC: 4 (Simulation time: 00 hr 02 min 35 sec)
Heartbeat CPU 0 instructions: 40000002 cycles: 10000203 heartbeat IPC: 4 cumulative IPC: 4 (Simulation time: 00 hr 03 min 22 sec)
Heartbeat CPU 0 instructions: 50000002 cycles: 12500203 heartbeat IPC: 4 cumulative IPC: 4 (Simulation time: 00 hr 04 min 09 sec)
Warmup finished CPU 0 instructions: 50000002 cycles: 12500204 cumulative IPC: 4 (Simulation time: 00 hr 04 min 09 sec)
Warmup complete CPU 0 instructions: 50000002 cycles: 12500204 cumulative IPC: 4 (Simulation time: 00 hr 04 min 09 sec)
Heartbeat CPU 0 instructions: 60000000 cycles: 16955541 heartbeat IPC: 2.244 cumulative IPC: 2.244 (Simulation time: 00 hr 05 min 27 sec)
Heartbeat CPU 0 instructions: 70000002 cycles: 21411679 heartbeat IPC: 2.244 cumulative IPC: 2.244 (Simulation time: 00 hr 06 min 45 sec)
Heartbeat CPU 0 instructions: 80000002 cycles: 25867127 heartbeat IPC: 2.244 cumulative IPC: 2.244 (Simulation time: 00 hr 08 min 02 sec)
Heartbeat CPU 0 instructions: 90000002 cycles: 30322575 heartbeat IPC: 2.244 cumulative IPC: 2.244 (Simulation time: 00 hr 09 min 18 sec)
Heartbeat CPU 0 instructions: 100000001 cycles: 34778022 heartbeat IPC: 2.244 cumulative IPC: 2.244 (Simulation time: 00 hr 10 min 36 sec)
Heartbeat CPU 0 instructions: 110000000 cycles: 39233465 heartbeat IPC: 2.244 cumulative IPC: 2.244 (Simulation time: 00 hr 11 min 52 sec)
Heartbeat CPU 0 instructions: 120000001 cycles: 43688907 heartbeat IPC: 2.244 cumulative IPC: 2.244 (Simulation time: 00 hr 13 min 10 sec)
Heartbeat CPU 0 instructions: 130000000 cycles: 48144353 heartbeat IPC: 2.244 cumulative IPC: 2.244 (Simulation time: 00 hr 14 min 26 sec)
Heartbeat CPU 0 instructions: 140000001 cycles: 52599799 heartbeat IPC: 2.244 cumulative IPC: 2.244 (Simulation time: 00 hr 15 min 45 sec)
Heartbeat CPU 0 instructions: 150000001 cycles: 57055247 heartbeat IPC: 2.244 cumulative IPC: 2.244 (Simulation time: 00 hr 17 min 01 sec)
Heartbeat CPU 0 instructions: 160000000 cycles: 61510690 heartbeat IPC: 2.244 cumulative IPC: 2.244 (Simulation time: 00 hr 18 min 17 sec)
Heartbeat CPU 0 instructions: 170000000 cycles: 65966327 heartbeat IPC: 2.244 cumulative IPC: 2.244 (Simulation time: 00 hr 19 min 34 sec)
Heartbeat CPU 0 instructions: 180000001 cycles: 70421774 heartbeat IPC: 2.244 cumulative IPC: 2.244 (Simulation time: 00 hr 20 min 51 sec)
Heartbeat CPU 0 instructions: 190000003 cycles: 74877221 heartbeat IPC: 2.244 cumulative IPC: 2.244 (Simulation time: 00 hr 22 min 07 sec)
Heartbeat CPU 0 instructions: 200000001 cycles: 79332668 heartbeat IPC: 2.244 cumulative IPC: 2.244 (Simulation time: 00 hr 23 min 25 sec)
Heartbeat CPU 0 instructions: 210000000 cycles: 83788112 heartbeat IPC: 2.244 cumulative IPC: 2.244 (Simulation time: 00 hr 24 min 42 sec)
Heartbeat CPU 0 instructions: 220000000 cycles: 88243554 heartbeat IPC: 2.244 cumulative IPC: 2.244 (Simulation time: 00 hr 25 min 59 sec)
Heartbeat CPU 0 instructions: 230000001 cycles: 92699001 heartbeat IPC: 2.244 cumulative IPC: 2.244 (Simulation time: 00 hr 27 min 17 sec)
Heartbeat CPU 0 instructions: 240000002 cycles: 97154447 heartbeat IPC: 2.244 cumulative IPC: 2.244 (Simulation time: 00 hr 28 min 34 sec)
Heartbeat CPU 0 instructions: 250000002 cycles: 101609895 heartbeat IPC: 2.244 cumulative IPC: 2.244 (Simulation time: 00 hr 29 min 50 sec)
Heartbeat CPU 0 instructions: 260000001 cycles: 106065338 heartbeat IPC: 2.244 cumulative IPC: 2.244 (Simulation time: 00 hr 31 min 07 sec)
Heartbeat CPU 0 instructions: 270000000 cycles: 110520784 heartbeat IPC: 2.244 cumulative IPC: 2.244 (Simulation time: 00 hr 32 min 24 sec)
Heartbeat CPU 0 instructions: 280000000 cycles: 114976427 heartbeat IPC: 2.244 cumulative IPC: 2.244 (Simulation time: 00 hr 33 min 41 sec)
Heartbeat CPU 0 instructions: 290000000 cycles: 119431875 heartbeat IPC: 2.244 cumulative IPC: 2.244 (Simulation time: 00 hr 34 min 59 sec)
Heartbeat CPU 0 instructions: 300000000 cycles: 123887323 heartbeat IPC: 2.244 cumulative IPC: 2.244 (Simulation time: 00 hr 36 min 17 sec)
Heartbeat CPU 0 instructions: 310000000 cycles: 128342766 heartbeat IPC: 2.244 cumulative IPC: 2.244 (Simulation time: 00 hr 37 min 35 sec)
Heartbeat CPU 0 instructions: 320000000 cycles: 132798208 heartbeat IPC: 2.244 cumulative IPC: 2.244 (Simulation time: 00 hr 38 min 52 sec)
Heartbeat CPU 0 instructions: 330000003 cycles: 137253654 heartbeat IPC: 2.244 cumulative IPC: 2.244 (Simulation time: 00 hr 40 min 10 sec)
Heartbeat CPU 0 instructions: 340000001 cycles: 141709100 heartbeat IPC: 2.244 cumulative IPC: 2.244 (Simulation time: 00 hr 41 min 29 sec)
Heartbeat CPU 0 instructions: 350000004 cycles: 146164548 heartbeat IPC: 2.244 cumulative IPC: 2.244 (Simulation time: 00 hr 42 min 47 sec)
Heartbeat CPU 0 instructions: 360000001 cycles: 150619992 heartbeat IPC: 2.244 cumulative IPC: 2.244 (Simulation time: 00 hr 44 min 05 sec)
Heartbeat CPU 0 instructions: 370000000 cycles: 155075433 heartbeat IPC: 2.244 cumulative IPC: 2.244 (Simulation time: 00 hr 45 min 23 sec)
Heartbeat CPU 0 instructions: 380000004 cycles: 159530880 heartbeat IPC: 2.244 cumulative IPC: 2.244 (Simulation time: 00 hr 46 min 42 sec)
Heartbeat CPU 0 instructions: 390000001 cycles: 163986521 heartbeat IPC: 2.244 cumulative IPC: 2.244 (Simulation time: 00 hr 48 min 00 sec)
Heartbeat CPU 0 instructions: 400000001 cycles: 168441969 heartbeat IPC: 2.244 cumulative IPC: 2.244 (Simulation time: 00 hr 49 min 18 sec)
Heartbeat CPU 0 instructions: 410000001 cycles: 172897414 heartbeat IPC: 2.244 cumulative IPC: 2.244 (Simulation time: 00 hr 50 min 37 sec)
Heartbeat CPU 0 instructions: 420000000 cycles: 177352855 heartbeat IPC: 2.244 cumulative IPC: 2.244 (Simulation time: 00 hr 51 min 56 sec)
Heartbeat CPU 0 instructions: 430000004 cycles: 181808302 heartbeat IPC: 2.244 cumulative IPC: 2.244 (Simulation time: 00 hr 53 min 14 sec)
Heartbeat CPU 0 instructions: 440000000 cycles: 186263747 heartbeat IPC: 2.244 cumulative IPC: 2.244 (Simulation time: 00 hr 54 min 33 sec)
Heartbeat CPU 0 instructions: 450000000 cycles: 190719195 heartbeat IPC: 2.244 cumulative IPC: 2.244 (Simulation time: 00 hr 55 min 50 sec)
Heartbeat CPU 0 instructions: 460000000 cycles: 195174639 heartbeat IPC: 2.244 cumulative IPC: 2.244 (Simulation time: 00 hr 57 min 09 sec)
Heartbeat CPU 0 instructions: 470000003 cycles: 199630085 heartbeat IPC: 2.244 cumulative IPC: 2.244 (Simulation time: 00 hr 58 min 26 sec)
Heartbeat CPU 0 instructions: 480000003 cycles: 204085533 heartbeat IPC: 2.244 cumulative IPC: 2.244 (Simulation time: 00 hr 59 min 44 sec)
Heartbeat CPU 0 instructions: 490000003 cycles: 208541176 heartbeat IPC: 2.244 cumulative IPC: 2.244 (Simulation time: 01 hr 01 min 01 sec)
Heartbeat CPU 0 instructions: 500000003 cycles: 212996624 heartbeat IPC: 2.244 cumulative IPC: 2.244 (Simulation time: 01 hr 02 min 20 sec)
Heartbeat CPU 0 instructions: 510000000 cycles: 217452068 heartbeat IPC: 2.244 cumulative IPC: 2.244 (Simulation time: 01 hr 03 min 38 sec)
Heartbeat CPU 0 instructions: 520000000 cycles: 221907510 heartbeat IPC: 2.244 cumulative IPC: 2.244 (Simulation time: 01 hr 04 min 57 sec)
Heartbeat CPU 0 instructions: 530000001 cycles: 226362954 heartbeat IPC: 2.244 cumulative IPC: 2.244 (Simulation time: 01 hr 06 min 15 sec)
Heartbeat CPU 0 instructions: 540000000 cycles: 230818401 heartbeat IPC: 2.244 cumulative IPC: 2.244 (Simulation time: 01 hr 07 min 33 sec)
Heartbeat CPU 0 instructions: 550000002 cycles: 235273848 heartbeat IPC: 2.244 cumulative IPC: 2.244 (Simulation time: 01 hr 08 min 49 sec)
Heartbeat CPU 0 instructions: 560000000 cycles: 239729293 heartbeat IPC: 2.244 cumulative IPC: 2.244 (Simulation time: 01 hr 10 min 07 sec)
Heartbeat CPU 0 instructions: 570000000 cycles: 244184735 heartbeat IPC: 2.244 cumulative IPC: 2.244 (Simulation time: 01 hr 11 min 24 sec)
Heartbeat CPU 0 instructions: 580000002 cycles: 248640180 heartbeat IPC: 2.244 cumulative IPC: 2.244 (Simulation time: 01 hr 12 min 42 sec)
Heartbeat CPU 0 instructions: 590000001 cycles: 253095627 heartbeat IPC: 2.244 cumulative IPC: 2.244 (Simulation time: 01 hr 13 min 59 sec)
*** Reached end of trace: (0, "traces/is.A.champsimtrace")
Heartbeat CPU 0 instructions: 600000001 cycles: 257551599 heartbeat IPC: 2.244 cumulative IPC: 2.244 (Simulation time: 01 hr 15 min 17 sec)
Heartbeat CPU 0 instructions: 610000000 cycles: 263443217 heartbeat IPC: 1.697 cumulative IPC: 2.232 (Simulation time: 01 hr 16 min 47 sec)
Heartbeat CPU 0 instructions: 620000000 cycles: 267898659 heartbeat IPC: 2.244 cumulative IPC: 2.232 (Simulation time: 01 hr 18 min 06 sec)
Heartbeat CPU 0 instructions: 630000002 cycles: 272354107 heartbeat IPC: 2.244 cumulative IPC: 2.232 (Simulation time: 01 hr 19 min 23 sec)
Heartbeat CPU 0 instructions: 640000003 cycles: 276809553 heartbeat IPC: 2.244 cumulative IPC: 2.232 (Simulation time: 01 hr 20 min 43 sec)
Heartbeat CPU 0 instructions: 650000003 cycles: 281265001 heartbeat IPC: 2.244 cumulative IPC: 2.232 (Simulation time: 01 hr 22 min 00 sec)
Simulation finished CPU 0 instructions: 600000001 cycles: 268764798 cumulative IPC: 2.232 (Simulation time: 01 hr 22 min 00 sec)
Simulation complete CPU 0 instructions: 600000001 cycles: 268764798 cumulative IPC: 2.232 (Simulation time: 01 hr 22 min 00 sec)

ChampSim completed all CPUs

=== Simulation ===
CPU 0 runs traces/is.A.champsimtrace
Region of Interest Statistics

CPU 0 cumulative IPC: 2.232 instructions: 600000001 cycles: 268764798
CPU 0 Branch Prediction Accuracy: 99.99% MPKI: 0.00295 Average ROB Occupancy at Mispredict: 70.71
Branch type MPKI
BRANCH_DIRECT_JUMP: 3.33e-06
BRANCH_INDIRECT: 8.83e-05
BRANCH_CONDITIONAL: 0.0028
BRANCH_DIRECT_CALL: 0
BRANCH_INDIRECT_CALL: 3.5e-05
BRANCH_RETURN: 2e-05

LLC TOTAL        ACCESS:     377927 HIT:      78312 MISS:     299615
LLC LOAD         ACCESS:       3287 HIT:       1199 MISS:       2088
LLC RFO          ACCESS:     186186 HIT:      14566 MISS:     171620
LLC PREFETCH     ACCESS:       2071 HIT:        930 MISS:       1141
LLC WRITE        ACCESS:     186251 HIT:      61582 MISS:     124669
LLC TRANSLATION  ACCESS:        132 HIT:         35 MISS:         97
LLC PREFETCH REQUESTED:       2071 ISSUED:       2071 USEFUL:        573 USELESS:         39
LLC AVERAGE MISS LATENCY: 245.1 cycles
cpu0_DTLB TOTAL        ACCESS:   71302008 HIT:   71293432 MISS:       8576
cpu0_DTLB LOAD         ACCESS:   71302008 HIT:   71293432 MISS:       8576
cpu0_DTLB RFO          ACCESS:          0 HIT:          0 MISS:          0
cpu0_DTLB PREFETCH     ACCESS:          0 HIT:          0 MISS:          0
cpu0_DTLB WRITE        ACCESS:          0 HIT:          0 MISS:          0
cpu0_DTLB TRANSLATION  ACCESS:          0 HIT:          0 MISS:          0
cpu0_DTLB PREFETCH REQUESTED:          0 ISSUED:          0 USEFUL:          0 USELESS:          0
cpu0_DTLB AVERAGE MISS LATENCY: 20.72 cycles
cpu0_ITLB TOTAL        ACCESS:       2889 HIT:       2733 MISS:        156
cpu0_ITLB LOAD         ACCESS:       2889 HIT:       2733 MISS:        156
cpu0_ITLB RFO          ACCESS:          0 HIT:          0 MISS:          0
cpu0_ITLB PREFETCH     ACCESS:          0 HIT:          0 MISS:          0
cpu0_ITLB WRITE        ACCESS:          0 HIT:          0 MISS:          0
cpu0_ITLB TRANSLATION  ACCESS:          0 HIT:          0 MISS:          0
cpu0_ITLB PREFETCH REQUESTED:          0 ISSUED:          0 USEFUL:          0 USELESS:          0
cpu0_ITLB AVERAGE MISS LATENCY: 381.7 cycles
cpu0_L1D TOTAL        ACCESS:   83191562 HIT:   82289227 MISS:     902335
cpu0_L1D LOAD         ACCESS:   47542861 HIT:   47534223 MISS:       8638
cpu0_L1D RFO          ACCESS:          0 HIT:          0 MISS:          0
cpu0_L1D PREFETCH     ACCESS:          0 HIT:          0 MISS:          0
cpu0_L1D WRITE        ACCESS:   35645641 HIT:   34752089 MISS:     893552
cpu0_L1D TRANSLATION  ACCESS:       3060 HIT:       2915 MISS:        145
cpu0_L1D PREFETCH REQUESTED:          0 ISSUED:          0 USEFUL:          0 USELESS:          0
cpu0_L1D AVERAGE MISS LATENCY: 15.72 cycles
cpu0_L1I TOTAL        ACCESS:       3376 HIT:       1579 MISS:       1797
cpu0_L1I LOAD         ACCESS:       3376 HIT:       1579 MISS:       1797
cpu0_L1I RFO          ACCESS:          0 HIT:          0 MISS:          0
cpu0_L1I PREFETCH     ACCESS:          0 HIT:          0 MISS:          0
cpu0_L1I WRITE        ACCESS:          0 HIT:          0 MISS:          0
cpu0_L1I TRANSLATION  ACCESS:          0 HIT:          0 MISS:          0
cpu0_L1I PREFETCH REQUESTED:          0 ISSUED:          0 USEFUL:          0 USELESS:          0
cpu0_L1I AVERAGE MISS LATENCY: 675.6 cycles
cpu0_L2C TOTAL        ACCESS:     376554 HIT:     186947 MISS:     189607
cpu0_L2C LOAD         ACCESS:       3809 HIT:        522 MISS:       3287
cpu0_L2C RFO          ACCESS:     186256 HIT:         70 MISS:     186186
cpu0_L2C PREFETCH     ACCESS:          0 HIT:          0 MISS:          0
cpu0_L2C WRITE        ACCESS:     186345 HIT:     186343 MISS:          2
cpu0_L2C TRANSLATION  ACCESS:        144 HIT:         12 MISS:        132
cpu0_L2C PREFETCH REQUESTED:          0 ISSUED:          0 USEFUL:          0 USELESS:          0
cpu0_L2C AVERAGE MISS LATENCY: 403.2 cycles
cpu0_STLB TOTAL        ACCESS:       3072 HIT:         18 MISS:       3054
cpu0_STLB LOAD         ACCESS:       3072 HIT:         18 MISS:       3054
cpu0_STLB RFO          ACCESS:          0 HIT:          0 MISS:          0
cpu0_STLB PREFETCH     ACCESS:          0 HIT:          0 MISS:          0
cpu0_STLB WRITE        ACCESS:          0 HIT:          0 MISS:          0
cpu0_STLB TRANSLATION  ACCESS:          0 HIT:          0 MISS:          0
cpu0_STLB PREFETCH REQUESTED:          0 ISSUED:          0 USEFUL:          0 USELESS:          0
cpu0_STLB AVERAGE MISS LATENCY: 233.4 cycles

DRAM Statistics

Channel 0 RQ ROW_BUFFER_HIT:      53032
  ROW_BUFFER_MISS:     121212
 AVG DBUS CONGESTED CYCLE: 3.949
WQ ROW_BUFFER_HIT: Channel 0 
  ROW_BUFFER_MISS:       1047
  FULL:     122922
