WARNING: physical memory size is smaller than virtual memory size.

*** ChampSim Multicore Out-of-Order Simulator ***
Warmup Instructions: 50000000
Simulation Instructions: 600000000
Number of CPUs: 1
Page size: 4096

Off-chip DRAM Size: 4 GiB Channels: 1 Width: 64-bit Data Race: 3200 MT/s
Heartbeat CPU 0 instructions: 10000003 cycles: 2500203 heartbeat IPC: 4 cumulative IPC: 4 (Simulation time: 00 hr 01 min 26 sec)
Heartbeat CPU 0 instructions: 20000003 cycles: 5000203 heartbeat IPC: 4 cumulative IPC: 4 (Simulation time: 00 hr 03 min 27 sec)
Heartbeat CPU 0 instructions: 30000003 cycles: 7500203 heartbeat IPC: 4 cumulative IPC: 4 (Simulation time: 00 hr 05 min 53 sec)
Heartbeat CPU 0 instructions: 40000003 cycles: 10000203 heartbeat IPC: 4 cumulative IPC: 4 (Simulation time: 00 hr 07 min 47 sec)
Heartbeat CPU 0 instructions: 50000003 cycles: 12500203 heartbeat IPC: 4 cumulative IPC: 4 (Simulation time: 00 hr 09 min 42 sec)
Warmup finished CPU 0 instructions: 50000003 cycles: 12500204 cumulative IPC: 4 (Simulation time: 00 hr 09 min 42 sec)
Warmup complete CPU 0 instructions: 50000003 cycles: 12500204 cumulative IPC: 4 (Simulation time: 00 hr 09 min 42 sec)
Heartbeat CPU 0 instructions: 60000001 cycles: 16956236 heartbeat IPC: 2.244 cumulative IPC: 2.244 (Simulation time: 00 hr 12 min 17 sec)
Heartbeat CPU 0 instructions: 70000002 cycles: 21411682 heartbeat IPC: 2.244 cumulative IPC: 2.244 (Simulation time: 00 hr 15 min 08 sec)
Heartbeat CPU 0 instructions: 80000002 cycles: 25867130 heartbeat IPC: 2.244 cumulative IPC: 2.244 (Simulation time: 00 hr 17 min 50 sec)
Heartbeat CPU 0 instructions: 90000001 cycles: 30322573 heartbeat IPC: 2.244 cumulative IPC: 2.244 (Simulation time: 00 hr 20 min 42 sec)
Heartbeat CPU 0 instructions: 100000000 cycles: 34778019 heartbeat IPC: 2.244 cumulative IPC: 2.244 (Simulation time: 00 hr 23 min 21 sec)
Heartbeat CPU 0 instructions: 110000000 cycles: 39233467 heartbeat IPC: 2.244 cumulative IPC: 2.244 (Simulation time: 00 hr 26 min 15 sec)
Heartbeat CPU 0 instructions: 120000000 cycles: 43688915 heartbeat IPC: 2.244 cumulative IPC: 2.244 (Simulation time: 00 hr 29 min 01 sec)
Heartbeat CPU 0 instructions: 130000000 cycles: 48144363 heartbeat IPC: 2.244 cumulative IPC: 2.244 (Simulation time: 00 hr 31 min 34 sec)
Heartbeat CPU 0 instructions: 140000000 cycles: 52599806 heartbeat IPC: 2.244 cumulative IPC: 2.244 (Simulation time: 00 hr 34 min 14 sec)
Heartbeat CPU 0 instructions: 150000000 cycles: 57055248 heartbeat IPC: 2.244 cumulative IPC: 2.244 (Simulation time: 00 hr 37 min 47 sec)
Heartbeat CPU 0 instructions: 160000003 cycles: 61510889 heartbeat IPC: 2.244 cumulative IPC: 2.244 (Simulation time: 00 hr 41 min 08 sec)
Heartbeat CPU 0 instructions: 170000001 cycles: 65966335 heartbeat IPC: 2.244 cumulative IPC: 2.244 (Simulation time: 00 hr 43 min 46 sec)
Heartbeat CPU 0 instructions: 180000004 cycles: 70421783 heartbeat IPC: 2.244 cumulative IPC: 2.244 (Simulation time: 00 hr 46 min 29 sec)
Heartbeat CPU 0 instructions: 190000001 cycles: 74877227 heartbeat IPC: 2.244 cumulative IPC: 2.244 (Simulation time: 00 hr 49 min 09 sec)
Heartbeat CPU 0 instructions: 200000000 cycles: 79332668 heartbeat IPC: 2.244 cumulative IPC: 2.244 (Simulation time: 00 hr 52 min 23 sec)
Heartbeat CPU 0 instructions: 210000004 cycles: 83788115 heartbeat IPC: 2.244 cumulative IPC: 2.244 (Simulation time: 00 hr 55 min 11 sec)
Heartbeat CPU 0 instructions: 220000001 cycles: 88243561 heartbeat IPC: 2.244 cumulative IPC: 2.244 (Simulation time: 00 hr 58 min 05 sec)
Heartbeat CPU 0 instructions: 230000001 cycles: 92699009 heartbeat IPC: 2.244 cumulative IPC: 2.244 (Simulation time: 01 hr 00 min 50 sec)
Heartbeat CPU 0 instructions: 240000001 cycles: 97154454 heartbeat IPC: 2.244 cumulative IPC: 2.244 (Simulation time: 01 hr 03 min 28 sec)
Heartbeat CPU 0 instructions: 250000000 cycles: 101609895 heartbeat IPC: 2.244 cumulative IPC: 2.244 (Simulation time: 01 hr 06 min 13 sec)
Heartbeat CPU 0 instructions: 260000004 cycles: 106065342 heartbeat IPC: 2.244 cumulative IPC: 2.244 (Simulation time: 01 hr 08 min 43 sec)
Heartbeat CPU 0 instructions: 270000000 cycles: 110520982 heartbeat IPC: 2.244 cumulative IPC: 2.244 (Simulation time: 01 hr 10 min 27 sec)
Heartbeat CPU 0 instructions: 280000000 cycles: 114976430 heartbeat IPC: 2.244 cumulative IPC: 2.244 (Simulation time: 01 hr 12 min 16 sec)
Heartbeat CPU 0 instructions: 290000000 cycles: 119431874 heartbeat IPC: 2.244 cumulative IPC: 2.244 (Simulation time: 01 hr 14 min 45 sec)
Heartbeat CPU 0 instructions: 300000003 cycles: 123887320 heartbeat IPC: 2.244 cumulative IPC: 2.244 (Simulation time: 01 hr 17 min 13 sec)
Heartbeat CPU 0 instructions: 310000003 cycles: 128342768 heartbeat IPC: 2.244 cumulative IPC: 2.244 (Simulation time: 01 hr 19 min 36 sec)
Heartbeat CPU 0 instructions: 320000003 cycles: 132798216 heartbeat IPC: 2.244 cumulative IPC: 2.244 (Simulation time: 01 hr 21 min 46 sec)
Heartbeat CPU 0 instructions: 330000003 cycles: 137253664 heartbeat IPC: 2.244 cumulative IPC: 2.244 (Simulation time: 01 hr 23 min 48 sec)
Heartbeat CPU 0 instructions: 340000000 cycles: 141709108 heartbeat IPC: 2.244 cumulative IPC: 2.244 (Simulation time: 01 hr 25 min 49 sec)
Heartbeat CPU 0 instructions: 350000000 cycles: 146164550 heartbeat IPC: 2.244 cumulative IPC: 2.244 (Simulation time: 01 hr 27 min 51 sec)
Heartbeat CPU 0 instructions: 360000001 cycles: 150619994 heartbeat IPC: 2.244 cumulative IPC: 2.244 (Simulation time: 01 hr 29 min 58 sec)
Heartbeat CPU 0 instructions: 370000000 cycles: 155075636 heartbeat IPC: 2.244 cumulative IPC: 2.244 (Simulation time: 01 hr 32 min 11 sec)
Heartbeat CPU 0 instructions: 380000002 cycles: 159531083 heartbeat IPC: 2.244 cumulative IPC: 2.244 (Simulation time: 01 hr 34 min 46 sec)
Heartbeat CPU 0 instructions: 390000000 cycles: 163986528 heartbeat IPC: 2.244 cumulative IPC: 2.244 (Simulation time: 01 hr 37 min 26 sec)
Heartbeat CPU 0 instructions: 400000000 cycles: 168441970 heartbeat IPC: 2.244 cumulative IPC: 2.244 (Simulation time: 01 hr 39 min 47 sec)
Heartbeat CPU 0 instructions: 410000002 cycles: 172897415 heartbeat IPC: 2.244 cumulative IPC: 2.244 (Simulation time: 01 hr 42 min 05 sec)
Heartbeat CPU 0 instructions: 420000001 cycles: 177352862 heartbeat IPC: 2.244 cumulative IPC: 2.244 (Simulation time: 01 hr 44 min 41 sec)
Heartbeat CPU 0 instructions: 430000004 cycles: 181808310 heartbeat IPC: 2.244 cumulative IPC: 2.244 (Simulation time: 01 hr 47 min 09 sec)
Heartbeat CPU 0 instructions: 440000000 cycles: 186263755 heartbeat IPC: 2.244 cumulative IPC: 2.244 (Simulation time: 01 hr 49 min 33 sec)
Heartbeat CPU 0 instructions: 450000000 cycles: 190719197 heartbeat IPC: 2.244 cumulative IPC: 2.244 (Simulation time: 01 hr 52 min 01 sec)
Heartbeat CPU 0 instructions: 460000002 cycles: 195174642 heartbeat IPC: 2.244 cumulative IPC: 2.244 (Simulation time: 01 hr 55 min 11 sec)
Heartbeat CPU 0 instructions: 470000000 cycles: 199630088 heartbeat IPC: 2.244 cumulative IPC: 2.244 (Simulation time: 01 hr 57 min 58 sec)
Heartbeat CPU 0 instructions: 480000003 cycles: 204085731 heartbeat IPC: 2.244 cumulative IPC: 2.244 (Simulation time: 02 hr 00 min 27 sec)
Heartbeat CPU 0 instructions: 490000001 cycles: 208541176 heartbeat IPC: 2.244 cumulative IPC: 2.244 (Simulation time: 02 hr 02 min 41 sec)
Heartbeat CPU 0 instructions: 500000001 cycles: 212996620 heartbeat IPC: 2.244 cumulative IPC: 2.244 (Simulation time: 02 hr 05 min 18 sec)
Heartbeat CPU 0 instructions: 510000001 cycles: 217452068 heartbeat IPC: 2.244 cumulative IPC: 2.244 (Simulation time: 02 hr 07 min 51 sec)
Heartbeat CPU 0 instructions: 520000001 cycles: 221907516 heartbeat IPC: 2.244 cumulative IPC: 2.244 (Simulation time: 02 hr 10 min 27 sec)
Heartbeat CPU 0 instructions: 530000001 cycles: 226362964 heartbeat IPC: 2.244 cumulative IPC: 2.244 (Simulation time: 02 hr 12 min 49 sec)
Heartbeat CPU 0 instructions: 540000002 cycles: 230818410 heartbeat IPC: 2.244 cumulative IPC: 2.244 (Simulation time: 02 hr 15 min 20 sec)
Heartbeat CPU 0 instructions: 550000000 cycles: 235273852 heartbeat IPC: 2.244 cumulative IPC: 2.244 (Simulation time: 02 hr 17 min 39 sec)
Heartbeat CPU 0 instructions: 560000002 cycles: 239729295 heartbeat IPC: 2.244 cumulative IPC: 2.244 (Simulation time: 02 hr 19 min 55 sec)
Heartbeat CPU 0 instructions: 570000004 cycles: 244184743 heartbeat IPC: 2.244 cumulative IPC: 2.244 (Simulation time: 02 hr 22 min 11 sec)
Heartbeat CPU 0 instructions: 580000000 cycles: 248640188 heartbeat IPC: 2.244 cumulative IPC: 2.244 (Simulation time: 02 hr 24 min 46 sec)
Heartbeat CPU 0 instructions: 590000000 cycles: 253095830 heartbeat IPC: 2.244 cumulative IPC: 2.244 (Simulation time: 02 hr 27 min 16 sec)
*** Reached end of trace: (0, "traces/is.A.champsimtrace")
Heartbeat CPU 0 instructions: 600000003 cycles: 257551271 heartbeat IPC: 2.244 cumulative IPC: 2.244 (Simulation time: 02 hr 29 min 15 sec)
Heartbeat CPU 0 instructions: 610000000 cycles: 262085856 heartbeat IPC: 2.205 cumulative IPC: 2.244 (Simulation time: 02 hr 31 min 17 sec)
Heartbeat CPU 0 instructions: 620000002 cycles: 266541303 heartbeat IPC: 2.244 cumulative IPC: 2.244 (Simulation time: 02 hr 32 min 52 sec)
Heartbeat CPU 0 instructions: 630000000 cycles: 270996750 heartbeat IPC: 2.244 cumulative IPC: 2.244 (Simulation time: 02 hr 34 min 28 sec)
Heartbeat CPU 0 instructions: 640000000 cycles: 275452195 heartbeat IPC: 2.244 cumulative IPC: 2.244 (Simulation time: 02 hr 36 min 02 sec)
Heartbeat CPU 0 instructions: 650000001 cycles: 279907637 heartbeat IPC: 2.244 cumulative IPC: 2.244 (Simulation time: 02 hr 37 min 50 sec)
Simulation finished CPU 0 instructions: 600000000 cycles: 267407436 cumulative IPC: 2.244 (Simulation time: 02 hr 37 min 50 sec)
Simulation complete CPU 0 instructions: 600000000 cycles: 267407436 cumulative IPC: 2.244 (Simulation time: 02 hr 37 min 51 sec)

ChampSim completed all CPUs

=== Simulation ===
CPU 0 runs traces/is.A.champsimtrace
Region of Interest Statistics

CPU 0 cumulative IPC: 2.244 instructions: 600000000 cycles: 267407436
CPU 0 Branch Prediction Accuracy: 99.98% MPKI: 0.006862 Average ROB Occupancy at Mispredict: 22.2
Branch type MPKI
BRANCH_DIRECT_JUMP: 3.33e-06
BRANCH_INDIRECT: 9.33e-05
BRANCH_CONDITIONAL: 0.00671
BRANCH_DIRECT_CALL: 0
BRANCH_INDIRECT_CALL: 3.67e-05
BRANCH_RETURN: 1.83e-05

LLC TOTAL        ACCESS:     379074 HIT:     208192 MISS:     170882
LLC LOAD         ACCESS:       3264 HIT:       3257 MISS:          7
LLC RFO          ACCESS:     186181 HIT:      15951 MISS:     170230
LLC PREFETCH     ACCESS:       3264 HIT:       2811 MISS:        453
LLC WRITE        ACCESS:     186232 HIT:     186056 MISS:        176
LLC TRANSLATION  ACCESS:        133 HIT:        117 MISS:         16
LLC PREFETCH REQUESTED:       3264 ISSUED:       3264 USEFUL:          1 USELESS:        632
LLC AVERAGE MISS LATENCY: 410.6 cycles
cpu0_DTLB TOTAL        ACCESS:   71305006 HIT:   71296392 MISS:       8614
cpu0_DTLB LOAD         ACCESS:   71305006 HIT:   71296392 MISS:       8614
cpu0_DTLB RFO          ACCESS:          0 HIT:          0 MISS:          0
cpu0_DTLB PREFETCH     ACCESS:          0 HIT:          0 MISS:          0
cpu0_DTLB WRITE        ACCESS:          0 HIT:          0 MISS:          0
cpu0_DTLB TRANSLATION  ACCESS:          0 HIT:          0 MISS:          0
cpu0_DTLB PREFETCH REQUESTED:          0 ISSUED:          0 USEFUL:          0 USELESS:          0
cpu0_DTLB AVERAGE MISS LATENCY: 12.81 cycles
cpu0_ITLB TOTAL        ACCESS:       2774 HIT:       2634 MISS:        140
cpu0_ITLB LOAD         ACCESS:       2774 HIT:       2634 MISS:        140
cpu0_ITLB RFO          ACCESS:          0 HIT:          0 MISS:          0
cpu0_ITLB PREFETCH     ACCESS:          0 HIT:          0 MISS:          0
cpu0_ITLB WRITE        ACCESS:          0 HIT:          0 MISS:          0
cpu0_ITLB TRANSLATION  ACCESS:          0 HIT:          0 MISS:          0
cpu0_ITLB PREFETCH REQUESTED:          0 ISSUED:          0 USEFUL:          0 USELESS:          0
cpu0_ITLB AVERAGE MISS LATENCY: 18.53 cycles
cpu0_L1D TOTAL        ACCESS:   83194638 HIT:   82276644 MISS:     917994
cpu0_L1D LOAD         ACCESS:   47546052 HIT:   47538096 MISS:       7956
cpu0_L1D RFO          ACCESS:          0 HIT:          0 MISS:          0
cpu0_L1D PREFETCH     ACCESS:          0 HIT:          0 MISS:          0
cpu0_L1D WRITE        ACCESS:   35645523 HIT:   34735632 MISS:     909891
cpu0_L1D TRANSLATION  ACCESS:       3063 HIT:       2916 MISS:        147
cpu0_L1D PREFETCH REQUESTED:          0 ISSUED:          0 USEFUL:          0 USELESS:          0
cpu0_L1D AVERAGE MISS LATENCY: 12.18 cycles
cpu0_L1I TOTAL        ACCESS:       3199 HIT:       1626 MISS:       1573
cpu0_L1I LOAD         ACCESS:       3199 HIT:       1626 MISS:       1573
cpu0_L1I RFO          ACCESS:          0 HIT:          0 MISS:          0
cpu0_L1I PREFETCH     ACCESS:          0 HIT:          0 MISS:          0
cpu0_L1I WRITE        ACCESS:          0 HIT:          0 MISS:          0
cpu0_L1I TRANSLATION  ACCESS:          0 HIT:          0 MISS:          0
cpu0_L1I PREFETCH REQUESTED:          0 ISSUED:          0 USEFUL:          0 USELESS:          0
cpu0_L1I AVERAGE MISS LATENCY: 20.29 cycles
cpu0_L2C TOTAL        ACCESS:     377230 HIT:     187649 MISS:     189581
cpu0_L2C LOAD         ACCESS:       3795 HIT:        531 MISS:       3264
cpu0_L2C RFO          ACCESS:     186603 HIT:        421 MISS:     186182
cpu0_L2C PREFETCH     ACCESS:          0 HIT:          0 MISS:          0
cpu0_L2C WRITE        ACCESS:     186686 HIT:     186684 MISS:          2
cpu0_L2C TRANSLATION  ACCESS:        146 HIT:         13 MISS:        133
cpu0_L2C PREFETCH REQUESTED:          0 ISSUED:          0 USEFUL:          0 USELESS:          0
cpu0_L2C AVERAGE MISS LATENCY: 387.5 cycles
cpu0_STLB TOTAL        ACCESS:       3101 HIT:         44 MISS:       3057
cpu0_STLB LOAD         ACCESS:       3101 HIT:         44 MISS:       3057
cpu0_STLB RFO          ACCESS:          0 HIT:          0 MISS:          0
cpu0_STLB PREFETCH     ACCESS:          0 HIT:          0 MISS:          0
cpu0_STLB WRITE        ACCESS:          0 HIT:          0 MISS:          0
cpu0_STLB TRANSLATION  ACCESS:          0 HIT:          0 MISS:          0
cpu0_STLB PREFETCH REQUESTED:          0 ISSUED:          0 USEFUL:          0 USELESS:          0
cpu0_STLB AVERAGE MISS LATENCY: 185.7 cycles

DRAM Statistics

Channel 0 RQ ROW_BUFFER_HIT:      45893
  ROW_BUFFER_MISS:     124810
 AVG DBUS CONGESTED CYCLE: 3.936
WQ ROW_BUFFER_HIT: Channel 0 
  ROW_BUFFER_MISS:         70
  FULL:     124309
