WARNING: physical memory size is smaller than virtual memory size.

*** ChampSim Multicore Out-of-Order Simulator ***
Warmup Instructions: 50000000
Simulation Instructions: 600000000
Number of CPUs: 1
Page size: 4096

CPU 0 Tage branch predictor
Off-chip DRAM Size: 4 GiB Channels: 1 Width: 64-bit Data Race: 3200 MT/s
Heartbeat CPU 0 instructions: 10000002 cycles: 2500203 heartbeat IPC: 4 cumulative IPC: 4 (Simulation time: 00 hr 01 min 01 sec)
Heartbeat CPU 0 instructions: 20000002 cycles: 5000203 heartbeat IPC: 4 cumulative IPC: 4 (Simulation time: 00 hr 01 min 53 sec)
Heartbeat CPU 0 instructions: 30000002 cycles: 7500203 heartbeat IPC: 4 cumulative IPC: 4 (Simulation time: 00 hr 02 min 46 sec)
Heartbeat CPU 0 instructions: 40000002 cycles: 10000203 heartbeat IPC: 4 cumulative IPC: 4 (Simulation time: 00 hr 03 min 47 sec)
Heartbeat CPU 0 instructions: 50000002 cycles: 12500203 heartbeat IPC: 4 cumulative IPC: 4 (Simulation time: 00 hr 04 min 47 sec)
Warmup finished CPU 0 instructions: 50000002 cycles: 12500204 cumulative IPC: 4 (Simulation time: 00 hr 04 min 47 sec)
Warmup complete CPU 0 instructions: 50000002 cycles: 12500204 cumulative IPC: 4 (Simulation time: 00 hr 04 min 47 sec)
Heartbeat CPU 0 instructions: 60000000 cycles: 16955546 heartbeat IPC: 2.244 cumulative IPC: 2.244 (Simulation time: 00 hr 06 min 21 sec)
Heartbeat CPU 0 instructions: 70000000 cycles: 21411679 heartbeat IPC: 2.244 cumulative IPC: 2.244 (Simulation time: 00 hr 07 min 57 sec)
Heartbeat CPU 0 instructions: 80000000 cycles: 25867122 heartbeat IPC: 2.244 cumulative IPC: 2.244 (Simulation time: 00 hr 09 min 29 sec)
Heartbeat CPU 0 instructions: 90000000 cycles: 30322570 heartbeat IPC: 2.244 cumulative IPC: 2.244 (Simulation time: 00 hr 10 min 58 sec)
Heartbeat CPU 0 instructions: 100000002 cycles: 34778017 heartbeat IPC: 2.244 cumulative IPC: 2.244 (Simulation time: 00 hr 12 min 26 sec)
Heartbeat CPU 0 instructions: 110000000 cycles: 39233464 heartbeat IPC: 2.244 cumulative IPC: 2.244 (Simulation time: 00 hr 13 min 50 sec)
Heartbeat CPU 0 instructions: 120000000 cycles: 43688906 heartbeat IPC: 2.244 cumulative IPC: 2.244 (Simulation time: 00 hr 15 min 14 sec)
Heartbeat CPU 0 instructions: 130000000 cycles: 48144349 heartbeat IPC: 2.244 cumulative IPC: 2.244 (Simulation time: 00 hr 16 min 41 sec)
Heartbeat CPU 0 instructions: 140000000 cycles: 52599797 heartbeat IPC: 2.244 cumulative IPC: 2.244 (Simulation time: 00 hr 18 min 10 sec)
Heartbeat CPU 0 instructions: 150000001 cycles: 57055243 heartbeat IPC: 2.244 cumulative IPC: 2.244 (Simulation time: 00 hr 19 min 35 sec)
Heartbeat CPU 0 instructions: 160000000 cycles: 61510689 heartbeat IPC: 2.244 cumulative IPC: 2.244 (Simulation time: 00 hr 21 min 00 sec)
Heartbeat CPU 0 instructions: 170000002 cycles: 65966133 heartbeat IPC: 2.244 cumulative IPC: 2.244 (Simulation time: 00 hr 22 min 24 sec)
Heartbeat CPU 0 instructions: 180000004 cycles: 70422272 heartbeat IPC: 2.244 cumulative IPC: 2.244 (Simulation time: 00 hr 23 min 49 sec)
Heartbeat CPU 0 instructions: 190000004 cycles: 74877720 heartbeat IPC: 2.244 cumulative IPC: 2.244 (Simulation time: 00 hr 25 min 13 sec)
Heartbeat CPU 0 instructions: 200000004 cycles: 79333168 heartbeat IPC: 2.244 cumulative IPC: 2.244 (Simulation time: 00 hr 26 min 39 sec)
Heartbeat CPU 0 instructions: 210000000 cycles: 83788613 heartbeat IPC: 2.244 cumulative IPC: 2.244 (Simulation time: 00 hr 28 min 04 sec)
Heartbeat CPU 0 instructions: 220000000 cycles: 88244056 heartbeat IPC: 2.244 cumulative IPC: 2.244 (Simulation time: 00 hr 29 min 31 sec)
Heartbeat CPU 0 instructions: 230000000 cycles: 92699498 heartbeat IPC: 2.244 cumulative IPC: 2.244 (Simulation time: 00 hr 30 min 57 sec)
Heartbeat CPU 0 instructions: 240000002 cycles: 97154946 heartbeat IPC: 2.244 cumulative IPC: 2.244 (Simulation time: 00 hr 32 min 22 sec)
Heartbeat CPU 0 instructions: 250000003 cycles: 101610392 heartbeat IPC: 2.244 cumulative IPC: 2.244 (Simulation time: 00 hr 33 min 48 sec)
Heartbeat CPU 0 instructions: 260000001 cycles: 106065839 heartbeat IPC: 2.244 cumulative IPC: 2.244 (Simulation time: 00 hr 35 min 13 sec)
Heartbeat CPU 0 instructions: 270000001 cycles: 110521282 heartbeat IPC: 2.244 cumulative IPC: 2.244 (Simulation time: 00 hr 36 min 38 sec)
Heartbeat CPU 0 instructions: 280000001 cycles: 114977414 heartbeat IPC: 2.244 cumulative IPC: 2.244 (Simulation time: 00 hr 38 min 04 sec)
Heartbeat CPU 0 instructions: 290000003 cycles: 119432862 heartbeat IPC: 2.244 cumulative IPC: 2.244 (Simulation time: 00 hr 39 min 29 sec)
Heartbeat CPU 0 instructions: 300000000 cycles: 123888308 heartbeat IPC: 2.244 cumulative IPC: 2.244 (Simulation time: 00 hr 40 min 55 sec)
Heartbeat CPU 0 instructions: 310000003 cycles: 128343756 heartbeat IPC: 2.244 cumulative IPC: 2.244 (Simulation time: 00 hr 42 min 24 sec)
Heartbeat CPU 0 instructions: 320000001 cycles: 132799199 heartbeat IPC: 2.244 cumulative IPC: 2.244 (Simulation time: 00 hr 43 min 47 sec)
Heartbeat CPU 0 instructions: 330000001 cycles: 137254641 heartbeat IPC: 2.244 cumulative IPC: 2.244 (Simulation time: 00 hr 45 min 09 sec)
Heartbeat CPU 0 instructions: 340000003 cycles: 141710089 heartbeat IPC: 2.244 cumulative IPC: 2.244 (Simulation time: 00 hr 46 min 31 sec)
Heartbeat CPU 0 instructions: 350000004 cycles: 146165535 heartbeat IPC: 2.244 cumulative IPC: 2.244 (Simulation time: 00 hr 47 min 54 sec)
Heartbeat CPU 0 instructions: 360000000 cycles: 150620982 heartbeat IPC: 2.244 cumulative IPC: 2.244 (Simulation time: 00 hr 49 min 17 sec)
Heartbeat CPU 0 instructions: 370000000 cycles: 155076424 heartbeat IPC: 2.244 cumulative IPC: 2.244 (Simulation time: 00 hr 50 min 40 sec)
Heartbeat CPU 0 instructions: 380000002 cycles: 159531872 heartbeat IPC: 2.244 cumulative IPC: 2.244 (Simulation time: 00 hr 52 min 03 sec)
Heartbeat CPU 0 instructions: 390000002 cycles: 163988010 heartbeat IPC: 2.244 cumulative IPC: 2.244 (Simulation time: 00 hr 53 min 25 sec)
Heartbeat CPU 0 instructions: 400000002 cycles: 168443458 heartbeat IPC: 2.244 cumulative IPC: 2.244 (Simulation time: 00 hr 54 min 47 sec)
Heartbeat CPU 0 instructions: 410000001 cycles: 172898905 heartbeat IPC: 2.244 cumulative IPC: 2.244 (Simulation time: 00 hr 56 min 10 sec)
Heartbeat CPU 0 instructions: 420000000 cycles: 177354348 heartbeat IPC: 2.244 cumulative IPC: 2.244 (Simulation time: 00 hr 57 min 33 sec)
Heartbeat CPU 0 instructions: 430000001 cycles: 181809790 heartbeat IPC: 2.244 cumulative IPC: 2.244 (Simulation time: 00 hr 58 min 56 sec)
Heartbeat CPU 0 instructions: 440000000 cycles: 186265236 heartbeat IPC: 2.244 cumulative IPC: 2.244 (Simulation time: 01 hr 00 min 20 sec)
Heartbeat CPU 0 instructions: 450000001 cycles: 190720682 heartbeat IPC: 2.244 cumulative IPC: 2.244 (Simulation time: 01 hr 01 min 43 sec)
Heartbeat CPU 0 instructions: 460000001 cycles: 195176130 heartbeat IPC: 2.244 cumulative IPC: 2.244 (Simulation time: 01 hr 03 min 09 sec)
Heartbeat CPU 0 instructions: 470000000 cycles: 199631573 heartbeat IPC: 2.244 cumulative IPC: 2.244 (Simulation time: 01 hr 04 min 33 sec)
Heartbeat CPU 0 instructions: 480000000 cycles: 204087015 heartbeat IPC: 2.244 cumulative IPC: 2.244 (Simulation time: 01 hr 05 min 57 sec)
Heartbeat CPU 0 instructions: 490000001 cycles: 208542462 heartbeat IPC: 2.244 cumulative IPC: 2.244 (Simulation time: 01 hr 07 min 20 sec)
Heartbeat CPU 0 instructions: 500000003 cycles: 212998599 heartbeat IPC: 2.244 cumulative IPC: 2.244 (Simulation time: 01 hr 08 min 42 sec)
Heartbeat CPU 0 instructions: 510000001 cycles: 217454046 heartbeat IPC: 2.244 cumulative IPC: 2.244 (Simulation time: 01 hr 10 min 03 sec)
Heartbeat CPU 0 instructions: 520000000 cycles: 221909490 heartbeat IPC: 2.244 cumulative IPC: 2.244 (Simulation time: 01 hr 11 min 26 sec)
Heartbeat CPU 0 instructions: 530000000 cycles: 226364932 heartbeat IPC: 2.244 cumulative IPC: 2.244 (Simulation time: 01 hr 12 min 49 sec)
Heartbeat CPU 0 instructions: 540000001 cycles: 230820379 heartbeat IPC: 2.244 cumulative IPC: 2.244 (Simulation time: 01 hr 14 min 11 sec)
Heartbeat CPU 0 instructions: 550000002 cycles: 235275825 heartbeat IPC: 2.244 cumulative IPC: 2.244 (Simulation time: 01 hr 15 min 31 sec)
Heartbeat CPU 0 instructions: 560000002 cycles: 239731273 heartbeat IPC: 2.244 cumulative IPC: 2.244 (Simulation time: 01 hr 16 min 50 sec)
Heartbeat CPU 0 instructions: 570000001 cycles: 244186716 heartbeat IPC: 2.244 cumulative IPC: 2.244 (Simulation time: 01 hr 18 min 12 sec)
Heartbeat CPU 0 instructions: 580000000 cycles: 248642162 heartbeat IPC: 2.244 cumulative IPC: 2.244 (Simulation time: 01 hr 19 min 36 sec)
Heartbeat CPU 0 instructions: 590000000 cycles: 253097610 heartbeat IPC: 2.244 cumulative IPC: 2.244 (Simulation time: 01 hr 20 min 58 sec)
*** Reached end of trace: (0, "traces/is.A.champsimtrace")
Heartbeat CPU 0 instructions: 600000001 cycles: 257554071 heartbeat IPC: 2.244 cumulative IPC: 2.244 (Simulation time: 01 hr 22 min 22 sec)
Heartbeat CPU 0 instructions: 610000001 cycles: 263365194 heartbeat IPC: 1.721 cumulative IPC: 2.232 (Simulation time: 01 hr 23 min 58 sec)
Heartbeat CPU 0 instructions: 620000001 cycles: 267820637 heartbeat IPC: 2.244 cumulative IPC: 2.232 (Simulation time: 01 hr 25 min 23 sec)
Heartbeat CPU 0 instructions: 630000001 cycles: 272276079 heartbeat IPC: 2.244 cumulative IPC: 2.233 (Simulation time: 01 hr 26 min 48 sec)
Heartbeat CPU 0 instructions: 640000003 cycles: 276731527 heartbeat IPC: 2.244 cumulative IPC: 2.233 (Simulation time: 01 hr 28 min 12 sec)
Heartbeat CPU 0 instructions: 650000004 cycles: 281186973 heartbeat IPC: 2.244 cumulative IPC: 2.233 (Simulation time: 01 hr 29 min 37 sec)
Simulation finished CPU 0 instructions: 600000002 cycles: 268686770 cumulative IPC: 2.233 (Simulation time: 01 hr 29 min 37 sec)
Simulation complete CPU 0 instructions: 600000002 cycles: 268686770 cumulative IPC: 2.233 (Simulation time: 01 hr 29 min 37 sec)

ChampSim completed all CPUs

=== Simulation ===
CPU 0 runs traces/is.A.champsimtrace
Region of Interest Statistics

CPU 0 cumulative IPC: 2.233 instructions: 600000002 cycles: 268686770
CPU 0 Branch Prediction Accuracy: 99.99% MPKI: 0.002945 Average ROB Occupancy at Mispredict: 68.67
Branch type MPKI
BRANCH_DIRECT_JUMP: 3.33e-06
BRANCH_INDIRECT: 8.67e-05
BRANCH_CONDITIONAL: 0.0028
BRANCH_DIRECT_CALL: 0
BRANCH_INDIRECT_CALL: 3.67e-05
BRANCH_RETURN: 2e-05

LLC TOTAL        ACCESS:     377950 HIT:     187348 MISS:     190602
LLC LOAD         ACCESS:       3282 HIT:        582 MISS:       2700
LLC RFO          ACCESS:     186178 HIT:          7 MISS:     186171
LLC PREFETCH     ACCESS:       2123 HIT:        527 MISS:       1596
LLC WRITE        ACCESS:     186234 HIT:     186232 MISS:          2
LLC TRANSLATION  ACCESS:        133 HIT:          0 MISS:        133
LLC PREFETCH REQUESTED:       2123 ISSUED:       2123 USEFUL:        803 USELESS:         31
LLC AVERAGE MISS LATENCY: 481.2 cycles
cpu0_DTLB TOTAL        ACCESS:   71301802 HIT:   71293239 MISS:       8563
cpu0_DTLB LOAD         ACCESS:   71301802 HIT:   71293239 MISS:       8563
cpu0_DTLB RFO          ACCESS:          0 HIT:          0 MISS:          0
cpu0_DTLB PREFETCH     ACCESS:          0 HIT:          0 MISS:          0
cpu0_DTLB WRITE        ACCESS:          0 HIT:          0 MISS:          0
cpu0_DTLB TRANSLATION  ACCESS:          0 HIT:          0 MISS:          0
cpu0_DTLB PREFETCH REQUESTED:          0 ISSUED:          0 USEFUL:          0 USELESS:          0
cpu0_DTLB AVERAGE MISS LATENCY: 19.99 cycles
cpu0_ITLB TOTAL        ACCESS:       2903 HIT:       2731 MISS:        172
cpu0_ITLB LOAD         ACCESS:       2903 HIT:       2731 MISS:        172
cpu0_ITLB RFO          ACCESS:          0 HIT:          0 MISS:          0
cpu0_ITLB PREFETCH     ACCESS:          0 HIT:          0 MISS:          0
cpu0_ITLB WRITE        ACCESS:          0 HIT:          0 MISS:          0
cpu0_ITLB TRANSLATION  ACCESS:          0 HIT:          0 MISS:          0
cpu0_ITLB PREFETCH REQUESTED:          0 ISSUED:          0 USEFUL:          0 USELESS:          0
cpu0_ITLB AVERAGE MISS LATENCY: 380.7 cycles
cpu0_L1D TOTAL        ACCESS:   83191515 HIT:   82107924 MISS:    1083591
cpu0_L1D LOAD         ACCESS:   47542851 HIT:   47534285 MISS:       8566
cpu0_L1D RFO          ACCESS:          0 HIT:          0 MISS:          0
cpu0_L1D PREFETCH     ACCESS:          0 HIT:          0 MISS:          0
cpu0_L1D WRITE        ACCESS:   35645604 HIT:   34570725 MISS:    1074879
cpu0_L1D TRANSLATION  ACCESS:       3060 HIT:       2914 MISS:        146
cpu0_L1D PREFETCH REQUESTED:          0 ISSUED:          0 USEFUL:          0 USELESS:          0
cpu0_L1D AVERAGE MISS LATENCY: 14.98 cycles
cpu0_L1I TOTAL        ACCESS:       3377 HIT:       1560 MISS:       1817
cpu0_L1I LOAD         ACCESS:       3377 HIT:       1560 MISS:       1817
cpu0_L1I RFO          ACCESS:          0 HIT:          0 MISS:          0
cpu0_L1I PREFETCH     ACCESS:          0 HIT:          0 MISS:          0
cpu0_L1I WRITE        ACCESS:          0 HIT:          0 MISS:          0
cpu0_L1I TRANSLATION  ACCESS:          0 HIT:          0 MISS:          0
cpu0_L1I PREFETCH REQUESTED:          0 ISSUED:          0 USEFUL:          0 USELESS:          0
cpu0_L1I AVERAGE MISS LATENCY: 646.8 cycles
cpu0_L2C TOTAL        ACCESS:     377242 HIT:     187647 MISS:     189595
cpu0_L2C LOAD         ACCESS:       3804 HIT:        522 MISS:       3282
cpu0_L2C RFO          ACCESS:     186602 HIT:        424 MISS:     186178
cpu0_L2C PREFETCH     ACCESS:          0 HIT:          0 MISS:          0
cpu0_L2C WRITE        ACCESS:     186691 HIT:     186689 MISS:          2
cpu0_L2C TRANSLATION  ACCESS:        145 HIT:         12 MISS:        133
cpu0_L2C PREFETCH REQUESTED:          0 ISSUED:          0 USEFUL:          0 USELESS:          0
cpu0_L2C AVERAGE MISS LATENCY: 499.6 cycles
cpu0_STLB TOTAL        ACCESS:       3065 HIT:         11 MISS:       3054
cpu0_STLB LOAD         ACCESS:       3065 HIT:         11 MISS:       3054
cpu0_STLB RFO          ACCESS:          0 HIT:          0 MISS:          0
cpu0_STLB PREFETCH     ACCESS:          0 HIT:          0 MISS:          0
cpu0_STLB WRITE        ACCESS:          0 HIT:          0 MISS:          0
cpu0_STLB TRANSLATION  ACCESS:          0 HIT:          0 MISS:          0
cpu0_STLB PREFETCH REQUESTED:          0 ISSUED:          0 USEFUL:          0 USELESS:          0
cpu0_STLB AVERAGE MISS LATENCY: 232.8 cycles

DRAM Statistics

Channel 0 RQ ROW_BUFFER_HIT:      17396
  ROW_BUFFER_MISS:     172213
 AVG DBUS CONGESTED CYCLE: 3.974
WQ ROW_BUFFER_HIT: Channel 0 
  ROW_BUFFER_MISS:        706
  FULL:     172187
