WARNING: physical memory size is smaller than virtual memory size.

*** ChampSim Multicore Out-of-Order Simulator ***
Warmup Instructions: 50000000
Simulation Instructions: 600000000
Number of CPUs: 1
Page size: 4096

CPU 0 Tage branch predictor
Off-chip DRAM Size: 4 GiB Channels: 1 Width: 64-bit Data Race: 3200 MT/s
Heartbeat CPU 0 instructions: 10000002 cycles: 2500203 heartbeat IPC: 4 cumulative IPC: 4 (Simulation time: 00 hr 00 min 33 sec)
Heartbeat CPU 0 instructions: 20000002 cycles: 5000203 heartbeat IPC: 4 cumulative IPC: 4 (Simulation time: 00 hr 01 min 07 sec)
Heartbeat CPU 0 instructions: 30000002 cycles: 7500203 heartbeat IPC: 4 cumulative IPC: 4 (Simulation time: 00 hr 01 min 44 sec)
Heartbeat CPU 0 instructions: 40000002 cycles: 10000203 heartbeat IPC: 4 cumulative IPC: 4 (Simulation time: 00 hr 02 min 25 sec)
Heartbeat CPU 0 instructions: 50000002 cycles: 12500203 heartbeat IPC: 4 cumulative IPC: 4 (Simulation time: 00 hr 03 min 02 sec)
Warmup finished CPU 0 instructions: 50000002 cycles: 12500204 cumulative IPC: 4 (Simulation time: 00 hr 03 min 02 sec)
Warmup complete CPU 0 instructions: 50000002 cycles: 12500204 cumulative IPC: 4 (Simulation time: 00 hr 03 min 02 sec)
Heartbeat CPU 0 instructions: 60000000 cycles: 16955546 heartbeat IPC: 2.244 cumulative IPC: 2.244 (Simulation time: 00 hr 04 min 02 sec)
Heartbeat CPU 0 instructions: 70000000 cycles: 21411679 heartbeat IPC: 2.244 cumulative IPC: 2.244 (Simulation time: 00 hr 05 min 02 sec)
Heartbeat CPU 0 instructions: 80000000 cycles: 25867122 heartbeat IPC: 2.244 cumulative IPC: 2.244 (Simulation time: 00 hr 05 min 59 sec)
Heartbeat CPU 0 instructions: 90000000 cycles: 30322570 heartbeat IPC: 2.244 cumulative IPC: 2.244 (Simulation time: 00 hr 06 min 58 sec)
Heartbeat CPU 0 instructions: 100000002 cycles: 34778017 heartbeat IPC: 2.244 cumulative IPC: 2.244 (Simulation time: 00 hr 07 min 56 sec)
Heartbeat CPU 0 instructions: 110000000 cycles: 39233464 heartbeat IPC: 2.244 cumulative IPC: 2.244 (Simulation time: 00 hr 08 min 55 sec)
Heartbeat CPU 0 instructions: 120000000 cycles: 43688906 heartbeat IPC: 2.244 cumulative IPC: 2.244 (Simulation time: 00 hr 09 min 49 sec)
Heartbeat CPU 0 instructions: 130000000 cycles: 48144349 heartbeat IPC: 2.244 cumulative IPC: 2.244 (Simulation time: 00 hr 10 min 43 sec)
Heartbeat CPU 0 instructions: 140000000 cycles: 52599797 heartbeat IPC: 2.244 cumulative IPC: 2.244 (Simulation time: 00 hr 11 min 40 sec)
Heartbeat CPU 0 instructions: 150000001 cycles: 57055243 heartbeat IPC: 2.244 cumulative IPC: 2.244 (Simulation time: 00 hr 12 min 38 sec)
Heartbeat CPU 0 instructions: 160000000 cycles: 61510689 heartbeat IPC: 2.244 cumulative IPC: 2.244 (Simulation time: 00 hr 13 min 35 sec)
Heartbeat CPU 0 instructions: 170000002 cycles: 65966133 heartbeat IPC: 2.244 cumulative IPC: 2.244 (Simulation time: 00 hr 14 min 32 sec)
Heartbeat CPU 0 instructions: 180000004 cycles: 70421776 heartbeat IPC: 2.244 cumulative IPC: 2.244 (Simulation time: 00 hr 15 min 26 sec)
Heartbeat CPU 0 instructions: 190000004 cycles: 74877224 heartbeat IPC: 2.244 cumulative IPC: 2.244 (Simulation time: 00 hr 16 min 19 sec)
Heartbeat CPU 0 instructions: 200000004 cycles: 79332672 heartbeat IPC: 2.244 cumulative IPC: 2.244 (Simulation time: 00 hr 17 min 12 sec)
Heartbeat CPU 0 instructions: 210000000 cycles: 83788117 heartbeat IPC: 2.244 cumulative IPC: 2.244 (Simulation time: 00 hr 18 min 05 sec)
Heartbeat CPU 0 instructions: 220000000 cycles: 88243560 heartbeat IPC: 2.244 cumulative IPC: 2.244 (Simulation time: 00 hr 18 min 58 sec)
Heartbeat CPU 0 instructions: 230000000 cycles: 92699002 heartbeat IPC: 2.244 cumulative IPC: 2.244 (Simulation time: 00 hr 19 min 51 sec)
Heartbeat CPU 0 instructions: 240000002 cycles: 97154450 heartbeat IPC: 2.244 cumulative IPC: 2.244 (Simulation time: 00 hr 20 min 46 sec)
Heartbeat CPU 0 instructions: 250000003 cycles: 101609896 heartbeat IPC: 2.244 cumulative IPC: 2.244 (Simulation time: 00 hr 21 min 40 sec)
Heartbeat CPU 0 instructions: 260000001 cycles: 106065343 heartbeat IPC: 2.244 cumulative IPC: 2.244 (Simulation time: 00 hr 22 min 35 sec)
Heartbeat CPU 0 instructions: 270000001 cycles: 110520786 heartbeat IPC: 2.244 cumulative IPC: 2.244 (Simulation time: 00 hr 23 min 29 sec)
Heartbeat CPU 0 instructions: 280000001 cycles: 114976919 heartbeat IPC: 2.244 cumulative IPC: 2.244 (Simulation time: 00 hr 24 min 22 sec)
Heartbeat CPU 0 instructions: 290000003 cycles: 119432367 heartbeat IPC: 2.244 cumulative IPC: 2.244 (Simulation time: 00 hr 25 min 16 sec)
Heartbeat CPU 0 instructions: 300000000 cycles: 123887813 heartbeat IPC: 2.244 cumulative IPC: 2.244 (Simulation time: 00 hr 26 min 10 sec)
Heartbeat CPU 0 instructions: 310000003 cycles: 128343261 heartbeat IPC: 2.244 cumulative IPC: 2.244 (Simulation time: 00 hr 27 min 03 sec)
Heartbeat CPU 0 instructions: 320000001 cycles: 132798704 heartbeat IPC: 2.244 cumulative IPC: 2.244 (Simulation time: 00 hr 27 min 57 sec)
Heartbeat CPU 0 instructions: 330000001 cycles: 137254146 heartbeat IPC: 2.244 cumulative IPC: 2.244 (Simulation time: 00 hr 28 min 51 sec)
Heartbeat CPU 0 instructions: 340000003 cycles: 141709594 heartbeat IPC: 2.244 cumulative IPC: 2.244 (Simulation time: 00 hr 29 min 45 sec)
Heartbeat CPU 0 instructions: 350000004 cycles: 146165040 heartbeat IPC: 2.244 cumulative IPC: 2.244 (Simulation time: 00 hr 30 min 38 sec)
Heartbeat CPU 0 instructions: 360000000 cycles: 150620487 heartbeat IPC: 2.244 cumulative IPC: 2.244 (Simulation time: 00 hr 31 min 32 sec)
Heartbeat CPU 0 instructions: 370000000 cycles: 155075929 heartbeat IPC: 2.244 cumulative IPC: 2.244 (Simulation time: 00 hr 32 min 26 sec)
Heartbeat CPU 0 instructions: 380000002 cycles: 159531377 heartbeat IPC: 2.244 cumulative IPC: 2.244 (Simulation time: 00 hr 33 min 20 sec)
Heartbeat CPU 0 instructions: 390000002 cycles: 163987515 heartbeat IPC: 2.244 cumulative IPC: 2.244 (Simulation time: 00 hr 34 min 13 sec)
Heartbeat CPU 0 instructions: 400000002 cycles: 168442963 heartbeat IPC: 2.244 cumulative IPC: 2.244 (Simulation time: 00 hr 35 min 07 sec)
Heartbeat CPU 0 instructions: 410000001 cycles: 172898410 heartbeat IPC: 2.244 cumulative IPC: 2.244 (Simulation time: 00 hr 36 min 00 sec)
Heartbeat CPU 0 instructions: 420000000 cycles: 177353853 heartbeat IPC: 2.244 cumulative IPC: 2.244 (Simulation time: 00 hr 36 min 54 sec)
Heartbeat CPU 0 instructions: 430000001 cycles: 181809295 heartbeat IPC: 2.244 cumulative IPC: 2.244 (Simulation time: 00 hr 37 min 48 sec)
Heartbeat CPU 0 instructions: 440000000 cycles: 186264741 heartbeat IPC: 2.244 cumulative IPC: 2.244 (Simulation time: 00 hr 38 min 42 sec)
Heartbeat CPU 0 instructions: 450000001 cycles: 190720187 heartbeat IPC: 2.244 cumulative IPC: 2.244 (Simulation time: 00 hr 39 min 36 sec)
Heartbeat CPU 0 instructions: 460000001 cycles: 195175635 heartbeat IPC: 2.244 cumulative IPC: 2.244 (Simulation time: 00 hr 40 min 31 sec)
Heartbeat CPU 0 instructions: 470000000 cycles: 199631078 heartbeat IPC: 2.244 cumulative IPC: 2.244 (Simulation time: 00 hr 41 min 26 sec)
Heartbeat CPU 0 instructions: 480000000 cycles: 204086520 heartbeat IPC: 2.244 cumulative IPC: 2.244 (Simulation time: 00 hr 42 min 20 sec)
Heartbeat CPU 0 instructions: 490000001 cycles: 208541967 heartbeat IPC: 2.244 cumulative IPC: 2.244 (Simulation time: 00 hr 43 min 14 sec)
Heartbeat CPU 0 instructions: 500000003 cycles: 212998104 heartbeat IPC: 2.244 cumulative IPC: 2.244 (Simulation time: 00 hr 44 min 09 sec)
Heartbeat CPU 0 instructions: 510000001 cycles: 217453551 heartbeat IPC: 2.244 cumulative IPC: 2.244 (Simulation time: 00 hr 45 min 05 sec)
Heartbeat CPU 0 instructions: 520000000 cycles: 221908995 heartbeat IPC: 2.244 cumulative IPC: 2.244 (Simulation time: 00 hr 45 min 59 sec)
Heartbeat CPU 0 instructions: 530000000 cycles: 226364437 heartbeat IPC: 2.244 cumulative IPC: 2.244 (Simulation time: 00 hr 46 min 53 sec)
Heartbeat CPU 0 instructions: 540000001 cycles: 230819884 heartbeat IPC: 2.244 cumulative IPC: 2.244 (Simulation time: 00 hr 47 min 48 sec)
Heartbeat CPU 0 instructions: 550000002 cycles: 235275330 heartbeat IPC: 2.244 cumulative IPC: 2.244 (Simulation time: 00 hr 48 min 42 sec)
Heartbeat CPU 0 instructions: 560000002 cycles: 239730778 heartbeat IPC: 2.244 cumulative IPC: 2.244 (Simulation time: 00 hr 49 min 36 sec)
Heartbeat CPU 0 instructions: 570000001 cycles: 244186221 heartbeat IPC: 2.244 cumulative IPC: 2.244 (Simulation time: 00 hr 50 min 31 sec)
Heartbeat CPU 0 instructions: 580000000 cycles: 248641667 heartbeat IPC: 2.244 cumulative IPC: 2.244 (Simulation time: 00 hr 51 min 25 sec)
Heartbeat CPU 0 instructions: 590000000 cycles: 253097115 heartbeat IPC: 2.244 cumulative IPC: 2.244 (Simulation time: 00 hr 52 min 21 sec)
*** Reached end of trace: (0, "traces/is.A.champsimtrace")
Heartbeat CPU 0 instructions: 600000000 cycles: 257553253 heartbeat IPC: 2.244 cumulative IPC: 2.244 (Simulation time: 00 hr 53 min 17 sec)
Heartbeat CPU 0 instructions: 610000001 cycles: 262797278 heartbeat IPC: 1.907 cumulative IPC: 2.237 (Simulation time: 00 hr 54 min 19 sec)
Heartbeat CPU 0 instructions: 620000001 cycles: 267252721 heartbeat IPC: 2.244 cumulative IPC: 2.237 (Simulation time: 00 hr 55 min 15 sec)
Heartbeat CPU 0 instructions: 630000001 cycles: 271708163 heartbeat IPC: 2.244 cumulative IPC: 2.238 (Simulation time: 00 hr 56 min 11 sec)
Heartbeat CPU 0 instructions: 640000003 cycles: 276163611 heartbeat IPC: 2.244 cumulative IPC: 2.238 (Simulation time: 00 hr 57 min 08 sec)
Heartbeat CPU 0 instructions: 650000004 cycles: 280619057 heartbeat IPC: 2.244 cumulative IPC: 2.238 (Simulation time: 00 hr 58 min 03 sec)
Simulation finished CPU 0 instructions: 600000002 cycles: 268118854 cumulative IPC: 2.238 (Simulation time: 00 hr 58 min 03 sec)
Simulation complete CPU 0 instructions: 600000002 cycles: 268118854 cumulative IPC: 2.238 (Simulation time: 00 hr 58 min 03 sec)

ChampSim completed all CPUs

=== Simulation ===
CPU 0 runs traces/is.A.champsimtrace
Region of Interest Statistics

CPU 0 cumulative IPC: 2.238 instructions: 600000002 cycles: 268118854
CPU 0 Branch Prediction Accuracy: 99.99% MPKI: 0.002945 Average ROB Occupancy at Mispredict: 64.26
Branch type MPKI
BRANCH_DIRECT_JUMP: 3.33e-06
BRANCH_INDIRECT: 8.67e-05
BRANCH_CONDITIONAL: 0.0028
BRANCH_DIRECT_CALL: 0
BRANCH_INDIRECT_CALL: 3.67e-05
BRANCH_RETURN: 2e-05

LLC TOTAL        ACCESS:     377927 HIT:     165135 MISS:     212792
LLC LOAD         ACCESS:       3280 HIT:       1798 MISS:       1482
LLC RFO          ACCESS:     186180 HIT:        426 MISS:     185754
LLC PREFETCH     ACCESS:       2106 HIT:       1164 MISS:        942
LLC WRITE        ACCESS:     186228 HIT:     161687 MISS:      24541
LLC TRANSLATION  ACCESS:        133 HIT:         60 MISS:         73
LLC PREFETCH REQUESTED:       2106 ISSUED:       2106 USEFUL:        465 USELESS:         20
LLC AVERAGE MISS LATENCY: 402.2 cycles
cpu0_DTLB TOTAL        ACCESS:   71302068 HIT:   71293535 MISS:       8533
cpu0_DTLB LOAD         ACCESS:   71302068 HIT:   71293535 MISS:       8533
cpu0_DTLB RFO          ACCESS:          0 HIT:          0 MISS:          0
cpu0_DTLB PREFETCH     ACCESS:          0 HIT:          0 MISS:          0
cpu0_DTLB WRITE        ACCESS:          0 HIT:          0 MISS:          0
cpu0_DTLB TRANSLATION  ACCESS:          0 HIT:          0 MISS:          0
cpu0_DTLB PREFETCH REQUESTED:          0 ISSUED:          0 USEFUL:          0 USELESS:          0
cpu0_DTLB AVERAGE MISS LATENCY: 16.05 cycles
cpu0_ITLB TOTAL        ACCESS:       2866 HIT:       2700 MISS:        166
cpu0_ITLB LOAD         ACCESS:       2866 HIT:       2700 MISS:        166
cpu0_ITLB RFO          ACCESS:          0 HIT:          0 MISS:          0
cpu0_ITLB PREFETCH     ACCESS:          0 HIT:          0 MISS:          0
cpu0_ITLB WRITE        ACCESS:          0 HIT:          0 MISS:          0
cpu0_ITLB TRANSLATION  ACCESS:          0 HIT:          0 MISS:          0
cpu0_ITLB PREFETCH REQUESTED:          0 ISSUED:          0 USEFUL:          0 USELESS:          0
cpu0_ITLB AVERAGE MISS LATENCY: 266.7 cycles
cpu0_L1D TOTAL        ACCESS:   83191757 HIT:   82140065 MISS:    1051692
cpu0_L1D LOAD         ACCESS:   47543093 HIT:   47534313 MISS:       8780
cpu0_L1D RFO          ACCESS:          0 HIT:          0 MISS:          0
cpu0_L1D PREFETCH     ACCESS:          0 HIT:          0 MISS:          0
cpu0_L1D WRITE        ACCESS:   35645604 HIT:   34602838 MISS:    1042766
cpu0_L1D TRANSLATION  ACCESS:       3060 HIT:       2914 MISS:        146
cpu0_L1D PREFETCH REQUESTED:          0 ISSUED:          0 USEFUL:          0 USELESS:          0
cpu0_L1D AVERAGE MISS LATENCY: 13.58 cycles
cpu0_L1I TOTAL        ACCESS:       3344 HIT:       1598 MISS:       1746
cpu0_L1I LOAD         ACCESS:       3344 HIT:       1598 MISS:       1746
cpu0_L1I RFO          ACCESS:          0 HIT:          0 MISS:          0
cpu0_L1I PREFETCH     ACCESS:          0 HIT:          0 MISS:          0
cpu0_L1I WRITE        ACCESS:          0 HIT:          0 MISS:          0
cpu0_L1I TRANSLATION  ACCESS:          0 HIT:          0 MISS:          0
cpu0_L1I PREFETCH REQUESTED:          0 ISSUED:          0 USEFUL:          0 USELESS:          0
cpu0_L1I AVERAGE MISS LATENCY: 350 cycles
cpu0_L2C TOTAL        ACCESS:     377237 HIT:     187642 MISS:     189595
cpu0_L2C LOAD         ACCESS:       3802 HIT:        522 MISS:       3280
cpu0_L2C RFO          ACCESS:     186604 HIT:        424 MISS:     186180
cpu0_L2C PREFETCH     ACCESS:          0 HIT:          0 MISS:          0
cpu0_L2C WRITE        ACCESS:     186686 HIT:     186684 MISS:          2
cpu0_L2C TRANSLATION  ACCESS:        145 HIT:         12 MISS:        133
cpu0_L2C PREFETCH REQUESTED:          0 ISSUED:          0 USEFUL:          0 USELESS:          0
cpu0_L2C AVERAGE MISS LATENCY: 470.4 cycles
cpu0_STLB TOTAL        ACCESS:       3065 HIT:         11 MISS:       3054
cpu0_STLB LOAD         ACCESS:       3065 HIT:         11 MISS:       3054
cpu0_STLB RFO          ACCESS:          0 HIT:          0 MISS:          0
cpu0_STLB PREFETCH     ACCESS:          0 HIT:          0 MISS:          0
cpu0_STLB WRITE        ACCESS:          0 HIT:          0 MISS:          0
cpu0_STLB TRANSLATION  ACCESS:          0 HIT:          0 MISS:          0
cpu0_STLB PREFETCH REQUESTED:          0 ISSUED:          0 USEFUL:          0 USELESS:          0
cpu0_STLB AVERAGE MISS LATENCY: 210.3 cycles

DRAM Statistics

Channel 0 RQ ROW_BUFFER_HIT:      27484
  ROW_BUFFER_MISS:     160104
 AVG DBUS CONGESTED CYCLE: 3.971
WQ ROW_BUFFER_HIT: Channel 0 
  ROW_BUFFER_MISS:        170
  FULL:     171305
