WARNING: physical memory size is smaller than virtual memory size.

*** ChampSim Multicore Out-of-Order Simulator ***
Warmup Instructions: 50000000
Simulation Instructions: 600000000
Number of CPUs: 1
Page size: 4096

Off-chip DRAM Size: 4 GiB Channels: 1 Width: 64-bit Data Race: 3200 MT/s
Heartbeat CPU 0 instructions: 10000003 cycles: 2500203 heartbeat IPC: 4 cumulative IPC: 4 (Simulation time: 00 hr 00 min 33 sec)
Heartbeat CPU 0 instructions: 20000003 cycles: 5000203 heartbeat IPC: 4 cumulative IPC: 4 (Simulation time: 00 hr 01 min 27 sec)
Heartbeat CPU 0 instructions: 30000003 cycles: 7500203 heartbeat IPC: 4 cumulative IPC: 4 (Simulation time: 00 hr 02 min 05 sec)
Heartbeat CPU 0 instructions: 40000003 cycles: 10000203 heartbeat IPC: 4 cumulative IPC: 4 (Simulation time: 00 hr 02 min 38 sec)
Heartbeat CPU 0 instructions: 50000003 cycles: 12500203 heartbeat IPC: 4 cumulative IPC: 4 (Simulation time: 00 hr 03 min 27 sec)
Warmup finished CPU 0 instructions: 50000003 cycles: 12500204 cumulative IPC: 4 (Simulation time: 00 hr 03 min 27 sec)
Warmup complete CPU 0 instructions: 50000003 cycles: 12500204 cumulative IPC: 4 (Simulation time: 00 hr 03 min 27 sec)
Heartbeat CPU 0 instructions: 60000001 cycles: 16955546 heartbeat IPC: 2.244 cumulative IPC: 2.244 (Simulation time: 00 hr 04 min 40 sec)
Heartbeat CPU 0 instructions: 70000002 cycles: 21410992 heartbeat IPC: 2.244 cumulative IPC: 2.244 (Simulation time: 00 hr 05 min 58 sec)
Heartbeat CPU 0 instructions: 80000002 cycles: 25866440 heartbeat IPC: 2.244 cumulative IPC: 2.244 (Simulation time: 00 hr 07 min 24 sec)
Heartbeat CPU 0 instructions: 90000001 cycles: 30322078 heartbeat IPC: 2.244 cumulative IPC: 2.244 (Simulation time: 00 hr 08 min 28 sec)
Heartbeat CPU 0 instructions: 100000000 cycles: 34777524 heartbeat IPC: 2.244 cumulative IPC: 2.244 (Simulation time: 00 hr 09 min 38 sec)
Heartbeat CPU 0 instructions: 110000000 cycles: 39232972 heartbeat IPC: 2.244 cumulative IPC: 2.244 (Simulation time: 00 hr 10 min 46 sec)
Heartbeat CPU 0 instructions: 120000000 cycles: 43688420 heartbeat IPC: 2.244 cumulative IPC: 2.244 (Simulation time: 00 hr 12 min 20 sec)
Heartbeat CPU 0 instructions: 130000000 cycles: 48143868 heartbeat IPC: 2.244 cumulative IPC: 2.244 (Simulation time: 00 hr 13 min 42 sec)
Heartbeat CPU 0 instructions: 140000000 cycles: 52599311 heartbeat IPC: 2.244 cumulative IPC: 2.244 (Simulation time: 00 hr 14 min 59 sec)
Heartbeat CPU 0 instructions: 150000000 cycles: 57054753 heartbeat IPC: 2.244 cumulative IPC: 2.244 (Simulation time: 00 hr 16 min 28 sec)
Heartbeat CPU 0 instructions: 160000003 cycles: 61510199 heartbeat IPC: 2.244 cumulative IPC: 2.244 (Simulation time: 00 hr 17 min 59 sec)
Heartbeat CPU 0 instructions: 170000001 cycles: 65965645 heartbeat IPC: 2.244 cumulative IPC: 2.244 (Simulation time: 00 hr 19 min 16 sec)
Heartbeat CPU 0 instructions: 180000004 cycles: 70421093 heartbeat IPC: 2.244 cumulative IPC: 2.244 (Simulation time: 00 hr 20 min 33 sec)
Heartbeat CPU 0 instructions: 190000001 cycles: 74876732 heartbeat IPC: 2.244 cumulative IPC: 2.244 (Simulation time: 00 hr 21 min 38 sec)
Heartbeat CPU 0 instructions: 200000000 cycles: 79332173 heartbeat IPC: 2.244 cumulative IPC: 2.244 (Simulation time: 00 hr 22 min 40 sec)
Heartbeat CPU 0 instructions: 210000004 cycles: 83787620 heartbeat IPC: 2.244 cumulative IPC: 2.244 (Simulation time: 00 hr 23 min 42 sec)
Heartbeat CPU 0 instructions: 220000001 cycles: 88243066 heartbeat IPC: 2.244 cumulative IPC: 2.244 (Simulation time: 00 hr 24 min 52 sec)
Heartbeat CPU 0 instructions: 230000001 cycles: 92698514 heartbeat IPC: 2.244 cumulative IPC: 2.244 (Simulation time: 00 hr 26 min 01 sec)
Heartbeat CPU 0 instructions: 240000001 cycles: 97153959 heartbeat IPC: 2.244 cumulative IPC: 2.244 (Simulation time: 00 hr 27 min 18 sec)
Heartbeat CPU 0 instructions: 250000000 cycles: 101609400 heartbeat IPC: 2.244 cumulative IPC: 2.244 (Simulation time: 00 hr 28 min 35 sec)
Heartbeat CPU 0 instructions: 260000004 cycles: 106064847 heartbeat IPC: 2.244 cumulative IPC: 2.244 (Simulation time: 00 hr 29 min 44 sec)
Heartbeat CPU 0 instructions: 270000000 cycles: 110520292 heartbeat IPC: 2.244 cumulative IPC: 2.244 (Simulation time: 00 hr 30 min 47 sec)
Heartbeat CPU 0 instructions: 280000000 cycles: 114975740 heartbeat IPC: 2.244 cumulative IPC: 2.244 (Simulation time: 00 hr 31 min 48 sec)
Heartbeat CPU 0 instructions: 290000000 cycles: 119431184 heartbeat IPC: 2.244 cumulative IPC: 2.244 (Simulation time: 00 hr 32 min 40 sec)
Heartbeat CPU 0 instructions: 300000003 cycles: 123886825 heartbeat IPC: 2.244 cumulative IPC: 2.244 (Simulation time: 00 hr 33 min 47 sec)
Heartbeat CPU 0 instructions: 310000003 cycles: 128342273 heartbeat IPC: 2.244 cumulative IPC: 2.244 (Simulation time: 00 hr 34 min 49 sec)
Heartbeat CPU 0 instructions: 320000003 cycles: 132797721 heartbeat IPC: 2.244 cumulative IPC: 2.244 (Simulation time: 00 hr 36 min 02 sec)
Heartbeat CPU 0 instructions: 330000003 cycles: 137253169 heartbeat IPC: 2.244 cumulative IPC: 2.244 (Simulation time: 00 hr 37 min 17 sec)
Heartbeat CPU 0 instructions: 340000000 cycles: 141708613 heartbeat IPC: 2.244 cumulative IPC: 2.244 (Simulation time: 00 hr 38 min 28 sec)
Heartbeat CPU 0 instructions: 350000000 cycles: 146164055 heartbeat IPC: 2.244 cumulative IPC: 2.244 (Simulation time: 00 hr 39 min 36 sec)
Heartbeat CPU 0 instructions: 360000001 cycles: 150619499 heartbeat IPC: 2.244 cumulative IPC: 2.244 (Simulation time: 00 hr 40 min 51 sec)
Heartbeat CPU 0 instructions: 370000000 cycles: 155074946 heartbeat IPC: 2.244 cumulative IPC: 2.244 (Simulation time: 00 hr 42 min 09 sec)
Heartbeat CPU 0 instructions: 380000002 cycles: 159530393 heartbeat IPC: 2.244 cumulative IPC: 2.244 (Simulation time: 00 hr 43 min 24 sec)
Heartbeat CPU 0 instructions: 390000000 cycles: 163985838 heartbeat IPC: 2.244 cumulative IPC: 2.244 (Simulation time: 00 hr 44 min 31 sec)
Heartbeat CPU 0 instructions: 400000000 cycles: 168441475 heartbeat IPC: 2.244 cumulative IPC: 2.244 (Simulation time: 00 hr 45 min 47 sec)
Heartbeat CPU 0 instructions: 410000002 cycles: 172896920 heartbeat IPC: 2.244 cumulative IPC: 2.244 (Simulation time: 00 hr 47 min 03 sec)
Heartbeat CPU 0 instructions: 420000001 cycles: 177352367 heartbeat IPC: 2.244 cumulative IPC: 2.244 (Simulation time: 00 hr 48 min 08 sec)
Heartbeat CPU 0 instructions: 430000004 cycles: 181807815 heartbeat IPC: 2.244 cumulative IPC: 2.244 (Simulation time: 00 hr 49 min 10 sec)
Heartbeat CPU 0 instructions: 440000000 cycles: 186263260 heartbeat IPC: 2.244 cumulative IPC: 2.244 (Simulation time: 00 hr 50 min 07 sec)
Heartbeat CPU 0 instructions: 450000000 cycles: 190718702 heartbeat IPC: 2.244 cumulative IPC: 2.244 (Simulation time: 00 hr 51 min 04 sec)
Heartbeat CPU 0 instructions: 460000002 cycles: 195174147 heartbeat IPC: 2.244 cumulative IPC: 2.244 (Simulation time: 00 hr 52 min 01 sec)
Heartbeat CPU 0 instructions: 470000000 cycles: 199629593 heartbeat IPC: 2.244 cumulative IPC: 2.244 (Simulation time: 00 hr 53 min 17 sec)
Heartbeat CPU 0 instructions: 480000003 cycles: 204085041 heartbeat IPC: 2.244 cumulative IPC: 2.244 (Simulation time: 00 hr 54 min 26 sec)
Heartbeat CPU 0 instructions: 490000001 cycles: 208540486 heartbeat IPC: 2.244 cumulative IPC: 2.244 (Simulation time: 00 hr 55 min 31 sec)
Heartbeat CPU 0 instructions: 500000001 cycles: 212995930 heartbeat IPC: 2.244 cumulative IPC: 2.244 (Simulation time: 00 hr 56 min 38 sec)
Heartbeat CPU 0 instructions: 510000001 cycles: 217451573 heartbeat IPC: 2.244 cumulative IPC: 2.244 (Simulation time: 00 hr 57 min 41 sec)
Heartbeat CPU 0 instructions: 520000001 cycles: 221907021 heartbeat IPC: 2.244 cumulative IPC: 2.244 (Simulation time: 00 hr 58 min 49 sec)
Heartbeat CPU 0 instructions: 530000001 cycles: 226362469 heartbeat IPC: 2.244 cumulative IPC: 2.244 (Simulation time: 00 hr 59 min 54 sec)
Heartbeat CPU 0 instructions: 540000002 cycles: 230817915 heartbeat IPC: 2.244 cumulative IPC: 2.244 (Simulation time: 01 hr 00 min 58 sec)
Heartbeat CPU 0 instructions: 550000000 cycles: 235273357 heartbeat IPC: 2.244 cumulative IPC: 2.244 (Simulation time: 01 hr 01 min 58 sec)
Heartbeat CPU 0 instructions: 560000002 cycles: 239728800 heartbeat IPC: 2.244 cumulative IPC: 2.244 (Simulation time: 01 hr 02 min 58 sec)
Heartbeat CPU 0 instructions: 570000004 cycles: 244184248 heartbeat IPC: 2.244 cumulative IPC: 2.244 (Simulation time: 01 hr 03 min 57 sec)
Heartbeat CPU 0 instructions: 580000000 cycles: 248639693 heartbeat IPC: 2.244 cumulative IPC: 2.244 (Simulation time: 01 hr 05 min 02 sec)
Heartbeat CPU 0 instructions: 590000000 cycles: 253095140 heartbeat IPC: 2.244 cumulative IPC: 2.244 (Simulation time: 01 hr 05 min 53 sec)
*** Reached end of trace: (0, "traces/is.A.champsimtrace")
Heartbeat CPU 0 instructions: 600000001 cycles: 257550908 heartbeat IPC: 2.244 cumulative IPC: 2.244 (Simulation time: 01 hr 06 min 55 sec)
Heartbeat CPU 0 instructions: 610000000 cycles: 263307993 heartbeat IPC: 1.737 cumulative IPC: 2.233 (Simulation time: 01 hr 08 min 09 sec)
Heartbeat CPU 0 instructions: 620000002 cycles: 267763440 heartbeat IPC: 2.244 cumulative IPC: 2.233 (Simulation time: 01 hr 09 min 06 sec)
Heartbeat CPU 0 instructions: 630000000 cycles: 272218887 heartbeat IPC: 2.244 cumulative IPC: 2.233 (Simulation time: 01 hr 10 min 03 sec)
Heartbeat CPU 0 instructions: 640000000 cycles: 276674332 heartbeat IPC: 2.244 cumulative IPC: 2.233 (Simulation time: 01 hr 11 min 05 sec)
Heartbeat CPU 0 instructions: 650000001 cycles: 281129774 heartbeat IPC: 2.244 cumulative IPC: 2.234 (Simulation time: 01 hr 12 min 09 sec)
Simulation finished CPU 0 instructions: 600000000 cycles: 268629573 cumulative IPC: 2.234 (Simulation time: 01 hr 12 min 09 sec)
Simulation complete CPU 0 instructions: 600000000 cycles: 268629573 cumulative IPC: 2.234 (Simulation time: 01 hr 12 min 09 sec)

ChampSim completed all CPUs

=== Simulation ===
CPU 0 runs traces/is.A.champsimtrace
Region of Interest Statistics

CPU 0 cumulative IPC: 2.234 instructions: 600000000 cycles: 268629573
CPU 0 Branch Prediction Accuracy: 99.98% MPKI: 0.006843 Average ROB Occupancy at Mispredict: 37.28
Branch type MPKI
BRANCH_DIRECT_JUMP: 3.33e-06
BRANCH_INDIRECT: 9.33e-05
BRANCH_CONDITIONAL: 0.00669
BRANCH_DIRECT_CALL: 0
BRANCH_INDIRECT_CALL: 3.67e-05
BRANCH_RETURN: 1.83e-05

LLC TOTAL        ACCESS:     379068 HIT:     176073 MISS:     202995
LLC LOAD         ACCESS:       3266 HIT:        953 MISS:       2313
LLC RFO          ACCESS:     186178 HIT:         15 MISS:     186163
LLC PREFETCH     ACCESS:       3266 HIT:        316 MISS:       2950
LLC WRITE        ACCESS:     186229 HIT:     174784 MISS:      11445
LLC TRANSLATION  ACCESS:        129 HIT:          5 MISS:        124
LLC PREFETCH REQUESTED:       3266 ISSUED:       3266 USEFUL:       1807 USELESS:        451
LLC AVERAGE MISS LATENCY: 394.8 cycles
cpu0_DTLB TOTAL        ACCESS:   71302955 HIT:   71294354 MISS:       8601
cpu0_DTLB LOAD         ACCESS:   71302955 HIT:   71294354 MISS:       8601
cpu0_DTLB RFO          ACCESS:          0 HIT:          0 MISS:          0
cpu0_DTLB PREFETCH     ACCESS:          0 HIT:          0 MISS:          0
cpu0_DTLB WRITE        ACCESS:          0 HIT:          0 MISS:          0
cpu0_DTLB TRANSLATION  ACCESS:          0 HIT:          0 MISS:          0
cpu0_DTLB PREFETCH REQUESTED:          0 ISSUED:          0 USEFUL:          0 USELESS:          0
cpu0_DTLB AVERAGE MISS LATENCY: 20.85 cycles
cpu0_ITLB TOTAL        ACCESS:       2814 HIT:       2677 MISS:        137
cpu0_ITLB LOAD         ACCESS:       2814 HIT:       2677 MISS:        137
cpu0_ITLB RFO          ACCESS:          0 HIT:          0 MISS:          0
cpu0_ITLB PREFETCH     ACCESS:          0 HIT:          0 MISS:          0
cpu0_ITLB WRITE        ACCESS:          0 HIT:          0 MISS:          0
cpu0_ITLB TRANSLATION  ACCESS:          0 HIT:          0 MISS:          0
cpu0_ITLB PREFETCH REQUESTED:          0 ISSUED:          0 USEFUL:          0 USELESS:          0
cpu0_ITLB AVERAGE MISS LATENCY: 549.4 cycles
cpu0_L1D TOTAL        ACCESS:   83192677 HIT:   82222054 MISS:     970623
cpu0_L1D LOAD         ACCESS:   47544081 HIT:   47537328 MISS:       6753
cpu0_L1D RFO          ACCESS:          0 HIT:          0 MISS:          0
cpu0_L1D PREFETCH     ACCESS:          0 HIT:          0 MISS:          0
cpu0_L1D WRITE        ACCESS:   35645537 HIT:   34681809 MISS:     963728
cpu0_L1D TRANSLATION  ACCESS:       3059 HIT:       2917 MISS:        142
cpu0_L1D PREFETCH REQUESTED:          0 ISSUED:          0 USEFUL:          0 USELESS:          0
cpu0_L1D AVERAGE MISS LATENCY: 14.43 cycles
cpu0_L1I TOTAL        ACCESS:       3271 HIT:       1660 MISS:       1611
cpu0_L1I LOAD         ACCESS:       3271 HIT:       1660 MISS:       1611
cpu0_L1I RFO          ACCESS:          0 HIT:          0 MISS:          0
cpu0_L1I PREFETCH     ACCESS:          0 HIT:          0 MISS:          0
cpu0_L1I WRITE        ACCESS:          0 HIT:          0 MISS:          0
cpu0_L1I TRANSLATION  ACCESS:          0 HIT:          0 MISS:          0
cpu0_L1I PREFETCH REQUESTED:          0 ISSUED:          0 USEFUL:          0 USELESS:          0
cpu0_L1I AVERAGE MISS LATENCY: 634.5 cycles
cpu0_L2C TOTAL        ACCESS:     377218 HIT:     187642 MISS:     189576
cpu0_L2C LOAD         ACCESS:       3796 HIT:        530 MISS:       3266
cpu0_L2C RFO          ACCESS:     186599 HIT:        420 MISS:     186179
cpu0_L2C PREFETCH     ACCESS:          0 HIT:          0 MISS:          0
cpu0_L2C WRITE        ACCESS:     186682 HIT:     186680 MISS:          2
cpu0_L2C TRANSLATION  ACCESS:        141 HIT:         12 MISS:        129
cpu0_L2C PREFETCH REQUESTED:          0 ISSUED:          0 USEFUL:          0 USELESS:          0
cpu0_L2C AVERAGE MISS LATENCY: 434.1 cycles
cpu0_STLB TOTAL        ACCESS:       3105 HIT:         51 MISS:       3054
cpu0_STLB LOAD         ACCESS:       3105 HIT:         51 MISS:       3054
cpu0_STLB RFO          ACCESS:          0 HIT:          0 MISS:          0
cpu0_STLB PREFETCH     ACCESS:          0 HIT:          0 MISS:          0
cpu0_STLB WRITE        ACCESS:          0 HIT:          0 MISS:          0
cpu0_STLB TRANSLATION  ACCESS:          0 HIT:          0 MISS:          0
cpu0_STLB PREFETCH REQUESTED:          0 ISSUED:          0 USEFUL:          0 USELESS:          0
cpu0_STLB AVERAGE MISS LATENCY: 235.3 cycles

DRAM Statistics

Channel 0 RQ ROW_BUFFER_HIT:      54288
  ROW_BUFFER_MISS:     135743
 AVG DBUS CONGESTED CYCLE: 3.975
WQ ROW_BUFFER_HIT: Channel 0 
  ROW_BUFFER_MISS:        660
  FULL:     135078
