WARNING: physical memory size is smaller than virtual memory size.

*** ChampSim Multicore Out-of-Order Simulator ***
Warmup Instructions: 50000000
Simulation Instructions: 600000000
Number of CPUs: 1
Page size: 4096

CPU 0 Tage branch predictor
Off-chip DRAM Size: 4 GiB Channels: 1 Width: 64-bit Data Race: 3200 MT/s
Heartbeat CPU 0 instructions: 10000000 cycles: 2500202 heartbeat IPC: 4 cumulative IPC: 4 (Simulation time: 00 hr 01 min 01 sec)
Heartbeat CPU 0 instructions: 20000000 cycles: 5000202 heartbeat IPC: 4 cumulative IPC: 4 (Simulation time: 00 hr 01 min 57 sec)
Heartbeat CPU 0 instructions: 30000000 cycles: 7500202 heartbeat IPC: 4 cumulative IPC: 4 (Simulation time: 00 hr 02 min 56 sec)
Heartbeat CPU 0 instructions: 40000000 cycles: 10000202 heartbeat IPC: 4 cumulative IPC: 4 (Simulation time: 00 hr 04 min 02 sec)
Heartbeat CPU 0 instructions: 50000000 cycles: 12500202 heartbeat IPC: 4 cumulative IPC: 4 (Simulation time: 00 hr 05 min 06 sec)
Warmup finished CPU 0 instructions: 50000000 cycles: 12500203 cumulative IPC: 4 (Simulation time: 00 hr 05 min 06 sec)
Warmup complete CPU 0 instructions: 50000000 cycles: 12500203 cumulative IPC: 4 (Simulation time: 00 hr 05 min 06 sec)
Heartbeat CPU 0 instructions: 60000004 cycles: 15000742 heartbeat IPC: 3.999 cumulative IPC: 3.999 (Simulation time: 00 hr 06 min 16 sec)
Heartbeat CPU 0 instructions: 70000003 cycles: 17502549 heartbeat IPC: 3.997 cumulative IPC: 3.998 (Simulation time: 00 hr 07 min 26 sec)
Heartbeat CPU 0 instructions: 80000004 cycles: 20002583 heartbeat IPC: 4 cumulative IPC: 3.999 (Simulation time: 00 hr 08 min 37 sec)
Heartbeat CPU 0 instructions: 90000000 cycles: 22504276 heartbeat IPC: 3.997 cumulative IPC: 3.998 (Simulation time: 00 hr 09 min 47 sec)
Heartbeat CPU 0 instructions: 100000001 cycles: 25005172 heartbeat IPC: 3.999 cumulative IPC: 3.998 (Simulation time: 00 hr 10 min 54 sec)
Heartbeat CPU 0 instructions: 110000000 cycles: 27507044 heartbeat IPC: 3.997 cumulative IPC: 3.998 (Simulation time: 00 hr 11 min 58 sec)
Heartbeat CPU 0 instructions: 120000004 cycles: 30009421 heartbeat IPC: 3.996 cumulative IPC: 3.998 (Simulation time: 00 hr 13 min 00 sec)
Heartbeat CPU 0 instructions: 130000000 cycles: 32510476 heartbeat IPC: 3.998 cumulative IPC: 3.998 (Simulation time: 00 hr 14 min 02 sec)
Heartbeat CPU 0 instructions: 140000004 cycles: 35011476 heartbeat IPC: 3.998 cumulative IPC: 3.998 (Simulation time: 00 hr 15 min 04 sec)
Heartbeat CPU 0 instructions: 150000000 cycles: 37513339 heartbeat IPC: 3.997 cumulative IPC: 3.998 (Simulation time: 00 hr 16 min 06 sec)
Heartbeat CPU 0 instructions: 160000001 cycles: 40014577 heartbeat IPC: 3.998 cumulative IPC: 3.998 (Simulation time: 00 hr 17 min 11 sec)
Heartbeat CPU 0 instructions: 170000000 cycles: 42515046 heartbeat IPC: 3.999 cumulative IPC: 3.998 (Simulation time: 00 hr 18 min 15 sec)
Heartbeat CPU 0 instructions: 180000003 cycles: 45017122 heartbeat IPC: 3.997 cumulative IPC: 3.998 (Simulation time: 00 hr 19 min 19 sec)
Heartbeat CPU 0 instructions: 190000000 cycles: 47518277 heartbeat IPC: 3.998 cumulative IPC: 3.998 (Simulation time: 00 hr 20 min 22 sec)
Heartbeat CPU 0 instructions: 200000004 cycles: 50019672 heartbeat IPC: 3.998 cumulative IPC: 3.998 (Simulation time: 00 hr 21 min 23 sec)
Heartbeat CPU 0 instructions: 210000004 cycles: 52520295 heartbeat IPC: 3.999 cumulative IPC: 3.998 (Simulation time: 00 hr 22 min 25 sec)
Heartbeat CPU 0 instructions: 220000001 cycles: 55021809 heartbeat IPC: 3.998 cumulative IPC: 3.998 (Simulation time: 00 hr 23 min 28 sec)
Heartbeat CPU 0 instructions: 230000000 cycles: 57522804 heartbeat IPC: 3.998 cumulative IPC: 3.998 (Simulation time: 00 hr 24 min 29 sec)
Heartbeat CPU 0 instructions: 240000000 cycles: 91187525 heartbeat IPC: 0.297 cumulative IPC: 2.415 (Simulation time: 00 hr 29 min 54 sec)
Heartbeat CPU 0 instructions: 250000001 cycles: 100294300 heartbeat IPC: 1.098 cumulative IPC: 2.278 (Simulation time: 00 hr 32 min 11 sec)
Heartbeat CPU 0 instructions: 260000001 cycles: 109404044 heartbeat IPC: 1.098 cumulative IPC: 2.167 (Simulation time: 00 hr 34 min 28 sec)
Heartbeat CPU 0 instructions: 270000003 cycles: 121583834 heartbeat IPC: 0.821 cumulative IPC: 2.017 (Simulation time: 00 hr 37 min 18 sec)
Heartbeat CPU 0 instructions: 280000002 cycles: 130497297 heartbeat IPC: 1.122 cumulative IPC: 1.949 (Simulation time: 00 hr 39 min 35 sec)
Heartbeat CPU 0 instructions: 290000000 cycles: 139510526 heartbeat IPC: 1.109 cumulative IPC: 1.89 (Simulation time: 00 hr 41 min 53 sec)
Heartbeat CPU 0 instructions: 300000002 cycles: 148580439 heartbeat IPC: 1.103 cumulative IPC: 1.837 (Simulation time: 00 hr 44 min 13 sec)
Heartbeat CPU 0 instructions: 310000001 cycles: 157596032 heartbeat IPC: 1.109 cumulative IPC: 1.792 (Simulation time: 00 hr 46 min 31 sec)
Heartbeat CPU 0 instructions: 320000000 cycles: 166515261 heartbeat IPC: 1.121 cumulative IPC: 1.753 (Simulation time: 00 hr 48 min 49 sec)
Heartbeat CPU 0 instructions: 330000002 cycles: 174885375 heartbeat IPC: 1.195 cumulative IPC: 1.724 (Simulation time: 00 hr 51 min 04 sec)
Heartbeat CPU 0 instructions: 340000000 cycles: 183206440 heartbeat IPC: 1.202 cumulative IPC: 1.699 (Simulation time: 00 hr 53 min 17 sec)
Heartbeat CPU 0 instructions: 350000003 cycles: 191646966 heartbeat IPC: 1.185 cumulative IPC: 1.675 (Simulation time: 00 hr 55 min 33 sec)
Heartbeat CPU 0 instructions: 360000001 cycles: 200032974 heartbeat IPC: 1.192 cumulative IPC: 1.653 (Simulation time: 00 hr 57 min 47 sec)
Heartbeat CPU 0 instructions: 370000002 cycles: 208398963 heartbeat IPC: 1.195 cumulative IPC: 1.633 (Simulation time: 01 hr 00 min 01 sec)
Heartbeat CPU 0 instructions: 380000003 cycles: 216380624 heartbeat IPC: 1.253 cumulative IPC: 1.619 (Simulation time: 01 hr 02 min 11 sec)
Heartbeat CPU 0 instructions: 390000000 cycles: 224466014 heartbeat IPC: 1.237 cumulative IPC: 1.604 (Simulation time: 01 hr 04 min 26 sec)
Heartbeat CPU 0 instructions: 400000000 cycles: 232499190 heartbeat IPC: 1.245 cumulative IPC: 1.591 (Simulation time: 01 hr 06 min 38 sec)
Heartbeat CPU 0 instructions: 410000002 cycles: 240508956 heartbeat IPC: 1.248 cumulative IPC: 1.579 (Simulation time: 01 hr 08 min 50 sec)
Heartbeat CPU 0 instructions: 420000004 cycles: 248504444 heartbeat IPC: 1.251 cumulative IPC: 1.568 (Simulation time: 01 hr 11 min 00 sec)
Heartbeat CPU 0 instructions: 430000002 cycles: 256553204 heartbeat IPC: 1.242 cumulative IPC: 1.557 (Simulation time: 01 hr 13 min 12 sec)
Heartbeat CPU 0 instructions: 440000004 cycles: 372663509 heartbeat IPC: 0.08613 cumulative IPC: 1.083 (Simulation time: 01 hr 35 min 40 sec)
Heartbeat CPU 0 instructions: 450000003 cycles: 382776986 heartbeat IPC: 0.9888 cumulative IPC: 1.08 (Simulation time: 01 hr 38 min 14 sec)
Heartbeat CPU 0 instructions: 460000004 cycles: 393009480 heartbeat IPC: 0.9773 cumulative IPC: 1.078 (Simulation time: 01 hr 40 min 51 sec)
Heartbeat CPU 0 instructions: 470000002 cycles: 403126675 heartbeat IPC: 0.9884 cumulative IPC: 1.075 (Simulation time: 01 hr 43 min 21 sec)
Heartbeat CPU 0 instructions: 480000004 cycles: 413238031 heartbeat IPC: 0.989 cumulative IPC: 1.073 (Simulation time: 01 hr 45 min 56 sec)
Heartbeat CPU 0 instructions: 490000002 cycles: 423620053 heartbeat IPC: 0.9632 cumulative IPC: 1.07 (Simulation time: 01 hr 48 min 32 sec)
Heartbeat CPU 0 instructions: 500000003 cycles: 436534329 heartbeat IPC: 0.7743 cumulative IPC: 1.061 (Simulation time: 01 hr 51 min 41 sec)
Heartbeat CPU 0 instructions: 510000003 cycles: 449407762 heartbeat IPC: 0.7768 cumulative IPC: 1.053 (Simulation time: 01 hr 54 min 48 sec)
Heartbeat CPU 0 instructions: 520000000 cycles: 462608399 heartbeat IPC: 0.7575 cumulative IPC: 1.044 (Simulation time: 01 hr 58 min 00 sec)
Heartbeat CPU 0 instructions: 530000004 cycles: 475548642 heartbeat IPC: 0.7728 cumulative IPC: 1.037 (Simulation time: 02 hr 01 min 10 sec)
Heartbeat CPU 0 instructions: 540000002 cycles: 488527165 heartbeat IPC: 0.7705 cumulative IPC: 1.029 (Simulation time: 02 hr 04 min 18 sec)
Heartbeat CPU 0 instructions: 550000002 cycles: 499908704 heartbeat IPC: 0.8786 cumulative IPC: 1.026 (Simulation time: 02 hr 07 min 04 sec)
Heartbeat CPU 0 instructions: 560000000 cycles: 511085346 heartbeat IPC: 0.8947 cumulative IPC: 1.023 (Simulation time: 02 hr 09 min 48 sec)
Heartbeat CPU 0 instructions: 570000002 cycles: 522249870 heartbeat IPC: 0.8957 cumulative IPC: 1.02 (Simulation time: 02 hr 12 min 33 sec)
Heartbeat CPU 0 instructions: 580000000 cycles: 533394565 heartbeat IPC: 0.8973 cumulative IPC: 1.017 (Simulation time: 02 hr 15 min 19 sec)
Heartbeat CPU 0 instructions: 590000003 cycles: 544550559 heartbeat IPC: 0.8964 cumulative IPC: 1.015 (Simulation time: 02 hr 18 min 08 sec)
*** Reached end of trace: (0, "traces/lu.A.champsimtrace")
Heartbeat CPU 0 instructions: 600000001 cycles: 555793981 heartbeat IPC: 0.8894 cumulative IPC: 1.012 (Simulation time: 02 hr 20 min 56 sec)
Heartbeat CPU 0 instructions: 610000000 cycles: 562824161 heartbeat IPC: 1.422 cumulative IPC: 1.018 (Simulation time: 02 hr 22 min 49 sec)
Heartbeat CPU 0 instructions: 620000000 cycles: 565324785 heartbeat IPC: 3.999 cumulative IPC: 1.031 (Simulation time: 02 hr 23 min 56 sec)
Heartbeat CPU 0 instructions: 630000004 cycles: 567825062 heartbeat IPC: 4 cumulative IPC: 1.044 (Simulation time: 02 hr 24 min 57 sec)
Heartbeat CPU 0 instructions: 640000002 cycles: 570325062 heartbeat IPC: 4 cumulative IPC: 1.058 (Simulation time: 02 hr 26 min 05 sec)
Heartbeat CPU 0 instructions: 650000001 cycles: 572825289 heartbeat IPC: 4 cumulative IPC: 1.071 (Simulation time: 02 hr 27 min 10 sec)
Simulation finished CPU 0 instructions: 600000001 cycles: 560325087 cumulative IPC: 1.071 (Simulation time: 02 hr 27 min 10 sec)
Simulation complete CPU 0 instructions: 600000001 cycles: 560325087 cumulative IPC: 1.071 (Simulation time: 02 hr 27 min 10 sec)

ChampSim completed all CPUs

=== Simulation ===
CPU 0 runs traces/lu.A.champsimtrace
Region of Interest Statistics

CPU 0 cumulative IPC: 1.071 instructions: 600000001 cycles: 560325087
CPU 0 Branch Prediction Accuracy: 99.98% MPKI: 0.004037 Average ROB Occupancy at Mispredict: 116.9
Branch type MPKI
BRANCH_DIRECT_JUMP: 5e-06
BRANCH_INDIRECT: 7.33e-05
BRANCH_CONDITIONAL: 0.0039
BRANCH_DIRECT_CALL: 6.67e-06
BRANCH_INDIRECT_CALL: 3.17e-05
BRANCH_RETURN: 1.83e-05

LLC TOTAL        ACCESS:    6237638 HIT:    2693918 MISS:    3543720
LLC LOAD         ACCESS:    2481308 HIT:     541845 MISS:    1939463
LLC RFO          ACCESS:     831676 HIT:       5074 MISS:     826602
LLC PREFETCH     ACCESS:    1130504 HIT:     356935 MISS:     773569
LLC WRITE        ACCESS:    1782302 HIT:    1780967 MISS:       1335
LLC TRANSLATION  ACCESS:      11848 HIT:       9097 MISS:       2751
LLC PREFETCH REQUESTED:    1130504 ISSUED:    1130504 USEFUL:     530747 USELESS:       7967
LLC AVERAGE MISS LATENCY: 1024 cycles
cpu0_DTLB TOTAL        ACCESS:  126057253 HIT:  118658726 MISS:    7398527
cpu0_DTLB LOAD         ACCESS:  126057253 HIT:  118658726 MISS:    7398527
cpu0_DTLB RFO          ACCESS:          0 HIT:          0 MISS:          0
cpu0_DTLB PREFETCH     ACCESS:          0 HIT:          0 MISS:          0
cpu0_DTLB WRITE        ACCESS:          0 HIT:          0 MISS:          0
cpu0_DTLB TRANSLATION  ACCESS:          0 HIT:          0 MISS:          0
cpu0_DTLB PREFETCH REQUESTED:          0 ISSUED:          0 USEFUL:          0 USELESS:          0
cpu0_DTLB AVERAGE MISS LATENCY: 4.914 cycles
cpu0_ITLB TOTAL        ACCESS:    1263862 HIT:    1263630 MISS:        232
cpu0_ITLB LOAD         ACCESS:    1263862 HIT:    1263630 MISS:        232
cpu0_ITLB RFO          ACCESS:          0 HIT:          0 MISS:          0
cpu0_ITLB PREFETCH     ACCESS:          0 HIT:          0 MISS:          0
cpu0_ITLB WRITE        ACCESS:          0 HIT:          0 MISS:          0
cpu0_ITLB TRANSLATION  ACCESS:          0 HIT:          0 MISS:          0
cpu0_ITLB PREFETCH REQUESTED:          0 ISSUED:          0 USEFUL:          0 USELESS:          0
cpu0_ITLB AVERAGE MISS LATENCY: 307 cycles
cpu0_L1D TOTAL        ACCESS:  180579401 HIT:  170586229 MISS:    9993172
cpu0_L1D LOAD         ACCESS:  143527272 HIT:  137412522 MISS:    6114750
cpu0_L1D RFO          ACCESS:          0 HIT:          0 MISS:          0
cpu0_L1D PREFETCH     ACCESS:          0 HIT:          0 MISS:          0
cpu0_L1D WRITE        ACCESS:   36999529 HIT:   33145995 MISS:    3853534
cpu0_L1D TRANSLATION  ACCESS:      52600 HIT:      27712 MISS:      24888
cpu0_L1D PREFETCH REQUESTED:          0 ISSUED:          0 USEFUL:          0 USELESS:          0
cpu0_L1D AVERAGE MISS LATENCY: 292.5 cycles
cpu0_L1I TOTAL        ACCESS:    1590490 HIT:    1587611 MISS:       2879
cpu0_L1I LOAD         ACCESS:    1590490 HIT:    1587611 MISS:       2879
cpu0_L1I RFO          ACCESS:          0 HIT:          0 MISS:          0
cpu0_L1I PREFETCH     ACCESS:          0 HIT:          0 MISS:          0
cpu0_L1I WRITE        ACCESS:          0 HIT:          0 MISS:          0
cpu0_L1I TRANSLATION  ACCESS:          0 HIT:          0 MISS:          0
cpu0_L1I PREFETCH REQUESTED:          0 ISSUED:          0 USEFUL:          0 USELESS:          0
cpu0_L1I AVERAGE MISS LATENCY: 505.4 cycles
cpu0_L2C TOTAL        ACCESS:    5978743 HIT:    2649604 MISS:    3329139
cpu0_L2C LOAD         ACCESS:    3057424 HIT:     576116 MISS:    2481308
cpu0_L2C RFO          ACCESS:     878614 HIT:      46938 MISS:     831676
cpu0_L2C PREFETCH     ACCESS:          0 HIT:          0 MISS:          0
cpu0_L2C WRITE        ACCESS:    2017864 HIT:    2013557 MISS:       4307
cpu0_L2C TRANSLATION  ACCESS:      24841 HIT:      12993 MISS:      11848
cpu0_L2C PREFETCH REQUESTED:          0 ISSUED:          0 USEFUL:          0 USELESS:          0
cpu0_L2C AVERAGE MISS LATENCY: 939.9 cycles
cpu0_STLB TOTAL        ACCESS:    3993641 HIT:    3941055 MISS:      52586
cpu0_STLB LOAD         ACCESS:    3993641 HIT:    3941055 MISS:      52586
cpu0_STLB RFO          ACCESS:          0 HIT:          0 MISS:          0
cpu0_STLB PREFETCH     ACCESS:          0 HIT:          0 MISS:          0
cpu0_STLB WRITE        ACCESS:          0 HIT:          0 MISS:          0
cpu0_STLB TRANSLATION  ACCESS:          0 HIT:          0 MISS:          0
cpu0_STLB PREFETCH REQUESTED:          0 ISSUED:          0 USEFUL:          0 USELESS:          0
cpu0_STLB AVERAGE MISS LATENCY: 456.7 cycles

DRAM Statistics

Channel 0 RQ ROW_BUFFER_HIT:     825400
  ROW_BUFFER_MISS:    2304328
 AVG DBUS CONGESTED CYCLE: 3.941
WQ ROW_BUFFER_HIT: Channel 0 
  ROW_BUFFER_MISS:     297128
  FULL:    1384861
