WARNING: physical memory size is smaller than virtual memory size.

*** ChampSim Multicore Out-of-Order Simulator ***
Warmup Instructions: 50000000
Simulation Instructions: 600000000
Number of CPUs: 1
Page size: 4096

CPU 0 Tage branch predictor
Off-chip DRAM Size: 4 GiB Channels: 1 Width: 64-bit Data Race: 3200 MT/s
Heartbeat CPU 0 instructions: 10000000 cycles: 2500202 heartbeat IPC: 4 cumulative IPC: 4 (Simulation time: 00 hr 00 min 52 sec)
Heartbeat CPU 0 instructions: 20000000 cycles: 5000202 heartbeat IPC: 4 cumulative IPC: 4 (Simulation time: 00 hr 01 min 44 sec)
Heartbeat CPU 0 instructions: 30000000 cycles: 7500202 heartbeat IPC: 4 cumulative IPC: 4 (Simulation time: 00 hr 02 min 39 sec)
Heartbeat CPU 0 instructions: 40000000 cycles: 10000202 heartbeat IPC: 4 cumulative IPC: 4 (Simulation time: 00 hr 03 min 30 sec)
Heartbeat CPU 0 instructions: 50000000 cycles: 12500202 heartbeat IPC: 4 cumulative IPC: 4 (Simulation time: 00 hr 04 min 19 sec)
Warmup finished CPU 0 instructions: 50000000 cycles: 12500203 cumulative IPC: 4 (Simulation time: 00 hr 04 min 19 sec)
Warmup complete CPU 0 instructions: 50000000 cycles: 12500203 cumulative IPC: 4 (Simulation time: 00 hr 04 min 19 sec)
Heartbeat CPU 0 instructions: 60000004 cycles: 15000207 heartbeat IPC: 4 cumulative IPC: 4 (Simulation time: 00 hr 05 min 14 sec)
Heartbeat CPU 0 instructions: 70000001 cycles: 17500204 heartbeat IPC: 4 cumulative IPC: 4 (Simulation time: 00 hr 06 min 08 sec)
Heartbeat CPU 0 instructions: 80000004 cycles: 20000207 heartbeat IPC: 4 cumulative IPC: 4 (Simulation time: 00 hr 07 min 04 sec)
Heartbeat CPU 0 instructions: 90000000 cycles: 22501599 heartbeat IPC: 3.998 cumulative IPC: 3.999 (Simulation time: 00 hr 07 min 59 sec)
Heartbeat CPU 0 instructions: 100000004 cycles: 25002155 heartbeat IPC: 3.999 cumulative IPC: 3.999 (Simulation time: 00 hr 08 min 55 sec)
Heartbeat CPU 0 instructions: 110000003 cycles: 27503591 heartbeat IPC: 3.998 cumulative IPC: 3.999 (Simulation time: 00 hr 09 min 49 sec)
Heartbeat CPU 0 instructions: 120000004 cycles: 30005117 heartbeat IPC: 3.998 cumulative IPC: 3.999 (Simulation time: 00 hr 10 min 44 sec)
Heartbeat CPU 0 instructions: 130000000 cycles: 32508275 heartbeat IPC: 3.995 cumulative IPC: 3.998 (Simulation time: 00 hr 11 min 39 sec)
Heartbeat CPU 0 instructions: 140000004 cycles: 35008486 heartbeat IPC: 4 cumulative IPC: 3.999 (Simulation time: 00 hr 12 min 34 sec)
Heartbeat CPU 0 instructions: 150000000 cycles: 37509761 heartbeat IPC: 3.998 cumulative IPC: 3.998 (Simulation time: 00 hr 13 min 28 sec)
Heartbeat CPU 0 instructions: 160000001 cycles: 40011118 heartbeat IPC: 3.998 cumulative IPC: 3.998 (Simulation time: 00 hr 14 min 23 sec)
Heartbeat CPU 0 instructions: 170000000 cycles: 42512538 heartbeat IPC: 3.998 cumulative IPC: 3.998 (Simulation time: 00 hr 15 min 17 sec)
Heartbeat CPU 0 instructions: 180000003 cycles: 45014549 heartbeat IPC: 3.997 cumulative IPC: 3.998 (Simulation time: 00 hr 16 min 11 sec)
Heartbeat CPU 0 instructions: 190000003 cycles: 47516479 heartbeat IPC: 3.997 cumulative IPC: 3.998 (Simulation time: 00 hr 17 min 06 sec)
Heartbeat CPU 0 instructions: 200000002 cycles: 50018785 heartbeat IPC: 3.996 cumulative IPC: 3.998 (Simulation time: 00 hr 18 min 00 sec)
Heartbeat CPU 0 instructions: 210000000 cycles: 52519949 heartbeat IPC: 3.998 cumulative IPC: 3.998 (Simulation time: 00 hr 18 min 54 sec)
Heartbeat CPU 0 instructions: 220000002 cycles: 55021516 heartbeat IPC: 3.997 cumulative IPC: 3.998 (Simulation time: 00 hr 19 min 48 sec)
Heartbeat CPU 0 instructions: 230000003 cycles: 57522700 heartbeat IPC: 3.998 cumulative IPC: 3.998 (Simulation time: 00 hr 20 min 42 sec)
Heartbeat CPU 0 instructions: 240000000 cycles: 89565044 heartbeat IPC: 0.3121 cumulative IPC: 2.465 (Simulation time: 00 hr 25 min 31 sec)
Heartbeat CPU 0 instructions: 250000000 cycles: 98263105 heartbeat IPC: 1.15 cumulative IPC: 2.332 (Simulation time: 00 hr 27 min 28 sec)
Heartbeat CPU 0 instructions: 260000003 cycles: 106982231 heartbeat IPC: 1.147 cumulative IPC: 2.223 (Simulation time: 00 hr 29 min 25 sec)
Heartbeat CPU 0 instructions: 270000004 cycles: 114668377 heartbeat IPC: 1.301 cumulative IPC: 2.153 (Simulation time: 00 hr 31 min 11 sec)
Heartbeat CPU 0 instructions: 280000003 cycles: 120261736 heartbeat IPC: 1.788 cumulative IPC: 2.134 (Simulation time: 00 hr 32 min 37 sec)
Heartbeat CPU 0 instructions: 290000000 cycles: 125851759 heartbeat IPC: 1.789 cumulative IPC: 2.117 (Simulation time: 00 hr 34 min 04 sec)
Heartbeat CPU 0 instructions: 300000003 cycles: 131444570 heartbeat IPC: 1.788 cumulative IPC: 2.102 (Simulation time: 00 hr 35 min 30 sec)
Heartbeat CPU 0 instructions: 310000003 cycles: 137026742 heartbeat IPC: 1.791 cumulative IPC: 2.088 (Simulation time: 00 hr 36 min 56 sec)
Heartbeat CPU 0 instructions: 320000003 cycles: 143117844 heartbeat IPC: 1.642 cumulative IPC: 2.067 (Simulation time: 00 hr 38 min 28 sec)
Heartbeat CPU 0 instructions: 330000003 cycles: 151296042 heartbeat IPC: 1.223 cumulative IPC: 2.017 (Simulation time: 00 hr 40 min 23 sec)
Heartbeat CPU 0 instructions: 340000001 cycles: 159434954 heartbeat IPC: 1.229 cumulative IPC: 1.974 (Simulation time: 00 hr 42 min 18 sec)
Heartbeat CPU 0 instructions: 350000001 cycles: 167496788 heartbeat IPC: 1.24 cumulative IPC: 1.936 (Simulation time: 00 hr 44 min 12 sec)
Heartbeat CPU 0 instructions: 360000002 cycles: 175607978 heartbeat IPC: 1.233 cumulative IPC: 1.901 (Simulation time: 00 hr 46 min 07 sec)
Heartbeat CPU 0 instructions: 370000002 cycles: 183670649 heartbeat IPC: 1.24 cumulative IPC: 1.869 (Simulation time: 00 hr 48 min 01 sec)
Heartbeat CPU 0 instructions: 380000001 cycles: 191838351 heartbeat IPC: 1.224 cumulative IPC: 1.84 (Simulation time: 00 hr 49 min 56 sec)
Heartbeat CPU 0 instructions: 390000003 cycles: 200130789 heartbeat IPC: 1.206 cumulative IPC: 1.812 (Simulation time: 00 hr 51 min 56 sec)
Heartbeat CPU 0 instructions: 400000004 cycles: 208380530 heartbeat IPC: 1.212 cumulative IPC: 1.787 (Simulation time: 00 hr 53 min 54 sec)
Heartbeat CPU 0 instructions: 410000001 cycles: 217286344 heartbeat IPC: 1.123 cumulative IPC: 1.758 (Simulation time: 00 hr 55 min 57 sec)
Heartbeat CPU 0 instructions: 420000000 cycles: 225429204 heartbeat IPC: 1.228 cumulative IPC: 1.738 (Simulation time: 00 hr 57 min 52 sec)
Heartbeat CPU 0 instructions: 430000003 cycles: 233143079 heartbeat IPC: 1.296 cumulative IPC: 1.722 (Simulation time: 00 hr 59 min 42 sec)
Heartbeat CPU 0 instructions: 440000004 cycles: 364984607 heartbeat IPC: 0.07585 cumulative IPC: 1.106 (Simulation time: 01 hr 20 min 05 sec)
Heartbeat CPU 0 instructions: 450000002 cycles: 373891805 heartbeat IPC: 1.123 cumulative IPC: 1.107 (Simulation time: 01 hr 21 min 46 sec)
Heartbeat CPU 0 instructions: 460000000 cycles: 383078338 heartbeat IPC: 1.089 cumulative IPC: 1.106 (Simulation time: 01 hr 23 min 29 sec)
Heartbeat CPU 0 instructions: 470000003 cycles: 391636363 heartbeat IPC: 1.168 cumulative IPC: 1.108 (Simulation time: 01 hr 25 min 04 sec)
Heartbeat CPU 0 instructions: 480000003 cycles: 400978934 heartbeat IPC: 1.07 cumulative IPC: 1.107 (Simulation time: 01 hr 26 min 43 sec)
Heartbeat CPU 0 instructions: 490000002 cycles: 410360026 heartbeat IPC: 1.066 cumulative IPC: 1.106 (Simulation time: 01 hr 28 min 24 sec)
Heartbeat CPU 0 instructions: 500000004 cycles: 425231201 heartbeat IPC: 0.6724 cumulative IPC: 1.09 (Simulation time: 01 hr 30 min 51 sec)
Heartbeat CPU 0 instructions: 510000003 cycles: 441132407 heartbeat IPC: 0.6289 cumulative IPC: 1.073 (Simulation time: 01 hr 33 min 27 sec)
Heartbeat CPU 0 instructions: 520000003 cycles: 456519794 heartbeat IPC: 0.6499 cumulative IPC: 1.059 (Simulation time: 01 hr 35 min 58 sec)
Heartbeat CPU 0 instructions: 530000001 cycles: 472717484 heartbeat IPC: 0.6174 cumulative IPC: 1.043 (Simulation time: 01 hr 38 min 36 sec)
Heartbeat CPU 0 instructions: 540000001 cycles: 488390951 heartbeat IPC: 0.638 cumulative IPC: 1.03 (Simulation time: 01 hr 41 min 09 sec)
Heartbeat CPU 0 instructions: 550000000 cycles: 500617998 heartbeat IPC: 0.8179 cumulative IPC: 1.024 (Simulation time: 01 hr 43 min 13 sec)
Heartbeat CPU 0 instructions: 560000002 cycles: 511336640 heartbeat IPC: 0.933 cumulative IPC: 1.022 (Simulation time: 01 hr 45 min 01 sec)
Heartbeat CPU 0 instructions: 570000000 cycles: 522158753 heartbeat IPC: 0.924 cumulative IPC: 1.02 (Simulation time: 01 hr 46 min 51 sec)
Heartbeat CPU 0 instructions: 580000001 cycles: 533007911 heartbeat IPC: 0.9217 cumulative IPC: 1.018 (Simulation time: 01 hr 48 min 40 sec)
Heartbeat CPU 0 instructions: 590000000 cycles: 543974551 heartbeat IPC: 0.9119 cumulative IPC: 1.016 (Simulation time: 01 hr 50 min 30 sec)
*** Reached end of trace: (0, "traces/lu.A.champsimtrace")
Heartbeat CPU 0 instructions: 600000001 cycles: 555007463 heartbeat IPC: 0.9064 cumulative IPC: 1.014 (Simulation time: 01 hr 52 min 38 sec)
Heartbeat CPU 0 instructions: 610000004 cycles: 564587057 heartbeat IPC: 1.044 cumulative IPC: 1.014 (Simulation time: 01 hr 54 min 17 sec)
Heartbeat CPU 0 instructions: 620000003 cycles: 567089948 heartbeat IPC: 3.995 cumulative IPC: 1.028 (Simulation time: 01 hr 54 min 59 sec)
Heartbeat CPU 0 instructions: 630000002 cycles: 569591061 heartbeat IPC: 3.998 cumulative IPC: 1.041 (Simulation time: 01 hr 55 min 42 sec)
Heartbeat CPU 0 instructions: 640000000 cycles: 572092422 heartbeat IPC: 3.998 cumulative IPC: 1.054 (Simulation time: 01 hr 56 min 24 sec)
Heartbeat CPU 0 instructions: 650000004 cycles: 574593174 heartbeat IPC: 3.999 cumulative IPC: 1.067 (Simulation time: 01 hr 57 min 07 sec)
Simulation finished CPU 0 instructions: 600000004 cycles: 562092972 cumulative IPC: 1.067 (Simulation time: 01 hr 57 min 07 sec)
Simulation complete CPU 0 instructions: 600000004 cycles: 562092972 cumulative IPC: 1.067 (Simulation time: 01 hr 57 min 07 sec)

ChampSim completed all CPUs

=== Simulation ===
CPU 0 runs traces/lu.A.champsimtrace
Region of Interest Statistics

CPU 0 cumulative IPC: 1.067 instructions: 600000004 cycles: 562092972
CPU 0 Branch Prediction Accuracy: 99.98% MPKI: 0.0041 Average ROB Occupancy at Mispredict: 120.9
Branch type MPKI
BRANCH_DIRECT_JUMP: 5e-06
BRANCH_INDIRECT: 7.83e-05
BRANCH_CONDITIONAL: 0.00396
BRANCH_DIRECT_CALL: 6.67e-06
BRANCH_INDIRECT_CALL: 3.5e-05
BRANCH_RETURN: 1.83e-05

LLC TOTAL        ACCESS:    5106236 HIT:     850887 MISS:    4255349
LLC LOAD         ACCESS:    2480805 HIT:     190600 MISS:    2290205
LLC RFO          ACCESS:     831649 HIT:      10252 MISS:     821397
LLC PREFETCH     ACCESS:          0 HIT:          0 MISS:          0
LLC WRITE        ACCESS:    1781900 HIT:     649129 MISS:    1132771
LLC TRANSLATION  ACCESS:      11882 HIT:        906 MISS:      10976
LLC PREFETCH REQUESTED:          0 ISSUED:          0 USEFUL:          0 USELESS:          0
LLC AVERAGE MISS LATENCY: 745.1 cycles
cpu0_DTLB TOTAL        ACCESS:  125291301 HIT:  117833215 MISS:    7458086
cpu0_DTLB LOAD         ACCESS:  125291301 HIT:  117833215 MISS:    7458086
cpu0_DTLB RFO          ACCESS:          0 HIT:          0 MISS:          0
cpu0_DTLB PREFETCH     ACCESS:          0 HIT:          0 MISS:          0
cpu0_DTLB WRITE        ACCESS:          0 HIT:          0 MISS:          0
cpu0_DTLB TRANSLATION  ACCESS:          0 HIT:          0 MISS:          0
cpu0_DTLB PREFETCH REQUESTED:          0 ISSUED:          0 USEFUL:          0 USELESS:          0
cpu0_DTLB AVERAGE MISS LATENCY: 6.828 cycles
cpu0_ITLB TOTAL        ACCESS:    1263202 HIT:    1262970 MISS:        232
cpu0_ITLB LOAD         ACCESS:    1263202 HIT:    1262970 MISS:        232
cpu0_ITLB RFO          ACCESS:          0 HIT:          0 MISS:          0
cpu0_ITLB PREFETCH     ACCESS:          0 HIT:          0 MISS:          0
cpu0_ITLB WRITE        ACCESS:          0 HIT:          0 MISS:          0
cpu0_ITLB TRANSLATION  ACCESS:          0 HIT:          0 MISS:          0
cpu0_ITLB PREFETCH REQUESTED:          0 ISSUED:          0 USEFUL:          0 USELESS:          0
cpu0_ITLB AVERAGE MISS LATENCY: 336.9 cycles
cpu0_L1D TOTAL        ACCESS:  178948156 HIT:  169380870 MISS:    9567286
cpu0_L1D LOAD         ACCESS:  141896418 HIT:  136083693 MISS:    5812725
cpu0_L1D RFO          ACCESS:          0 HIT:          0 MISS:          0
cpu0_L1D PREFETCH     ACCESS:          0 HIT:          0 MISS:          0
cpu0_L1D WRITE        ACCESS:   36999139 HIT:   33269809 MISS:    3729330
cpu0_L1D TRANSLATION  ACCESS:      52599 HIT:      27368 MISS:      25231
cpu0_L1D PREFETCH REQUESTED:          0 ISSUED:          0 USEFUL:          0 USELESS:          0
cpu0_L1D AVERAGE MISS LATENCY: 318 cycles
cpu0_L1I TOTAL        ACCESS:    1590452 HIT:    1587499 MISS:       2953
cpu0_L1I LOAD         ACCESS:    1590452 HIT:    1587499 MISS:       2953
cpu0_L1I RFO          ACCESS:          0 HIT:          0 MISS:          0
cpu0_L1I PREFETCH     ACCESS:          0 HIT:          0 MISS:          0
cpu0_L1I WRITE        ACCESS:          0 HIT:          0 MISS:          0
cpu0_L1I TRANSLATION  ACCESS:          0 HIT:          0 MISS:          0
cpu0_L1I PREFETCH REQUESTED:          0 ISSUED:          0 USEFUL:          0 USELESS:          0
cpu0_L1I AVERAGE MISS LATENCY: 530.5 cycles
cpu0_L2C TOTAL        ACCESS:    5947880 HIT:    2619226 MISS:    3328654
cpu0_L2C LOAD         ACCESS:    3043336 HIT:     562531 MISS:    2480805
cpu0_L2C RFO          ACCESS:     876792 HIT:      45143 MISS:     831649
cpu0_L2C PREFETCH     ACCESS:          0 HIT:          0 MISS:          0
cpu0_L2C WRITE        ACCESS:    2002572 HIT:    1998254 MISS:       4318
cpu0_L2C TRANSLATION  ACCESS:      25180 HIT:      13298 MISS:      11882
cpu0_L2C PREFETCH REQUESTED:          0 ISSUED:          0 USEFUL:          0 USELESS:          0
cpu0_L2C AVERAGE MISS LATENCY: 973.4 cycles
cpu0_STLB TOTAL        ACCESS:    4047674 HIT:    3995091 MISS:      52583
cpu0_STLB LOAD         ACCESS:    4047674 HIT:    3995091 MISS:      52583
cpu0_STLB RFO          ACCESS:          0 HIT:          0 MISS:          0
cpu0_STLB PREFETCH     ACCESS:          0 HIT:          0 MISS:          0
cpu0_STLB WRITE        ACCESS:          0 HIT:          0 MISS:          0
cpu0_STLB TRANSLATION  ACCESS:          0 HIT:          0 MISS:          0
cpu0_STLB PREFETCH REQUESTED:          0 ISSUED:          0 USEFUL:          0 USELESS:          0
cpu0_STLB AVERAGE MISS LATENCY: 814.5 cycles

DRAM Statistics

Channel 0 RQ ROW_BUFFER_HIT:     806656
  ROW_BUFFER_MISS:    2314710
 AVG DBUS CONGESTED CYCLE: 3.935
WQ ROW_BUFFER_HIT: Channel 0 
  ROW_BUFFER_MISS:     483067
  FULL:    1209470
