WARNING: physical memory size is smaller than virtual memory size.

*** ChampSim Multicore Out-of-Order Simulator ***
Warmup Instructions: 50000000
Simulation Instructions: 600000000
Number of CPUs: 1
Page size: 4096

CPU 0 Tage branch predictor
Off-chip DRAM Size: 4 GiB Channels: 1 Width: 64-bit Data Race: 3200 MT/s
Heartbeat CPU 0 instructions: 10000000 cycles: 2500202 heartbeat IPC: 4 cumulative IPC: 4 (Simulation time: 00 hr 00 min 44 sec)
Heartbeat CPU 0 instructions: 20000000 cycles: 5000202 heartbeat IPC: 4 cumulative IPC: 4 (Simulation time: 00 hr 01 min 30 sec)
Heartbeat CPU 0 instructions: 30000000 cycles: 7500202 heartbeat IPC: 4 cumulative IPC: 4 (Simulation time: 00 hr 02 min 19 sec)
Heartbeat CPU 0 instructions: 40000000 cycles: 10000202 heartbeat IPC: 4 cumulative IPC: 4 (Simulation time: 00 hr 03 min 07 sec)
Heartbeat CPU 0 instructions: 50000000 cycles: 12500202 heartbeat IPC: 4 cumulative IPC: 4 (Simulation time: 00 hr 03 min 52 sec)
Warmup finished CPU 0 instructions: 50000000 cycles: 12500203 cumulative IPC: 4 (Simulation time: 00 hr 03 min 52 sec)
Warmup complete CPU 0 instructions: 50000000 cycles: 12500203 cumulative IPC: 4 (Simulation time: 00 hr 03 min 52 sec)
Heartbeat CPU 0 instructions: 60000004 cycles: 15000241 heartbeat IPC: 4 cumulative IPC: 4 (Simulation time: 00 hr 04 min 45 sec)
Heartbeat CPU 0 instructions: 70000003 cycles: 17500265 heartbeat IPC: 4 cumulative IPC: 4 (Simulation time: 00 hr 05 min 35 sec)
Heartbeat CPU 0 instructions: 80000004 cycles: 20000549 heartbeat IPC: 4 cumulative IPC: 4 (Simulation time: 00 hr 06 min 24 sec)
Heartbeat CPU 0 instructions: 90000000 cycles: 22503588 heartbeat IPC: 3.995 cumulative IPC: 3.999 (Simulation time: 00 hr 07 min 19 sec)
Heartbeat CPU 0 instructions: 100000001 cycles: 25004551 heartbeat IPC: 3.998 cumulative IPC: 3.999 (Simulation time: 00 hr 08 min 33 sec)
Heartbeat CPU 0 instructions: 110000000 cycles: 27504585 heartbeat IPC: 4 cumulative IPC: 3.999 (Simulation time: 00 hr 09 min 40 sec)
Heartbeat CPU 0 instructions: 120000004 cycles: 30007352 heartbeat IPC: 3.996 cumulative IPC: 3.998 (Simulation time: 00 hr 10 min 48 sec)
Heartbeat CPU 0 instructions: 130000000 cycles: 32507567 heartbeat IPC: 4 cumulative IPC: 3.999 (Simulation time: 00 hr 11 min 53 sec)
Heartbeat CPU 0 instructions: 140000004 cycles: 35007590 heartbeat IPC: 4 cumulative IPC: 3.999 (Simulation time: 00 hr 12 min 55 sec)
Heartbeat CPU 0 instructions: 150000000 cycles: 37508368 heartbeat IPC: 3.999 cumulative IPC: 3.999 (Simulation time: 00 hr 14 min 03 sec)
Heartbeat CPU 0 instructions: 160000001 cycles: 40008657 heartbeat IPC: 4 cumulative IPC: 3.999 (Simulation time: 00 hr 15 min 05 sec)
Heartbeat CPU 0 instructions: 170000000 cycles: 42508925 heartbeat IPC: 4 cumulative IPC: 3.999 (Simulation time: 00 hr 16 min 07 sec)
Heartbeat CPU 0 instructions: 180000003 cycles: 45010357 heartbeat IPC: 3.998 cumulative IPC: 3.999 (Simulation time: 00 hr 17 min 06 sec)
Heartbeat CPU 0 instructions: 190000000 cycles: 47511111 heartbeat IPC: 3.999 cumulative IPC: 3.999 (Simulation time: 00 hr 18 min 11 sec)
Heartbeat CPU 0 instructions: 200000004 cycles: 50011774 heartbeat IPC: 3.999 cumulative IPC: 3.999 (Simulation time: 00 hr 19 min 16 sec)
Heartbeat CPU 0 instructions: 210000004 cycles: 52511966 heartbeat IPC: 4 cumulative IPC: 3.999 (Simulation time: 00 hr 20 min 19 sec)
Heartbeat CPU 0 instructions: 220000001 cycles: 55013502 heartbeat IPC: 3.998 cumulative IPC: 3.999 (Simulation time: 00 hr 21 min 29 sec)
Heartbeat CPU 0 instructions: 230000000 cycles: 57513504 heartbeat IPC: 4 cumulative IPC: 3.999 (Simulation time: 00 hr 22 min 36 sec)
Heartbeat CPU 0 instructions: 240000000 cycles: 91060950 heartbeat IPC: 0.2981 cumulative IPC: 2.419 (Simulation time: 00 hr 27 min 41 sec)
Heartbeat CPU 0 instructions: 250000001 cycles: 100323729 heartbeat IPC: 1.08 cumulative IPC: 2.277 (Simulation time: 00 hr 29 min 48 sec)
Heartbeat CPU 0 instructions: 260000001 cycles: 109261154 heartbeat IPC: 1.119 cumulative IPC: 2.17 (Simulation time: 00 hr 31 min 53 sec)
Heartbeat CPU 0 instructions: 270000003 cycles: 121317731 heartbeat IPC: 0.8294 cumulative IPC: 2.022 (Simulation time: 00 hr 34 min 31 sec)
Heartbeat CPU 0 instructions: 280000002 cycles: 133876783 heartbeat IPC: 0.7962 cumulative IPC: 1.895 (Simulation time: 00 hr 37 min 11 sec)
Heartbeat CPU 0 instructions: 290000000 cycles: 145336744 heartbeat IPC: 0.8726 cumulative IPC: 1.807 (Simulation time: 00 hr 39 min 45 sec)
Heartbeat CPU 0 instructions: 300000002 cycles: 154744902 heartbeat IPC: 1.063 cumulative IPC: 1.758 (Simulation time: 00 hr 41 min 51 sec)
Heartbeat CPU 0 instructions: 310000002 cycles: 163939524 heartbeat IPC: 1.088 cumulative IPC: 1.717 (Simulation time: 00 hr 43 min 59 sec)
Heartbeat CPU 0 instructions: 320000001 cycles: 172842734 heartbeat IPC: 1.123 cumulative IPC: 1.684 (Simulation time: 00 hr 46 min 04 sec)
Heartbeat CPU 0 instructions: 330000002 cycles: 180414762 heartbeat IPC: 1.321 cumulative IPC: 1.668 (Simulation time: 00 hr 47 min 59 sec)
Heartbeat CPU 0 instructions: 340000004 cycles: 188423328 heartbeat IPC: 1.249 cumulative IPC: 1.648 (Simulation time: 00 hr 49 min 58 sec)
Heartbeat CPU 0 instructions: 350000003 cycles: 196400275 heartbeat IPC: 1.254 cumulative IPC: 1.631 (Simulation time: 00 hr 51 min 59 sec)
Heartbeat CPU 0 instructions: 360000001 cycles: 204025716 heartbeat IPC: 1.311 cumulative IPC: 1.619 (Simulation time: 00 hr 53 min 51 sec)
Heartbeat CPU 0 instructions: 370000002 cycles: 211549961 heartbeat IPC: 1.329 cumulative IPC: 1.608 (Simulation time: 00 hr 55 min 49 sec)
Heartbeat CPU 0 instructions: 380000003 cycles: 219005808 heartbeat IPC: 1.341 cumulative IPC: 1.598 (Simulation time: 00 hr 57 min 38 sec)
Heartbeat CPU 0 instructions: 390000000 cycles: 226469062 heartbeat IPC: 1.34 cumulative IPC: 1.589 (Simulation time: 00 hr 59 min 35 sec)
Heartbeat CPU 0 instructions: 400000001 cycles: 233927669 heartbeat IPC: 1.341 cumulative IPC: 1.581 (Simulation time: 01 hr 01 min 27 sec)
Heartbeat CPU 0 instructions: 410000002 cycles: 241237277 heartbeat IPC: 1.368 cumulative IPC: 1.574 (Simulation time: 01 hr 03 min 21 sec)
Heartbeat CPU 0 instructions: 420000004 cycles: 248524406 heartbeat IPC: 1.372 cumulative IPC: 1.568 (Simulation time: 01 hr 05 min 20 sec)
Heartbeat CPU 0 instructions: 430000002 cycles: 255741203 heartbeat IPC: 1.386 cumulative IPC: 1.562 (Simulation time: 01 hr 07 min 08 sec)
Heartbeat CPU 0 instructions: 440000004 cycles: 375772658 heartbeat IPC: 0.08331 cumulative IPC: 1.074 (Simulation time: 01 hr 28 min 10 sec)
Heartbeat CPU 0 instructions: 450000003 cycles: 385453428 heartbeat IPC: 1.033 cumulative IPC: 1.073 (Simulation time: 01 hr 30 min 24 sec)
Heartbeat CPU 0 instructions: 460000004 cycles: 394389857 heartbeat IPC: 1.119 cumulative IPC: 1.074 (Simulation time: 01 hr 32 min 28 sec)
Heartbeat CPU 0 instructions: 470000002 cycles: 405158657 heartbeat IPC: 0.9286 cumulative IPC: 1.07 (Simulation time: 01 hr 34 min 54 sec)
Heartbeat CPU 0 instructions: 480000004 cycles: 415662831 heartbeat IPC: 0.952 cumulative IPC: 1.067 (Simulation time: 01 hr 37 min 24 sec)
Heartbeat CPU 0 instructions: 490000002 cycles: 426187225 heartbeat IPC: 0.9502 cumulative IPC: 1.064 (Simulation time: 01 hr 39 min 57 sec)
Heartbeat CPU 0 instructions: 500000003 cycles: 438329476 heartbeat IPC: 0.8236 cumulative IPC: 1.057 (Simulation time: 01 hr 42 min 55 sec)
Heartbeat CPU 0 instructions: 510000002 cycles: 449672051 heartbeat IPC: 0.8816 cumulative IPC: 1.052 (Simulation time: 01 hr 45 min 44 sec)
Heartbeat CPU 0 instructions: 520000000 cycles: 463942349 heartbeat IPC: 0.7008 cumulative IPC: 1.041 (Simulation time: 01 hr 49 min 07 sec)
Heartbeat CPU 0 instructions: 530000004 cycles: 477316322 heartbeat IPC: 0.7477 cumulative IPC: 1.033 (Simulation time: 01 hr 52 min 24 sec)
Heartbeat CPU 0 instructions: 540000002 cycles: 490465420 heartbeat IPC: 0.7605 cumulative IPC: 1.025 (Simulation time: 01 hr 55 min 35 sec)
Heartbeat CPU 0 instructions: 550000002 cycles: 501249712 heartbeat IPC: 0.9273 cumulative IPC: 1.023 (Simulation time: 01 hr 58 min 16 sec)
Heartbeat CPU 0 instructions: 560000000 cycles: 511723396 heartbeat IPC: 0.9548 cumulative IPC: 1.022 (Simulation time: 02 hr 00 min 48 sec)
Heartbeat CPU 0 instructions: 570000002 cycles: 522169398 heartbeat IPC: 0.9573 cumulative IPC: 1.02 (Simulation time: 02 hr 03 min 14 sec)
Heartbeat CPU 0 instructions: 580000000 cycles: 532284859 heartbeat IPC: 0.9886 cumulative IPC: 1.02 (Simulation time: 02 hr 05 min 42 sec)
Heartbeat CPU 0 instructions: 590000003 cycles: 542252442 heartbeat IPC: 1.003 cumulative IPC: 1.019 (Simulation time: 02 hr 08 min 10 sec)
*** Reached end of trace: (0, "traces/lu.A.champsimtrace")
Heartbeat CPU 0 instructions: 600000001 cycles: 552134600 heartbeat IPC: 1.012 cumulative IPC: 1.019 (Simulation time: 02 hr 10 min 29 sec)
Heartbeat CPU 0 instructions: 610000000 cycles: 559558264 heartbeat IPC: 1.347 cumulative IPC: 1.024 (Simulation time: 02 hr 12 min 17 sec)
Heartbeat CPU 0 instructions: 620000000 cycles: 562058265 heartbeat IPC: 4 cumulative IPC: 1.037 (Simulation time: 02 hr 13 min 16 sec)
Heartbeat CPU 0 instructions: 630000004 cycles: 564559016 heartbeat IPC: 3.999 cumulative IPC: 1.051 (Simulation time: 02 hr 14 min 14 sec)
Heartbeat CPU 0 instructions: 640000002 cycles: 567059016 heartbeat IPC: 4 cumulative IPC: 1.064 (Simulation time: 02 hr 15 min 12 sec)
Heartbeat CPU 0 instructions: 650000001 cycles: 569559491 heartbeat IPC: 3.999 cumulative IPC: 1.077 (Simulation time: 02 hr 16 min 10 sec)
Simulation finished CPU 0 instructions: 600000001 cycles: 557059289 cumulative IPC: 1.077 (Simulation time: 02 hr 16 min 10 sec)
Simulation complete CPU 0 instructions: 600000001 cycles: 557059289 cumulative IPC: 1.077 (Simulation time: 02 hr 16 min 10 sec)

ChampSim completed all CPUs

=== Simulation ===
CPU 0 runs traces/lu.A.champsimtrace
Region of Interest Statistics

CPU 0 cumulative IPC: 1.077 instructions: 600000001 cycles: 557059289
CPU 0 Branch Prediction Accuracy: 99.98% MPKI: 0.004037 Average ROB Occupancy at Mispredict: 116.8
Branch type MPKI
BRANCH_DIRECT_JUMP: 5e-06
BRANCH_INDIRECT: 7.33e-05
BRANCH_CONDITIONAL: 0.0039
BRANCH_DIRECT_CALL: 6.67e-06
BRANCH_INDIRECT_CALL: 3.17e-05
BRANCH_RETURN: 1.83e-05

LLC TOTAL        ACCESS:    6237963 HIT:    2120643 MISS:    4117320
LLC LOAD         ACCESS:    2481310 HIT:     669396 MISS:    1811914
LLC RFO          ACCESS:     831677 HIT:      19425 MISS:     812252
LLC PREFETCH     ACCESS:    1130776 HIT:     355928 MISS:     774848
LLC WRITE        ACCESS:    1782332 HIT:    1069300 MISS:     713032
LLC TRANSLATION  ACCESS:      11868 HIT:       6594 MISS:       5274
LLC PREFETCH REQUESTED:    1130776 ISSUED:    1130776 USEFUL:     528610 USELESS:      11430
LLC AVERAGE MISS LATENCY: 867.8 cycles
cpu0_DTLB TOTAL        ACCESS:  125827908 HIT:  118451150 MISS:    7376758
cpu0_DTLB LOAD         ACCESS:  125827908 HIT:  118451150 MISS:    7376758
cpu0_DTLB RFO          ACCESS:          0 HIT:          0 MISS:          0
cpu0_DTLB PREFETCH     ACCESS:          0 HIT:          0 MISS:          0
cpu0_DTLB WRITE        ACCESS:          0 HIT:          0 MISS:          0
cpu0_DTLB TRANSLATION  ACCESS:          0 HIT:          0 MISS:          0
cpu0_DTLB PREFETCH REQUESTED:          0 ISSUED:          0 USEFUL:          0 USELESS:          0
cpu0_DTLB AVERAGE MISS LATENCY: 5.366 cycles
cpu0_ITLB TOTAL        ACCESS:    1260271 HIT:    1260032 MISS:        239
cpu0_ITLB LOAD         ACCESS:    1260271 HIT:    1260032 MISS:        239
cpu0_ITLB RFO          ACCESS:          0 HIT:          0 MISS:          0
cpu0_ITLB PREFETCH     ACCESS:          0 HIT:          0 MISS:          0
cpu0_ITLB WRITE        ACCESS:          0 HIT:          0 MISS:          0
cpu0_ITLB TRANSLATION  ACCESS:          0 HIT:          0 MISS:          0
cpu0_ITLB PREFETCH REQUESTED:          0 ISSUED:          0 USEFUL:          0 USELESS:          0
cpu0_ITLB AVERAGE MISS LATENCY: 351 cycles
cpu0_L1D TOTAL        ACCESS:  180277588 HIT:  170388117 MISS:    9889471
cpu0_L1D LOAD         ACCESS:  143225438 HIT:  137187313 MISS:    6038125
cpu0_L1D RFO          ACCESS:          0 HIT:          0 MISS:          0
cpu0_L1D PREFETCH     ACCESS:          0 HIT:          0 MISS:          0
cpu0_L1D WRITE        ACCESS:   36999550 HIT:   33173120 MISS:    3826430
cpu0_L1D TRANSLATION  ACCESS:      52600 HIT:      27684 MISS:      24916
cpu0_L1D PREFETCH REQUESTED:          0 ISSUED:          0 USEFUL:          0 USELESS:          0
cpu0_L1D AVERAGE MISS LATENCY: 285.5 cycles
cpu0_L1I TOTAL        ACCESS:    1587939 HIT:    1585034 MISS:       2905
cpu0_L1I LOAD         ACCESS:    1587939 HIT:    1585034 MISS:       2905
cpu0_L1I RFO          ACCESS:          0 HIT:          0 MISS:          0
cpu0_L1I PREFETCH     ACCESS:          0 HIT:          0 MISS:          0
cpu0_L1I WRITE        ACCESS:          0 HIT:          0 MISS:          0
cpu0_L1I TRANSLATION  ACCESS:          0 HIT:          0 MISS:          0
cpu0_L1I PREFETCH REQUESTED:          0 ISSUED:          0 USEFUL:          0 USELESS:          0
cpu0_L1I AVERAGE MISS LATENCY: 550.7 cycles
cpu0_L2C TOTAL        ACCESS:    5980603 HIT:    2651440 MISS:    3329163
cpu0_L2C LOAD         ACCESS:    3059059 HIT:     577748 MISS:    2481311
cpu0_L2C RFO          ACCESS:     878497 HIT:      46820 MISS:     831677
cpu0_L2C PREFETCH     ACCESS:          0 HIT:          0 MISS:          0
cpu0_L2C WRITE        ACCESS:    2018180 HIT:    2013873 MISS:       4307
cpu0_L2C TRANSLATION  ACCESS:      24867 HIT:      12999 MISS:      11868
cpu0_L2C PREFETCH REQUESTED:          0 ISSUED:          0 USEFUL:          0 USELESS:          0
cpu0_L2C AVERAGE MISS LATENCY: 911.3 cycles
cpu0_STLB TOTAL        ACCESS:    3993699 HIT:    3941113 MISS:      52586
cpu0_STLB LOAD         ACCESS:    3993699 HIT:    3941113 MISS:      52586
cpu0_STLB RFO          ACCESS:          0 HIT:          0 MISS:          0
cpu0_STLB PREFETCH     ACCESS:          0 HIT:          0 MISS:          0
cpu0_STLB WRITE        ACCESS:          0 HIT:          0 MISS:          0
cpu0_STLB TRANSLATION  ACCESS:          0 HIT:          0 MISS:          0
cpu0_STLB PREFETCH REQUESTED:          0 ISSUED:          0 USEFUL:          0 USELESS:          0
cpu0_STLB AVERAGE MISS LATENCY: 532.2 cycles

DRAM Statistics

Channel 0 RQ ROW_BUFFER_HIT:     803299
  ROW_BUFFER_MISS:    2191727
 AVG DBUS CONGESTED CYCLE: 3.945
WQ ROW_BUFFER_HIT: Channel 0 
  ROW_BUFFER_MISS:     248055
  FULL:    1358727
