WARNING: physical memory size is smaller than virtual memory size.

*** ChampSim Multicore Out-of-Order Simulator ***
Warmup Instructions: 50000000
Simulation Instructions: 600000000
Number of CPUs: 1
Page size: 4096

Off-chip DRAM Size: 4 GiB Channels: 1 Width: 64-bit Data Race: 3200 MT/s
Heartbeat CPU 0 instructions: 10000000 cycles: 2500202 heartbeat IPC: 4 cumulative IPC: 4 (Simulation time: 00 hr 00 min 46 sec)
Heartbeat CPU 0 instructions: 20000000 cycles: 5000202 heartbeat IPC: 4 cumulative IPC: 4 (Simulation time: 00 hr 01 min 30 sec)
Heartbeat CPU 0 instructions: 30000000 cycles: 7500202 heartbeat IPC: 4 cumulative IPC: 4 (Simulation time: 00 hr 02 min 14 sec)
Heartbeat CPU 0 instructions: 40000000 cycles: 10000202 heartbeat IPC: 4 cumulative IPC: 4 (Simulation time: 00 hr 03 min 01 sec)
Heartbeat CPU 0 instructions: 50000000 cycles: 12500202 heartbeat IPC: 4 cumulative IPC: 4 (Simulation time: 00 hr 03 min 48 sec)
Warmup finished CPU 0 instructions: 50000000 cycles: 12500203 cumulative IPC: 4 (Simulation time: 00 hr 03 min 48 sec)
Warmup complete CPU 0 instructions: 50000000 cycles: 12500203 cumulative IPC: 4 (Simulation time: 00 hr 03 min 48 sec)
Heartbeat CPU 0 instructions: 60000004 cycles: 15001959 heartbeat IPC: 3.997 cumulative IPC: 3.997 (Simulation time: 00 hr 04 min 43 sec)
Heartbeat CPU 0 instructions: 70000003 cycles: 17503710 heartbeat IPC: 3.997 cumulative IPC: 3.997 (Simulation time: 00 hr 05 min 37 sec)
Heartbeat CPU 0 instructions: 80000004 cycles: 20005974 heartbeat IPC: 3.996 cumulative IPC: 3.997 (Simulation time: 00 hr 06 min 29 sec)
Heartbeat CPU 0 instructions: 90000000 cycles: 22509120 heartbeat IPC: 3.995 cumulative IPC: 3.996 (Simulation time: 00 hr 07 min 16 sec)
Heartbeat CPU 0 instructions: 100000001 cycles: 25010859 heartbeat IPC: 3.997 cumulative IPC: 3.997 (Simulation time: 00 hr 07 min 57 sec)
Heartbeat CPU 0 instructions: 110000000 cycles: 27513093 heartbeat IPC: 3.996 cumulative IPC: 3.997 (Simulation time: 00 hr 08 min 40 sec)
Heartbeat CPU 0 instructions: 120000004 cycles: 30015806 heartbeat IPC: 3.996 cumulative IPC: 3.996 (Simulation time: 00 hr 09 min 23 sec)
Heartbeat CPU 0 instructions: 130000000 cycles: 32519047 heartbeat IPC: 3.995 cumulative IPC: 3.996 (Simulation time: 00 hr 10 min 05 sec)
Heartbeat CPU 0 instructions: 140000004 cycles: 35020799 heartbeat IPC: 3.997 cumulative IPC: 3.996 (Simulation time: 00 hr 10 min 46 sec)
Heartbeat CPU 0 instructions: 150000000 cycles: 37525092 heartbeat IPC: 3.993 cumulative IPC: 3.996 (Simulation time: 00 hr 11 min 22 sec)
Heartbeat CPU 0 instructions: 160000001 cycles: 40027557 heartbeat IPC: 3.996 cumulative IPC: 3.996 (Simulation time: 00 hr 11 min 58 sec)
Heartbeat CPU 0 instructions: 170000000 cycles: 42530975 heartbeat IPC: 3.995 cumulative IPC: 3.996 (Simulation time: 00 hr 12 min 36 sec)
Heartbeat CPU 0 instructions: 180000003 cycles: 45034137 heartbeat IPC: 3.995 cumulative IPC: 3.996 (Simulation time: 00 hr 13 min 27 sec)
Heartbeat CPU 0 instructions: 190000000 cycles: 47536254 heartbeat IPC: 3.997 cumulative IPC: 3.996 (Simulation time: 00 hr 14 min 27 sec)
Heartbeat CPU 0 instructions: 200000004 cycles: 50038871 heartbeat IPC: 3.996 cumulative IPC: 3.996 (Simulation time: 00 hr 15 min 20 sec)
Heartbeat CPU 0 instructions: 210000004 cycles: 52543234 heartbeat IPC: 3.993 cumulative IPC: 3.996 (Simulation time: 00 hr 16 min 06 sec)
Heartbeat CPU 0 instructions: 220000001 cycles: 55044995 heartbeat IPC: 3.997 cumulative IPC: 3.996 (Simulation time: 00 hr 16 min 58 sec)
Heartbeat CPU 0 instructions: 230000000 cycles: 57546974 heartbeat IPC: 3.997 cumulative IPC: 3.996 (Simulation time: 00 hr 17 min 51 sec)
Heartbeat CPU 0 instructions: 240000000 cycles: 91438690 heartbeat IPC: 0.2951 cumulative IPC: 2.407 (Simulation time: 00 hr 22 min 31 sec)
Heartbeat CPU 0 instructions: 250000001 cycles: 100550683 heartbeat IPC: 1.097 cumulative IPC: 2.271 (Simulation time: 00 hr 24 min 34 sec)
Heartbeat CPU 0 instructions: 260000001 cycles: 109692440 heartbeat IPC: 1.094 cumulative IPC: 2.161 (Simulation time: 00 hr 26 min 39 sec)
Heartbeat CPU 0 instructions: 270000001 cycles: 119608783 heartbeat IPC: 1.008 cumulative IPC: 2.054 (Simulation time: 00 hr 29 min 01 sec)
Heartbeat CPU 0 instructions: 280000003 cycles: 128092706 heartbeat IPC: 1.179 cumulative IPC: 1.99 (Simulation time: 00 hr 31 min 51 sec)
Heartbeat CPU 0 instructions: 290000001 cycles: 134483780 heartbeat IPC: 1.565 cumulative IPC: 1.967 (Simulation time: 00 hr 34 min 07 sec)
Heartbeat CPU 0 instructions: 300000002 cycles: 140708981 heartbeat IPC: 1.606 cumulative IPC: 1.95 (Simulation time: 00 hr 36 min 35 sec)
Heartbeat CPU 0 instructions: 310000002 cycles: 147080956 heartbeat IPC: 1.569 cumulative IPC: 1.932 (Simulation time: 00 hr 38 min 03 sec)
Heartbeat CPU 0 instructions: 320000000 cycles: 154471376 heartbeat IPC: 1.353 cumulative IPC: 1.902 (Simulation time: 00 hr 39 min 28 sec)
Heartbeat CPU 0 instructions: 330000002 cycles: 163741481 heartbeat IPC: 1.079 cumulative IPC: 1.851 (Simulation time: 00 hr 41 min 09 sec)
Heartbeat CPU 0 instructions: 340000004 cycles: 172518180 heartbeat IPC: 1.139 cumulative IPC: 1.812 (Simulation time: 00 hr 42 min 45 sec)
Heartbeat CPU 0 instructions: 350000003 cycles: 181401892 heartbeat IPC: 1.126 cumulative IPC: 1.776 (Simulation time: 00 hr 44 min 37 sec)
Heartbeat CPU 0 instructions: 360000001 cycles: 190241567 heartbeat IPC: 1.131 cumulative IPC: 1.744 (Simulation time: 00 hr 46 min 24 sec)
Heartbeat CPU 0 instructions: 370000002 cycles: 198975362 heartbeat IPC: 1.145 cumulative IPC: 1.716 (Simulation time: 00 hr 49 min 04 sec)
Heartbeat CPU 0 instructions: 380000003 cycles: 206945054 heartbeat IPC: 1.255 cumulative IPC: 1.697 (Simulation time: 00 hr 51 min 36 sec)
Heartbeat CPU 0 instructions: 390000000 cycles: 214443820 heartbeat IPC: 1.334 cumulative IPC: 1.684 (Simulation time: 00 hr 54 min 11 sec)
Heartbeat CPU 0 instructions: 400000000 cycles: 222703795 heartbeat IPC: 1.211 cumulative IPC: 1.665 (Simulation time: 00 hr 57 min 09 sec)
Heartbeat CPU 0 instructions: 410000002 cycles: 230980655 heartbeat IPC: 1.208 cumulative IPC: 1.648 (Simulation time: 01 hr 00 min 17 sec)
Heartbeat CPU 0 instructions: 420000000 cycles: 239228532 heartbeat IPC: 1.212 cumulative IPC: 1.632 (Simulation time: 01 hr 03 min 05 sec)
Heartbeat CPU 0 instructions: 430000002 cycles: 247386561 heartbeat IPC: 1.226 cumulative IPC: 1.618 (Simulation time: 01 hr 05 min 52 sec)
Heartbeat CPU 0 instructions: 440000004 cycles: 399036878 heartbeat IPC: 0.06594 cumulative IPC: 1.009 (Simulation time: 01 hr 39 min 11 sec)
Heartbeat CPU 0 instructions: 450000003 cycles: 410021991 heartbeat IPC: 0.9103 cumulative IPC: 1.006 (Simulation time: 01 hr 42 min 18 sec)
Heartbeat CPU 0 instructions: 460000004 cycles: 420188212 heartbeat IPC: 0.9836 cumulative IPC: 1.006 (Simulation time: 01 hr 45 min 06 sec)
Heartbeat CPU 0 instructions: 470000002 cycles: 429896033 heartbeat IPC: 1.03 cumulative IPC: 1.006 (Simulation time: 01 hr 47 min 35 sec)
Heartbeat CPU 0 instructions: 480000004 cycles: 438962379 heartbeat IPC: 1.103 cumulative IPC: 1.008 (Simulation time: 01 hr 50 min 00 sec)
Heartbeat CPU 0 instructions: 490000002 cycles: 451579208 heartbeat IPC: 0.7926 cumulative IPC: 1.002 (Simulation time: 01 hr 53 min 00 sec)
Heartbeat CPU 0 instructions: 500000003 cycles: 464481474 heartbeat IPC: 0.7751 cumulative IPC: 0.9956 (Simulation time: 01 hr 56 min 09 sec)
Heartbeat CPU 0 instructions: 510000004 cycles: 477607974 heartbeat IPC: 0.7618 cumulative IPC: 0.989 (Simulation time: 01 hr 59 min 25 sec)
Heartbeat CPU 0 instructions: 520000000 cycles: 491042289 heartbeat IPC: 0.7444 cumulative IPC: 0.9821 (Simulation time: 02 hr 02 min 38 sec)
Heartbeat CPU 0 instructions: 530000004 cycles: 504087088 heartbeat IPC: 0.7666 cumulative IPC: 0.9764 (Simulation time: 02 hr 05 min 57 sec)
Heartbeat CPU 0 instructions: 540000002 cycles: 518534079 heartbeat IPC: 0.6922 cumulative IPC: 0.9683 (Simulation time: 02 hr 09 min 38 sec)
Heartbeat CPU 0 instructions: 550000002 cycles: 529251086 heartbeat IPC: 0.9331 cumulative IPC: 0.9676 (Simulation time: 02 hr 12 min 30 sec)
Heartbeat CPU 0 instructions: 560000000 cycles: 539872046 heartbeat IPC: 0.9415 cumulative IPC: 0.9671 (Simulation time: 02 hr 15 min 18 sec)
Heartbeat CPU 0 instructions: 570000002 cycles: 551049372 heartbeat IPC: 0.8947 cumulative IPC: 0.9656 (Simulation time: 02 hr 18 min 06 sec)
Heartbeat CPU 0 instructions: 580000003 cycles: 562132382 heartbeat IPC: 0.9023 cumulative IPC: 0.9643 (Simulation time: 02 hr 20 min 57 sec)
Heartbeat CPU 0 instructions: 590000003 cycles: 573250830 heartbeat IPC: 0.8994 cumulative IPC: 0.963 (Simulation time: 02 hr 23 min 51 sec)
*** Reached end of trace: (0, "traces/lu.A.champsimtrace")
Heartbeat CPU 0 instructions: 600000001 cycles: 584054871 heartbeat IPC: 0.9256 cumulative IPC: 0.9623 (Simulation time: 02 hr 26 min 21 sec)
Heartbeat CPU 0 instructions: 610000000 cycles: 593171560 heartbeat IPC: 1.097 cumulative IPC: 0.9644 (Simulation time: 02 hr 28 min 10 sec)
Heartbeat CPU 0 instructions: 620000000 cycles: 595675022 heartbeat IPC: 3.994 cumulative IPC: 0.9774 (Simulation time: 02 hr 28 min 59 sec)
Heartbeat CPU 0 instructions: 630000004 cycles: 598177018 heartbeat IPC: 3.997 cumulative IPC: 0.9903 (Simulation time: 02 hr 29 min 50 sec)
Heartbeat CPU 0 instructions: 640000002 cycles: 600678768 heartbeat IPC: 3.997 cumulative IPC: 1.003 (Simulation time: 02 hr 30 min 42 sec)
Heartbeat CPU 0 instructions: 650000001 cycles: 603181002 heartbeat IPC: 3.996 cumulative IPC: 1.016 (Simulation time: 02 hr 31 min 32 sec)
Simulation finished CPU 0 instructions: 600000001 cycles: 590680800 cumulative IPC: 1.016 (Simulation time: 02 hr 31 min 32 sec)
Simulation complete CPU 0 instructions: 600000001 cycles: 590680800 cumulative IPC: 1.016 (Simulation time: 02 hr 31 min 32 sec)

ChampSim completed all CPUs

=== Simulation ===
CPU 0 runs traces/lu.A.champsimtrace
Region of Interest Statistics

CPU 0 cumulative IPC: 1.016 instructions: 600000001 cycles: 590680800
CPU 0 Branch Prediction Accuracy: 98.73% MPKI: 0.2427 Average ROB Occupancy at Mispredict: 326.4
Branch type MPKI
BRANCH_DIRECT_JUMP: 5e-06
BRANCH_INDIRECT: 7.33e-05
BRANCH_CONDITIONAL: 0.243
BRANCH_DIRECT_CALL: 6.67e-06
BRANCH_INDIRECT_CALL: 3.17e-05
BRANCH_RETURN: 1.83e-05

LLC TOTAL        ACCESS:    5107176 HIT:    1713834 MISS:    3393342
LLC LOAD         ACCESS:    2481312 HIT:     205062 MISS:    2276250
LLC RFO          ACCESS:     831681 HIT:       9525 MISS:     822156
LLC PREFETCH     ACCESS:          0 HIT:          0 MISS:          0
LLC WRITE        ACCESS:    1782324 HIT:    1494161 MISS:     288163
LLC TRANSLATION  ACCESS:      11859 HIT:       5086 MISS:       6773
LLC PREFETCH REQUESTED:          0 ISSUED:          0 USEFUL:          0 USELESS:          0
LLC AVERAGE MISS LATENCY: 1001 cycles
cpu0_DTLB TOTAL        ACCESS:  123075346 HIT:  115850770 MISS:    7224576
cpu0_DTLB LOAD         ACCESS:  123075346 HIT:  115850770 MISS:    7224576
cpu0_DTLB RFO          ACCESS:          0 HIT:          0 MISS:          0
cpu0_DTLB PREFETCH     ACCESS:          0 HIT:          0 MISS:          0
cpu0_DTLB WRITE        ACCESS:          0 HIT:          0 MISS:          0
cpu0_DTLB TRANSLATION  ACCESS:          0 HIT:          0 MISS:          0
cpu0_DTLB PREFETCH REQUESTED:          0 ISSUED:          0 USEFUL:          0 USELESS:          0
cpu0_DTLB AVERAGE MISS LATENCY: 6.274 cycles
cpu0_ITLB TOTAL        ACCESS:     717857 HIT:     717651 MISS:        206
cpu0_ITLB LOAD         ACCESS:     717857 HIT:     717651 MISS:        206
cpu0_ITLB RFO          ACCESS:          0 HIT:          0 MISS:          0
cpu0_ITLB PREFETCH     ACCESS:          0 HIT:          0 MISS:          0
cpu0_ITLB WRITE        ACCESS:          0 HIT:          0 MISS:          0
cpu0_ITLB TRANSLATION  ACCESS:          0 HIT:          0 MISS:          0
cpu0_ITLB PREFETCH REQUESTED:          0 ISSUED:          0 USEFUL:          0 USELESS:          0
cpu0_ITLB AVERAGE MISS LATENCY: 454 cycles
cpu0_L1D TOTAL        ACCESS:  176403488 HIT:  166756589 MISS:    9646899
cpu0_L1D LOAD         ACCESS:  139350482 HIT:  133497168 MISS:    5853314
cpu0_L1D RFO          ACCESS:          0 HIT:          0 MISS:          0
cpu0_L1D PREFETCH     ACCESS:          0 HIT:          0 MISS:          0
cpu0_L1D WRITE        ACCESS:   37000410 HIT:   33231743 MISS:    3768667
cpu0_L1D TRANSLATION  ACCESS:      52596 HIT:      27678 MISS:      24918
cpu0_L1D PREFETCH REQUESTED:          0 ISSUED:          0 USEFUL:          0 USELESS:          0
cpu0_L1D AVERAGE MISS LATENCY: 337.8 cycles
cpu0_L1I TOTAL        ACCESS:    1104254 HIT:    1101525 MISS:       2729
cpu0_L1I LOAD         ACCESS:    1104254 HIT:    1101525 MISS:       2729
cpu0_L1I RFO          ACCESS:          0 HIT:          0 MISS:          0
cpu0_L1I PREFETCH     ACCESS:          0 HIT:          0 MISS:          0
cpu0_L1I WRITE        ACCESS:          0 HIT:          0 MISS:          0
cpu0_L1I TRANSLATION  ACCESS:          0 HIT:          0 MISS:          0
cpu0_L1I PREFETCH REQUESTED:          0 ISSUED:          0 USEFUL:          0 USELESS:          0
cpu0_L1I AVERAGE MISS LATENCY: 758.8 cycles
cpu0_L2C TOTAL        ACCESS:    5979176 HIT:    2649996 MISS:    3329180
cpu0_L2C LOAD         ACCESS:    3058328 HIT:     577014 MISS:    2481314
cpu0_L2C RFO          ACCESS:     878217 HIT:      46536 MISS:     831681
cpu0_L2C PREFETCH     ACCESS:          0 HIT:          0 MISS:          0
cpu0_L2C WRITE        ACCESS:    2017761 HIT:    2013435 MISS:       4326
cpu0_L2C TRANSLATION  ACCESS:      24870 HIT:      13011 MISS:      11859
cpu0_L2C PREFETCH REQUESTED:          0 ISSUED:          0 USEFUL:          0 USELESS:          0
cpu0_L2C AVERAGE MISS LATENCY: 1041 cycles
cpu0_STLB TOTAL        ACCESS:    3988998 HIT:    3936412 MISS:      52586
cpu0_STLB LOAD         ACCESS:    3988998 HIT:    3936412 MISS:      52586
cpu0_STLB RFO          ACCESS:          0 HIT:          0 MISS:          0
cpu0_STLB PREFETCH     ACCESS:          0 HIT:          0 MISS:          0
cpu0_STLB WRITE        ACCESS:          0 HIT:          0 MISS:          0
cpu0_STLB TRANSLATION  ACCESS:          0 HIT:          0 MISS:          0
cpu0_STLB PREFETCH REQUESTED:          0 ISSUED:          0 USEFUL:          0 USELESS:          0
cpu0_STLB AVERAGE MISS LATENCY: 649.3 cycles

DRAM Statistics

Channel 0 RQ ROW_BUFFER_HIT:     746637
  ROW_BUFFER_MISS:    2358509
 AVG DBUS CONGESTED CYCLE: 3.934
WQ ROW_BUFFER_HIT: Channel 0 
  ROW_BUFFER_MISS:     245916
  FULL:    1443379
