WARNING: physical memory size is smaller than virtual memory size.

*** ChampSim Multicore Out-of-Order Simulator ***
Warmup Instructions: 50000000
Simulation Instructions: 600000000
Number of CPUs: 1
Page size: 4096

CPU 0 Tage branch predictor
Off-chip DRAM Size: 4 GiB Channels: 1 Width: 64-bit Data Race: 3200 MT/s
Heartbeat CPU 0 instructions: 10000000 cycles: 2500202 heartbeat IPC: 4 cumulative IPC: 4 (Simulation time: 00 hr 00 min 37 sec)
Heartbeat CPU 0 instructions: 20000000 cycles: 5000202 heartbeat IPC: 4 cumulative IPC: 4 (Simulation time: 00 hr 01 min 13 sec)
Heartbeat CPU 0 instructions: 30000000 cycles: 7500202 heartbeat IPC: 4 cumulative IPC: 4 (Simulation time: 00 hr 01 min 48 sec)
Heartbeat CPU 0 instructions: 40000000 cycles: 10000202 heartbeat IPC: 4 cumulative IPC: 4 (Simulation time: 00 hr 02 min 24 sec)
Heartbeat CPU 0 instructions: 50000000 cycles: 12500202 heartbeat IPC: 4 cumulative IPC: 4 (Simulation time: 00 hr 03 min 01 sec)
Warmup finished CPU 0 instructions: 50000000 cycles: 12500203 cumulative IPC: 4 (Simulation time: 00 hr 03 min 01 sec)
Warmup complete CPU 0 instructions: 50000000 cycles: 12500203 cumulative IPC: 4 (Simulation time: 00 hr 03 min 01 sec)
Heartbeat CPU 0 instructions: 60000004 cycles: 15000687 heartbeat IPC: 3.999 cumulative IPC: 3.999 (Simulation time: 00 hr 03 min 44 sec)
Heartbeat CPU 0 instructions: 70000003 cycles: 17502861 heartbeat IPC: 3.997 cumulative IPC: 3.998 (Simulation time: 00 hr 04 min 29 sec)
Heartbeat CPU 0 instructions: 80000004 cycles: 20003397 heartbeat IPC: 3.999 cumulative IPC: 3.998 (Simulation time: 00 hr 05 min 11 sec)
Heartbeat CPU 0 instructions: 90000000 cycles: 22505753 heartbeat IPC: 3.996 cumulative IPC: 3.998 (Simulation time: 00 hr 05 min 52 sec)
Heartbeat CPU 0 instructions: 100000001 cycles: 25006282 heartbeat IPC: 3.999 cumulative IPC: 3.998 (Simulation time: 00 hr 06 min 32 sec)
Heartbeat CPU 0 instructions: 110000000 cycles: 27507558 heartbeat IPC: 3.998 cumulative IPC: 3.998 (Simulation time: 00 hr 07 min 12 sec)
Heartbeat CPU 0 instructions: 120000004 cycles: 30007592 heartbeat IPC: 4 cumulative IPC: 3.998 (Simulation time: 00 hr 07 min 52 sec)
Heartbeat CPU 0 instructions: 130000000 cycles: 32508425 heartbeat IPC: 3.999 cumulative IPC: 3.998 (Simulation time: 00 hr 08 min 31 sec)
Heartbeat CPU 0 instructions: 140000004 cycles: 35009424 heartbeat IPC: 3.998 cumulative IPC: 3.998 (Simulation time: 00 hr 09 min 11 sec)
Heartbeat CPU 0 instructions: 150000000 cycles: 37509924 heartbeat IPC: 3.999 cumulative IPC: 3.998 (Simulation time: 00 hr 09 min 50 sec)
Heartbeat CPU 0 instructions: 160000001 cycles: 40010478 heartbeat IPC: 3.999 cumulative IPC: 3.999 (Simulation time: 00 hr 10 min 30 sec)
Heartbeat CPU 0 instructions: 170000000 cycles: 42510501 heartbeat IPC: 4 cumulative IPC: 3.999 (Simulation time: 00 hr 11 min 09 sec)
Heartbeat CPU 0 instructions: 180000003 cycles: 45011187 heartbeat IPC: 3.999 cumulative IPC: 3.999 (Simulation time: 00 hr 11 min 49 sec)
Heartbeat CPU 0 instructions: 190000000 cycles: 47512342 heartbeat IPC: 3.998 cumulative IPC: 3.999 (Simulation time: 00 hr 12 min 28 sec)
Heartbeat CPU 0 instructions: 200000004 cycles: 50013737 heartbeat IPC: 3.998 cumulative IPC: 3.999 (Simulation time: 00 hr 13 min 08 sec)
Heartbeat CPU 0 instructions: 210000004 cycles: 52514360 heartbeat IPC: 3.999 cumulative IPC: 3.999 (Simulation time: 00 hr 13 min 48 sec)
Heartbeat CPU 0 instructions: 220000001 cycles: 55015964 heartbeat IPC: 3.997 cumulative IPC: 3.999 (Simulation time: 00 hr 14 min 28 sec)
Heartbeat CPU 0 instructions: 230000000 cycles: 57517083 heartbeat IPC: 3.998 cumulative IPC: 3.999 (Simulation time: 00 hr 15 min 08 sec)
Heartbeat CPU 0 instructions: 240000000 cycles: 91191685 heartbeat IPC: 0.297 cumulative IPC: 2.414 (Simulation time: 00 hr 18 min 36 sec)
Heartbeat CPU 0 instructions: 250000001 cycles: 100299440 heartbeat IPC: 1.098 cumulative IPC: 2.278 (Simulation time: 00 hr 20 min 03 sec)
Heartbeat CPU 0 instructions: 260000001 cycles: 109409184 heartbeat IPC: 1.098 cumulative IPC: 2.167 (Simulation time: 00 hr 21 min 31 sec)
Heartbeat CPU 0 instructions: 270000003 cycles: 121588798 heartbeat IPC: 0.821 cumulative IPC: 2.017 (Simulation time: 00 hr 23 min 20 sec)
Heartbeat CPU 0 instructions: 280000002 cycles: 129977432 heartbeat IPC: 1.192 cumulative IPC: 1.958 (Simulation time: 00 hr 24 min 43 sec)
Heartbeat CPU 0 instructions: 290000000 cycles: 138436881 heartbeat IPC: 1.182 cumulative IPC: 1.906 (Simulation time: 00 hr 26 min 07 sec)
Heartbeat CPU 0 instructions: 300000002 cycles: 146840965 heartbeat IPC: 1.19 cumulative IPC: 1.861 (Simulation time: 00 hr 27 min 30 sec)
Heartbeat CPU 0 instructions: 310000001 cycles: 155304529 heartbeat IPC: 1.182 cumulative IPC: 1.821 (Simulation time: 00 hr 28 min 54 sec)
Heartbeat CPU 0 instructions: 320000000 cycles: 163819205 heartbeat IPC: 1.174 cumulative IPC: 1.784 (Simulation time: 00 hr 30 min 19 sec)
Heartbeat CPU 0 instructions: 330000002 cycles: 172199075 heartbeat IPC: 1.193 cumulative IPC: 1.753 (Simulation time: 00 hr 31 min 45 sec)
Heartbeat CPU 0 instructions: 340000004 cycles: 180511261 heartbeat IPC: 1.203 cumulative IPC: 1.726 (Simulation time: 00 hr 33 min 10 sec)
Heartbeat CPU 0 instructions: 350000003 cycles: 188973443 heartbeat IPC: 1.182 cumulative IPC: 1.7 (Simulation time: 00 hr 34 min 36 sec)
Heartbeat CPU 0 instructions: 360000003 cycles: 197346166 heartbeat IPC: 1.194 cumulative IPC: 1.677 (Simulation time: 00 hr 36 min 00 sec)
Heartbeat CPU 0 instructions: 370000002 cycles: 205719604 heartbeat IPC: 1.194 cumulative IPC: 1.656 (Simulation time: 00 hr 37 min 25 sec)
Heartbeat CPU 0 instructions: 380000003 cycles: 213705959 heartbeat IPC: 1.252 cumulative IPC: 1.64 (Simulation time: 00 hr 38 min 48 sec)
Heartbeat CPU 0 instructions: 390000000 cycles: 221794602 heartbeat IPC: 1.236 cumulative IPC: 1.625 (Simulation time: 00 hr 40 min 11 sec)
Heartbeat CPU 0 instructions: 400000000 cycles: 229817022 heartbeat IPC: 1.247 cumulative IPC: 1.611 (Simulation time: 00 hr 41 min 35 sec)
Heartbeat CPU 0 instructions: 410000002 cycles: 237847422 heartbeat IPC: 1.245 cumulative IPC: 1.598 (Simulation time: 00 hr 43 min 00 sec)
Heartbeat CPU 0 instructions: 420000000 cycles: 245830827 heartbeat IPC: 1.253 cumulative IPC: 1.586 (Simulation time: 00 hr 44 min 23 sec)
Heartbeat CPU 0 instructions: 430000002 cycles: 253897383 heartbeat IPC: 1.24 cumulative IPC: 1.574 (Simulation time: 00 hr 45 min 47 sec)
Heartbeat CPU 0 instructions: 440000004 cycles: 369161613 heartbeat IPC: 0.08676 cumulative IPC: 1.093 (Simulation time: 01 hr 00 min 37 sec)
Heartbeat CPU 0 instructions: 450000003 cycles: 378880685 heartbeat IPC: 1.029 cumulative IPC: 1.092 (Simulation time: 01 hr 02 min 17 sec)
Heartbeat CPU 0 instructions: 460000004 cycles: 388562814 heartbeat IPC: 1.033 cumulative IPC: 1.09 (Simulation time: 01 hr 03 min 59 sec)
Heartbeat CPU 0 instructions: 470000002 cycles: 398104395 heartbeat IPC: 1.048 cumulative IPC: 1.089 (Simulation time: 01 hr 05 min 36 sec)
Heartbeat CPU 0 instructions: 480000004 cycles: 407726523 heartbeat IPC: 1.039 cumulative IPC: 1.088 (Simulation time: 01 hr 07 min 10 sec)
Heartbeat CPU 0 instructions: 490000002 cycles: 417519863 heartbeat IPC: 1.021 cumulative IPC: 1.086 (Simulation time: 01 hr 08 min 47 sec)
Heartbeat CPU 0 instructions: 500000003 cycles: 430248195 heartbeat IPC: 0.7856 cumulative IPC: 1.077 (Simulation time: 01 hr 10 min 54 sec)
Heartbeat CPU 0 instructions: 510000004 cycles: 442985682 heartbeat IPC: 0.7851 cumulative IPC: 1.069 (Simulation time: 01 hr 13 min 05 sec)
Heartbeat CPU 0 instructions: 520000000 cycles: 456042458 heartbeat IPC: 0.7659 cumulative IPC: 1.06 (Simulation time: 01 hr 15 min 14 sec)
Heartbeat CPU 0 instructions: 530000004 cycles: 468709004 heartbeat IPC: 0.7895 cumulative IPC: 1.052 (Simulation time: 01 hr 17 min 25 sec)
Heartbeat CPU 0 instructions: 540000002 cycles: 481410466 heartbeat IPC: 0.7873 cumulative IPC: 1.045 (Simulation time: 01 hr 19 min 33 sec)
Heartbeat CPU 0 instructions: 550000002 cycles: 492678636 heartbeat IPC: 0.8875 cumulative IPC: 1.041 (Simulation time: 01 hr 21 min 26 sec)
Heartbeat CPU 0 instructions: 560000000 cycles: 503792536 heartbeat IPC: 0.8998 cumulative IPC: 1.038 (Simulation time: 01 hr 23 min 24 sec)
Heartbeat CPU 0 instructions: 570000002 cycles: 514926460 heartbeat IPC: 0.8982 cumulative IPC: 1.035 (Simulation time: 01 hr 25 min 18 sec)
Heartbeat CPU 0 instructions: 580000000 cycles: 526069523 heartbeat IPC: 0.8974 cumulative IPC: 1.032 (Simulation time: 01 hr 27 min 15 sec)
Heartbeat CPU 0 instructions: 590000003 cycles: 537219538 heartbeat IPC: 0.8969 cumulative IPC: 1.029 (Simulation time: 01 hr 29 min 05 sec)
*** Reached end of trace: (0, "traces/lu.A.champsimtrace")
Heartbeat CPU 0 instructions: 600000001 cycles: 548457368 heartbeat IPC: 0.8899 cumulative IPC: 1.026 (Simulation time: 01 hr 30 min 54 sec)
Heartbeat CPU 0 instructions: 610000000 cycles: 555478014 heartbeat IPC: 1.424 cumulative IPC: 1.031 (Simulation time: 01 hr 32 min 14 sec)
Heartbeat CPU 0 instructions: 620000000 cycles: 557978510 heartbeat IPC: 3.999 cumulative IPC: 1.045 (Simulation time: 01 hr 32 min 58 sec)
Heartbeat CPU 0 instructions: 630000004 cycles: 560478778 heartbeat IPC: 4 cumulative IPC: 1.058 (Simulation time: 01 hr 33 min 44 sec)
Heartbeat CPU 0 instructions: 640000002 cycles: 562978778 heartbeat IPC: 4 cumulative IPC: 1.072 (Simulation time: 01 hr 34 min 31 sec)
Heartbeat CPU 0 instructions: 650000001 cycles: 565479005 heartbeat IPC: 4 cumulative IPC: 1.085 (Simulation time: 01 hr 35 min 20 sec)
Simulation finished CPU 0 instructions: 600000001 cycles: 552978803 cumulative IPC: 1.085 (Simulation time: 01 hr 35 min 20 sec)
Simulation complete CPU 0 instructions: 600000001 cycles: 552978803 cumulative IPC: 1.085 (Simulation time: 01 hr 35 min 20 sec)

ChampSim completed all CPUs

=== Simulation ===
CPU 0 runs traces/lu.A.champsimtrace
Region of Interest Statistics

CPU 0 cumulative IPC: 1.085 instructions: 600000001 cycles: 552978803
CPU 0 Branch Prediction Accuracy: 99.98% MPKI: 0.004037 Average ROB Occupancy at Mispredict: 116.5
Branch type MPKI
BRANCH_DIRECT_JUMP: 5e-06
BRANCH_INDIRECT: 7.33e-05
BRANCH_CONDITIONAL: 0.0039
BRANCH_DIRECT_CALL: 6.67e-06
BRANCH_INDIRECT_CALL: 3.17e-05
BRANCH_RETURN: 1.83e-05

LLC TOTAL        ACCESS:    6237023 HIT:    2692037 MISS:    3544986
LLC LOAD         ACCESS:    2481296 HIT:     541181 MISS:    1940115
LLC RFO          ACCESS:     831678 HIT:       5058 MISS:     826620
LLC PREFETCH     ACCESS:    1129891 HIT:     355574 MISS:     774317
LLC WRITE        ACCESS:    1782305 HIT:    1781002 MISS:       1303
LLC TRANSLATION  ACCESS:      11853 HIT:       9222 MISS:       2631
LLC PREFETCH REQUESTED:    1129891 ISSUED:    1129891 USEFUL:     530208 USELESS:       7931
LLC AVERAGE MISS LATENCY: 1004 cycles
cpu0_DTLB TOTAL        ACCESS:  126067903 HIT:  118670048 MISS:    7397855
cpu0_DTLB LOAD         ACCESS:  126067903 HIT:  118670048 MISS:    7397855
cpu0_DTLB RFO          ACCESS:          0 HIT:          0 MISS:          0
cpu0_DTLB PREFETCH     ACCESS:          0 HIT:          0 MISS:          0
cpu0_DTLB WRITE        ACCESS:          0 HIT:          0 MISS:          0
cpu0_DTLB TRANSLATION  ACCESS:          0 HIT:          0 MISS:          0
cpu0_DTLB PREFETCH REQUESTED:          0 ISSUED:          0 USEFUL:          0 USELESS:          0
cpu0_DTLB AVERAGE MISS LATENCY: 4.831 cycles
cpu0_ITLB TOTAL        ACCESS:    1263960 HIT:    1263735 MISS:        225
cpu0_ITLB LOAD         ACCESS:    1263960 HIT:    1263735 MISS:        225
cpu0_ITLB RFO          ACCESS:          0 HIT:          0 MISS:          0
cpu0_ITLB PREFETCH     ACCESS:          0 HIT:          0 MISS:          0
cpu0_ITLB WRITE        ACCESS:          0 HIT:          0 MISS:          0
cpu0_ITLB TRANSLATION  ACCESS:          0 HIT:          0 MISS:          0
cpu0_ITLB PREFETCH REQUESTED:          0 ISSUED:          0 USEFUL:          0 USELESS:          0
cpu0_ITLB AVERAGE MISS LATENCY: 314.8 cycles
cpu0_L1D TOTAL        ACCESS:  180584970 HIT:  170589080 MISS:    9995890
cpu0_L1D LOAD         ACCESS:  143532920 HIT:  137415135 MISS:    6117785
cpu0_L1D RFO          ACCESS:          0 HIT:          0 MISS:          0
cpu0_L1D PREFETCH     ACCESS:          0 HIT:          0 MISS:          0
cpu0_L1D WRITE        ACCESS:   36999450 HIT:   33146258 MISS:    3853192
cpu0_L1D TRANSLATION  ACCESS:      52600 HIT:      27687 MISS:      24913
cpu0_L1D PREFETCH REQUESTED:          0 ISSUED:          0 USEFUL:          0 USELESS:          0
cpu0_L1D AVERAGE MISS LATENCY: 287.9 cycles
cpu0_L1I TOTAL        ACCESS:    1590722 HIT:    1587819 MISS:       2903
cpu0_L1I LOAD         ACCESS:    1590722 HIT:    1587819 MISS:       2903
cpu0_L1I RFO          ACCESS:          0 HIT:          0 MISS:          0
cpu0_L1I PREFETCH     ACCESS:          0 HIT:          0 MISS:          0
cpu0_L1I WRITE        ACCESS:          0 HIT:          0 MISS:          0
cpu0_L1I TRANSLATION  ACCESS:          0 HIT:          0 MISS:          0
cpu0_L1I PREFETCH REQUESTED:          0 ISSUED:          0 USEFUL:          0 USELESS:          0
cpu0_L1I AVERAGE MISS LATENCY: 495.4 cycles
cpu0_L2C TOTAL        ACCESS:    5978955 HIT:    2649818 MISS:    3329137
cpu0_L2C LOAD         ACCESS:    3057568 HIT:     576271 MISS:    2481297
cpu0_L2C RFO          ACCESS:     878584 HIT:      46906 MISS:     831678
cpu0_L2C PREFETCH     ACCESS:          0 HIT:          0 MISS:          0
cpu0_L2C WRITE        ACCESS:    2017939 HIT:    2013630 MISS:       4309
cpu0_L2C TRANSLATION  ACCESS:      24864 HIT:      13011 MISS:      11853
cpu0_L2C PREFETCH REQUESTED:          0 ISSUED:          0 USEFUL:          0 USELESS:          0
cpu0_L2C AVERAGE MISS LATENCY: 925.5 cycles
cpu0_STLB TOTAL        ACCESS:    3993608 HIT:    3941022 MISS:      52586
cpu0_STLB LOAD         ACCESS:    3993608 HIT:    3941022 MISS:      52586
cpu0_STLB RFO          ACCESS:          0 HIT:          0 MISS:          0
cpu0_STLB PREFETCH     ACCESS:          0 HIT:          0 MISS:          0
cpu0_STLB WRITE        ACCESS:          0 HIT:          0 MISS:          0
cpu0_STLB TRANSLATION  ACCESS:          0 HIT:          0 MISS:          0
cpu0_STLB PREFETCH REQUESTED:          0 ISSUED:          0 USEFUL:          0 USELESS:          0
cpu0_STLB AVERAGE MISS LATENCY: 441.5 cycles

DRAM Statistics

Channel 0 RQ ROW_BUFFER_HIT:     841160
  ROW_BUFFER_MISS:    2288653
 AVG DBUS CONGESTED CYCLE: 3.941
WQ ROW_BUFFER_HIT: Channel 0 
  ROW_BUFFER_MISS:     340480
  FULL:    1341560
