WARNING: physical memory size is smaller than virtual memory size.

*** ChampSim Multicore Out-of-Order Simulator ***
Warmup Instructions: 50000000
Simulation Instructions: 600000000
Number of CPUs: 1
Page size: 4096

Off-chip DRAM Size: 4 GiB Channels: 1 Width: 64-bit Data Race: 3200 MT/s
Heartbeat CPU 0 instructions: 10000001 cycles: 2500202 heartbeat IPC: 4 cumulative IPC: 4 (Simulation time: 00 hr 01 min 22 sec)
Heartbeat CPU 0 instructions: 20000001 cycles: 5000202 heartbeat IPC: 4 cumulative IPC: 4 (Simulation time: 00 hr 02 min 35 sec)
Heartbeat CPU 0 instructions: 30000001 cycles: 7500202 heartbeat IPC: 4 cumulative IPC: 4 (Simulation time: 00 hr 03 min 57 sec)
Heartbeat CPU 0 instructions: 40000001 cycles: 10000202 heartbeat IPC: 4 cumulative IPC: 4 (Simulation time: 00 hr 06 min 33 sec)
Heartbeat CPU 0 instructions: 50000001 cycles: 12500202 heartbeat IPC: 4 cumulative IPC: 4 (Simulation time: 00 hr 08 min 00 sec)
Warmup finished CPU 0 instructions: 50000001 cycles: 12500203 cumulative IPC: 4 (Simulation time: 00 hr 08 min 00 sec)
Warmup complete CPU 0 instructions: 50000001 cycles: 12500203 cumulative IPC: 4 (Simulation time: 00 hr 08 min 00 sec)
Heartbeat CPU 0 instructions: 60000002 cycles: 15001958 heartbeat IPC: 3.997 cumulative IPC: 3.997 (Simulation time: 00 hr 09 min 40 sec)
Heartbeat CPU 0 instructions: 70000004 cycles: 17503710 heartbeat IPC: 3.997 cumulative IPC: 3.997 (Simulation time: 00 hr 11 min 20 sec)
Heartbeat CPU 0 instructions: 80000003 cycles: 20005907 heartbeat IPC: 3.996 cumulative IPC: 3.997 (Simulation time: 00 hr 12 min 57 sec)
Heartbeat CPU 0 instructions: 90000003 cycles: 22508906 heartbeat IPC: 3.995 cumulative IPC: 3.997 (Simulation time: 00 hr 14 min 23 sec)
Heartbeat CPU 0 instructions: 100000002 cycles: 25010995 heartbeat IPC: 3.997 cumulative IPC: 3.997 (Simulation time: 00 hr 15 min 48 sec)
Heartbeat CPU 0 instructions: 110000003 cycles: 27513021 heartbeat IPC: 3.997 cumulative IPC: 3.997 (Simulation time: 00 hr 17 min 23 sec)
Heartbeat CPU 0 instructions: 120000001 cycles: 30016032 heartbeat IPC: 3.995 cumulative IPC: 3.996 (Simulation time: 00 hr 19 min 46 sec)
Heartbeat CPU 0 instructions: 130000001 cycles: 32519278 heartbeat IPC: 3.995 cumulative IPC: 3.996 (Simulation time: 00 hr 21 min 47 sec)
Heartbeat CPU 0 instructions: 140000002 cycles: 35021529 heartbeat IPC: 3.996 cumulative IPC: 3.996 (Simulation time: 00 hr 23 min 14 sec)
Heartbeat CPU 0 instructions: 150000004 cycles: 37523333 heartbeat IPC: 3.997 cumulative IPC: 3.996 (Simulation time: 00 hr 24 min 40 sec)
Heartbeat CPU 0 instructions: 160000003 cycles: 40025095 heartbeat IPC: 3.997 cumulative IPC: 3.996 (Simulation time: 00 hr 26 min 03 sec)
Heartbeat CPU 0 instructions: 170000003 cycles: 42528765 heartbeat IPC: 3.994 cumulative IPC: 3.996 (Simulation time: 00 hr 28 min 15 sec)
Heartbeat CPU 0 instructions: 180000002 cycles: 45032361 heartbeat IPC: 3.994 cumulative IPC: 3.996 (Simulation time: 00 hr 29 min 50 sec)
Heartbeat CPU 0 instructions: 190000000 cycles: 47534315 heartbeat IPC: 3.997 cumulative IPC: 3.996 (Simulation time: 00 hr 31 min 22 sec)
Heartbeat CPU 0 instructions: 200000001 cycles: 50038148 heartbeat IPC: 3.994 cumulative IPC: 3.996 (Simulation time: 00 hr 32 min 50 sec)
Heartbeat CPU 0 instructions: 210000001 cycles: 52539899 heartbeat IPC: 3.997 cumulative IPC: 3.996 (Simulation time: 00 hr 34 min 31 sec)
Heartbeat CPU 0 instructions: 220000002 cycles: 55043442 heartbeat IPC: 3.994 cumulative IPC: 3.996 (Simulation time: 00 hr 35 min 49 sec)
Heartbeat CPU 0 instructions: 230000001 cycles: 57548460 heartbeat IPC: 3.992 cumulative IPC: 3.996 (Simulation time: 00 hr 37 min 07 sec)
Heartbeat CPU 0 instructions: 240000003 cycles: 91599120 heartbeat IPC: 0.2937 cumulative IPC: 2.402 (Simulation time: 00 hr 43 min 45 sec)
Heartbeat CPU 0 instructions: 250000004 cycles: 100778059 heartbeat IPC: 1.089 cumulative IPC: 2.266 (Simulation time: 00 hr 46 min 56 sec)
Heartbeat CPU 0 instructions: 260000004 cycles: 109940499 heartbeat IPC: 1.091 cumulative IPC: 2.155 (Simulation time: 00 hr 49 min 36 sec)
Heartbeat CPU 0 instructions: 270000003 cycles: 122298616 heartbeat IPC: 0.8092 cumulative IPC: 2.004 (Simulation time: 00 hr 52 min 51 sec)
Heartbeat CPU 0 instructions: 280000002 cycles: 134052007 heartbeat IPC: 0.8508 cumulative IPC: 1.892 (Simulation time: 00 hr 56 min 16 sec)
Heartbeat CPU 0 instructions: 290000003 cycles: 143197037 heartbeat IPC: 1.093 cumulative IPC: 1.836 (Simulation time: 00 hr 59 min 02 sec)
Heartbeat CPU 0 instructions: 300000000 cycles: 152514745 heartbeat IPC: 1.073 cumulative IPC: 1.786 (Simulation time: 01 hr 02 min 24 sec)
Heartbeat CPU 0 instructions: 310000001 cycles: 161465694 heartbeat IPC: 1.117 cumulative IPC: 1.745 (Simulation time: 01 hr 05 min 40 sec)
Heartbeat CPU 0 instructions: 320000003 cycles: 169982986 heartbeat IPC: 1.174 cumulative IPC: 1.714 (Simulation time: 01 hr 07 min 59 sec)
Heartbeat CPU 0 instructions: 330000000 cycles: 179232671 heartbeat IPC: 1.081 cumulative IPC: 1.679 (Simulation time: 01 hr 10 min 31 sec)
Heartbeat CPU 0 instructions: 340000000 cycles: 187878424 heartbeat IPC: 1.157 cumulative IPC: 1.654 (Simulation time: 01 hr 13 min 17 sec)
Heartbeat CPU 0 instructions: 350000000 cycles: 196410431 heartbeat IPC: 1.172 cumulative IPC: 1.631 (Simulation time: 01 hr 16 min 10 sec)
Heartbeat CPU 0 instructions: 360000004 cycles: 204865446 heartbeat IPC: 1.183 cumulative IPC: 1.612 (Simulation time: 01 hr 19 min 10 sec)
Heartbeat CPU 0 instructions: 370000000 cycles: 212490004 heartbeat IPC: 1.312 cumulative IPC: 1.6 (Simulation time: 01 hr 21 min 42 sec)
Heartbeat CPU 0 instructions: 380000000 cycles: 220271965 heartbeat IPC: 1.285 cumulative IPC: 1.588 (Simulation time: 01 hr 24 min 08 sec)
Heartbeat CPU 0 instructions: 390000000 cycles: 228773573 heartbeat IPC: 1.176 cumulative IPC: 1.572 (Simulation time: 01 hr 27 min 04 sec)
Heartbeat CPU 0 instructions: 400000001 cycles: 237042131 heartbeat IPC: 1.209 cumulative IPC: 1.559 (Simulation time: 01 hr 29 min 04 sec)
Heartbeat CPU 0 instructions: 410000002 cycles: 245321601 heartbeat IPC: 1.208 cumulative IPC: 1.546 (Simulation time: 01 hr 32 min 02 sec)
Heartbeat CPU 0 instructions: 420000002 cycles: 253496005 heartbeat IPC: 1.223 cumulative IPC: 1.535 (Simulation time: 01 hr 34 min 36 sec)
Heartbeat CPU 0 instructions: 430000002 cycles: 261386541 heartbeat IPC: 1.267 cumulative IPC: 1.527 (Simulation time: 01 hr 36 min 55 sec)
Heartbeat CPU 0 instructions: 440000002 cycles: 382246420 heartbeat IPC: 0.08274 cumulative IPC: 1.055 (Simulation time: 02 hr 01 min 56 sec)
Heartbeat CPU 0 instructions: 450000002 cycles: 393045027 heartbeat IPC: 0.926 cumulative IPC: 1.051 (Simulation time: 02 hr 04 min 15 sec)
Heartbeat CPU 0 instructions: 460000004 cycles: 403859802 heartbeat IPC: 0.9247 cumulative IPC: 1.048 (Simulation time: 02 hr 06 min 59 sec)
Heartbeat CPU 0 instructions: 470000002 cycles: 414957053 heartbeat IPC: 0.9011 cumulative IPC: 1.044 (Simulation time: 02 hr 09 min 46 sec)
Heartbeat CPU 0 instructions: 480000001 cycles: 425504606 heartbeat IPC: 0.9481 cumulative IPC: 1.041 (Simulation time: 02 hr 12 min 22 sec)
Heartbeat CPU 0 instructions: 490000003 cycles: 437230782 heartbeat IPC: 0.8528 cumulative IPC: 1.036 (Simulation time: 02 hr 15 min 05 sec)
Heartbeat CPU 0 instructions: 500000000 cycles: 451371659 heartbeat IPC: 0.7072 cumulative IPC: 1.025 (Simulation time: 02 hr 18 min 37 sec)
Heartbeat CPU 0 instructions: 510000001 cycles: 465150494 heartbeat IPC: 0.7258 cumulative IPC: 1.016 (Simulation time: 02 hr 22 min 12 sec)
Heartbeat CPU 0 instructions: 520000004 cycles: 479156819 heartbeat IPC: 0.714 cumulative IPC: 1.007 (Simulation time: 02 hr 24 min 48 sec)
Heartbeat CPU 0 instructions: 530000003 cycles: 492923270 heartbeat IPC: 0.7264 cumulative IPC: 0.9991 (Simulation time: 02 hr 27 min 45 sec)
Heartbeat CPU 0 instructions: 540000004 cycles: 507480871 heartbeat IPC: 0.6869 cumulative IPC: 0.9899 (Simulation time: 02 hr 32 min 12 sec)
Heartbeat CPU 0 instructions: 550000002 cycles: 517722784 heartbeat IPC: 0.9764 cumulative IPC: 0.9897 (Simulation time: 02 hr 35 min 16 sec)
Heartbeat CPU 0 instructions: 560000001 cycles: 528286364 heartbeat IPC: 0.9466 cumulative IPC: 0.9888 (Simulation time: 02 hr 38 min 56 sec)
Heartbeat CPU 0 instructions: 570000001 cycles: 539415747 heartbeat IPC: 0.8985 cumulative IPC: 0.9869 (Simulation time: 02 hr 41 min 46 sec)
Heartbeat CPU 0 instructions: 580000001 cycles: 550630554 heartbeat IPC: 0.8917 cumulative IPC: 0.9849 (Simulation time: 02 hr 44 min 28 sec)
Heartbeat CPU 0 instructions: 590000000 cycles: 561229288 heartbeat IPC: 0.9435 cumulative IPC: 0.9841 (Simulation time: 02 hr 47 min 29 sec)
*** Reached end of trace: (0, "traces/lu.A.champsimtrace")
Heartbeat CPU 0 instructions: 600000001 cycles: 571947866 heartbeat IPC: 0.933 cumulative IPC: 0.9831 (Simulation time: 02 hr 50 min 49 sec)
Heartbeat CPU 0 instructions: 610000003 cycles: 580892142 heartbeat IPC: 1.118 cumulative IPC: 0.9852 (Simulation time: 02 hr 53 min 47 sec)
Heartbeat CPU 0 instructions: 620000001 cycles: 583394083 heartbeat IPC: 3.997 cumulative IPC: 0.9984 (Simulation time: 02 hr 54 min 57 sec)
Heartbeat CPU 0 instructions: 630000001 cycles: 585896564 heartbeat IPC: 3.996 cumulative IPC: 1.012 (Simulation time: 02 hr 56 min 32 sec)
Heartbeat CPU 0 instructions: 640000000 cycles: 588398785 heartbeat IPC: 3.996 cumulative IPC: 1.024 (Simulation time: 02 hr 58 min 06 sec)
Heartbeat CPU 0 instructions: 650000000 cycles: 590900546 heartbeat IPC: 3.997 cumulative IPC: 1.037 (Simulation time: 02 hr 59 min 25 sec)
Simulation finished CPU 0 instructions: 600000004 cycles: 578400345 cumulative IPC: 1.037 (Simulation time: 02 hr 59 min 25 sec)
Simulation complete CPU 0 instructions: 600000004 cycles: 578400345 cumulative IPC: 1.037 (Simulation time: 02 hr 59 min 25 sec)

ChampSim completed all CPUs

=== Simulation ===
CPU 0 runs traces/lu.A.champsimtrace
Region of Interest Statistics

CPU 0 cumulative IPC: 1.037 instructions: 600000004 cycles: 578400345
CPU 0 Branch Prediction Accuracy: 98.73% MPKI: 0.2425 Average ROB Occupancy at Mispredict: 326.7
Branch type MPKI
BRANCH_DIRECT_JUMP: 5e-06
BRANCH_INDIRECT: 7.67e-05
BRANCH_CONDITIONAL: 0.242
BRANCH_DIRECT_CALL: 6.67e-06
BRANCH_INDIRECT_CALL: 3.33e-05
BRANCH_RETURN: 1.67e-05

LLC TOTAL        ACCESS:    6209075 HIT:    2446889 MISS:    3762186
LLC LOAD         ACCESS:    2483070 HIT:     554353 MISS:    1928717
LLC RFO          ACCESS:     831674 HIT:       8054 MISS:     823620
LLC PREFETCH     ACCESS:    1098788 HIT:     334568 MISS:     764220
LLC WRITE        ACCESS:    1783676 HIT:    1544554 MISS:     239122
LLC TRANSLATION  ACCESS:      11867 HIT:       5360 MISS:       6507
LLC PREFETCH REQUESTED:    1098788 ISSUED:    1098788 USEFUL:     521432 USELESS:       8165
LLC AVERAGE MISS LATENCY: 1000 cycles
cpu0_DTLB TOTAL        ACCESS:  123551533 HIT:  116325520 MISS:    7226013
cpu0_DTLB LOAD         ACCESS:  123551533 HIT:  116325520 MISS:    7226013
cpu0_DTLB RFO          ACCESS:          0 HIT:          0 MISS:          0
cpu0_DTLB PREFETCH     ACCESS:          0 HIT:          0 MISS:          0
cpu0_DTLB WRITE        ACCESS:          0 HIT:          0 MISS:          0
cpu0_DTLB TRANSLATION  ACCESS:          0 HIT:          0 MISS:          0
cpu0_DTLB PREFETCH REQUESTED:          0 ISSUED:          0 USEFUL:          0 USELESS:          0
cpu0_DTLB AVERAGE MISS LATENCY: 6.006 cycles
cpu0_ITLB TOTAL        ACCESS:     718750 HIT:     718545 MISS:        205
cpu0_ITLB LOAD         ACCESS:     718750 HIT:     718545 MISS:        205
cpu0_ITLB RFO          ACCESS:          0 HIT:          0 MISS:          0
cpu0_ITLB PREFETCH     ACCESS:          0 HIT:          0 MISS:          0
cpu0_ITLB WRITE        ACCESS:          0 HIT:          0 MISS:          0
cpu0_ITLB TRANSLATION  ACCESS:          0 HIT:          0 MISS:          0
cpu0_ITLB PREFETCH REQUESTED:          0 ISSUED:          0 USEFUL:          0 USELESS:          0
cpu0_ITLB AVERAGE MISS LATENCY: 451.8 cycles
cpu0_L1D TOTAL        ACCESS:  177197951 HIT:  167332932 MISS:    9865019
cpu0_L1D LOAD         ACCESS:  140145140 HIT:  134151459 MISS:    5993681
cpu0_L1D RFO          ACCESS:          0 HIT:          0 MISS:          0
cpu0_L1D PREFETCH     ACCESS:          0 HIT:          0 MISS:          0
cpu0_L1D WRITE        ACCESS:   37000214 HIT:   33153722 MISS:    3846492
cpu0_L1D TRANSLATION  ACCESS:      52597 HIT:      27751 MISS:      24846
cpu0_L1D PREFETCH REQUESTED:          0 ISSUED:          0 USEFUL:          0 USELESS:          0
cpu0_L1D AVERAGE MISS LATENCY: 305.5 cycles
cpu0_L1I TOTAL        ACCESS:    1105169 HIT:    1102467 MISS:       2702
cpu0_L1I LOAD         ACCESS:    1105169 HIT:    1102467 MISS:       2702
cpu0_L1I RFO          ACCESS:          0 HIT:          0 MISS:          0
cpu0_L1I PREFETCH     ACCESS:          0 HIT:          0 MISS:          0
cpu0_L1I WRITE        ACCESS:          0 HIT:          0 MISS:          0
cpu0_L1I TRANSLATION  ACCESS:          0 HIT:          0 MISS:          0
cpu0_L1I PREFETCH REQUESTED:          0 ISSUED:          0 USEFUL:          0 USELESS:          0
cpu0_L1I AVERAGE MISS LATENCY: 696.3 cycles
cpu0_L2C TOTAL        ACCESS:    5980865 HIT:    2650170 MISS:    3330695
cpu0_L2C LOAD         ACCESS:    3057108 HIT:     574037 MISS:    2483071
cpu0_L2C RFO          ACCESS:     879963 HIT:      48289 MISS:     831674
cpu0_L2C PREFETCH     ACCESS:          0 HIT:          0 MISS:          0
cpu0_L2C WRITE        ACCESS:    2018991 HIT:    2014908 MISS:       4083
cpu0_L2C TRANSLATION  ACCESS:      24803 HIT:      12936 MISS:      11867
cpu0_L2C PREFETCH REQUESTED:          0 ISSUED:          0 USEFUL:          0 USELESS:          0
cpu0_L2C AVERAGE MISS LATENCY: 968.8 cycles
cpu0_STLB TOTAL        ACCESS:    3989319 HIT:    3936729 MISS:      52590
cpu0_STLB LOAD         ACCESS:    3989319 HIT:    3936729 MISS:      52590
cpu0_STLB RFO          ACCESS:          0 HIT:          0 MISS:          0
cpu0_STLB PREFETCH     ACCESS:          0 HIT:          0 MISS:          0
cpu0_STLB WRITE        ACCESS:          0 HIT:          0 MISS:          0
cpu0_STLB TRANSLATION  ACCESS:          0 HIT:          0 MISS:          0
cpu0_STLB PREFETCH REQUESTED:          0 ISSUED:          0 USEFUL:          0 USELESS:          0
cpu0_STLB AVERAGE MISS LATENCY: 627.3 cycles

DRAM Statistics

Channel 0 RQ ROW_BUFFER_HIT:     804335
  ROW_BUFFER_MISS:    2314289
 AVG DBUS CONGESTED CYCLE: 3.941
WQ ROW_BUFFER_HIT: Channel 0 
  ROW_BUFFER_MISS:     196429
  FULL:    1494992
