WARNING: physical memory size is smaller than virtual memory size.

*** ChampSim Multicore Out-of-Order Simulator ***
Warmup Instructions: 50000000
Simulation Instructions: 600000000
Number of CPUs: 1
Page size: 4096

Off-chip DRAM Size: 4 GiB Channels: 1 Width: 64-bit Data Race: 3200 MT/s
Heartbeat CPU 0 instructions: 10000000 cycles: 2500202 heartbeat IPC: 4 cumulative IPC: 4 (Simulation time: 00 hr 00 min 43 sec)
Heartbeat CPU 0 instructions: 20000000 cycles: 5000202 heartbeat IPC: 4 cumulative IPC: 4 (Simulation time: 00 hr 01 min 39 sec)
Heartbeat CPU 0 instructions: 30000000 cycles: 7500202 heartbeat IPC: 4 cumulative IPC: 4 (Simulation time: 00 hr 02 min 28 sec)
Heartbeat CPU 0 instructions: 40000000 cycles: 10000202 heartbeat IPC: 4 cumulative IPC: 4 (Simulation time: 00 hr 03 min 18 sec)
Heartbeat CPU 0 instructions: 50000000 cycles: 12500202 heartbeat IPC: 4 cumulative IPC: 4 (Simulation time: 00 hr 04 min 16 sec)
Warmup finished CPU 0 instructions: 50000000 cycles: 12500203 cumulative IPC: 4 (Simulation time: 00 hr 04 min 16 sec)
Warmup complete CPU 0 instructions: 50000000 cycles: 12500203 cumulative IPC: 4 (Simulation time: 00 hr 04 min 16 sec)
Heartbeat CPU 0 instructions: 60000004 cycles: 15134826 heartbeat IPC: 3.796 cumulative IPC: 3.796 (Simulation time: 00 hr 05 min 23 sec)
Heartbeat CPU 0 instructions: 70000003 cycles: 17769908 heartbeat IPC: 3.795 cumulative IPC: 3.795 (Simulation time: 00 hr 06 min 24 sec)
Heartbeat CPU 0 instructions: 80000003 cycles: 20404562 heartbeat IPC: 3.796 cumulative IPC: 3.795 (Simulation time: 00 hr 07 min 23 sec)
Heartbeat CPU 0 instructions: 90000004 cycles: 23040361 heartbeat IPC: 3.794 cumulative IPC: 3.795 (Simulation time: 00 hr 08 min 24 sec)
Heartbeat CPU 0 instructions: 100000002 cycles: 25675195 heartbeat IPC: 3.795 cumulative IPC: 3.795 (Simulation time: 00 hr 09 min 26 sec)
Heartbeat CPU 0 instructions: 110000003 cycles: 28310290 heartbeat IPC: 3.795 cumulative IPC: 3.795 (Simulation time: 00 hr 10 min 27 sec)
Heartbeat CPU 0 instructions: 120000004 cycles: 30945134 heartbeat IPC: 3.795 cumulative IPC: 3.795 (Simulation time: 00 hr 11 min 24 sec)
Heartbeat CPU 0 instructions: 130000000 cycles: 33580880 heartbeat IPC: 3.794 cumulative IPC: 3.795 (Simulation time: 00 hr 12 min 20 sec)
Heartbeat CPU 0 instructions: 140000004 cycles: 36215506 heartbeat IPC: 3.796 cumulative IPC: 3.795 (Simulation time: 00 hr 13 min 14 sec)
Heartbeat CPU 0 instructions: 150000000 cycles: 38850594 heartbeat IPC: 3.795 cumulative IPC: 3.795 (Simulation time: 00 hr 14 min 09 sec)
Heartbeat CPU 0 instructions: 160000001 cycles: 41486204 heartbeat IPC: 3.794 cumulative IPC: 3.795 (Simulation time: 00 hr 15 min 03 sec)
Heartbeat CPU 0 instructions: 170000000 cycles: 44120832 heartbeat IPC: 3.796 cumulative IPC: 3.795 (Simulation time: 00 hr 15 min 57 sec)
Heartbeat CPU 0 instructions: 180000003 cycles: 46755475 heartbeat IPC: 3.796 cumulative IPC: 3.795 (Simulation time: 00 hr 16 min 52 sec)
Heartbeat CPU 0 instructions: 190000000 cycles: 49391450 heartbeat IPC: 3.794 cumulative IPC: 3.795 (Simulation time: 00 hr 17 min 49 sec)
Heartbeat CPU 0 instructions: 200000004 cycles: 52027029 heartbeat IPC: 3.794 cumulative IPC: 3.795 (Simulation time: 00 hr 18 min 46 sec)
Heartbeat CPU 0 instructions: 210000004 cycles: 54661878 heartbeat IPC: 3.795 cumulative IPC: 3.795 (Simulation time: 00 hr 19 min 42 sec)
Heartbeat CPU 0 instructions: 220000001 cycles: 57296735 heartbeat IPC: 3.795 cumulative IPC: 3.795 (Simulation time: 00 hr 20 min 36 sec)
Heartbeat CPU 0 instructions: 230000002 cycles: 59931380 heartbeat IPC: 3.796 cumulative IPC: 3.795 (Simulation time: 00 hr 21 min 31 sec)
Heartbeat CPU 0 instructions: 240000000 cycles: 93621377 heartbeat IPC: 0.2968 cumulative IPC: 2.342 (Simulation time: 00 hr 26 min 50 sec)
Heartbeat CPU 0 instructions: 250000000 cycles: 102757696 heartbeat IPC: 1.095 cumulative IPC: 2.216 (Simulation time: 00 hr 29 min 00 sec)
Heartbeat CPU 0 instructions: 260000001 cycles: 111901622 heartbeat IPC: 1.094 cumulative IPC: 2.113 (Simulation time: 00 hr 31 min 12 sec)
Heartbeat CPU 0 instructions: 270000001 cycles: 123950591 heartbeat IPC: 0.8299 cumulative IPC: 1.974 (Simulation time: 00 hr 33 min 55 sec)
Heartbeat CPU 0 instructions: 280000002 cycles: 132724496 heartbeat IPC: 1.14 cumulative IPC: 1.913 (Simulation time: 00 hr 36 min 03 sec)
Heartbeat CPU 0 instructions: 290000001 cycles: 141612042 heartbeat IPC: 1.125 cumulative IPC: 1.859 (Simulation time: 00 hr 38 min 09 sec)
Heartbeat CPU 0 instructions: 300000002 cycles: 150442276 heartbeat IPC: 1.132 cumulative IPC: 1.812 (Simulation time: 00 hr 40 min 17 sec)
Heartbeat CPU 0 instructions: 310000001 cycles: 159255569 heartbeat IPC: 1.135 cumulative IPC: 1.772 (Simulation time: 00 hr 42 min 26 sec)
Heartbeat CPU 0 instructions: 320000000 cycles: 168044771 heartbeat IPC: 1.138 cumulative IPC: 1.736 (Simulation time: 00 hr 44 min 37 sec)
Heartbeat CPU 0 instructions: 330000002 cycles: 176385415 heartbeat IPC: 1.199 cumulative IPC: 1.709 (Simulation time: 00 hr 46 min 44 sec)
Heartbeat CPU 0 instructions: 340000004 cycles: 184628295 heartbeat IPC: 1.213 cumulative IPC: 1.685 (Simulation time: 00 hr 48 min 50 sec)
Heartbeat CPU 0 instructions: 350000003 cycles: 193026980 heartbeat IPC: 1.191 cumulative IPC: 1.662 (Simulation time: 00 hr 50 min 57 sec)
Heartbeat CPU 0 instructions: 360000001 cycles: 201366217 heartbeat IPC: 1.199 cumulative IPC: 1.641 (Simulation time: 00 hr 53 min 03 sec)
Heartbeat CPU 0 instructions: 370000002 cycles: 209682214 heartbeat IPC: 1.203 cumulative IPC: 1.623 (Simulation time: 00 hr 55 min 10 sec)
Heartbeat CPU 0 instructions: 380000003 cycles: 217661992 heartbeat IPC: 1.253 cumulative IPC: 1.608 (Simulation time: 00 hr 57 min 14 sec)
Heartbeat CPU 0 instructions: 390000000 cycles: 225860276 heartbeat IPC: 1.22 cumulative IPC: 1.594 (Simulation time: 00 hr 59 min 20 sec)
Heartbeat CPU 0 instructions: 400000000 cycles: 233977237 heartbeat IPC: 1.232 cumulative IPC: 1.58 (Simulation time: 01 hr 01 min 25 sec)
Heartbeat CPU 0 instructions: 410000002 cycles: 242072862 heartbeat IPC: 1.235 cumulative IPC: 1.568 (Simulation time: 01 hr 03 min 33 sec)
Heartbeat CPU 0 instructions: 420000002 cycles: 250139384 heartbeat IPC: 1.24 cumulative IPC: 1.557 (Simulation time: 01 hr 05 min 40 sec)
Heartbeat CPU 0 instructions: 430000002 cycles: 258294322 heartbeat IPC: 1.226 cumulative IPC: 1.546 (Simulation time: 01 hr 07 min 47 sec)
Heartbeat CPU 0 instructions: 440000004 cycles: 374283355 heartbeat IPC: 0.08622 cumulative IPC: 1.078 (Simulation time: 01 hr 30 min 09 sec)
Heartbeat CPU 0 instructions: 450000003 cycles: 384354094 heartbeat IPC: 0.993 cumulative IPC: 1.076 (Simulation time: 01 hr 32 min 32 sec)
Heartbeat CPU 0 instructions: 460000004 cycles: 394459257 heartbeat IPC: 0.9896 cumulative IPC: 1.073 (Simulation time: 01 hr 34 min 57 sec)
Heartbeat CPU 0 instructions: 470000002 cycles: 404357667 heartbeat IPC: 1.01 cumulative IPC: 1.072 (Simulation time: 01 hr 37 min 20 sec)
Heartbeat CPU 0 instructions: 480000004 cycles: 414308359 heartbeat IPC: 1.005 cumulative IPC: 1.07 (Simulation time: 01 hr 39 min 47 sec)
Heartbeat CPU 0 instructions: 490000002 cycles: 424597839 heartbeat IPC: 0.9719 cumulative IPC: 1.068 (Simulation time: 01 hr 42 min 14 sec)
Heartbeat CPU 0 instructions: 500000003 cycles: 437546554 heartbeat IPC: 0.7723 cumulative IPC: 1.059 (Simulation time: 01 hr 45 min 13 sec)
Heartbeat CPU 0 instructions: 510000004 cycles: 450444509 heartbeat IPC: 0.7753 cumulative IPC: 1.05 (Simulation time: 01 hr 48 min 20 sec)
Heartbeat CPU 0 instructions: 520000000 cycles: 463662908 heartbeat IPC: 0.7565 cumulative IPC: 1.042 (Simulation time: 01 hr 51 min 27 sec)
Heartbeat CPU 0 instructions: 530000004 cycles: 476696681 heartbeat IPC: 0.7672 cumulative IPC: 1.034 (Simulation time: 01 hr 54 min 30 sec)
Heartbeat CPU 0 instructions: 540000002 cycles: 489778458 heartbeat IPC: 0.7644 cumulative IPC: 1.027 (Simulation time: 01 hr 57 min 34 sec)
Heartbeat CPU 0 instructions: 550000002 cycles: 501134400 heartbeat IPC: 0.8806 cumulative IPC: 1.023 (Simulation time: 02 hr 00 min 12 sec)
Heartbeat CPU 0 instructions: 560000000 cycles: 512271198 heartbeat IPC: 0.8979 cumulative IPC: 1.02 (Simulation time: 02 hr 02 min 48 sec)
Heartbeat CPU 0 instructions: 570000002 cycles: 523418916 heartbeat IPC: 0.897 cumulative IPC: 1.018 (Simulation time: 02 hr 05 min 22 sec)
Heartbeat CPU 0 instructions: 580000003 cycles: 534566675 heartbeat IPC: 0.897 cumulative IPC: 1.015 (Simulation time: 02 hr 07 min 58 sec)
Heartbeat CPU 0 instructions: 590000003 cycles: 545744432 heartbeat IPC: 0.8946 cumulative IPC: 1.013 (Simulation time: 02 hr 10 min 36 sec)
*** Reached end of trace: (0, "traces/lu.A.champsimtrace")
Heartbeat CPU 0 instructions: 600000001 cycles: 556987643 heartbeat IPC: 0.8894 cumulative IPC: 1.01 (Simulation time: 02 hr 13 min 12 sec)
Heartbeat CPU 0 instructions: 610000000 cycles: 564243353 heartbeat IPC: 1.378 cumulative IPC: 1.015 (Simulation time: 02 hr 14 min 56 sec)
Heartbeat CPU 0 instructions: 620000000 cycles: 566878624 heartbeat IPC: 3.795 cumulative IPC: 1.028 (Simulation time: 02 hr 15 min 54 sec)
Heartbeat CPU 0 instructions: 630000004 cycles: 569513263 heartbeat IPC: 3.796 cumulative IPC: 1.041 (Simulation time: 02 hr 16 min 51 sec)
Heartbeat CPU 0 instructions: 640000002 cycles: 572147888 heartbeat IPC: 3.796 cumulative IPC: 1.054 (Simulation time: 02 hr 17 min 47 sec)
Heartbeat CPU 0 instructions: 650000001 cycles: 574782527 heartbeat IPC: 3.796 cumulative IPC: 1.067 (Simulation time: 02 hr 18 min 42 sec)
Simulation finished CPU 0 instructions: 600000001 cycles: 562282325 cumulative IPC: 1.067 (Simulation time: 02 hr 18 min 42 sec)
Simulation complete CPU 0 instructions: 600000001 cycles: 562282325 cumulative IPC: 1.067 (Simulation time: 02 hr 18 min 42 sec)

ChampSim completed all CPUs

=== Simulation ===
CPU 0 runs traces/lu.A.champsimtrace
Region of Interest Statistics

CPU 0 cumulative IPC: 1.067 instructions: 600000001 cycles: 562282325
CPU 0 Branch Prediction Accuracy: 96.65% MPKI: 0.6426 Average ROB Occupancy at Mispredict: 330.1
Branch type MPKI
BRANCH_DIRECT_JUMP: 5e-06
BRANCH_INDIRECT: 7.33e-05
BRANCH_CONDITIONAL: 0.642
BRANCH_DIRECT_CALL: 6.67e-06
BRANCH_INDIRECT_CALL: 3.17e-05
BRANCH_RETURN: 1.83e-05

LLC TOTAL        ACCESS:    6210989 HIT:    2672108 MISS:    3538881
LLC LOAD         ACCESS:    2481289 HIT:     540453 MISS:    1940836
LLC RFO          ACCESS:     831679 HIT:       5075 MISS:     826604
LLC PREFETCH     ACCESS:    1103840 HIT:     336494 MISS:     767346
LLC WRITE        ACCESS:    1782330 HIT:    1780993 MISS:       1337
LLC TRANSLATION  ACCESS:      11851 HIT:       9093 MISS:       2758
LLC PREFETCH REQUESTED:    1103840 ISSUED:    1103840 USEFUL:     522712 USELESS:       8121
LLC AVERAGE MISS LATENCY: 1019 cycles
cpu0_DTLB TOTAL        ACCESS:  116614392 HIT:  109395024 MISS:    7219368
cpu0_DTLB LOAD         ACCESS:  116614392 HIT:  109395024 MISS:    7219368
cpu0_DTLB RFO          ACCESS:          0 HIT:          0 MISS:          0
cpu0_DTLB PREFETCH     ACCESS:          0 HIT:          0 MISS:          0
cpu0_DTLB WRITE        ACCESS:          0 HIT:          0 MISS:          0
cpu0_DTLB TRANSLATION  ACCESS:          0 HIT:          0 MISS:          0
cpu0_DTLB PREFETCH REQUESTED:          0 ISSUED:          0 USEFUL:          0 USELESS:          0
cpu0_DTLB AVERAGE MISS LATENCY: 5.13 cycles
cpu0_ITLB TOTAL        ACCESS:     711028 HIT:     710809 MISS:        219
cpu0_ITLB LOAD         ACCESS:     711028 HIT:     710809 MISS:        219
cpu0_ITLB RFO          ACCESS:          0 HIT:          0 MISS:          0
cpu0_ITLB PREFETCH     ACCESS:          0 HIT:          0 MISS:          0
cpu0_ITLB WRITE        ACCESS:          0 HIT:          0 MISS:          0
cpu0_ITLB TRANSLATION  ACCESS:          0 HIT:          0 MISS:          0
cpu0_ITLB PREFETCH REQUESTED:          0 ISSUED:          0 USEFUL:          0 USELESS:          0
cpu0_ITLB AVERAGE MISS LATENCY: 310.7 cycles
cpu0_L1D TOTAL        ACCESS:  168463555 HIT:  158553247 MISS:    9910308
cpu0_L1D LOAD         ACCESS:  131410442 HIT:  125413122 MISS:    5997320
cpu0_L1D RFO          ACCESS:          0 HIT:          0 MISS:          0
cpu0_L1D PREFETCH     ACCESS:          0 HIT:          0 MISS:          0
cpu0_L1D WRITE        ACCESS:   37000514 HIT:   33112440 MISS:    3888074
cpu0_L1D TRANSLATION  ACCESS:      52599 HIT:      27685 MISS:      24914
cpu0_L1D PREFETCH REQUESTED:          0 ISSUED:          0 USEFUL:          0 USELESS:          0
cpu0_L1D AVERAGE MISS LATENCY: 292.9 cycles
cpu0_L1I TOTAL        ACCESS:    1088272 HIT:    1085534 MISS:       2738
cpu0_L1I LOAD         ACCESS:    1088272 HIT:    1085534 MISS:       2738
cpu0_L1I RFO          ACCESS:          0 HIT:          0 MISS:          0
cpu0_L1I PREFETCH     ACCESS:          0 HIT:          0 MISS:          0
cpu0_L1I WRITE        ACCESS:          0 HIT:          0 MISS:          0
cpu0_L1I TRANSLATION  ACCESS:          0 HIT:          0 MISS:          0
cpu0_L1I PREFETCH REQUESTED:          0 ISSUED:          0 USEFUL:          0 USELESS:          0
cpu0_L1I AVERAGE MISS LATENCY: 522.6 cycles
cpu0_L2C TOTAL        ACCESS:    5977767 HIT:    2648597 MISS:    3329170
cpu0_L2C LOAD         ACCESS:    3057238 HIT:     575948 MISS:    2481290
cpu0_L2C RFO          ACCESS:     878255 HIT:      46576 MISS:     831679
cpu0_L2C PREFETCH     ACCESS:          0 HIT:          0 MISS:          0
cpu0_L2C WRITE        ACCESS:    2017406 HIT:    2013056 MISS:       4350
cpu0_L2C TRANSLATION  ACCESS:      24868 HIT:      13017 MISS:      11851
cpu0_L2C PREFETCH REQUESTED:          0 ISSUED:          0 USEFUL:          0 USELESS:          0
cpu0_L2C AVERAGE MISS LATENCY: 935.8 cycles
cpu0_STLB TOTAL        ACCESS:    3988960 HIT:    3936374 MISS:      52586
cpu0_STLB LOAD         ACCESS:    3988960 HIT:    3936374 MISS:      52586
cpu0_STLB RFO          ACCESS:          0 HIT:          0 MISS:          0
cpu0_STLB PREFETCH     ACCESS:          0 HIT:          0 MISS:          0
cpu0_STLB WRITE        ACCESS:          0 HIT:          0 MISS:          0
cpu0_STLB TRANSLATION  ACCESS:          0 HIT:          0 MISS:          0
cpu0_STLB PREFETCH REQUESTED:          0 ISSUED:          0 USEFUL:          0 USELESS:          0
cpu0_STLB AVERAGE MISS LATENCY: 457 cycles

DRAM Statistics

Channel 0 RQ ROW_BUFFER_HIT:     815230
  ROW_BUFFER_MISS:    2314696
 AVG DBUS CONGESTED CYCLE: 3.937
WQ ROW_BUFFER_HIT: Channel 0 
  ROW_BUFFER_MISS:     301793
  FULL:    1380218
