WARNING: physical memory size is smaller than virtual memory size.

*** ChampSim Multicore Out-of-Order Simulator ***
Warmup Instructions: 50000000
Simulation Instructions: 600000000
Number of CPUs: 1
Page size: 4096

CPU 0 Tage branch predictor
Off-chip DRAM Size: 4 GiB Channels: 1 Width: 64-bit Data Race: 3200 MT/s
Heartbeat CPU 0 instructions: 10000000 cycles: 2500202 heartbeat IPC: 4 cumulative IPC: 4 (Simulation time: 00 hr 00 min 37 sec)
Heartbeat CPU 0 instructions: 20000000 cycles: 5000202 heartbeat IPC: 4 cumulative IPC: 4 (Simulation time: 00 hr 01 min 13 sec)
Heartbeat CPU 0 instructions: 30000000 cycles: 7500202 heartbeat IPC: 4 cumulative IPC: 4 (Simulation time: 00 hr 01 min 50 sec)
Heartbeat CPU 0 instructions: 40000000 cycles: 10000202 heartbeat IPC: 4 cumulative IPC: 4 (Simulation time: 00 hr 02 min 25 sec)
Heartbeat CPU 0 instructions: 50000000 cycles: 12500202 heartbeat IPC: 4 cumulative IPC: 4 (Simulation time: 00 hr 03 min 02 sec)
Warmup finished CPU 0 instructions: 50000000 cycles: 12500203 cumulative IPC: 4 (Simulation time: 00 hr 03 min 02 sec)
Warmup complete CPU 0 instructions: 50000000 cycles: 12500203 cumulative IPC: 4 (Simulation time: 00 hr 03 min 02 sec)
Heartbeat CPU 0 instructions: 60000004 cycles: 15002586 heartbeat IPC: 3.996 cumulative IPC: 3.996 (Simulation time: 00 hr 03 min 48 sec)
Heartbeat CPU 0 instructions: 70000003 cycles: 17503588 heartbeat IPC: 3.998 cumulative IPC: 3.997 (Simulation time: 00 hr 04 min 28 sec)
Heartbeat CPU 0 instructions: 80000004 cycles: 20004843 heartbeat IPC: 3.998 cumulative IPC: 3.998 (Simulation time: 00 hr 05 min 09 sec)
Heartbeat CPU 0 instructions: 90000000 cycles: 22506356 heartbeat IPC: 3.998 cumulative IPC: 3.998 (Simulation time: 00 hr 05 min 51 sec)
Heartbeat CPU 0 instructions: 100000001 cycles: 25007391 heartbeat IPC: 3.998 cumulative IPC: 3.998 (Simulation time: 00 hr 06 min 33 sec)
Heartbeat CPU 0 instructions: 110000000 cycles: 27510302 heartbeat IPC: 3.995 cumulative IPC: 3.997 (Simulation time: 00 hr 07 min 16 sec)
Heartbeat CPU 0 instructions: 120000004 cycles: 30011043 heartbeat IPC: 3.999 cumulative IPC: 3.998 (Simulation time: 00 hr 07 min 58 sec)
Heartbeat CPU 0 instructions: 130000000 cycles: 32511850 heartbeat IPC: 3.999 cumulative IPC: 3.998 (Simulation time: 00 hr 08 min 41 sec)
Heartbeat CPU 0 instructions: 140000004 cycles: 35013126 heartbeat IPC: 3.998 cumulative IPC: 3.998 (Simulation time: 00 hr 09 min 24 sec)
Heartbeat CPU 0 instructions: 150000000 cycles: 37513477 heartbeat IPC: 3.999 cumulative IPC: 3.998 (Simulation time: 00 hr 10 min 04 sec)
Heartbeat CPU 0 instructions: 160000001 cycles: 40016514 heartbeat IPC: 3.995 cumulative IPC: 3.998 (Simulation time: 00 hr 10 min 46 sec)
Heartbeat CPU 0 instructions: 170000000 cycles: 42518217 heartbeat IPC: 3.997 cumulative IPC: 3.998 (Simulation time: 00 hr 11 min 28 sec)
Heartbeat CPU 0 instructions: 180000003 cycles: 45019753 heartbeat IPC: 3.998 cumulative IPC: 3.998 (Simulation time: 00 hr 12 min 11 sec)
Heartbeat CPU 0 instructions: 190000000 cycles: 47520786 heartbeat IPC: 3.998 cumulative IPC: 3.998 (Simulation time: 00 hr 12 min 53 sec)
Heartbeat CPU 0 instructions: 200000004 cycles: 50021918 heartbeat IPC: 3.998 cumulative IPC: 3.998 (Simulation time: 00 hr 13 min 38 sec)
Heartbeat CPU 0 instructions: 210000004 cycles: 52522423 heartbeat IPC: 3.999 cumulative IPC: 3.998 (Simulation time: 00 hr 14 min 20 sec)
Heartbeat CPU 0 instructions: 220000001 cycles: 55023649 heartbeat IPC: 3.998 cumulative IPC: 3.998 (Simulation time: 00 hr 15 min 01 sec)
Heartbeat CPU 0 instructions: 230000000 cycles: 57525916 heartbeat IPC: 3.996 cumulative IPC: 3.998 (Simulation time: 00 hr 15 min 44 sec)
Heartbeat CPU 0 instructions: 240000001 cycles: 95919220 heartbeat IPC: 0.2605 cumulative IPC: 2.278 (Simulation time: 00 hr 19 min 43 sec)
Heartbeat CPU 0 instructions: 250000000 cycles: 106701755 heartbeat IPC: 0.9274 cumulative IPC: 2.123 (Simulation time: 00 hr 21 min 29 sec)
Heartbeat CPU 0 instructions: 260000001 cycles: 117533839 heartbeat IPC: 0.9232 cumulative IPC: 1.999 (Simulation time: 00 hr 23 min 14 sec)
Heartbeat CPU 0 instructions: 270000003 cycles: 128217327 heartbeat IPC: 0.936 cumulative IPC: 1.901 (Simulation time: 00 hr 24 min 56 sec)
Heartbeat CPU 0 instructions: 280000003 cycles: 136480616 heartbeat IPC: 1.21 cumulative IPC: 1.855 (Simulation time: 00 hr 26 min 22 sec)
Heartbeat CPU 0 instructions: 290000000 cycles: 144226817 heartbeat IPC: 1.291 cumulative IPC: 1.822 (Simulation time: 00 hr 27 min 49 sec)
Heartbeat CPU 0 instructions: 300000002 cycles: 151958018 heartbeat IPC: 1.293 cumulative IPC: 1.793 (Simulation time: 00 hr 29 min 12 sec)
Heartbeat CPU 0 instructions: 310000002 cycles: 159648631 heartbeat IPC: 1.3 cumulative IPC: 1.767 (Simulation time: 00 hr 30 min 35 sec)
Heartbeat CPU 0 instructions: 320000000 cycles: 167624486 heartbeat IPC: 1.254 cumulative IPC: 1.741 (Simulation time: 00 hr 32 min 01 sec)
Heartbeat CPU 0 instructions: 330000002 cycles: 176291949 heartbeat IPC: 1.154 cumulative IPC: 1.709 (Simulation time: 00 hr 33 min 31 sec)
Heartbeat CPU 0 instructions: 340000000 cycles: 184965986 heartbeat IPC: 1.153 cumulative IPC: 1.681 (Simulation time: 00 hr 35 min 01 sec)
Heartbeat CPU 0 instructions: 350000003 cycles: 193614382 heartbeat IPC: 1.156 cumulative IPC: 1.656 (Simulation time: 00 hr 36 min 33 sec)
Heartbeat CPU 0 instructions: 360000001 cycles: 202285183 heartbeat IPC: 1.153 cumulative IPC: 1.633 (Simulation time: 00 hr 38 min 08 sec)
Heartbeat CPU 0 instructions: 370000002 cycles: 210929380 heartbeat IPC: 1.157 cumulative IPC: 1.613 (Simulation time: 00 hr 39 min 51 sec)
Heartbeat CPU 0 instructions: 380000003 cycles: 219145152 heartbeat IPC: 1.217 cumulative IPC: 1.597 (Simulation time: 00 hr 41 min 35 sec)
Heartbeat CPU 0 instructions: 390000000 cycles: 227331412 heartbeat IPC: 1.222 cumulative IPC: 1.583 (Simulation time: 00 hr 43 min 19 sec)
Heartbeat CPU 0 instructions: 400000000 cycles: 235583657 heartbeat IPC: 1.212 cumulative IPC: 1.569 (Simulation time: 00 hr 45 min 03 sec)
Heartbeat CPU 0 instructions: 410000001 cycles: 243898469 heartbeat IPC: 1.203 cumulative IPC: 1.556 (Simulation time: 00 hr 46 min 41 sec)
Heartbeat CPU 0 instructions: 420000000 cycles: 252185314 heartbeat IPC: 1.207 cumulative IPC: 1.544 (Simulation time: 00 hr 48 min 14 sec)
Heartbeat CPU 0 instructions: 430000002 cycles: 260458844 heartbeat IPC: 1.209 cumulative IPC: 1.533 (Simulation time: 00 hr 49 min 45 sec)
Heartbeat CPU 0 instructions: 440000004 cycles: 417057753 heartbeat IPC: 0.06386 cumulative IPC: 0.964 (Simulation time: 01 hr 09 min 31 sec)
Heartbeat CPU 0 instructions: 450000003 cycles: 428175705 heartbeat IPC: 0.8994 cumulative IPC: 0.9623 (Simulation time: 01 hr 11 min 22 sec)
Heartbeat CPU 0 instructions: 460000004 cycles: 439297983 heartbeat IPC: 0.8991 cumulative IPC: 0.9606 (Simulation time: 01 hr 13 min 10 sec)
Heartbeat CPU 0 instructions: 470000002 cycles: 450475287 heartbeat IPC: 0.8947 cumulative IPC: 0.959 (Simulation time: 01 hr 15 min 01 sec)
Heartbeat CPU 0 instructions: 480000004 cycles: 461628264 heartbeat IPC: 0.8966 cumulative IPC: 0.9574 (Simulation time: 01 hr 16 min 55 sec)
Heartbeat CPU 0 instructions: 490000002 cycles: 473051990 heartbeat IPC: 0.8754 cumulative IPC: 0.9554 (Simulation time: 01 hr 18 min 48 sec)
Heartbeat CPU 0 instructions: 500000003 cycles: 487023427 heartbeat IPC: 0.7157 cumulative IPC: 0.9483 (Simulation time: 01 hr 21 min 01 sec)
Heartbeat CPU 0 instructions: 510000000 cycles: 500923601 heartbeat IPC: 0.7194 cumulative IPC: 0.9418 (Simulation time: 01 hr 23 min 15 sec)
Heartbeat CPU 0 instructions: 520000000 cycles: 514955954 heartbeat IPC: 0.7126 cumulative IPC: 0.9354 (Simulation time: 01 hr 25 min 29 sec)
Heartbeat CPU 0 instructions: 530000004 cycles: 528798502 heartbeat IPC: 0.7224 cumulative IPC: 0.9297 (Simulation time: 01 hr 27 min 43 sec)
Heartbeat CPU 0 instructions: 540000002 cycles: 542746328 heartbeat IPC: 0.717 cumulative IPC: 0.9241 (Simulation time: 01 hr 29 min 57 sec)
Heartbeat CPU 0 instructions: 550000002 cycles: 554389717 heartbeat IPC: 0.8589 cumulative IPC: 0.9227 (Simulation time: 01 hr 31 min 50 sec)
Heartbeat CPU 0 instructions: 560000000 cycles: 565669766 heartbeat IPC: 0.8865 cumulative IPC: 0.922 (Simulation time: 01 hr 33 min 37 sec)
Heartbeat CPU 0 instructions: 570000002 cycles: 576986529 heartbeat IPC: 0.8836 cumulative IPC: 0.9212 (Simulation time: 01 hr 35 min 25 sec)
Heartbeat CPU 0 instructions: 580000000 cycles: 588333645 heartbeat IPC: 0.8813 cumulative IPC: 0.9204 (Simulation time: 01 hr 37 min 16 sec)
Heartbeat CPU 0 instructions: 590000003 cycles: 599658173 heartbeat IPC: 0.883 cumulative IPC: 0.9197 (Simulation time: 01 hr 39 min 07 sec)
*** Reached end of trace: (0, "traces/lu.A.champsimtrace")
Heartbeat CPU 0 instructions: 600000001 cycles: 611068862 heartbeat IPC: 0.8764 cumulative IPC: 0.9189 (Simulation time: 01 hr 41 min 05 sec)
Heartbeat CPU 0 instructions: 610000000 cycles: 618684513 heartbeat IPC: 1.313 cumulative IPC: 0.9238 (Simulation time: 01 hr 42 min 29 sec)
Heartbeat CPU 0 instructions: 620000000 cycles: 621185710 heartbeat IPC: 3.998 cumulative IPC: 0.9364 (Simulation time: 01 hr 43 min 13 sec)
Heartbeat CPU 0 instructions: 630000004 cycles: 623686444 heartbeat IPC: 3.999 cumulative IPC: 0.949 (Simulation time: 01 hr 43 min 57 sec)
Heartbeat CPU 0 instructions: 640000002 cycles: 626186444 heartbeat IPC: 4 cumulative IPC: 0.9614 (Simulation time: 01 hr 44 min 41 sec)
Heartbeat CPU 0 instructions: 650000001 cycles: 628686443 heartbeat IPC: 4 cumulative IPC: 0.9737 (Simulation time: 01 hr 45 min 28 sec)
Simulation finished CPU 0 instructions: 600000001 cycles: 616186241 cumulative IPC: 0.9737 (Simulation time: 01 hr 45 min 28 sec)
Simulation complete CPU 0 instructions: 600000001 cycles: 616186241 cumulative IPC: 0.9737 (Simulation time: 01 hr 45 min 28 sec)

ChampSim completed all CPUs

=== Simulation ===
CPU 0 runs traces/lu.A.champsimtrace
Region of Interest Statistics

CPU 0 cumulative IPC: 0.9737 instructions: 600000001 cycles: 616186241
CPU 0 Branch Prediction Accuracy: 99.98% MPKI: 0.004037 Average ROB Occupancy at Mispredict: 112.3
Branch type MPKI
BRANCH_DIRECT_JUMP: 5e-06
BRANCH_INDIRECT: 7.33e-05
BRANCH_CONDITIONAL: 0.0039
BRANCH_DIRECT_CALL: 6.67e-06
BRANCH_INDIRECT_CALL: 3.17e-05
BRANCH_RETURN: 1.83e-05

LLC TOTAL        ACCESS:    5107189 HIT:    1767008 MISS:    3340181
LLC LOAD         ACCESS:    2481323 HIT:     183740 MISS:    2297583
LLC RFO          ACCESS:     831676 HIT:       6077 MISS:     825599
LLC PREFETCH     ACCESS:          0 HIT:          0 MISS:          0
LLC WRITE        ACCESS:    1782321 HIT:    1569857 MISS:     212464
LLC TRANSLATION  ACCESS:      11869 HIT:       7334 MISS:       4535
LLC PREFETCH REQUESTED:          0 ISSUED:          0 USEFUL:          0 USELESS:          0
LLC AVERAGE MISS LATENCY: 1087 cycles
cpu0_DTLB TOTAL        ACCESS:  125075608 HIT:  117676580 MISS:    7399028
cpu0_DTLB LOAD         ACCESS:  125075608 HIT:  117676580 MISS:    7399028
cpu0_DTLB RFO          ACCESS:          0 HIT:          0 MISS:          0
cpu0_DTLB PREFETCH     ACCESS:          0 HIT:          0 MISS:          0
cpu0_DTLB WRITE        ACCESS:          0 HIT:          0 MISS:          0
cpu0_DTLB TRANSLATION  ACCESS:          0 HIT:          0 MISS:          0
cpu0_DTLB PREFETCH REQUESTED:          0 ISSUED:          0 USEFUL:          0 USELESS:          0
cpu0_DTLB AVERAGE MISS LATENCY: 5.729 cycles
cpu0_ITLB TOTAL        ACCESS:    1262594 HIT:    1262364 MISS:        230
cpu0_ITLB LOAD         ACCESS:    1262594 HIT:    1262364 MISS:        230
cpu0_ITLB RFO          ACCESS:          0 HIT:          0 MISS:          0
cpu0_ITLB PREFETCH     ACCESS:          0 HIT:          0 MISS:          0
cpu0_ITLB WRITE        ACCESS:          0 HIT:          0 MISS:          0
cpu0_ITLB TRANSLATION  ACCESS:          0 HIT:          0 MISS:          0
cpu0_ITLB PREFETCH REQUESTED:          0 ISSUED:          0 USEFUL:          0 USELESS:          0
cpu0_ITLB AVERAGE MISS LATENCY: 219.9 cycles
cpu0_L1D TOTAL        ACCESS:  179187475 HIT:  169479616 MISS:    9707859
cpu0_L1D LOAD         ACCESS:  142135502 HIT:  136250382 MISS:    5885120
cpu0_L1D RFO          ACCESS:          0 HIT:          0 MISS:          0
cpu0_L1D PREFETCH     ACCESS:          0 HIT:          0 MISS:          0
cpu0_L1D WRITE        ACCESS:   36999375 HIT:   33201537 MISS:    3797838
cpu0_L1D TRANSLATION  ACCESS:      52598 HIT:      27697 MISS:      24901
cpu0_L1D PREFETCH REQUESTED:          0 ISSUED:          0 USEFUL:          0 USELESS:          0
cpu0_L1D AVERAGE MISS LATENCY: 359.4 cycles
cpu0_L1I TOTAL        ACCESS:    1589973 HIT:    1587149 MISS:       2824
cpu0_L1I LOAD         ACCESS:    1589973 HIT:    1587149 MISS:       2824
cpu0_L1I RFO          ACCESS:          0 HIT:          0 MISS:          0
cpu0_L1I PREFETCH     ACCESS:          0 HIT:          0 MISS:          0
cpu0_L1I WRITE        ACCESS:          0 HIT:          0 MISS:          0
cpu0_L1I TRANSLATION  ACCESS:          0 HIT:          0 MISS:          0
cpu0_L1I PREFETCH REQUESTED:          0 ISSUED:          0 USEFUL:          0 USELESS:          0
cpu0_L1I AVERAGE MISS LATENCY: 380.9 cycles
cpu0_L2C TOTAL        ACCESS:    5978852 HIT:    2649666 MISS:    3329186
cpu0_L2C LOAD         ACCESS:    3057670 HIT:     576347 MISS:    2481323
cpu0_L2C RFO          ACCESS:     878409 HIT:      46733 MISS:     831676
cpu0_L2C PREFETCH     ACCESS:          0 HIT:          0 MISS:          0
cpu0_L2C WRITE        ACCESS:    2017912 HIT:    2013594 MISS:       4318
cpu0_L2C TRANSLATION  ACCESS:      24861 HIT:      12992 MISS:      11869
cpu0_L2C PREFETCH REQUESTED:          0 ISSUED:          0 USEFUL:          0 USELESS:          0
cpu0_L2C AVERAGE MISS LATENCY: 1111 cycles
cpu0_STLB TOTAL        ACCESS:    3993521 HIT:    3940935 MISS:      52586
cpu0_STLB LOAD         ACCESS:    3993521 HIT:    3940935 MISS:      52586
cpu0_STLB RFO          ACCESS:          0 HIT:          0 MISS:          0
cpu0_STLB PREFETCH     ACCESS:          0 HIT:          0 MISS:          0
cpu0_STLB WRITE        ACCESS:          0 HIT:          0 MISS:          0
cpu0_STLB TRANSLATION  ACCESS:          0 HIT:          0 MISS:          0
cpu0_STLB PREFETCH REQUESTED:          0 ISSUED:          0 USEFUL:          0 USELESS:          0
cpu0_STLB AVERAGE MISS LATENCY: 607.5 cycles

DRAM Statistics

Channel 0 RQ ROW_BUFFER_HIT:     721045
  ROW_BUFFER_MISS:    2406578
 AVG DBUS CONGESTED CYCLE: 3.949
WQ ROW_BUFFER_HIT: Channel 0 
  ROW_BUFFER_MISS:      32447
  FULL:    1657913
