WARNING: physical memory size is smaller than virtual memory size.

*** ChampSim Multicore Out-of-Order Simulator ***
Warmup Instructions: 50000000
Simulation Instructions: 600000000
Number of CPUs: 1
Page size: 4096

Off-chip DRAM Size: 4 GiB Channels: 1 Width: 64-bit Data Race: 3200 MT/s
Heartbeat CPU 0 instructions: 10000000 cycles: 2500202 heartbeat IPC: 4 cumulative IPC: 4 (Simulation time: 00 hr 00 min 23 sec)
Heartbeat CPU 0 instructions: 20000000 cycles: 5000202 heartbeat IPC: 4 cumulative IPC: 4 (Simulation time: 00 hr 00 min 52 sec)
Heartbeat CPU 0 instructions: 30000000 cycles: 7500202 heartbeat IPC: 4 cumulative IPC: 4 (Simulation time: 00 hr 01 min 24 sec)
Heartbeat CPU 0 instructions: 40000000 cycles: 10000202 heartbeat IPC: 4 cumulative IPC: 4 (Simulation time: 00 hr 01 min 54 sec)
Heartbeat CPU 0 instructions: 50000000 cycles: 12500202 heartbeat IPC: 4 cumulative IPC: 4 (Simulation time: 00 hr 02 min 26 sec)
Warmup finished CPU 0 instructions: 50000000 cycles: 12500203 cumulative IPC: 4 (Simulation time: 00 hr 02 min 26 sec)
Warmup complete CPU 0 instructions: 50000000 cycles: 12500203 cumulative IPC: 4 (Simulation time: 00 hr 02 min 26 sec)
Heartbeat CPU 0 instructions: 60000004 cycles: 15134826 heartbeat IPC: 3.796 cumulative IPC: 3.796 (Simulation time: 00 hr 03 min 05 sec)
Heartbeat CPU 0 instructions: 70000003 cycles: 17769670 heartbeat IPC: 3.795 cumulative IPC: 3.795 (Simulation time: 00 hr 03 min 43 sec)
Heartbeat CPU 0 instructions: 80000003 cycles: 20404988 heartbeat IPC: 3.795 cumulative IPC: 3.795 (Simulation time: 00 hr 04 min 24 sec)
Heartbeat CPU 0 instructions: 90000004 cycles: 23040258 heartbeat IPC: 3.795 cumulative IPC: 3.795 (Simulation time: 00 hr 05 min 03 sec)
Heartbeat CPU 0 instructions: 100000002 cycles: 25675532 heartbeat IPC: 3.795 cumulative IPC: 3.795 (Simulation time: 00 hr 05 min 41 sec)
Heartbeat CPU 0 instructions: 110000003 cycles: 28311592 heartbeat IPC: 3.794 cumulative IPC: 3.795 (Simulation time: 00 hr 06 min 18 sec)
Heartbeat CPU 0 instructions: 120000004 cycles: 30946904 heartbeat IPC: 3.795 cumulative IPC: 3.795 (Simulation time: 00 hr 06 min 54 sec)
Heartbeat CPU 0 instructions: 130000000 cycles: 33582396 heartbeat IPC: 3.794 cumulative IPC: 3.795 (Simulation time: 00 hr 07 min 30 sec)
Heartbeat CPU 0 instructions: 140000004 cycles: 36217478 heartbeat IPC: 3.795 cumulative IPC: 3.795 (Simulation time: 00 hr 08 min 06 sec)
Heartbeat CPU 0 instructions: 150000000 cycles: 38852343 heartbeat IPC: 3.795 cumulative IPC: 3.795 (Simulation time: 00 hr 08 min 42 sec)
Heartbeat CPU 0 instructions: 160000001 cycles: 41487905 heartbeat IPC: 3.794 cumulative IPC: 3.795 (Simulation time: 00 hr 09 min 18 sec)
Heartbeat CPU 0 instructions: 170000000 cycles: 44122533 heartbeat IPC: 3.796 cumulative IPC: 3.795 (Simulation time: 00 hr 09 min 53 sec)
Heartbeat CPU 0 instructions: 180000003 cycles: 46757176 heartbeat IPC: 3.796 cumulative IPC: 3.795 (Simulation time: 00 hr 10 min 29 sec)
Heartbeat CPU 0 instructions: 190000000 cycles: 49392638 heartbeat IPC: 3.794 cumulative IPC: 3.795 (Simulation time: 00 hr 11 min 04 sec)
Heartbeat CPU 0 instructions: 200000004 cycles: 52028418 heartbeat IPC: 3.794 cumulative IPC: 3.795 (Simulation time: 00 hr 11 min 40 sec)
Heartbeat CPU 0 instructions: 210000004 cycles: 54663267 heartbeat IPC: 3.795 cumulative IPC: 3.795 (Simulation time: 00 hr 12 min 15 sec)
Heartbeat CPU 0 instructions: 220000001 cycles: 57299125 heartbeat IPC: 3.794 cumulative IPC: 3.795 (Simulation time: 00 hr 12 min 50 sec)
Heartbeat CPU 0 instructions: 230000002 cycles: 59933770 heartbeat IPC: 3.796 cumulative IPC: 3.795 (Simulation time: 00 hr 13 min 26 sec)
Heartbeat CPU 0 instructions: 240000000 cycles: 93669729 heartbeat IPC: 0.2964 cumulative IPC: 2.341 (Simulation time: 00 hr 16 min 48 sec)
Heartbeat CPU 0 instructions: 250000000 cycles: 102816624 heartbeat IPC: 1.093 cumulative IPC: 2.214 (Simulation time: 00 hr 18 min 09 sec)
Heartbeat CPU 0 instructions: 260000001 cycles: 111958162 heartbeat IPC: 1.094 cumulative IPC: 2.111 (Simulation time: 00 hr 19 min 34 sec)
Heartbeat CPU 0 instructions: 270000001 cycles: 124009912 heartbeat IPC: 0.8298 cumulative IPC: 1.973 (Simulation time: 00 hr 21 min 19 sec)
Heartbeat CPU 0 instructions: 280000002 cycles: 132206974 heartbeat IPC: 1.22 cumulative IPC: 1.921 (Simulation time: 00 hr 22 min 36 sec)
Heartbeat CPU 0 instructions: 290000001 cycles: 140429773 heartbeat IPC: 1.216 cumulative IPC: 1.876 (Simulation time: 00 hr 23 min 53 sec)
Heartbeat CPU 0 instructions: 300000002 cycles: 148653126 heartbeat IPC: 1.216 cumulative IPC: 1.836 (Simulation time: 00 hr 25 min 10 sec)
Heartbeat CPU 0 instructions: 310000001 cycles: 156888425 heartbeat IPC: 1.214 cumulative IPC: 1.801 (Simulation time: 00 hr 26 min 27 sec)
Heartbeat CPU 0 instructions: 320000001 cycles: 165189152 heartbeat IPC: 1.205 cumulative IPC: 1.768 (Simulation time: 00 hr 27 min 47 sec)
Heartbeat CPU 0 instructions: 330000002 cycles: 173533272 heartbeat IPC: 1.198 cumulative IPC: 1.739 (Simulation time: 00 hr 29 min 08 sec)
Heartbeat CPU 0 instructions: 340000004 cycles: 181801213 heartbeat IPC: 1.209 cumulative IPC: 1.713 (Simulation time: 00 hr 30 min 30 sec)
Heartbeat CPU 0 instructions: 350000003 cycles: 190198265 heartbeat IPC: 1.191 cumulative IPC: 1.688 (Simulation time: 00 hr 31 min 50 sec)
Heartbeat CPU 0 instructions: 360000001 cycles: 198528362 heartbeat IPC: 1.2 cumulative IPC: 1.666 (Simulation time: 00 hr 33 min 10 sec)
Heartbeat CPU 0 instructions: 370000002 cycles: 206836174 heartbeat IPC: 1.204 cumulative IPC: 1.647 (Simulation time: 00 hr 34 min 30 sec)
Heartbeat CPU 0 instructions: 380000003 cycles: 214811990 heartbeat IPC: 1.254 cumulative IPC: 1.631 (Simulation time: 00 hr 35 min 49 sec)
Heartbeat CPU 0 instructions: 390000000 cycles: 223020116 heartbeat IPC: 1.218 cumulative IPC: 1.615 (Simulation time: 00 hr 37 min 10 sec)
Heartbeat CPU 0 instructions: 400000000 cycles: 231143627 heartbeat IPC: 1.231 cumulative IPC: 1.601 (Simulation time: 00 hr 38 min 30 sec)
Heartbeat CPU 0 instructions: 410000002 cycles: 239258965 heartbeat IPC: 1.232 cumulative IPC: 1.588 (Simulation time: 00 hr 39 min 51 sec)
Heartbeat CPU 0 instructions: 420000000 cycles: 247357371 heartbeat IPC: 1.235 cumulative IPC: 1.575 (Simulation time: 00 hr 41 min 12 sec)
Heartbeat CPU 0 instructions: 430000002 cycles: 255496871 heartbeat IPC: 1.229 cumulative IPC: 1.564 (Simulation time: 00 hr 42 min 32 sec)
Heartbeat CPU 0 instructions: 440000004 cycles: 370560028 heartbeat IPC: 0.08691 cumulative IPC: 1.089 (Simulation time: 00 hr 57 min 14 sec)
Heartbeat CPU 0 instructions: 450000003 cycles: 380153743 heartbeat IPC: 1.042 cumulative IPC: 1.088 (Simulation time: 00 hr 58 min 47 sec)
Heartbeat CPU 0 instructions: 460000004 cycles: 389791000 heartbeat IPC: 1.038 cumulative IPC: 1.087 (Simulation time: 01 hr 00 min 16 sec)
Heartbeat CPU 0 instructions: 470000002 cycles: 399254283 heartbeat IPC: 1.057 cumulative IPC: 1.086 (Simulation time: 01 hr 01 min 44 sec)
Heartbeat CPU 0 instructions: 480000004 cycles: 408728467 heartbeat IPC: 1.056 cumulative IPC: 1.085 (Simulation time: 01 hr 03 min 17 sec)
Heartbeat CPU 0 instructions: 490000002 cycles: 418404338 heartbeat IPC: 1.033 cumulative IPC: 1.084 (Simulation time: 01 hr 04 min 50 sec)
Heartbeat CPU 0 instructions: 500000003 cycles: 431128618 heartbeat IPC: 0.7859 cumulative IPC: 1.075 (Simulation time: 01 hr 06 min 48 sec)
Heartbeat CPU 0 instructions: 510000004 cycles: 443888946 heartbeat IPC: 0.7837 cumulative IPC: 1.066 (Simulation time: 01 hr 08 min 44 sec)
Heartbeat CPU 0 instructions: 520000000 cycles: 456949980 heartbeat IPC: 0.7656 cumulative IPC: 1.057 (Simulation time: 01 hr 10 min 44 sec)
Heartbeat CPU 0 instructions: 530000004 cycles: 469673548 heartbeat IPC: 0.7859 cumulative IPC: 1.05 (Simulation time: 01 hr 12 min 44 sec)
Heartbeat CPU 0 instructions: 540000002 cycles: 482421106 heartbeat IPC: 0.7845 cumulative IPC: 1.043 (Simulation time: 01 hr 14 min 43 sec)
Heartbeat CPU 0 instructions: 550000002 cycles: 493699563 heartbeat IPC: 0.8866 cumulative IPC: 1.039 (Simulation time: 01 hr 16 min 30 sec)
Heartbeat CPU 0 instructions: 560000000 cycles: 504807860 heartbeat IPC: 0.9002 cumulative IPC: 1.036 (Simulation time: 01 hr 18 min 17 sec)
Heartbeat CPU 0 instructions: 570000002 cycles: 515966079 heartbeat IPC: 0.8962 cumulative IPC: 1.033 (Simulation time: 01 hr 20 min 00 sec)
Heartbeat CPU 0 instructions: 580000003 cycles: 527120680 heartbeat IPC: 0.8965 cumulative IPC: 1.03 (Simulation time: 01 hr 21 min 42 sec)
Heartbeat CPU 0 instructions: 590000003 cycles: 538309288 heartbeat IPC: 0.8938 cumulative IPC: 1.027 (Simulation time: 01 hr 23 min 30 sec)
*** Reached end of trace: (0, "traces/lu.A.champsimtrace")
Heartbeat CPU 0 instructions: 600000001 cycles: 549562291 heartbeat IPC: 0.8887 cumulative IPC: 1.024 (Simulation time: 01 hr 25 min 15 sec)
Heartbeat CPU 0 instructions: 610000000 cycles: 556819439 heartbeat IPC: 1.378 cumulative IPC: 1.029 (Simulation time: 01 hr 26 min 27 sec)
Heartbeat CPU 0 instructions: 620000000 cycles: 559455183 heartbeat IPC: 3.794 cumulative IPC: 1.042 (Simulation time: 01 hr 27 min 05 sec)
Heartbeat CPU 0 instructions: 630000004 cycles: 562090019 heartbeat IPC: 3.795 cumulative IPC: 1.055 (Simulation time: 01 hr 27 min 42 sec)
Heartbeat CPU 0 instructions: 640000002 cycles: 564725089 heartbeat IPC: 3.795 cumulative IPC: 1.068 (Simulation time: 01 hr 28 min 21 sec)
Heartbeat CPU 0 instructions: 650000001 cycles: 567359728 heartbeat IPC: 3.796 cumulative IPC: 1.081 (Simulation time: 01 hr 28 min 58 sec)
Simulation finished CPU 0 instructions: 600000001 cycles: 554859526 cumulative IPC: 1.081 (Simulation time: 01 hr 28 min 58 sec)
Simulation complete CPU 0 instructions: 600000001 cycles: 554859526 cumulative IPC: 1.081 (Simulation time: 01 hr 28 min 58 sec)

ChampSim completed all CPUs

=== Simulation ===
CPU 0 runs traces/lu.A.champsimtrace
Region of Interest Statistics

CPU 0 cumulative IPC: 1.081 instructions: 600000001 cycles: 554859526
CPU 0 Branch Prediction Accuracy: 96.65% MPKI: 0.6426 Average ROB Occupancy at Mispredict: 330.1
Branch type MPKI
BRANCH_DIRECT_JUMP: 5e-06
BRANCH_INDIRECT: 7.33e-05
BRANCH_CONDITIONAL: 0.642
BRANCH_DIRECT_CALL: 6.67e-06
BRANCH_INDIRECT_CALL: 3.17e-05
BRANCH_RETURN: 1.83e-05

LLC TOTAL        ACCESS:    6208850 HIT:    2668788 MISS:    3540062
LLC LOAD         ACCESS:    2481287 HIT:     539171 MISS:    1942116
LLC RFO          ACCESS:     831679 HIT:       5055 MISS:     826624
LLC PREFETCH     ACCESS:    1101705 HIT:     334322 MISS:     767383
LLC WRITE        ACCESS:    1782320 HIT:    1781025 MISS:       1295
LLC TRANSLATION  ACCESS:      11859 HIT:       9215 MISS:       2644
LLC PREFETCH REQUESTED:    1101705 ISSUED:    1101705 USEFUL:     521702 USELESS:       8077
LLC AVERAGE MISS LATENCY: 998.9 cycles
cpu0_DTLB TOTAL        ACCESS:  116621619 HIT:  109402695 MISS:    7218924
cpu0_DTLB LOAD         ACCESS:  116621619 HIT:  109402695 MISS:    7218924
cpu0_DTLB RFO          ACCESS:          0 HIT:          0 MISS:          0
cpu0_DTLB PREFETCH     ACCESS:          0 HIT:          0 MISS:          0
cpu0_DTLB WRITE        ACCESS:          0 HIT:          0 MISS:          0
cpu0_DTLB TRANSLATION  ACCESS:          0 HIT:          0 MISS:          0
cpu0_DTLB PREFETCH REQUESTED:          0 ISSUED:          0 USEFUL:          0 USELESS:          0
cpu0_DTLB AVERAGE MISS LATENCY: 5.03 cycles
cpu0_ITLB TOTAL        ACCESS:     710641 HIT:     710425 MISS:        216
cpu0_ITLB LOAD         ACCESS:     710641 HIT:     710425 MISS:        216
cpu0_ITLB RFO          ACCESS:          0 HIT:          0 MISS:          0
cpu0_ITLB PREFETCH     ACCESS:          0 HIT:          0 MISS:          0
cpu0_ITLB WRITE        ACCESS:          0 HIT:          0 MISS:          0
cpu0_ITLB TRANSLATION  ACCESS:          0 HIT:          0 MISS:          0
cpu0_ITLB PREFETCH REQUESTED:          0 ISSUED:          0 USEFUL:          0 USELESS:          0
cpu0_ITLB AVERAGE MISS LATENCY: 310 cycles
cpu0_L1D TOTAL        ACCESS:  168467454 HIT:  158553811 MISS:    9913643
cpu0_L1D LOAD         ACCESS:  131414320 HIT:  125414841 MISS:    5999479
cpu0_L1D RFO          ACCESS:          0 HIT:          0 MISS:          0
cpu0_L1D PREFETCH     ACCESS:          0 HIT:          0 MISS:          0
cpu0_L1D WRITE        ACCESS:   37000535 HIT:   33111289 MISS:    3889246
cpu0_L1D TRANSLATION  ACCESS:      52599 HIT:      27681 MISS:      24918
cpu0_L1D PREFETCH REQUESTED:          0 ISSUED:          0 USEFUL:          0 USELESS:          0
cpu0_L1D AVERAGE MISS LATENCY: 288.6 cycles
cpu0_L1I TOTAL        ACCESS:    1087872 HIT:    1085132 MISS:       2740
cpu0_L1I LOAD         ACCESS:    1087872 HIT:    1085132 MISS:       2740
cpu0_L1I RFO          ACCESS:          0 HIT:          0 MISS:          0
cpu0_L1I PREFETCH     ACCESS:          0 HIT:          0 MISS:          0
cpu0_L1I WRITE        ACCESS:          0 HIT:          0 MISS:          0
cpu0_L1I TRANSLATION  ACCESS:          0 HIT:          0 MISS:          0
cpu0_L1I PREFETCH REQUESTED:          0 ISSUED:          0 USEFUL:          0 USELESS:          0
cpu0_L1I AVERAGE MISS LATENCY: 527.1 cycles
cpu0_L2C TOTAL        ACCESS:    5977691 HIT:    2648532 MISS:    3329159
cpu0_L2C LOAD         ACCESS:    3057175 HIT:     575886 MISS:    2481289
cpu0_L2C RFO          ACCESS:     878249 HIT:      46570 MISS:     831679
cpu0_L2C PREFETCH     ACCESS:          0 HIT:          0 MISS:          0
cpu0_L2C WRITE        ACCESS:    2017395 HIT:    2013063 MISS:       4332
cpu0_L2C TRANSLATION  ACCESS:      24872 HIT:      13013 MISS:      11859
cpu0_L2C PREFETCH REQUESTED:          0 ISSUED:          0 USEFUL:          0 USELESS:          0
cpu0_L2C AVERAGE MISS LATENCY: 922.3 cycles
cpu0_STLB TOTAL        ACCESS:    3988947 HIT:    3936361 MISS:      52586
cpu0_STLB LOAD         ACCESS:    3988947 HIT:    3936361 MISS:      52586
cpu0_STLB RFO          ACCESS:          0 HIT:          0 MISS:          0
cpu0_STLB PREFETCH     ACCESS:          0 HIT:          0 MISS:          0
cpu0_STLB WRITE        ACCESS:          0 HIT:          0 MISS:          0
cpu0_STLB TRANSLATION  ACCESS:          0 HIT:          0 MISS:          0
cpu0_STLB PREFETCH REQUESTED:          0 ISSUED:          0 USEFUL:          0 USELESS:          0
cpu0_STLB AVERAGE MISS LATENCY: 434.7 cycles

DRAM Statistics

Channel 0 RQ ROW_BUFFER_HIT:     831127
  ROW_BUFFER_MISS:    2298917
 AVG DBUS CONGESTED CYCLE: 3.937
WQ ROW_BUFFER_HIT: Channel 0 
  ROW_BUFFER_MISS:     345818
  FULL:    1336216
