WARNING: physical memory size is smaller than virtual memory size.

*** ChampSim Multicore Out-of-Order Simulator ***
Warmup Instructions: 50000000
Simulation Instructions: 600000000
Number of CPUs: 1
Page size: 4096

Off-chip DRAM Size: 4 GiB Channels: 1 Width: 64-bit Data Race: 3200 MT/s
Heartbeat CPU 0 instructions: 10000000 cycles: 2500202 heartbeat IPC: 4 cumulative IPC: 4 (Simulation time: 00 hr 00 min 31 sec)
Heartbeat CPU 0 instructions: 20000000 cycles: 5000202 heartbeat IPC: 4 cumulative IPC: 4 (Simulation time: 00 hr 01 min 02 sec)
Heartbeat CPU 0 instructions: 30000000 cycles: 7500202 heartbeat IPC: 4 cumulative IPC: 4 (Simulation time: 00 hr 01 min 33 sec)
Heartbeat CPU 0 instructions: 40000000 cycles: 10000202 heartbeat IPC: 4 cumulative IPC: 4 (Simulation time: 00 hr 02 min 04 sec)
Heartbeat CPU 0 instructions: 50000000 cycles: 12500202 heartbeat IPC: 4 cumulative IPC: 4 (Simulation time: 00 hr 02 min 35 sec)
Warmup finished CPU 0 instructions: 50000000 cycles: 12500203 cumulative IPC: 4 (Simulation time: 00 hr 02 min 35 sec)
Warmup complete CPU 0 instructions: 50000000 cycles: 12500203 cumulative IPC: 4 (Simulation time: 00 hr 02 min 35 sec)
Heartbeat CPU 0 instructions: 60000004 cycles: 15004154 heartbeat IPC: 3.994 cumulative IPC: 3.994 (Simulation time: 00 hr 03 min 14 sec)
Heartbeat CPU 0 instructions: 70000003 cycles: 17508388 heartbeat IPC: 3.993 cumulative IPC: 3.993 (Simulation time: 00 hr 03 min 51 sec)
Heartbeat CPU 0 instructions: 80000004 cycles: 20011063 heartbeat IPC: 3.996 cumulative IPC: 3.994 (Simulation time: 00 hr 04 min 28 sec)
Heartbeat CPU 0 instructions: 90000000 cycles: 22513524 heartbeat IPC: 3.996 cumulative IPC: 3.995 (Simulation time: 00 hr 05 min 04 sec)
Heartbeat CPU 0 instructions: 100000001 cycles: 25016248 heartbeat IPC: 3.996 cumulative IPC: 3.995 (Simulation time: 00 hr 05 min 40 sec)
Heartbeat CPU 0 instructions: 110000000 cycles: 27518833 heartbeat IPC: 3.996 cumulative IPC: 3.995 (Simulation time: 00 hr 06 min 17 sec)
Heartbeat CPU 0 instructions: 120000004 cycles: 30023084 heartbeat IPC: 3.993 cumulative IPC: 3.995 (Simulation time: 00 hr 06 min 56 sec)
Heartbeat CPU 0 instructions: 130000000 cycles: 32526688 heartbeat IPC: 3.994 cumulative IPC: 3.995 (Simulation time: 00 hr 07 min 33 sec)
Heartbeat CPU 0 instructions: 140000004 cycles: 35028941 heartbeat IPC: 3.996 cumulative IPC: 3.995 (Simulation time: 00 hr 08 min 10 sec)
Heartbeat CPU 0 instructions: 150000000 cycles: 37532405 heartbeat IPC: 3.994 cumulative IPC: 3.995 (Simulation time: 00 hr 08 min 47 sec)
Heartbeat CPU 0 instructions: 160000001 cycles: 40035774 heartbeat IPC: 3.995 cumulative IPC: 3.995 (Simulation time: 00 hr 09 min 23 sec)
Heartbeat CPU 0 instructions: 170000000 cycles: 42538099 heartbeat IPC: 3.996 cumulative IPC: 3.995 (Simulation time: 00 hr 10 min 02 sec)
Heartbeat CPU 0 instructions: 180000003 cycles: 45042446 heartbeat IPC: 3.993 cumulative IPC: 3.995 (Simulation time: 00 hr 10 min 38 sec)
Heartbeat CPU 0 instructions: 190000000 cycles: 47545780 heartbeat IPC: 3.995 cumulative IPC: 3.995 (Simulation time: 00 hr 11 min 15 sec)
Heartbeat CPU 0 instructions: 200000004 cycles: 50050059 heartbeat IPC: 3.993 cumulative IPC: 3.995 (Simulation time: 00 hr 11 min 52 sec)
Heartbeat CPU 0 instructions: 210000004 cycles: 52552204 heartbeat IPC: 3.997 cumulative IPC: 3.995 (Simulation time: 00 hr 12 min 29 sec)
Heartbeat CPU 0 instructions: 220000001 cycles: 55055990 heartbeat IPC: 3.994 cumulative IPC: 3.995 (Simulation time: 00 hr 13 min 04 sec)
Heartbeat CPU 0 instructions: 230000000 cycles: 57559481 heartbeat IPC: 3.994 cumulative IPC: 3.995 (Simulation time: 00 hr 13 min 40 sec)
Heartbeat CPU 0 instructions: 240000001 cycles: 96025407 heartbeat IPC: 0.26 cumulative IPC: 2.275 (Simulation time: 00 hr 17 min 33 sec)
Heartbeat CPU 0 instructions: 250000001 cycles: 106860721 heartbeat IPC: 0.9229 cumulative IPC: 2.12 (Simulation time: 00 hr 19 min 09 sec)
Heartbeat CPU 0 instructions: 260000000 cycles: 117725223 heartbeat IPC: 0.9204 cumulative IPC: 1.996 (Simulation time: 00 hr 20 min 46 sec)
Heartbeat CPU 0 instructions: 270000001 cycles: 128022821 heartbeat IPC: 0.9711 cumulative IPC: 1.904 (Simulation time: 00 hr 22 min 24 sec)
Heartbeat CPU 0 instructions: 280000003 cycles: 135686644 heartbeat IPC: 1.305 cumulative IPC: 1.867 (Simulation time: 00 hr 23 min 43 sec)
Heartbeat CPU 0 instructions: 290000001 cycles: 142941074 heartbeat IPC: 1.378 cumulative IPC: 1.84 (Simulation time: 00 hr 25 min 00 sec)
Heartbeat CPU 0 instructions: 300000002 cycles: 150069767 heartbeat IPC: 1.403 cumulative IPC: 1.817 (Simulation time: 00 hr 26 min 15 sec)
Heartbeat CPU 0 instructions: 310000001 cycles: 157184042 heartbeat IPC: 1.406 cumulative IPC: 1.797 (Simulation time: 00 hr 27 min 28 sec)
Heartbeat CPU 0 instructions: 320000002 cycles: 164681106 heartbeat IPC: 1.334 cumulative IPC: 1.774 (Simulation time: 00 hr 28 min 43 sec)
Heartbeat CPU 0 instructions: 330000002 cycles: 173075696 heartbeat IPC: 1.191 cumulative IPC: 1.744 (Simulation time: 00 hr 30 min 08 sec)
Heartbeat CPU 0 instructions: 340000004 cycles: 181424275 heartbeat IPC: 1.198 cumulative IPC: 1.717 (Simulation time: 00 hr 31 min 30 sec)
Heartbeat CPU 0 instructions: 350000003 cycles: 189758452 heartbeat IPC: 1.2 cumulative IPC: 1.692 (Simulation time: 00 hr 32 min 52 sec)
Heartbeat CPU 0 instructions: 360000001 cycles: 198058083 heartbeat IPC: 1.205 cumulative IPC: 1.671 (Simulation time: 00 hr 34 min 14 sec)
Heartbeat CPU 0 instructions: 370000002 cycles: 206429431 heartbeat IPC: 1.195 cumulative IPC: 1.65 (Simulation time: 00 hr 35 min 39 sec)
Heartbeat CPU 0 instructions: 380000003 cycles: 214913170 heartbeat IPC: 1.179 cumulative IPC: 1.63 (Simulation time: 00 hr 37 min 03 sec)
Heartbeat CPU 0 instructions: 390000000 cycles: 223815537 heartbeat IPC: 1.123 cumulative IPC: 1.609 (Simulation time: 00 hr 38 min 31 sec)
Heartbeat CPU 0 instructions: 400000002 cycles: 232875181 heartbeat IPC: 1.104 cumulative IPC: 1.588 (Simulation time: 00 hr 40 min 00 sec)
Heartbeat CPU 0 instructions: 410000000 cycles: 241955329 heartbeat IPC: 1.101 cumulative IPC: 1.569 (Simulation time: 00 hr 41 min 28 sec)
Heartbeat CPU 0 instructions: 420000004 cycles: 251031869 heartbeat IPC: 1.102 cumulative IPC: 1.551 (Simulation time: 00 hr 42 min 57 sec)
Heartbeat CPU 0 instructions: 430000002 cycles: 260128577 heartbeat IPC: 1.099 cumulative IPC: 1.535 (Simulation time: 00 hr 44 min 26 sec)
Heartbeat CPU 0 instructions: 440000004 cycles: 414275715 heartbeat IPC: 0.06487 cumulative IPC: 0.9707 (Simulation time: 01 hr 04 min 02 sec)
Heartbeat CPU 0 instructions: 450000003 cycles: 425441695 heartbeat IPC: 0.8956 cumulative IPC: 0.9687 (Simulation time: 01 hr 05 min 50 sec)
Heartbeat CPU 0 instructions: 460000004 cycles: 436609641 heartbeat IPC: 0.8954 cumulative IPC: 0.9667 (Simulation time: 01 hr 07 min 36 sec)
Heartbeat CPU 0 instructions: 470000001 cycles: 447787074 heartbeat IPC: 0.8947 cumulative IPC: 0.9649 (Simulation time: 01 hr 09 min 20 sec)
Heartbeat CPU 0 instructions: 480000000 cycles: 458946999 heartbeat IPC: 0.8961 cumulative IPC: 0.9632 (Simulation time: 01 hr 11 min 06 sec)
Heartbeat CPU 0 instructions: 490000004 cycles: 470381812 heartbeat IPC: 0.8745 cumulative IPC: 0.9609 (Simulation time: 01 hr 12 min 53 sec)
Heartbeat CPU 0 instructions: 500000002 cycles: 483973455 heartbeat IPC: 0.7357 cumulative IPC: 0.9545 (Simulation time: 01 hr 14 min 55 sec)
Heartbeat CPU 0 instructions: 510000002 cycles: 497527184 heartbeat IPC: 0.7378 cumulative IPC: 0.9484 (Simulation time: 01 hr 16 min 57 sec)
Heartbeat CPU 0 instructions: 520000000 cycles: 511244928 heartbeat IPC: 0.729 cumulative IPC: 0.9424 (Simulation time: 01 hr 19 min 02 sec)
Heartbeat CPU 0 instructions: 530000004 cycles: 524872877 heartbeat IPC: 0.7338 cumulative IPC: 0.9368 (Simulation time: 01 hr 21 min 08 sec)
Heartbeat CPU 0 instructions: 540000002 cycles: 538493189 heartbeat IPC: 0.7342 cumulative IPC: 0.9316 (Simulation time: 01 hr 23 min 12 sec)
Heartbeat CPU 0 instructions: 550000002 cycles: 549089599 heartbeat IPC: 0.9437 cumulative IPC: 0.9318 (Simulation time: 01 hr 24 min 52 sec)
Heartbeat CPU 0 instructions: 560000000 cycles: 559075619 heartbeat IPC: 1.001 cumulative IPC: 0.9331 (Simulation time: 01 hr 26 min 26 sec)
Heartbeat CPU 0 instructions: 570000002 cycles: 569148038 heartbeat IPC: 0.9928 cumulative IPC: 0.9342 (Simulation time: 01 hr 28 min 02 sec)
Heartbeat CPU 0 instructions: 580000003 cycles: 579165380 heartbeat IPC: 0.9983 cumulative IPC: 0.9353 (Simulation time: 01 hr 29 min 37 sec)
Heartbeat CPU 0 instructions: 590000003 cycles: 589232416 heartbeat IPC: 0.9933 cumulative IPC: 0.9363 (Simulation time: 01 hr 31 min 13 sec)
*** Reached end of trace: (0, "traces/lu.A.champsimtrace")
Heartbeat CPU 0 instructions: 600000001 cycles: 599368197 heartbeat IPC: 0.9866 cumulative IPC: 0.9372 (Simulation time: 01 hr 32 min 55 sec)
Heartbeat CPU 0 instructions: 610000000 cycles: 606791897 heartbeat IPC: 1.347 cumulative IPC: 0.9423 (Simulation time: 01 hr 34 min 07 sec)
Heartbeat CPU 0 instructions: 620000000 cycles: 609293676 heartbeat IPC: 3.997 cumulative IPC: 0.9551 (Simulation time: 01 hr 34 min 44 sec)
Heartbeat CPU 0 instructions: 630000004 cycles: 611795439 heartbeat IPC: 3.997 cumulative IPC: 0.9678 (Simulation time: 01 hr 35 min 20 sec)
Heartbeat CPU 0 instructions: 640000002 cycles: 614297189 heartbeat IPC: 3.997 cumulative IPC: 0.9804 (Simulation time: 01 hr 35 min 55 sec)
Heartbeat CPU 0 instructions: 650000001 cycles: 616798958 heartbeat IPC: 3.997 cumulative IPC: 0.9929 (Simulation time: 01 hr 36 min 31 sec)
Simulation finished CPU 0 instructions: 600000001 cycles: 604298756 cumulative IPC: 0.9929 (Simulation time: 01 hr 36 min 31 sec)
Simulation complete CPU 0 instructions: 600000001 cycles: 604298756 cumulative IPC: 0.9929 (Simulation time: 01 hr 36 min 31 sec)

ChampSim completed all CPUs

=== Simulation ===
CPU 0 runs traces/lu.A.champsimtrace
Region of Interest Statistics

CPU 0 cumulative IPC: 0.9929 instructions: 600000001 cycles: 604298756
CPU 0 Branch Prediction Accuracy: 98.73% MPKI: 0.2427 Average ROB Occupancy at Mispredict: 323.5
Branch type MPKI
BRANCH_DIRECT_JUMP: 5e-06
BRANCH_INDIRECT: 7.33e-05
BRANCH_CONDITIONAL: 0.243
BRANCH_DIRECT_CALL: 6.67e-06
BRANCH_INDIRECT_CALL: 3.17e-05
BRANCH_RETURN: 1.83e-05

LLC TOTAL        ACCESS:    7720448 HIT:    3221747 MISS:    4498701
LLC LOAD         ACCESS:    2481368 HIT:    1408945 MISS:    1072423
LLC RFO          ACCESS:     831681 HIT:      42856 MISS:     788825
LLC PREFETCH     ACCESS:    2613185 HIT:     194610 MISS:    2418575
LLC WRITE        ACCESS:    1782333 HIT:    1567977 MISS:     214356
LLC TRANSLATION  ACCESS:      11881 HIT:       7359 MISS:       4522
LLC PREFETCH REQUESTED:    4401826 ISSUED:    2613185 USEFUL:    1742339 USELESS:      42695
LLC AVERAGE MISS LATENCY: 1624 cycles
cpu0_DTLB TOTAL        ACCESS:  122338732 HIT:  115174487 MISS:    7164245
cpu0_DTLB LOAD         ACCESS:  122338732 HIT:  115174487 MISS:    7164245
cpu0_DTLB RFO          ACCESS:          0 HIT:          0 MISS:          0
cpu0_DTLB PREFETCH     ACCESS:          0 HIT:          0 MISS:          0
cpu0_DTLB WRITE        ACCESS:          0 HIT:          0 MISS:          0
cpu0_DTLB TRANSLATION  ACCESS:          0 HIT:          0 MISS:          0
cpu0_DTLB PREFETCH REQUESTED:          0 ISSUED:          0 USEFUL:          0 USELESS:          0
cpu0_DTLB AVERAGE MISS LATENCY: 6.752 cycles
cpu0_ITLB TOTAL        ACCESS:     709980 HIT:     709774 MISS:        206
cpu0_ITLB LOAD         ACCESS:     709980 HIT:     709774 MISS:        206
cpu0_ITLB RFO          ACCESS:          0 HIT:          0 MISS:          0
cpu0_ITLB PREFETCH     ACCESS:          0 HIT:          0 MISS:          0
cpu0_ITLB WRITE        ACCESS:          0 HIT:          0 MISS:          0
cpu0_ITLB TRANSLATION  ACCESS:          0 HIT:          0 MISS:          0
cpu0_ITLB PREFETCH REQUESTED:          0 ISSUED:          0 USEFUL:          0 USELESS:          0
cpu0_ITLB AVERAGE MISS LATENCY: 269.1 cycles
cpu0_L1D TOTAL        ACCESS:  175402760 HIT:  165863054 MISS:    9539706
cpu0_L1D LOAD         ACCESS:  138350602 HIT:  132637242 MISS:    5713360
cpu0_L1D RFO          ACCESS:          0 HIT:          0 MISS:          0
cpu0_L1D PREFETCH     ACCESS:          0 HIT:          0 MISS:          0
cpu0_L1D WRITE        ACCESS:   36999562 HIT:   33198189 MISS:    3801373
cpu0_L1D TRANSLATION  ACCESS:      52596 HIT:      27623 MISS:      24973
cpu0_L1D PREFETCH REQUESTED:          0 ISSUED:          0 USEFUL:          0 USELESS:          0
cpu0_L1D AVERAGE MISS LATENCY: 311.1 cycles
cpu0_L1I TOTAL        ACCESS:    1094537 HIT:    1091857 MISS:       2680
cpu0_L1I LOAD         ACCESS:    1094537 HIT:    1091857 MISS:       2680
cpu0_L1I RFO          ACCESS:          0 HIT:          0 MISS:          0
cpu0_L1I PREFETCH     ACCESS:          0 HIT:          0 MISS:          0
cpu0_L1I WRITE        ACCESS:          0 HIT:          0 MISS:          0
cpu0_L1I TRANSLATION  ACCESS:          0 HIT:          0 MISS:          0
cpu0_L1I PREFETCH REQUESTED:          0 ISSUED:          0 USEFUL:          0 USELESS:          0
cpu0_L1I AVERAGE MISS LATENCY: 364.4 cycles
cpu0_L2C TOTAL        ACCESS:    5992164 HIT:    2663020 MISS:    3329144
cpu0_L2C LOAD         ACCESS:    3071034 HIT:     589665 MISS:    2481369
cpu0_L2C RFO          ACCESS:     876880 HIT:      45199 MISS:     831681
cpu0_L2C PREFETCH     ACCESS:          0 HIT:          0 MISS:          0
cpu0_L2C WRITE        ACCESS:    2019327 HIT:    2015114 MISS:       4213
cpu0_L2C TRANSLATION  ACCESS:      24923 HIT:      13042 MISS:      11881
cpu0_L2C PREFETCH REQUESTED:          0 ISSUED:          0 USEFUL:          0 USELESS:          0
cpu0_L2C AVERAGE MISS LATENCY: 958.9 cycles
cpu0_STLB TOTAL        ACCESS:    3987247 HIT:    3934661 MISS:      52586
cpu0_STLB LOAD         ACCESS:    3987247 HIT:    3934661 MISS:      52586
cpu0_STLB RFO          ACCESS:          0 HIT:          0 MISS:          0
cpu0_STLB PREFETCH     ACCESS:          0 HIT:          0 MISS:          0
cpu0_STLB WRITE        ACCESS:          0 HIT:          0 MISS:          0
cpu0_STLB TRANSLATION  ACCESS:          0 HIT:          0 MISS:          0
cpu0_STLB PREFETCH REQUESTED:          0 ISSUED:          0 USEFUL:          0 USELESS:          0
cpu0_STLB AVERAGE MISS LATENCY: 711.7 cycles

DRAM Statistics

Channel 0 RQ ROW_BUFFER_HIT:     725464
  ROW_BUFFER_MISS:    2445948
 AVG DBUS CONGESTED CYCLE: 3.98
WQ ROW_BUFFER_HIT: Channel 0 
  ROW_BUFFER_MISS:      32062
  FULL:    1658868
