WARNING: physical memory size is smaller than virtual memory size.

*** ChampSim Multicore Out-of-Order Simulator ***
Warmup Instructions: 50000000
Simulation Instructions: 600000000
Number of CPUs: 1
Page size: 4096

Off-chip DRAM Size: 4 GiB Channels: 1 Width: 64-bit Data Race: 3200 MT/s
Heartbeat CPU 0 instructions: 10000000 cycles: 2500202 heartbeat IPC: 4 cumulative IPC: 4 (Simulation time: 00 hr 00 min 42 sec)
Heartbeat CPU 0 instructions: 20000000 cycles: 5000202 heartbeat IPC: 4 cumulative IPC: 4 (Simulation time: 00 hr 01 min 25 sec)
Heartbeat CPU 0 instructions: 30000000 cycles: 7500202 heartbeat IPC: 4 cumulative IPC: 4 (Simulation time: 00 hr 02 min 07 sec)
Heartbeat CPU 0 instructions: 40000000 cycles: 10000202 heartbeat IPC: 4 cumulative IPC: 4 (Simulation time: 00 hr 02 min 48 sec)
Heartbeat CPU 0 instructions: 50000000 cycles: 12500202 heartbeat IPC: 4 cumulative IPC: 4 (Simulation time: 00 hr 03 min 26 sec)
Warmup finished CPU 0 instructions: 50000000 cycles: 12500203 cumulative IPC: 4 (Simulation time: 00 hr 03 min 26 sec)
Warmup complete CPU 0 instructions: 50000000 cycles: 12500203 cumulative IPC: 4 (Simulation time: 00 hr 03 min 26 sec)
Heartbeat CPU 0 instructions: 60000004 cycles: 15134822 heartbeat IPC: 3.796 cumulative IPC: 3.796 (Simulation time: 00 hr 04 min 11 sec)
Heartbeat CPU 0 instructions: 70000003 cycles: 17769446 heartbeat IPC: 3.796 cumulative IPC: 3.796 (Simulation time: 00 hr 04 min 52 sec)
Heartbeat CPU 0 instructions: 80000003 cycles: 20404096 heartbeat IPC: 3.796 cumulative IPC: 3.796 (Simulation time: 00 hr 05 min 33 sec)
Heartbeat CPU 0 instructions: 90000004 cycles: 23039493 heartbeat IPC: 3.794 cumulative IPC: 3.795 (Simulation time: 00 hr 06 min 13 sec)
Heartbeat CPU 0 instructions: 100000002 cycles: 25674100 heartbeat IPC: 3.796 cumulative IPC: 3.795 (Simulation time: 00 hr 06 min 58 sec)
Heartbeat CPU 0 instructions: 110000003 cycles: 28308734 heartbeat IPC: 3.796 cumulative IPC: 3.795 (Simulation time: 00 hr 07 min 57 sec)
Heartbeat CPU 0 instructions: 120000004 cycles: 30944834 heartbeat IPC: 3.793 cumulative IPC: 3.795 (Simulation time: 00 hr 08 min 54 sec)
Heartbeat CPU 0 instructions: 130000000 cycles: 33579475 heartbeat IPC: 3.796 cumulative IPC: 3.795 (Simulation time: 00 hr 09 min 54 sec)
Heartbeat CPU 0 instructions: 140000004 cycles: 36214099 heartbeat IPC: 3.796 cumulative IPC: 3.795 (Simulation time: 00 hr 10 min 52 sec)
Heartbeat CPU 0 instructions: 150000000 cycles: 38848726 heartbeat IPC: 3.796 cumulative IPC: 3.795 (Simulation time: 00 hr 11 min 46 sec)
Heartbeat CPU 0 instructions: 160000001 cycles: 41484011 heartbeat IPC: 3.795 cumulative IPC: 3.795 (Simulation time: 00 hr 12 min 41 sec)
Heartbeat CPU 0 instructions: 170000000 cycles: 44118635 heartbeat IPC: 3.796 cumulative IPC: 3.795 (Simulation time: 00 hr 13 min 36 sec)
Heartbeat CPU 0 instructions: 180000003 cycles: 46754229 heartbeat IPC: 3.794 cumulative IPC: 3.795 (Simulation time: 00 hr 14 min 28 sec)
Heartbeat CPU 0 instructions: 190000000 cycles: 49388856 heartbeat IPC: 3.796 cumulative IPC: 3.795 (Simulation time: 00 hr 15 min 21 sec)
Heartbeat CPU 0 instructions: 200000004 cycles: 52023697 heartbeat IPC: 3.795 cumulative IPC: 3.795 (Simulation time: 00 hr 16 min 12 sec)
Heartbeat CPU 0 instructions: 210000004 cycles: 54658323 heartbeat IPC: 3.796 cumulative IPC: 3.795 (Simulation time: 00 hr 17 min 03 sec)
Heartbeat CPU 0 instructions: 220000001 cycles: 57294847 heartbeat IPC: 3.793 cumulative IPC: 3.795 (Simulation time: 00 hr 18 min 00 sec)
Heartbeat CPU 0 instructions: 230000002 cycles: 59929486 heartbeat IPC: 3.796 cumulative IPC: 3.795 (Simulation time: 00 hr 18 min 55 sec)
Heartbeat CPU 0 instructions: 240000000 cycles: 93517404 heartbeat IPC: 0.2977 cumulative IPC: 2.345 (Simulation time: 00 hr 23 min 55 sec)
Heartbeat CPU 0 instructions: 250000001 cycles: 102826898 heartbeat IPC: 1.074 cumulative IPC: 2.214 (Simulation time: 00 hr 26 min 02 sec)
Heartbeat CPU 0 instructions: 260000000 cycles: 111817467 heartbeat IPC: 1.112 cumulative IPC: 2.114 (Simulation time: 00 hr 27 min 59 sec)
Heartbeat CPU 0 instructions: 270000001 cycles: 119593486 heartbeat IPC: 1.286 cumulative IPC: 2.054 (Simulation time: 00 hr 29 min 46 sec)
Heartbeat CPU 0 instructions: 280000003 cycles: 125105871 heartbeat IPC: 1.814 cumulative IPC: 2.043 (Simulation time: 00 hr 31 min 10 sec)
Heartbeat CPU 0 instructions: 290000001 cycles: 130585166 heartbeat IPC: 1.825 cumulative IPC: 2.032 (Simulation time: 00 hr 32 min 30 sec)
Heartbeat CPU 0 instructions: 300000002 cycles: 136120199 heartbeat IPC: 1.807 cumulative IPC: 2.022 (Simulation time: 00 hr 33 min 53 sec)
Heartbeat CPU 0 instructions: 310000001 cycles: 140586521 heartbeat IPC: 2.239 cumulative IPC: 2.03 (Simulation time: 00 hr 35 min 07 sec)
Heartbeat CPU 0 instructions: 320000004 cycles: 145354808 heartbeat IPC: 2.097 cumulative IPC: 2.032 (Simulation time: 00 hr 36 min 22 sec)
Heartbeat CPU 0 instructions: 330000002 cycles: 153616461 heartbeat IPC: 1.21 cumulative IPC: 1.984 (Simulation time: 00 hr 38 min 17 sec)
Heartbeat CPU 0 instructions: 340000004 cycles: 162718858 heartbeat IPC: 1.099 cumulative IPC: 1.931 (Simulation time: 00 hr 40 min 17 sec)
Heartbeat CPU 0 instructions: 350000003 cycles: 171810735 heartbeat IPC: 1.1 cumulative IPC: 1.883 (Simulation time: 00 hr 42 min 14 sec)
Heartbeat CPU 0 instructions: 360000001 cycles: 179408348 heartbeat IPC: 1.316 cumulative IPC: 1.857 (Simulation time: 00 hr 44 min 02 sec)
Heartbeat CPU 0 instructions: 370000002 cycles: 185080743 heartbeat IPC: 1.763 cumulative IPC: 1.854 (Simulation time: 00 hr 45 min 26 sec)
Heartbeat CPU 0 instructions: 380000003 cycles: 192327992 heartbeat IPC: 1.38 cumulative IPC: 1.835 (Simulation time: 00 hr 47 min 09 sec)
Heartbeat CPU 0 instructions: 390000000 cycles: 199521722 heartbeat IPC: 1.39 cumulative IPC: 1.818 (Simulation time: 00 hr 48 min 46 sec)
Heartbeat CPU 0 instructions: 400000000 cycles: 206642071 heartbeat IPC: 1.404 cumulative IPC: 1.803 (Simulation time: 00 hr 50 min 29 sec)
Heartbeat CPU 0 instructions: 410000002 cycles: 213799825 heartbeat IPC: 1.397 cumulative IPC: 1.788 (Simulation time: 00 hr 52 min 14 sec)
Heartbeat CPU 0 instructions: 420000000 cycles: 220894108 heartbeat IPC: 1.41 cumulative IPC: 1.775 (Simulation time: 00 hr 54 min 00 sec)
Heartbeat CPU 0 instructions: 430000002 cycles: 227908977 heartbeat IPC: 1.426 cumulative IPC: 1.764 (Simulation time: 00 hr 55 min 44 sec)
Heartbeat CPU 0 instructions: 440000004 cycles: 357953240 heartbeat IPC: 0.0769 cumulative IPC: 1.129 (Simulation time: 01 hr 17 min 56 sec)
Heartbeat CPU 0 instructions: 450000003 cycles: 367167760 heartbeat IPC: 1.085 cumulative IPC: 1.128 (Simulation time: 01 hr 20 min 01 sec)
Heartbeat CPU 0 instructions: 460000004 cycles: 376324687 heartbeat IPC: 1.092 cumulative IPC: 1.127 (Simulation time: 01 hr 22 min 01 sec)
Heartbeat CPU 0 instructions: 470000002 cycles: 384393058 heartbeat IPC: 1.239 cumulative IPC: 1.129 (Simulation time: 01 hr 23 min 53 sec)
Heartbeat CPU 0 instructions: 480000004 cycles: 393513633 heartbeat IPC: 1.096 cumulative IPC: 1.129 (Simulation time: 01 hr 25 min 59 sec)
Heartbeat CPU 0 instructions: 490000002 cycles: 403864733 heartbeat IPC: 0.9661 cumulative IPC: 1.124 (Simulation time: 01 hr 28 min 10 sec)
Heartbeat CPU 0 instructions: 500000003 cycles: 419036313 heartbeat IPC: 0.6591 cumulative IPC: 1.107 (Simulation time: 01 hr 31 min 17 sec)
Heartbeat CPU 0 instructions: 510000004 cycles: 433607402 heartbeat IPC: 0.6863 cumulative IPC: 1.092 (Simulation time: 01 hr 34 min 19 sec)
Heartbeat CPU 0 instructions: 520000000 cycles: 447556464 heartbeat IPC: 0.7169 cumulative IPC: 1.08 (Simulation time: 01 hr 37 min 22 sec)
Heartbeat CPU 0 instructions: 530000004 cycles: 460651662 heartbeat IPC: 0.7636 cumulative IPC: 1.071 (Simulation time: 01 hr 40 min 20 sec)
Heartbeat CPU 0 instructions: 540000002 cycles: 473431886 heartbeat IPC: 0.7825 cumulative IPC: 1.063 (Simulation time: 01 hr 43 min 17 sec)
Heartbeat CPU 0 instructions: 550000002 cycles: 484986984 heartbeat IPC: 0.8654 cumulative IPC: 1.058 (Simulation time: 01 hr 45 min 56 sec)
Heartbeat CPU 0 instructions: 560000000 cycles: 495631756 heartbeat IPC: 0.9394 cumulative IPC: 1.056 (Simulation time: 01 hr 48 min 24 sec)
Heartbeat CPU 0 instructions: 570000002 cycles: 506432204 heartbeat IPC: 0.9259 cumulative IPC: 1.053 (Simulation time: 01 hr 50 min 56 sec)
Heartbeat CPU 0 instructions: 580000003 cycles: 517128458 heartbeat IPC: 0.9349 cumulative IPC: 1.05 (Simulation time: 01 hr 53 min 23 sec)
Heartbeat CPU 0 instructions: 590000003 cycles: 527878209 heartbeat IPC: 0.9303 cumulative IPC: 1.048 (Simulation time: 01 hr 55 min 53 sec)
*** Reached end of trace: (0, "traces/lu.A.champsimtrace")
Heartbeat CPU 0 instructions: 600000001 cycles: 538649484 heartbeat IPC: 0.9284 cumulative IPC: 1.045 (Simulation time: 01 hr 58 min 23 sec)
Heartbeat CPU 0 instructions: 610000000 cycles: 546459482 heartbeat IPC: 1.28 cumulative IPC: 1.049 (Simulation time: 02 hr 00 min 14 sec)
Heartbeat CPU 0 instructions: 620000000 cycles: 549094121 heartbeat IPC: 3.796 cumulative IPC: 1.062 (Simulation time: 02 hr 01 min 07 sec)
Heartbeat CPU 0 instructions: 630000004 cycles: 551728760 heartbeat IPC: 3.796 cumulative IPC: 1.076 (Simulation time: 02 hr 01 min 58 sec)
Heartbeat CPU 0 instructions: 640000002 cycles: 554363825 heartbeat IPC: 3.795 cumulative IPC: 1.089 (Simulation time: 02 hr 02 min 49 sec)
Heartbeat CPU 0 instructions: 650000001 cycles: 556998462 heartbeat IPC: 3.796 cumulative IPC: 1.102 (Simulation time: 02 hr 03 min 43 sec)
Simulation finished CPU 0 instructions: 600000001 cycles: 544498260 cumulative IPC: 1.102 (Simulation time: 02 hr 03 min 43 sec)
Simulation complete CPU 0 instructions: 600000001 cycles: 544498260 cumulative IPC: 1.102 (Simulation time: 02 hr 03 min 43 sec)

ChampSim completed all CPUs

=== Simulation ===
CPU 0 runs traces/lu.A.champsimtrace
Region of Interest Statistics

CPU 0 cumulative IPC: 1.102 instructions: 600000001 cycles: 544498260
CPU 0 Branch Prediction Accuracy: 96.65% MPKI: 0.6426 Average ROB Occupancy at Mispredict: 329.9
Branch type MPKI
BRANCH_DIRECT_JUMP: 5e-06
BRANCH_INDIRECT: 7.33e-05
BRANCH_CONDITIONAL: 0.642
BRANCH_DIRECT_CALL: 6.67e-06
BRANCH_INDIRECT_CALL: 3.17e-05
BRANCH_RETURN: 1.83e-05

LLC TOTAL        ACCESS:    5107189 HIT:    1338301 MISS:    3768888
LLC LOAD         ACCESS:    2481282 HIT:     407142 MISS:    2074140
LLC RFO          ACCESS:     831679 HIT:      32294 MISS:     799385
LLC PREFETCH     ACCESS:          0 HIT:          0 MISS:          0
LLC WRITE        ACCESS:    1782351 HIT:     891181 MISS:     891170
LLC TRANSLATION  ACCESS:      11877 HIT:       7684 MISS:       4193
LLC PREFETCH REQUESTED:          0 ISSUED:          0 USEFUL:          0 USELESS:          0
LLC AVERAGE MISS LATENCY: 797.2 cycles
cpu0_DTLB TOTAL        ACCESS:  116053443 HIT:  108854608 MISS:    7198835
cpu0_DTLB LOAD         ACCESS:  116053443 HIT:  108854608 MISS:    7198835
cpu0_DTLB RFO          ACCESS:          0 HIT:          0 MISS:          0
cpu0_DTLB PREFETCH     ACCESS:          0 HIT:          0 MISS:          0
cpu0_DTLB WRITE        ACCESS:          0 HIT:          0 MISS:          0
cpu0_DTLB TRANSLATION  ACCESS:          0 HIT:          0 MISS:          0
cpu0_DTLB PREFETCH REQUESTED:          0 ISSUED:          0 USEFUL:          0 USELESS:          0
cpu0_DTLB AVERAGE MISS LATENCY: 5.423 cycles
cpu0_ITLB TOTAL        ACCESS:     709715 HIT:     709502 MISS:        213
cpu0_ITLB LOAD         ACCESS:     709715 HIT:     709502 MISS:        213
cpu0_ITLB RFO          ACCESS:          0 HIT:          0 MISS:          0
cpu0_ITLB PREFETCH     ACCESS:          0 HIT:          0 MISS:          0
cpu0_ITLB WRITE        ACCESS:          0 HIT:          0 MISS:          0
cpu0_ITLB TRANSLATION  ACCESS:          0 HIT:          0 MISS:          0
cpu0_ITLB PREFETCH REQUESTED:          0 ISSUED:          0 USEFUL:          0 USELESS:          0
cpu0_ITLB AVERAGE MISS LATENCY: 317.6 cycles
cpu0_L1D TOTAL        ACCESS:  167690725 HIT:  157992543 MISS:    9698182
cpu0_L1D LOAD         ACCESS:  130637507 HIT:  124763940 MISS:    5873567
cpu0_L1D RFO          ACCESS:          0 HIT:          0 MISS:          0
cpu0_L1D PREFETCH     ACCESS:          0 HIT:          0 MISS:          0
cpu0_L1D WRITE        ACCESS:   37000619 HIT:   33200940 MISS:    3799679
cpu0_L1D TRANSLATION  ACCESS:      52599 HIT:      27663 MISS:      24936
cpu0_L1D PREFETCH REQUESTED:          0 ISSUED:          0 USEFUL:          0 USELESS:          0
cpu0_L1D AVERAGE MISS LATENCY: 296.7 cycles
cpu0_L1I TOTAL        ACCESS:    1086707 HIT:    1083964 MISS:       2743
cpu0_L1I LOAD         ACCESS:    1086707 HIT:    1083964 MISS:       2743
cpu0_L1I RFO          ACCESS:          0 HIT:          0 MISS:          0
cpu0_L1I PREFETCH     ACCESS:          0 HIT:          0 MISS:          0
cpu0_L1I WRITE        ACCESS:          0 HIT:          0 MISS:          0
cpu0_L1I TRANSLATION  ACCESS:          0 HIT:          0 MISS:          0
cpu0_L1I PREFETCH REQUESTED:          0 ISSUED:          0 USEFUL:          0 USELESS:          0
cpu0_L1I AVERAGE MISS LATENCY: 569.3 cycles
cpu0_L2C TOTAL        ACCESS:    5978431 HIT:    2649251 MISS:    3329180
cpu0_L2C LOAD         ACCESS:    3057997 HIT:     576712 MISS:    2481285
cpu0_L2C RFO          ACCESS:     878029 HIT:      46350 MISS:     831679
cpu0_L2C PREFETCH     ACCESS:          0 HIT:          0 MISS:          0
cpu0_L2C WRITE        ACCESS:    2017513 HIT:    2013174 MISS:       4339
cpu0_L2C TRANSLATION  ACCESS:      24892 HIT:      13015 MISS:      11877
cpu0_L2C PREFETCH REQUESTED:          0 ISSUED:          0 USEFUL:          0 USELESS:          0
cpu0_L2C AVERAGE MISS LATENCY: 923.4 cycles
cpu0_STLB TOTAL        ACCESS:    3988205 HIT:    3935619 MISS:      52586
cpu0_STLB LOAD         ACCESS:    3988205 HIT:    3935619 MISS:      52586
cpu0_STLB RFO          ACCESS:          0 HIT:          0 MISS:          0
cpu0_STLB PREFETCH     ACCESS:          0 HIT:          0 MISS:          0
cpu0_STLB WRITE        ACCESS:          0 HIT:          0 MISS:          0
cpu0_STLB TRANSLATION  ACCESS:          0 HIT:          0 MISS:          0
cpu0_STLB PREFETCH REQUESTED:          0 ISSUED:          0 USEFUL:          0 USELESS:          0
cpu0_STLB AVERAGE MISS LATENCY: 496 cycles

DRAM Statistics

Channel 0 RQ ROW_BUFFER_HIT:     731569
  ROW_BUFFER_MISS:    2146142
 AVG DBUS CONGESTED CYCLE: 3.932
WQ ROW_BUFFER_HIT: Channel 0 
  ROW_BUFFER_MISS:     365781
  FULL:    1168390
