WARNING: physical memory size is smaller than virtual memory size.

*** ChampSim Multicore Out-of-Order Simulator ***
Warmup Instructions: 50000000
Simulation Instructions: 600000000
Number of CPUs: 1
Page size: 4096

Off-chip DRAM Size: 4 GiB Channels: 1 Width: 64-bit Data Race: 3200 MT/s
Heartbeat CPU 0 instructions: 10000000 cycles: 2500202 heartbeat IPC: 4 cumulative IPC: 4 (Simulation time: 00 hr 00 min 53 sec)
Heartbeat CPU 0 instructions: 20000000 cycles: 5000202 heartbeat IPC: 4 cumulative IPC: 4 (Simulation time: 00 hr 01 min 45 sec)
Heartbeat CPU 0 instructions: 30000000 cycles: 7500202 heartbeat IPC: 4 cumulative IPC: 4 (Simulation time: 00 hr 02 min 37 sec)
Heartbeat CPU 0 instructions: 40000000 cycles: 10000202 heartbeat IPC: 4 cumulative IPC: 4 (Simulation time: 00 hr 03 min 29 sec)
Heartbeat CPU 0 instructions: 50000000 cycles: 12500202 heartbeat IPC: 4 cumulative IPC: 4 (Simulation time: 00 hr 04 min 21 sec)
Warmup finished CPU 0 instructions: 50000000 cycles: 12500203 cumulative IPC: 4 (Simulation time: 00 hr 04 min 21 sec)
Warmup complete CPU 0 instructions: 50000000 cycles: 12500203 cumulative IPC: 4 (Simulation time: 00 hr 04 min 21 sec)
Heartbeat CPU 0 instructions: 60000004 cycles: 15001960 heartbeat IPC: 3.997 cumulative IPC: 3.997 (Simulation time: 00 hr 05 min 22 sec)
Heartbeat CPU 0 instructions: 70000001 cycles: 17503708 heartbeat IPC: 3.997 cumulative IPC: 3.997 (Simulation time: 00 hr 06 min 22 sec)
Heartbeat CPU 0 instructions: 80000004 cycles: 20005934 heartbeat IPC: 3.996 cumulative IPC: 3.997 (Simulation time: 00 hr 07 min 22 sec)
Heartbeat CPU 0 instructions: 90000000 cycles: 22509455 heartbeat IPC: 3.994 cumulative IPC: 3.996 (Simulation time: 00 hr 08 min 22 sec)
Heartbeat CPU 0 instructions: 100000004 cycles: 25011744 heartbeat IPC: 3.996 cumulative IPC: 3.996 (Simulation time: 00 hr 09 min 22 sec)
Heartbeat CPU 0 instructions: 110000003 cycles: 27514486 heartbeat IPC: 3.996 cumulative IPC: 3.996 (Simulation time: 00 hr 10 min 22 sec)
Heartbeat CPU 0 instructions: 120000004 cycles: 30018027 heartbeat IPC: 3.994 cumulative IPC: 3.996 (Simulation time: 00 hr 11 min 22 sec)
Heartbeat CPU 0 instructions: 130000000 cycles: 32523017 heartbeat IPC: 3.992 cumulative IPC: 3.995 (Simulation time: 00 hr 12 min 22 sec)
Heartbeat CPU 0 instructions: 140000004 cycles: 35024759 heartbeat IPC: 3.997 cumulative IPC: 3.996 (Simulation time: 00 hr 13 min 22 sec)
Heartbeat CPU 0 instructions: 150000000 cycles: 37528170 heartbeat IPC: 3.995 cumulative IPC: 3.996 (Simulation time: 00 hr 14 min 27 sec)
Heartbeat CPU 0 instructions: 160000001 cycles: 40032443 heartbeat IPC: 3.993 cumulative IPC: 3.995 (Simulation time: 00 hr 15 min 27 sec)
Heartbeat CPU 0 instructions: 170000000 cycles: 42536161 heartbeat IPC: 3.994 cumulative IPC: 3.995 (Simulation time: 00 hr 16 min 30 sec)
Heartbeat CPU 0 instructions: 180000003 cycles: 45040202 heartbeat IPC: 3.994 cumulative IPC: 3.995 (Simulation time: 00 hr 17 min 30 sec)
Heartbeat CPU 0 instructions: 190000003 cycles: 47542743 heartbeat IPC: 3.996 cumulative IPC: 3.995 (Simulation time: 00 hr 18 min 30 sec)
Heartbeat CPU 0 instructions: 200000002 cycles: 50047145 heartbeat IPC: 3.993 cumulative IPC: 3.995 (Simulation time: 00 hr 19 min 31 sec)
Heartbeat CPU 0 instructions: 210000000 cycles: 52549727 heartbeat IPC: 3.996 cumulative IPC: 3.995 (Simulation time: 00 hr 20 min 32 sec)
Heartbeat CPU 0 instructions: 220000002 cycles: 55053561 heartbeat IPC: 3.994 cumulative IPC: 3.995 (Simulation time: 00 hr 21 min 32 sec)
Heartbeat CPU 0 instructions: 230000003 cycles: 57555699 heartbeat IPC: 3.997 cumulative IPC: 3.995 (Simulation time: 00 hr 22 min 33 sec)
Heartbeat CPU 0 instructions: 240000003 cycles: 89630708 heartbeat IPC: 0.3118 cumulative IPC: 2.463 (Simulation time: 00 hr 28 min 37 sec)
Heartbeat CPU 0 instructions: 250000000 cycles: 98386276 heartbeat IPC: 1.142 cumulative IPC: 2.329 (Simulation time: 00 hr 30 min 59 sec)
Heartbeat CPU 0 instructions: 260000003 cycles: 107099495 heartbeat IPC: 1.148 cumulative IPC: 2.22 (Simulation time: 00 hr 33 min 22 sec)
Heartbeat CPU 0 instructions: 270000000 cycles: 114825856 heartbeat IPC: 1.294 cumulative IPC: 2.15 (Simulation time: 00 hr 35 min 31 sec)
Heartbeat CPU 0 instructions: 280000003 cycles: 120502027 heartbeat IPC: 1.762 cumulative IPC: 2.13 (Simulation time: 00 hr 37 min 15 sec)
Heartbeat CPU 0 instructions: 290000000 cycles: 126168132 heartbeat IPC: 1.765 cumulative IPC: 2.111 (Simulation time: 00 hr 38 min 58 sec)
Heartbeat CPU 0 instructions: 300000003 cycles: 131849428 heartbeat IPC: 1.76 cumulative IPC: 2.095 (Simulation time: 00 hr 40 min 40 sec)
Heartbeat CPU 0 instructions: 310000003 cycles: 137510060 heartbeat IPC: 1.767 cumulative IPC: 2.08 (Simulation time: 00 hr 42 min 22 sec)
Heartbeat CPU 0 instructions: 320000003 cycles: 143700479 heartbeat IPC: 1.615 cumulative IPC: 2.058 (Simulation time: 00 hr 44 min 13 sec)
Heartbeat CPU 0 instructions: 330000001 cycles: 151862916 heartbeat IPC: 1.225 cumulative IPC: 2.009 (Simulation time: 00 hr 46 min 31 sec)
Heartbeat CPU 0 instructions: 340000001 cycles: 159950571 heartbeat IPC: 1.236 cumulative IPC: 1.967 (Simulation time: 00 hr 48 min 50 sec)
Heartbeat CPU 0 instructions: 350000002 cycles: 167969912 heartbeat IPC: 1.247 cumulative IPC: 1.93 (Simulation time: 00 hr 51 min 07 sec)
Heartbeat CPU 0 instructions: 360000000 cycles: 176059508 heartbeat IPC: 1.236 cumulative IPC: 1.895 (Simulation time: 00 hr 53 min 24 sec)
Heartbeat CPU 0 instructions: 370000002 cycles: 184067525 heartbeat IPC: 1.249 cumulative IPC: 1.865 (Simulation time: 00 hr 55 min 42 sec)
Heartbeat CPU 0 instructions: 380000001 cycles: 192272964 heartbeat IPC: 1.219 cumulative IPC: 1.836 (Simulation time: 00 hr 58 min 02 sec)
Heartbeat CPU 0 instructions: 390000003 cycles: 200732355 heartbeat IPC: 1.182 cumulative IPC: 1.806 (Simulation time: 01 hr 00 min 25 sec)
Heartbeat CPU 0 instructions: 400000004 cycles: 209104905 heartbeat IPC: 1.194 cumulative IPC: 1.78 (Simulation time: 01 hr 02 min 47 sec)
Heartbeat CPU 0 instructions: 410000001 cycles: 218259119 heartbeat IPC: 1.092 cumulative IPC: 1.75 (Simulation time: 01 hr 05 min 18 sec)
Heartbeat CPU 0 instructions: 420000000 cycles: 226250683 heartbeat IPC: 1.251 cumulative IPC: 1.731 (Simulation time: 01 hr 07 min 34 sec)
Heartbeat CPU 0 instructions: 430000003 cycles: 234019686 heartbeat IPC: 1.287 cumulative IPC: 1.715 (Simulation time: 01 hr 09 min 47 sec)
Heartbeat CPU 0 instructions: 440000000 cycles: 365209051 heartbeat IPC: 0.07623 cumulative IPC: 1.106 (Simulation time: 01 hr 38 min 35 sec)
Heartbeat CPU 0 instructions: 450000002 cycles: 374121104 heartbeat IPC: 1.122 cumulative IPC: 1.106 (Simulation time: 01 hr 41 min 03 sec)
Heartbeat CPU 0 instructions: 460000000 cycles: 383334205 heartbeat IPC: 1.085 cumulative IPC: 1.106 (Simulation time: 01 hr 43 min 33 sec)
Heartbeat CPU 0 instructions: 470000003 cycles: 391908272 heartbeat IPC: 1.166 cumulative IPC: 1.107 (Simulation time: 01 hr 45 min 55 sec)
Heartbeat CPU 0 instructions: 480000003 cycles: 401248160 heartbeat IPC: 1.071 cumulative IPC: 1.106 (Simulation time: 01 hr 48 min 28 sec)
Heartbeat CPU 0 instructions: 490000001 cycles: 410625285 heartbeat IPC: 1.066 cumulative IPC: 1.105 (Simulation time: 01 hr 51 min 00 sec)
Heartbeat CPU 0 instructions: 500000003 cycles: 425534767 heartbeat IPC: 0.6707 cumulative IPC: 1.089 (Simulation time: 01 hr 54 min 48 sec)
Heartbeat CPU 0 instructions: 510000004 cycles: 441466504 heartbeat IPC: 0.6277 cumulative IPC: 1.072 (Simulation time: 01 hr 58 min 50 sec)
Heartbeat CPU 0 instructions: 520000003 cycles: 456880270 heartbeat IPC: 0.6488 cumulative IPC: 1.058 (Simulation time: 02 hr 02 min 46 sec)
Heartbeat CPU 0 instructions: 530000002 cycles: 473132833 heartbeat IPC: 0.6153 cumulative IPC: 1.042 (Simulation time: 02 hr 06 min 52 sec)
Heartbeat CPU 0 instructions: 540000002 cycles: 488711706 heartbeat IPC: 0.6419 cumulative IPC: 1.029 (Simulation time: 02 hr 10 min 50 sec)
Heartbeat CPU 0 instructions: 550000000 cycles: 500909968 heartbeat IPC: 0.8198 cumulative IPC: 1.024 (Simulation time: 02 hr 14 min 01 sec)
Heartbeat CPU 0 instructions: 560000002 cycles: 511647422 heartbeat IPC: 0.9313 cumulative IPC: 1.022 (Simulation time: 02 hr 16 min 52 sec)
Heartbeat CPU 0 instructions: 570000000 cycles: 522522044 heartbeat IPC: 0.9196 cumulative IPC: 1.02 (Simulation time: 02 hr 19 min 44 sec)
Heartbeat CPU 0 instructions: 580000001 cycles: 533330229 heartbeat IPC: 0.9252 cumulative IPC: 1.018 (Simulation time: 02 hr 22 min 33 sec)
Heartbeat CPU 0 instructions: 590000000 cycles: 544331963 heartbeat IPC: 0.9089 cumulative IPC: 1.015 (Simulation time: 02 hr 25 min 26 sec)
*** Reached end of trace: (0, "traces/lu.A.champsimtrace")
Heartbeat CPU 0 instructions: 600000001 cycles: 555430384 heartbeat IPC: 0.901 cumulative IPC: 1.013 (Simulation time: 02 hr 28 min 20 sec)
Heartbeat CPU 0 instructions: 610000004 cycles: 565284348 heartbeat IPC: 1.015 cumulative IPC: 1.013 (Simulation time: 02 hr 30 min 48 sec)
Heartbeat CPU 0 instructions: 620000003 cycles: 567786672 heartbeat IPC: 3.996 cumulative IPC: 1.026 (Simulation time: 02 hr 31 min 49 sec)
Heartbeat CPU 0 instructions: 630000002 cycles: 570288778 heartbeat IPC: 3.997 cumulative IPC: 1.04 (Simulation time: 02 hr 32 min 49 sec)
Heartbeat CPU 0 instructions: 640000000 cycles: 572791892 heartbeat IPC: 3.995 cumulative IPC: 1.053 (Simulation time: 02 hr 33 min 49 sec)
Heartbeat CPU 0 instructions: 650000004 cycles: 575295296 heartbeat IPC: 3.995 cumulative IPC: 1.066 (Simulation time: 02 hr 34 min 49 sec)
Simulation finished CPU 0 instructions: 600000004 cycles: 562795094 cumulative IPC: 1.066 (Simulation time: 02 hr 34 min 49 sec)
Simulation complete CPU 0 instructions: 600000004 cycles: 562795094 cumulative IPC: 1.066 (Simulation time: 02 hr 34 min 49 sec)

ChampSim completed all CPUs

=== Simulation ===
CPU 0 runs traces/lu.A.champsimtrace
Region of Interest Statistics

CPU 0 cumulative IPC: 1.066 instructions: 600000004 cycles: 562795094
CPU 0 Branch Prediction Accuracy: 98.73% MPKI: 0.2426 Average ROB Occupancy at Mispredict: 326.6
Branch type MPKI
BRANCH_DIRECT_JUMP: 5e-06
BRANCH_INDIRECT: 7.83e-05
BRANCH_CONDITIONAL: 0.242
BRANCH_DIRECT_CALL: 6.67e-06
BRANCH_INDIRECT_CALL: 3.5e-05
BRANCH_RETURN: 1.83e-05

LLC TOTAL        ACCESS:    5106232 HIT:     850613 MISS:    4255619
LLC LOAD         ACCESS:    2480790 HIT:     190640 MISS:    2290150
LLC RFO          ACCESS:     831656 HIT:      10199 MISS:     821457
LLC PREFETCH     ACCESS:          0 HIT:          0 MISS:          0
LLC WRITE        ACCESS:    1781889 HIT:     648823 MISS:    1133066
LLC TRANSLATION  ACCESS:      11897 HIT:        951 MISS:      10946
LLC PREFETCH REQUESTED:          0 ISSUED:          0 USEFUL:          0 USELESS:          0
LLC AVERAGE MISS LATENCY: 740.3 cycles
cpu0_DTLB TOTAL        ACCESS:  123232708 HIT:  115955388 MISS:    7277320
cpu0_DTLB LOAD         ACCESS:  123232708 HIT:  115955388 MISS:    7277320
cpu0_DTLB RFO          ACCESS:          0 HIT:          0 MISS:          0
cpu0_DTLB PREFETCH     ACCESS:          0 HIT:          0 MISS:          0
cpu0_DTLB WRITE        ACCESS:          0 HIT:          0 MISS:          0
cpu0_DTLB TRANSLATION  ACCESS:          0 HIT:          0 MISS:          0
cpu0_DTLB PREFETCH REQUESTED:          0 ISSUED:          0 USEFUL:          0 USELESS:          0
cpu0_DTLB AVERAGE MISS LATENCY: 7.018 cycles
cpu0_ITLB TOTAL        ACCESS:     719770 HIT:     719559 MISS:        211
cpu0_ITLB LOAD         ACCESS:     719770 HIT:     719559 MISS:        211
cpu0_ITLB RFO          ACCESS:          0 HIT:          0 MISS:          0
cpu0_ITLB PREFETCH     ACCESS:          0 HIT:          0 MISS:          0
cpu0_ITLB WRITE        ACCESS:          0 HIT:          0 MISS:          0
cpu0_ITLB TRANSLATION  ACCESS:          0 HIT:          0 MISS:          0
cpu0_ITLB PREFETCH REQUESTED:          0 ISSUED:          0 USEFUL:          0 USELESS:          0
cpu0_ITLB AVERAGE MISS LATENCY: 350.2 cycles
cpu0_L1D TOTAL        ACCESS:  175985265 HIT:  166464799 MISS:    9520466
cpu0_L1D LOAD         ACCESS:  138932664 HIT:  133165515 MISS:    5767149
cpu0_L1D RFO          ACCESS:          0 HIT:          0 MISS:          0
cpu0_L1D PREFETCH     ACCESS:          0 HIT:          0 MISS:          0
cpu0_L1D WRITE        ACCESS:   37000003 HIT:   33271942 MISS:    3728061
cpu0_L1D TRANSLATION  ACCESS:      52598 HIT:      27342 MISS:      25256
cpu0_L1D PREFETCH REQUESTED:          0 ISSUED:          0 USEFUL:          0 USELESS:          0
cpu0_L1D AVERAGE MISS LATENCY: 317.3 cycles
cpu0_L1I TOTAL        ACCESS:    1106106 HIT:    1103376 MISS:       2730
cpu0_L1I LOAD         ACCESS:    1106106 HIT:    1103376 MISS:       2730
cpu0_L1I RFO          ACCESS:          0 HIT:          0 MISS:          0
cpu0_L1I PREFETCH     ACCESS:          0 HIT:          0 MISS:          0
cpu0_L1I WRITE        ACCESS:          0 HIT:          0 MISS:          0
cpu0_L1I TRANSLATION  ACCESS:          0 HIT:          0 MISS:          0
cpu0_L1I PREFETCH REQUESTED:          0 ISSUED:          0 USEFUL:          0 USELESS:          0
cpu0_L1I AVERAGE MISS LATENCY: 548.6 cycles
cpu0_L2C TOTAL        ACCESS:    5948047 HIT:    2619397 MISS:    3328650
cpu0_L2C LOAD         ACCESS:    3043441 HIT:     562651 MISS:    2480790
cpu0_L2C RFO          ACCESS:     876750 HIT:      45094 MISS:     831656
cpu0_L2C PREFETCH     ACCESS:          0 HIT:          0 MISS:          0
cpu0_L2C WRITE        ACCESS:    2002648 HIT:    1998341 MISS:       4307
cpu0_L2C TRANSLATION  ACCESS:      25208 HIT:      13311 MISS:      11897
cpu0_L2C PREFETCH REQUESTED:          0 ISSUED:          0 USEFUL:          0 USELESS:          0
cpu0_L2C AVERAGE MISS LATENCY: 967.4 cycles
cpu0_STLB TOTAL        ACCESS:    4042724 HIT:    3990141 MISS:      52583
cpu0_STLB LOAD         ACCESS:    4042724 HIT:    3990141 MISS:      52583
cpu0_STLB RFO          ACCESS:          0 HIT:          0 MISS:          0
cpu0_STLB PREFETCH     ACCESS:          0 HIT:          0 MISS:          0
cpu0_STLB WRITE        ACCESS:          0 HIT:          0 MISS:          0
cpu0_STLB TRANSLATION  ACCESS:          0 HIT:          0 MISS:          0
cpu0_STLB PREFETCH REQUESTED:          0 ISSUED:          0 USEFUL:          0 USELESS:          0
cpu0_STLB AVERAGE MISS LATENCY: 799.4 cycles

DRAM Statistics

Channel 0 RQ ROW_BUFFER_HIT:     806724
  ROW_BUFFER_MISS:    2314623
 AVG DBUS CONGESTED CYCLE: 3.928
WQ ROW_BUFFER_HIT: Channel 0 
  ROW_BUFFER_MISS:     487917
  FULL:    1204243
