WARNING: physical memory size is smaller than virtual memory size.

*** ChampSim Multicore Out-of-Order Simulator ***
Warmup Instructions: 50000000
Simulation Instructions: 600000000
Number of CPUs: 1
Page size: 4096

Off-chip DRAM Size: 4 GiB Channels: 1 Width: 64-bit Data Race: 3200 MT/s
Heartbeat CPU 0 instructions: 10000000 cycles: 2500202 heartbeat IPC: 4 cumulative IPC: 4 (Simulation time: 00 hr 01 min 06 sec)
Heartbeat CPU 0 instructions: 20000000 cycles: 5000202 heartbeat IPC: 4 cumulative IPC: 4 (Simulation time: 00 hr 01 min 57 sec)
Heartbeat CPU 0 instructions: 30000000 cycles: 7500202 heartbeat IPC: 4 cumulative IPC: 4 (Simulation time: 00 hr 02 min 48 sec)
Heartbeat CPU 0 instructions: 40000000 cycles: 10000202 heartbeat IPC: 4 cumulative IPC: 4 (Simulation time: 00 hr 03 min 41 sec)
Heartbeat CPU 0 instructions: 50000000 cycles: 12500202 heartbeat IPC: 4 cumulative IPC: 4 (Simulation time: 00 hr 04 min 33 sec)
Warmup finished CPU 0 instructions: 50000000 cycles: 12500203 cumulative IPC: 4 (Simulation time: 00 hr 04 min 33 sec)
Warmup complete CPU 0 instructions: 50000000 cycles: 12500203 cumulative IPC: 4 (Simulation time: 00 hr 04 min 33 sec)
Heartbeat CPU 0 instructions: 60000004 cycles: 15001960 heartbeat IPC: 3.997 cumulative IPC: 3.997 (Simulation time: 00 hr 05 min 33 sec)
Heartbeat CPU 0 instructions: 70000001 cycles: 17503708 heartbeat IPC: 3.997 cumulative IPC: 3.997 (Simulation time: 00 hr 06 min 32 sec)
Heartbeat CPU 0 instructions: 80000004 cycles: 20006428 heartbeat IPC: 3.996 cumulative IPC: 3.997 (Simulation time: 00 hr 07 min 32 sec)
Heartbeat CPU 0 instructions: 90000000 cycles: 22509254 heartbeat IPC: 3.995 cumulative IPC: 3.996 (Simulation time: 00 hr 08 min 31 sec)
Heartbeat CPU 0 instructions: 100000004 cycles: 25011953 heartbeat IPC: 3.996 cumulative IPC: 3.996 (Simulation time: 00 hr 09 min 30 sec)
Heartbeat CPU 0 instructions: 110000003 cycles: 27515594 heartbeat IPC: 3.994 cumulative IPC: 3.996 (Simulation time: 00 hr 10 min 29 sec)
Heartbeat CPU 0 instructions: 120000004 cycles: 30017587 heartbeat IPC: 3.997 cumulative IPC: 3.996 (Simulation time: 00 hr 11 min 28 sec)
Heartbeat CPU 0 instructions: 130000000 cycles: 32520192 heartbeat IPC: 3.996 cumulative IPC: 3.996 (Simulation time: 00 hr 12 min 28 sec)
Heartbeat CPU 0 instructions: 140000004 cycles: 35021934 heartbeat IPC: 3.997 cumulative IPC: 3.996 (Simulation time: 00 hr 13 min 27 sec)
Heartbeat CPU 0 instructions: 150000000 cycles: 37526205 heartbeat IPC: 3.993 cumulative IPC: 3.996 (Simulation time: 00 hr 14 min 27 sec)
Heartbeat CPU 0 instructions: 160000001 cycles: 40029700 heartbeat IPC: 3.994 cumulative IPC: 3.996 (Simulation time: 00 hr 15 min 25 sec)
Heartbeat CPU 0 instructions: 170000000 cycles: 42532194 heartbeat IPC: 3.996 cumulative IPC: 3.996 (Simulation time: 00 hr 16 min 24 sec)
Heartbeat CPU 0 instructions: 180000003 cycles: 45037306 heartbeat IPC: 3.992 cumulative IPC: 3.995 (Simulation time: 00 hr 17 min 23 sec)
Heartbeat CPU 0 instructions: 190000003 cycles: 47540104 heartbeat IPC: 3.996 cumulative IPC: 3.995 (Simulation time: 00 hr 18 min 22 sec)
Heartbeat CPU 0 instructions: 200000002 cycles: 50043665 heartbeat IPC: 3.994 cumulative IPC: 3.995 (Simulation time: 00 hr 19 min 20 sec)
Heartbeat CPU 0 instructions: 210000000 cycles: 52545749 heartbeat IPC: 3.997 cumulative IPC: 3.995 (Simulation time: 00 hr 20 min 18 sec)
Heartbeat CPU 0 instructions: 220000002 cycles: 55050463 heartbeat IPC: 3.992 cumulative IPC: 3.995 (Simulation time: 00 hr 21 min 16 sec)
Heartbeat CPU 0 instructions: 230000003 cycles: 57553715 heartbeat IPC: 3.995 cumulative IPC: 3.995 (Simulation time: 00 hr 22 min 13 sec)
Heartbeat CPU 0 instructions: 240000002 cycles: 92140395 heartbeat IPC: 0.2891 cumulative IPC: 2.386 (Simulation time: 00 hr 28 min 35 sec)
Heartbeat CPU 0 instructions: 250000000 cycles: 101184974 heartbeat IPC: 1.106 cumulative IPC: 2.255 (Simulation time: 00 hr 30 min 58 sec)
Heartbeat CPU 0 instructions: 260000003 cycles: 110089950 heartbeat IPC: 1.123 cumulative IPC: 2.152 (Simulation time: 00 hr 33 min 18 sec)
Heartbeat CPU 0 instructions: 270000000 cycles: 119950487 heartbeat IPC: 1.014 cumulative IPC: 2.047 (Simulation time: 00 hr 35 min 50 sec)
Heartbeat CPU 0 instructions: 280000004 cycles: 129593960 heartbeat IPC: 1.037 cumulative IPC: 1.964 (Simulation time: 00 hr 38 min 19 sec)
Heartbeat CPU 0 instructions: 290000000 cycles: 135282878 heartbeat IPC: 1.758 cumulative IPC: 1.955 (Simulation time: 00 hr 39 min 59 sec)
Heartbeat CPU 0 instructions: 300000003 cycles: 140350932 heartbeat IPC: 1.973 cumulative IPC: 1.955 (Simulation time: 00 hr 41 min 32 sec)
Heartbeat CPU 0 instructions: 310000003 cycles: 145176705 heartbeat IPC: 2.072 cumulative IPC: 1.96 (Simulation time: 00 hr 43 min 03 sec)
Heartbeat CPU 0 instructions: 320000003 cycles: 150867061 heartbeat IPC: 1.757 cumulative IPC: 1.951 (Simulation time: 00 hr 44 min 44 sec)
Heartbeat CPU 0 instructions: 330000001 cycles: 156906852 heartbeat IPC: 1.656 cumulative IPC: 1.939 (Simulation time: 00 hr 46 min 32 sec)
Heartbeat CPU 0 instructions: 340000001 cycles: 164662350 heartbeat IPC: 1.289 cumulative IPC: 1.906 (Simulation time: 00 hr 48 min 42 sec)
Heartbeat CPU 0 instructions: 350000002 cycles: 172381672 heartbeat IPC: 1.295 cumulative IPC: 1.876 (Simulation time: 00 hr 50 min 51 sec)
Heartbeat CPU 0 instructions: 360000000 cycles: 180125128 heartbeat IPC: 1.291 cumulative IPC: 1.849 (Simulation time: 00 hr 53 min 00 sec)
Heartbeat CPU 0 instructions: 370000002 cycles: 187948521 heartbeat IPC: 1.278 cumulative IPC: 1.824 (Simulation time: 00 hr 55 min 10 sec)
Heartbeat CPU 0 instructions: 380000001 cycles: 196307525 heartbeat IPC: 1.196 cumulative IPC: 1.795 (Simulation time: 00 hr 57 min 30 sec)
Heartbeat CPU 0 instructions: 390000003 cycles: 204694006 heartbeat IPC: 1.192 cumulative IPC: 1.769 (Simulation time: 00 hr 59 min 52 sec)
Heartbeat CPU 0 instructions: 400000002 cycles: 213929388 heartbeat IPC: 1.083 cumulative IPC: 1.738 (Simulation time: 01 hr 02 min 24 sec)
Heartbeat CPU 0 instructions: 410000002 cycles: 223175246 heartbeat IPC: 1.082 cumulative IPC: 1.709 (Simulation time: 01 hr 04 min 57 sec)
Heartbeat CPU 0 instructions: 420000000 cycles: 232354591 heartbeat IPC: 1.089 cumulative IPC: 1.683 (Simulation time: 01 hr 07 min 27 sec)
Heartbeat CPU 0 instructions: 430000003 cycles: 241559929 heartbeat IPC: 1.086 cumulative IPC: 1.659 (Simulation time: 01 hr 09 min 57 sec)
Heartbeat CPU 0 instructions: 440000004 cycles: 390313521 heartbeat IPC: 0.06723 cumulative IPC: 1.032 (Simulation time: 01 hr 41 min 43 sec)
Heartbeat CPU 0 instructions: 450000002 cycles: 403412920 heartbeat IPC: 0.7634 cumulative IPC: 1.023 (Simulation time: 01 hr 45 min 01 sec)
Heartbeat CPU 0 instructions: 460000000 cycles: 413020100 heartbeat IPC: 1.041 cumulative IPC: 1.024 (Simulation time: 01 hr 47 min 35 sec)
Heartbeat CPU 0 instructions: 470000003 cycles: 422028804 heartbeat IPC: 1.11 cumulative IPC: 1.026 (Simulation time: 01 hr 50 min 01 sec)
Heartbeat CPU 0 instructions: 480000003 cycles: 431581495 heartbeat IPC: 1.047 cumulative IPC: 1.026 (Simulation time: 01 hr 52 min 34 sec)
Heartbeat CPU 0 instructions: 490000001 cycles: 441167862 heartbeat IPC: 1.043 cumulative IPC: 1.026 (Simulation time: 01 hr 55 min 07 sec)
Heartbeat CPU 0 instructions: 500000003 cycles: 453233691 heartbeat IPC: 0.8288 cumulative IPC: 1.021 (Simulation time: 01 hr 58 min 14 sec)
Heartbeat CPU 0 instructions: 510000004 cycles: 465817313 heartbeat IPC: 0.7947 cumulative IPC: 1.015 (Simulation time: 02 hr 01 min 29 sec)
Heartbeat CPU 0 instructions: 520000003 cycles: 479673071 heartbeat IPC: 0.7217 cumulative IPC: 1.006 (Simulation time: 02 hr 05 min 00 sec)
Heartbeat CPU 0 instructions: 530000000 cycles: 493659901 heartbeat IPC: 0.715 cumulative IPC: 0.9976 (Simulation time: 02 hr 08 min 33 sec)
Heartbeat CPU 0 instructions: 540000002 cycles: 507141035 heartbeat IPC: 0.7418 cumulative IPC: 0.9906 (Simulation time: 02 hr 11 min 58 sec)
Heartbeat CPU 0 instructions: 550000000 cycles: 517491730 heartbeat IPC: 0.9661 cumulative IPC: 0.9901 (Simulation time: 02 hr 14 min 40 sec)
Heartbeat CPU 0 instructions: 560000002 cycles: 526116354 heartbeat IPC: 1.159 cumulative IPC: 0.993 (Simulation time: 02 hr 17 min 01 sec)
Heartbeat CPU 0 instructions: 570000000 cycles: 535297620 heartbeat IPC: 1.089 cumulative IPC: 0.9946 (Simulation time: 02 hr 19 min 28 sec)
Heartbeat CPU 0 instructions: 580000001 cycles: 544488119 heartbeat IPC: 1.088 cumulative IPC: 0.9963 (Simulation time: 02 hr 21 min 54 sec)
Heartbeat CPU 0 instructions: 590000000 cycles: 553936227 heartbeat IPC: 1.058 cumulative IPC: 0.9973 (Simulation time: 02 hr 24 min 25 sec)
*** Reached end of trace: (0, "traces/lu.A.champsimtrace")
Heartbeat CPU 0 instructions: 600000001 cycles: 563688593 heartbeat IPC: 1.025 cumulative IPC: 0.9978 (Simulation time: 02 hr 26 min 59 sec)
Heartbeat CPU 0 instructions: 610000004 cycles: 571499759 heartbeat IPC: 1.28 cumulative IPC: 1.002 (Simulation time: 02 hr 29 min 01 sec)
Heartbeat CPU 0 instructions: 620000003 cycles: 574004072 heartbeat IPC: 3.993 cumulative IPC: 1.015 (Simulation time: 02 hr 30 min 03 sec)
Heartbeat CPU 0 instructions: 630000002 cycles: 576508551 heartbeat IPC: 3.993 cumulative IPC: 1.028 (Simulation time: 02 hr 31 min 05 sec)
Heartbeat CPU 0 instructions: 640000000 cycles: 579012062 heartbeat IPC: 3.994 cumulative IPC: 1.041 (Simulation time: 02 hr 32 min 05 sec)
Heartbeat CPU 0 instructions: 650000004 cycles: 581514505 heartbeat IPC: 3.996 cumulative IPC: 1.054 (Simulation time: 02 hr 33 min 06 sec)
Simulation finished CPU 0 instructions: 600000004 cycles: 569014303 cumulative IPC: 1.054 (Simulation time: 02 hr 33 min 06 sec)
Simulation complete CPU 0 instructions: 600000004 cycles: 569014303 cumulative IPC: 1.054 (Simulation time: 02 hr 33 min 06 sec)

ChampSim completed all CPUs

=== Simulation ===
CPU 0 runs traces/lu.A.champsimtrace
Region of Interest Statistics

CPU 0 cumulative IPC: 1.054 instructions: 600000004 cycles: 569014303
CPU 0 Branch Prediction Accuracy: 98.73% MPKI: 0.2426 Average ROB Occupancy at Mispredict: 324.4
Branch type MPKI
BRANCH_DIRECT_JUMP: 5e-06
BRANCH_INDIRECT: 7.83e-05
BRANCH_CONDITIONAL: 0.242
BRANCH_DIRECT_CALL: 6.67e-06
BRANCH_INDIRECT_CALL: 3.5e-05
BRANCH_RETURN: 1.83e-05

LLC TOTAL        ACCESS:    7720390 HIT:    2735963 MISS:    4984427
LLC LOAD         ACCESS:    2480849 HIT:    1425311 MISS:    1055538
LLC RFO          ACCESS:     831658 HIT:      49607 MISS:     782051
LLC PREFETCH     ACCESS:    2614133 HIT:     240028 MISS:    2374105
LLC WRITE        ACCESS:    1781903 HIT:    1018041 MISS:     763862
LLC TRANSLATION  ACCESS:      11847 HIT:       2976 MISS:       8871
LLC PREFETCH REQUESTED:    4434250 ISSUED:    2614133 USEFUL:    1719395 USELESS:      30739
LLC AVERAGE MISS LATENCY: 1378 cycles
cpu0_DTLB TOTAL        ACCESS:  122850982 HIT:  115625810 MISS:    7225172
cpu0_DTLB LOAD         ACCESS:  122850982 HIT:  115625810 MISS:    7225172
cpu0_DTLB RFO          ACCESS:          0 HIT:          0 MISS:          0
cpu0_DTLB PREFETCH     ACCESS:          0 HIT:          0 MISS:          0
cpu0_DTLB WRITE        ACCESS:          0 HIT:          0 MISS:          0
cpu0_DTLB TRANSLATION  ACCESS:          0 HIT:          0 MISS:          0
cpu0_DTLB PREFETCH REQUESTED:          0 ISSUED:          0 USEFUL:          0 USELESS:          0
cpu0_DTLB AVERAGE MISS LATENCY: 7.631 cycles
cpu0_ITLB TOTAL        ACCESS:     710394 HIT:     710179 MISS:        215
cpu0_ITLB LOAD         ACCESS:     710394 HIT:     710179 MISS:        215
cpu0_ITLB RFO          ACCESS:          0 HIT:          0 MISS:          0
cpu0_ITLB PREFETCH     ACCESS:          0 HIT:          0 MISS:          0
cpu0_ITLB WRITE        ACCESS:          0 HIT:          0 MISS:          0
cpu0_ITLB TRANSLATION  ACCESS:          0 HIT:          0 MISS:          0
cpu0_ITLB PREFETCH REQUESTED:          0 ISSUED:          0 USEFUL:          0 USELESS:          0
cpu0_ITLB AVERAGE MISS LATENCY: 447.8 cycles
cpu0_L1D TOTAL        ACCESS:  175566771 HIT:  166136058 MISS:    9430713
cpu0_L1D LOAD         ACCESS:  138513732 HIT:  132829649 MISS:    5684083
cpu0_L1D RFO          ACCESS:          0 HIT:          0 MISS:          0
cpu0_L1D PREFETCH     ACCESS:          0 HIT:          0 MISS:          0
cpu0_L1D WRITE        ACCESS:   37000441 HIT:   33279269 MISS:    3721172
cpu0_L1D TRANSLATION  ACCESS:      52598 HIT:      27140 MISS:      25458
cpu0_L1D PREFETCH REQUESTED:          0 ISSUED:          0 USEFUL:          0 USELESS:          0
cpu0_L1D AVERAGE MISS LATENCY: 294.6 cycles
cpu0_L1I TOTAL        ACCESS:    1094869 HIT:    1092152 MISS:       2717
cpu0_L1I LOAD         ACCESS:    1094869 HIT:    1092152 MISS:       2717
cpu0_L1I RFO          ACCESS:          0 HIT:          0 MISS:          0
cpu0_L1I PREFETCH     ACCESS:          0 HIT:          0 MISS:          0
cpu0_L1I WRITE        ACCESS:          0 HIT:          0 MISS:          0
cpu0_L1I TRANSLATION  ACCESS:          0 HIT:          0 MISS:          0
cpu0_L1I PREFETCH REQUESTED:          0 ISSUED:          0 USEFUL:          0 USELESS:          0
cpu0_L1I AVERAGE MISS LATENCY: 527.6 cycles
cpu0_L2C TOTAL        ACCESS:    5963758 HIT:    2635150 MISS:    3328608
cpu0_L2C LOAD         ACCESS:    3057431 HIT:     576582 MISS:    2480849
cpu0_L2C RFO          ACCESS:     876649 HIT:      44991 MISS:     831658
cpu0_L2C PREFETCH     ACCESS:          0 HIT:          0 MISS:          0
cpu0_L2C WRITE        ACCESS:    2004271 HIT:    2000017 MISS:       4254
cpu0_L2C TRANSLATION  ACCESS:      25407 HIT:      13560 MISS:      11847
cpu0_L2C PREFETCH REQUESTED:          0 ISSUED:          0 USEFUL:          0 USELESS:          0
cpu0_L2C AVERAGE MISS LATENCY: 898.7 cycles
cpu0_STLB TOTAL        ACCESS:    4041609 HIT:    3989026 MISS:      52583
cpu0_STLB LOAD         ACCESS:    4041609 HIT:    3989026 MISS:      52583
cpu0_STLB RFO          ACCESS:          0 HIT:          0 MISS:          0
cpu0_STLB PREFETCH     ACCESS:          0 HIT:          0 MISS:          0
cpu0_STLB WRITE        ACCESS:          0 HIT:          0 MISS:          0
cpu0_STLB TRANSLATION  ACCESS:          0 HIT:          0 MISS:          0
cpu0_STLB PREFETCH REQUESTED:          0 ISSUED:          0 USEFUL:          0 USELESS:          0
cpu0_STLB AVERAGE MISS LATENCY: 892.1 cycles

DRAM Statistics

Channel 0 RQ ROW_BUFFER_HIT:     771474
  ROW_BUFFER_MISS:    2345009
 AVG DBUS CONGESTED CYCLE: 3.972
WQ ROW_BUFFER_HIT: Channel 0 
  ROW_BUFFER_MISS:     320857
  FULL:    1346098
Final OPTGen Hits: 27577
Final OPTGen Access: 52580
Final OPTGEN Hit Rate: 52.4477
