WARNING: physical memory size is smaller than virtual memory size.

*** ChampSim Multicore Out-of-Order Simulator ***
Warmup Instructions: 50000000
Simulation Instructions: 600000000
Number of CPUs: 1
Page size: 4096

Off-chip DRAM Size: 4 GiB Channels: 1 Width: 64-bit Data Race: 3200 MT/s
Heartbeat CPU 0 instructions: 10000000 cycles: 2500202 heartbeat IPC: 4 cumulative IPC: 4 (Simulation time: 00 hr 00 min 33 sec)
Heartbeat CPU 0 instructions: 20000000 cycles: 5000202 heartbeat IPC: 4 cumulative IPC: 4 (Simulation time: 00 hr 01 min 05 sec)
Heartbeat CPU 0 instructions: 30000000 cycles: 7500202 heartbeat IPC: 4 cumulative IPC: 4 (Simulation time: 00 hr 01 min 36 sec)
Heartbeat CPU 0 instructions: 40000000 cycles: 10000202 heartbeat IPC: 4 cumulative IPC: 4 (Simulation time: 00 hr 02 min 07 sec)
Heartbeat CPU 0 instructions: 50000000 cycles: 12500202 heartbeat IPC: 4 cumulative IPC: 4 (Simulation time: 00 hr 02 min 38 sec)
Warmup finished CPU 0 instructions: 50000000 cycles: 12500203 cumulative IPC: 4 (Simulation time: 00 hr 02 min 38 sec)
Warmup complete CPU 0 instructions: 50000000 cycles: 12500203 cumulative IPC: 4 (Simulation time: 00 hr 02 min 38 sec)
Heartbeat CPU 0 instructions: 60000004 cycles: 15002953 heartbeat IPC: 3.996 cumulative IPC: 3.996 (Simulation time: 00 hr 03 min 15 sec)
Heartbeat CPU 0 instructions: 70000003 cycles: 17505901 heartbeat IPC: 3.995 cumulative IPC: 3.995 (Simulation time: 00 hr 03 min 51 sec)
Heartbeat CPU 0 instructions: 80000004 cycles: 20008584 heartbeat IPC: 3.996 cumulative IPC: 3.996 (Simulation time: 00 hr 04 min 28 sec)
Heartbeat CPU 0 instructions: 90000000 cycles: 22512050 heartbeat IPC: 3.994 cumulative IPC: 3.995 (Simulation time: 00 hr 05 min 05 sec)
Heartbeat CPU 0 instructions: 100000001 cycles: 25014628 heartbeat IPC: 3.996 cumulative IPC: 3.995 (Simulation time: 00 hr 05 min 42 sec)
Heartbeat CPU 0 instructions: 110000000 cycles: 27516586 heartbeat IPC: 3.997 cumulative IPC: 3.996 (Simulation time: 00 hr 06 min 19 sec)
Heartbeat CPU 0 instructions: 120000004 cycles: 30018891 heartbeat IPC: 3.996 cumulative IPC: 3.996 (Simulation time: 00 hr 06 min 56 sec)
Heartbeat CPU 0 instructions: 130000000 cycles: 32521621 heartbeat IPC: 3.996 cumulative IPC: 3.996 (Simulation time: 00 hr 07 min 36 sec)
Heartbeat CPU 0 instructions: 140000004 cycles: 35024347 heartbeat IPC: 3.996 cumulative IPC: 3.996 (Simulation time: 00 hr 08 min 15 sec)
Heartbeat CPU 0 instructions: 150000000 cycles: 37527691 heartbeat IPC: 3.995 cumulative IPC: 3.996 (Simulation time: 00 hr 08 min 53 sec)
Heartbeat CPU 0 instructions: 160000001 cycles: 40030176 heartbeat IPC: 3.996 cumulative IPC: 3.996 (Simulation time: 00 hr 09 min 29 sec)
Heartbeat CPU 0 instructions: 170000000 cycles: 42532921 heartbeat IPC: 3.996 cumulative IPC: 3.996 (Simulation time: 00 hr 10 min 06 sec)
Heartbeat CPU 0 instructions: 180000003 cycles: 45036242 heartbeat IPC: 3.995 cumulative IPC: 3.996 (Simulation time: 00 hr 10 min 42 sec)
Heartbeat CPU 0 instructions: 190000000 cycles: 47538888 heartbeat IPC: 3.996 cumulative IPC: 3.996 (Simulation time: 00 hr 11 min 18 sec)
Heartbeat CPU 0 instructions: 200000004 cycles: 50042270 heartbeat IPC: 3.995 cumulative IPC: 3.996 (Simulation time: 00 hr 11 min 53 sec)
Heartbeat CPU 0 instructions: 210000004 cycles: 52544068 heartbeat IPC: 3.997 cumulative IPC: 3.996 (Simulation time: 00 hr 12 min 29 sec)
Heartbeat CPU 0 instructions: 220000001 cycles: 55046819 heartbeat IPC: 3.996 cumulative IPC: 3.996 (Simulation time: 00 hr 13 min 05 sec)
Heartbeat CPU 0 instructions: 230000000 cycles: 57549294 heartbeat IPC: 3.996 cumulative IPC: 3.996 (Simulation time: 00 hr 13 min 41 sec)
Heartbeat CPU 0 instructions: 240000000 cycles: 91193915 heartbeat IPC: 0.2972 cumulative IPC: 2.414 (Simulation time: 00 hr 17 min 09 sec)
Heartbeat CPU 0 instructions: 250000000 cycles: 100321083 heartbeat IPC: 1.096 cumulative IPC: 2.277 (Simulation time: 00 hr 18 min 37 sec)
Heartbeat CPU 0 instructions: 260000001 cycles: 109461495 heartbeat IPC: 1.094 cumulative IPC: 2.166 (Simulation time: 00 hr 20 min 04 sec)
Heartbeat CPU 0 instructions: 270000001 cycles: 119148319 heartbeat IPC: 1.032 cumulative IPC: 2.063 (Simulation time: 00 hr 21 min 37 sec)
Heartbeat CPU 0 instructions: 280000003 cycles: 125411445 heartbeat IPC: 1.597 cumulative IPC: 2.037 (Simulation time: 00 hr 22 min 46 sec)
Heartbeat CPU 0 instructions: 290000001 cycles: 131796391 heartbeat IPC: 1.566 cumulative IPC: 2.012 (Simulation time: 00 hr 23 min 54 sec)
Heartbeat CPU 0 instructions: 300000002 cycles: 138089626 heartbeat IPC: 1.589 cumulative IPC: 1.991 (Simulation time: 00 hr 24 min 59 sec)
Heartbeat CPU 0 instructions: 310000002 cycles: 144346981 heartbeat IPC: 1.598 cumulative IPC: 1.972 (Simulation time: 00 hr 26 min 05 sec)
Heartbeat CPU 0 instructions: 320000001 cycles: 151186262 heartbeat IPC: 1.462 cumulative IPC: 1.947 (Simulation time: 00 hr 27 min 18 sec)
Heartbeat CPU 0 instructions: 330000002 cycles: 159490687 heartbeat IPC: 1.204 cumulative IPC: 1.905 (Simulation time: 00 hr 28 min 43 sec)
Heartbeat CPU 0 instructions: 340000004 cycles: 167686867 heartbeat IPC: 1.22 cumulative IPC: 1.869 (Simulation time: 00 hr 30 min 07 sec)
Heartbeat CPU 0 instructions: 350000003 cycles: 176012800 heartbeat IPC: 1.201 cumulative IPC: 1.835 (Simulation time: 00 hr 31 min 34 sec)
Heartbeat CPU 0 instructions: 360000001 cycles: 184269075 heartbeat IPC: 1.211 cumulative IPC: 1.805 (Simulation time: 00 hr 32 min 58 sec)
Heartbeat CPU 0 instructions: 370000002 cycles: 192504467 heartbeat IPC: 1.214 cumulative IPC: 1.778 (Simulation time: 00 hr 34 min 20 sec)
Heartbeat CPU 0 instructions: 380000003 cycles: 200465035 heartbeat IPC: 1.256 cumulative IPC: 1.756 (Simulation time: 00 hr 35 min 41 sec)
Heartbeat CPU 0 instructions: 390000000 cycles: 208640281 heartbeat IPC: 1.223 cumulative IPC: 1.733 (Simulation time: 00 hr 37 min 08 sec)
Heartbeat CPU 0 instructions: 400000000 cycles: 216788311 heartbeat IPC: 1.227 cumulative IPC: 1.713 (Simulation time: 00 hr 38 min 32 sec)
Heartbeat CPU 0 instructions: 410000004 cycles: 224911318 heartbeat IPC: 1.231 cumulative IPC: 1.695 (Simulation time: 00 hr 39 min 54 sec)
Heartbeat CPU 0 instructions: 420000000 cycles: 232985839 heartbeat IPC: 1.238 cumulative IPC: 1.678 (Simulation time: 00 hr 41 min 18 sec)
Heartbeat CPU 0 instructions: 430000002 cycles: 241164030 heartbeat IPC: 1.223 cumulative IPC: 1.662 (Simulation time: 00 hr 42 min 42 sec)
Heartbeat CPU 0 instructions: 440000004 cycles: 392752927 heartbeat IPC: 0.06597 cumulative IPC: 1.026 (Simulation time: 01 hr 02 min 39 sec)
Heartbeat CPU 0 instructions: 450000003 cycles: 402148079 heartbeat IPC: 1.064 cumulative IPC: 1.027 (Simulation time: 01 hr 04 min 12 sec)
Heartbeat CPU 0 instructions: 460000004 cycles: 411681572 heartbeat IPC: 1.049 cumulative IPC: 1.027 (Simulation time: 01 hr 05 min 51 sec)
Heartbeat CPU 0 instructions: 470000002 cycles: 421040783 heartbeat IPC: 1.068 cumulative IPC: 1.028 (Simulation time: 01 hr 07 min 34 sec)
Heartbeat CPU 0 instructions: 480000004 cycles: 430437084 heartbeat IPC: 1.064 cumulative IPC: 1.029 (Simulation time: 01 hr 09 min 20 sec)
Heartbeat CPU 0 instructions: 490000002 cycles: 440030687 heartbeat IPC: 1.042 cumulative IPC: 1.029 (Simulation time: 01 hr 11 min 00 sec)
Heartbeat CPU 0 instructions: 500000003 cycles: 452932795 heartbeat IPC: 0.7751 cumulative IPC: 1.022 (Simulation time: 01 hr 13 min 10 sec)
Heartbeat CPU 0 instructions: 510000004 cycles: 465845952 heartbeat IPC: 0.7744 cumulative IPC: 1.015 (Simulation time: 01 hr 15 min 21 sec)
Heartbeat CPU 0 instructions: 520000000 cycles: 479069274 heartbeat IPC: 0.7562 cumulative IPC: 1.007 (Simulation time: 01 hr 17 min 32 sec)
Heartbeat CPU 0 instructions: 530000004 cycles: 492114023 heartbeat IPC: 0.7666 cumulative IPC: 1.001 (Simulation time: 01 hr 19 min 49 sec)
Heartbeat CPU 0 instructions: 540000002 cycles: 505162941 heartbeat IPC: 0.7663 cumulative IPC: 0.9946 (Simulation time: 01 hr 22 min 16 sec)
Heartbeat CPU 0 instructions: 550000002 cycles: 516530221 heartbeat IPC: 0.8797 cumulative IPC: 0.992 (Simulation time: 01 hr 24 min 19 sec)
Heartbeat CPU 0 instructions: 560000000 cycles: 527675601 heartbeat IPC: 0.8972 cumulative IPC: 0.99 (Simulation time: 01 hr 26 min 16 sec)
Heartbeat CPU 0 instructions: 570000002 cycles: 538827054 heartbeat IPC: 0.8967 cumulative IPC: 0.988 (Simulation time: 01 hr 28 min 08 sec)
Heartbeat CPU 0 instructions: 580000003 cycles: 549994095 heartbeat IPC: 0.8955 cumulative IPC: 0.9861 (Simulation time: 01 hr 30 min 03 sec)
Heartbeat CPU 0 instructions: 590000003 cycles: 561171669 heartbeat IPC: 0.8946 cumulative IPC: 0.9842 (Simulation time: 01 hr 32 min 04 sec)
*** Reached end of trace: (0, "traces/lu.A.champsimtrace")
Heartbeat CPU 0 instructions: 600000001 cycles: 572417664 heartbeat IPC: 0.8892 cumulative IPC: 0.9823 (Simulation time: 01 hr 34 min 10 sec)
Heartbeat CPU 0 instructions: 610000000 cycles: 579790809 heartbeat IPC: 1.356 cumulative IPC: 0.9871 (Simulation time: 01 hr 35 min 31 sec)
Heartbeat CPU 0 instructions: 620000000 cycles: 582293443 heartbeat IPC: 3.996 cumulative IPC: 1 (Simulation time: 01 hr 36 min 12 sec)
Heartbeat CPU 0 instructions: 630000004 cycles: 584795933 heartbeat IPC: 3.996 cumulative IPC: 1.013 (Simulation time: 01 hr 36 min 56 sec)
Heartbeat CPU 0 instructions: 640000002 cycles: 587297683 heartbeat IPC: 3.997 cumulative IPC: 1.026 (Simulation time: 01 hr 37 min 39 sec)
Heartbeat CPU 0 instructions: 650000001 cycles: 589799650 heartbeat IPC: 3.997 cumulative IPC: 1.039 (Simulation time: 01 hr 38 min 18 sec)
Simulation finished CPU 0 instructions: 600000001 cycles: 577299448 cumulative IPC: 1.039 (Simulation time: 01 hr 38 min 18 sec)
Simulation complete CPU 0 instructions: 600000001 cycles: 577299448 cumulative IPC: 1.039 (Simulation time: 01 hr 38 min 18 sec)

ChampSim completed all CPUs

=== Simulation ===
CPU 0 runs traces/lu.A.champsimtrace
Region of Interest Statistics

CPU 0 cumulative IPC: 1.039 instructions: 600000001 cycles: 577299448
CPU 0 Branch Prediction Accuracy: 98.73% MPKI: 0.2427 Average ROB Occupancy at Mispredict: 326.4
Branch type MPKI
BRANCH_DIRECT_JUMP: 5e-06
BRANCH_INDIRECT: 7.33e-05
BRANCH_CONDITIONAL: 0.243
BRANCH_DIRECT_CALL: 6.67e-06
BRANCH_INDIRECT_CALL: 3.17e-05
BRANCH_RETURN: 1.83e-05

LLC TOTAL        ACCESS:    5107173 HIT:    1985520 MISS:    3121653
LLC LOAD         ACCESS:    2481317 HIT:     190371 MISS:    2290946
LLC RFO          ACCESS:     831679 HIT:       5074 MISS:     826605
LLC PREFETCH     ACCESS:          0 HIT:          0 MISS:          0
LLC WRITE        ACCESS:    1782325 HIT:    1780986 MISS:       1339
LLC TRANSLATION  ACCESS:      11852 HIT:       9089 MISS:       2763
LLC PREFETCH REQUESTED:          0 ISSUED:          0 USEFUL:          0 USELESS:          0
LLC AVERAGE MISS LATENCY: 1060 cycles
cpu0_DTLB TOTAL        ACCESS:  123087120 HIT:  115864159 MISS:    7222961
cpu0_DTLB LOAD         ACCESS:  123087120 HIT:  115864159 MISS:    7222961
cpu0_DTLB RFO          ACCESS:          0 HIT:          0 MISS:          0
cpu0_DTLB PREFETCH     ACCESS:          0 HIT:          0 MISS:          0
cpu0_DTLB WRITE        ACCESS:          0 HIT:          0 MISS:          0
cpu0_DTLB TRANSLATION  ACCESS:          0 HIT:          0 MISS:          0
cpu0_DTLB PREFETCH REQUESTED:          0 ISSUED:          0 USEFUL:          0 USELESS:          0
cpu0_DTLB AVERAGE MISS LATENCY: 5.378 cycles
cpu0_ITLB TOTAL        ACCESS:     718339 HIT:     718132 MISS:        207
cpu0_ITLB LOAD         ACCESS:     718339 HIT:     718132 MISS:        207
cpu0_ITLB RFO          ACCESS:          0 HIT:          0 MISS:          0
cpu0_ITLB PREFETCH     ACCESS:          0 HIT:          0 MISS:          0
cpu0_ITLB WRITE        ACCESS:          0 HIT:          0 MISS:          0
cpu0_ITLB TRANSLATION  ACCESS:          0 HIT:          0 MISS:          0
cpu0_ITLB PREFETCH REQUESTED:          0 ISSUED:          0 USEFUL:          0 USELESS:          0
cpu0_ITLB AVERAGE MISS LATENCY: 331.6 cycles
cpu0_L1D TOTAL        ACCESS:  176429580 HIT:  166744183 MISS:    9685397
cpu0_L1D LOAD         ACCESS:  139376481 HIT:  133520188 MISS:    5856293
cpu0_L1D RFO          ACCESS:          0 HIT:          0 MISS:          0
cpu0_L1D PREFETCH     ACCESS:          0 HIT:          0 MISS:          0
cpu0_L1D WRITE        ACCESS:   37000503 HIT:   33196297 MISS:    3804206
cpu0_L1D TRANSLATION  ACCESS:      52596 HIT:      27698 MISS:      24898
cpu0_L1D PREFETCH REQUESTED:          0 ISSUED:          0 USEFUL:          0 USELESS:          0
cpu0_L1D AVERAGE MISS LATENCY: 328.5 cycles
cpu0_L1I TOTAL        ACCESS:    1104627 HIT:    1101897 MISS:       2730
cpu0_L1I LOAD         ACCESS:    1104627 HIT:    1101897 MISS:       2730
cpu0_L1I RFO          ACCESS:          0 HIT:          0 MISS:          0
cpu0_L1I PREFETCH     ACCESS:          0 HIT:          0 MISS:          0
cpu0_L1I WRITE        ACCESS:          0 HIT:          0 MISS:          0
cpu0_L1I TRANSLATION  ACCESS:          0 HIT:          0 MISS:          0
cpu0_L1I PREFETCH REQUESTED:          0 ISSUED:          0 USEFUL:          0 USELESS:          0
cpu0_L1I AVERAGE MISS LATENCY: 512 cycles
cpu0_L2C TOTAL        ACCESS:    5978449 HIT:    2649287 MISS:    3329162
cpu0_L2C LOAD         ACCESS:    3057646 HIT:     576327 MISS:    2481319
cpu0_L2C RFO          ACCESS:     878239 HIT:      46560 MISS:     831679
cpu0_L2C PREFETCH     ACCESS:          0 HIT:          0 MISS:          0
cpu0_L2C WRITE        ACCESS:    2017713 HIT:    2013401 MISS:       4312
cpu0_L2C TRANSLATION  ACCESS:      24851 HIT:      12999 MISS:      11852
cpu0_L2C PREFETCH REQUESTED:          0 ISSUED:          0 USEFUL:          0 USELESS:          0
cpu0_L2C AVERAGE MISS LATENCY: 1015 cycles
cpu0_STLB TOTAL        ACCESS:    3988955 HIT:    3936369 MISS:      52586
cpu0_STLB LOAD         ACCESS:    3988955 HIT:    3936369 MISS:      52586
cpu0_STLB RFO          ACCESS:          0 HIT:          0 MISS:          0
cpu0_STLB PREFETCH     ACCESS:          0 HIT:          0 MISS:          0
cpu0_STLB WRITE        ACCESS:          0 HIT:          0 MISS:          0
cpu0_STLB TRANSLATION  ACCESS:          0 HIT:          0 MISS:          0
cpu0_STLB PREFETCH REQUESTED:          0 ISSUED:          0 USEFUL:          0 USELESS:          0
cpu0_STLB AVERAGE MISS LATENCY: 500.4 cycles

DRAM Statistics

Channel 0 RQ ROW_BUFFER_HIT:     765792
  ROW_BUFFER_MISS:    2354519
 AVG DBUS CONGESTED CYCLE: 3.931
WQ ROW_BUFFER_HIT: Channel 0 
  ROW_BUFFER_MISS:     320974
  FULL:    1361002
