WARNING: physical memory size is smaller than virtual memory size.

*** ChampSim Multicore Out-of-Order Simulator ***
Warmup Instructions: 50000000
Simulation Instructions: 600000000
Number of CPUs: 1
Page size: 4096

CPU 0 Tage branch predictor
Off-chip DRAM Size: 4 GiB Channels: 1 Width: 64-bit Data Race: 3200 MT/s
Heartbeat CPU 0 instructions: 10000000 cycles: 2500202 heartbeat IPC: 4 cumulative IPC: 4 (Simulation time: 00 hr 00 min 51 sec)
Heartbeat CPU 0 instructions: 20000000 cycles: 5000202 heartbeat IPC: 4 cumulative IPC: 4 (Simulation time: 00 hr 01 min 42 sec)
Heartbeat CPU 0 instructions: 30000000 cycles: 7500202 heartbeat IPC: 4 cumulative IPC: 4 (Simulation time: 00 hr 02 min 34 sec)
Heartbeat CPU 0 instructions: 40000000 cycles: 10000202 heartbeat IPC: 4 cumulative IPC: 4 (Simulation time: 00 hr 03 min 25 sec)
Heartbeat CPU 0 instructions: 50000000 cycles: 12500202 heartbeat IPC: 4 cumulative IPC: 4 (Simulation time: 00 hr 04 min 16 sec)
Warmup finished CPU 0 instructions: 50000000 cycles: 12500203 cumulative IPC: 4 (Simulation time: 00 hr 04 min 16 sec)
Warmup complete CPU 0 instructions: 50000000 cycles: 12500203 cumulative IPC: 4 (Simulation time: 00 hr 04 min 16 sec)
Heartbeat CPU 0 instructions: 60000004 cycles: 15000207 heartbeat IPC: 4 cumulative IPC: 4 (Simulation time: 00 hr 05 min 14 sec)
Heartbeat CPU 0 instructions: 70000001 cycles: 17501185 heartbeat IPC: 3.998 cumulative IPC: 3.999 (Simulation time: 00 hr 06 min 12 sec)
Heartbeat CPU 0 instructions: 80000004 cycles: 20001854 heartbeat IPC: 3.999 cumulative IPC: 3.999 (Simulation time: 00 hr 07 min 10 sec)
Heartbeat CPU 0 instructions: 90000000 cycles: 22503791 heartbeat IPC: 3.997 cumulative IPC: 3.999 (Simulation time: 00 hr 08 min 09 sec)
Heartbeat CPU 0 instructions: 100000004 cycles: 25004798 heartbeat IPC: 3.998 cumulative IPC: 3.999 (Simulation time: 00 hr 09 min 06 sec)
Heartbeat CPU 0 instructions: 110000003 cycles: 27505533 heartbeat IPC: 3.999 cumulative IPC: 3.999 (Simulation time: 00 hr 10 min 05 sec)
Heartbeat CPU 0 instructions: 120000004 cycles: 30007530 heartbeat IPC: 3.997 cumulative IPC: 3.998 (Simulation time: 00 hr 11 min 04 sec)
Heartbeat CPU 0 instructions: 130000000 cycles: 32509610 heartbeat IPC: 3.997 cumulative IPC: 3.998 (Simulation time: 00 hr 12 min 02 sec)
Heartbeat CPU 0 instructions: 140000004 cycles: 35010078 heartbeat IPC: 3.999 cumulative IPC: 3.998 (Simulation time: 00 hr 13 min 00 sec)
Heartbeat CPU 0 instructions: 150000000 cycles: 37511551 heartbeat IPC: 3.998 cumulative IPC: 3.998 (Simulation time: 00 hr 13 min 59 sec)
Heartbeat CPU 0 instructions: 160000001 cycles: 40015489 heartbeat IPC: 3.994 cumulative IPC: 3.998 (Simulation time: 00 hr 14 min 57 sec)
Heartbeat CPU 0 instructions: 170000000 cycles: 42517275 heartbeat IPC: 3.997 cumulative IPC: 3.998 (Simulation time: 00 hr 15 min 57 sec)
Heartbeat CPU 0 instructions: 180000003 cycles: 45018724 heartbeat IPC: 3.998 cumulative IPC: 3.998 (Simulation time: 00 hr 16 min 55 sec)
Heartbeat CPU 0 instructions: 190000003 cycles: 47520605 heartbeat IPC: 3.997 cumulative IPC: 3.998 (Simulation time: 00 hr 17 min 54 sec)
Heartbeat CPU 0 instructions: 200000002 cycles: 50022311 heartbeat IPC: 3.997 cumulative IPC: 3.998 (Simulation time: 00 hr 18 min 53 sec)
Heartbeat CPU 0 instructions: 210000000 cycles: 52524127 heartbeat IPC: 3.997 cumulative IPC: 3.998 (Simulation time: 00 hr 19 min 51 sec)
Heartbeat CPU 0 instructions: 220000002 cycles: 55025744 heartbeat IPC: 3.997 cumulative IPC: 3.998 (Simulation time: 00 hr 20 min 50 sec)
Heartbeat CPU 0 instructions: 230000003 cycles: 57527043 heartbeat IPC: 3.998 cumulative IPC: 3.998 (Simulation time: 00 hr 21 min 49 sec)
Heartbeat CPU 0 instructions: 240000002 cycles: 89579119 heartbeat IPC: 0.312 cumulative IPC: 2.465 (Simulation time: 00 hr 27 min 05 sec)
Heartbeat CPU 0 instructions: 250000000 cycles: 98290339 heartbeat IPC: 1.148 cumulative IPC: 2.331 (Simulation time: 00 hr 29 min 11 sec)
Heartbeat CPU 0 instructions: 260000003 cycles: 106972879 heartbeat IPC: 1.152 cumulative IPC: 2.223 (Simulation time: 00 hr 31 min 18 sec)
Heartbeat CPU 0 instructions: 270000004 cycles: 114388327 heartbeat IPC: 1.349 cumulative IPC: 2.159 (Simulation time: 00 hr 33 min 13 sec)
Heartbeat CPU 0 instructions: 280000003 cycles: 119381852 heartbeat IPC: 2.003 cumulative IPC: 2.152 (Simulation time: 00 hr 34 min 41 sec)
Heartbeat CPU 0 instructions: 290000000 cycles: 124378788 heartbeat IPC: 2.001 cumulative IPC: 2.145 (Simulation time: 00 hr 36 min 08 sec)
Heartbeat CPU 0 instructions: 300000003 cycles: 129395567 heartbeat IPC: 1.993 cumulative IPC: 2.139 (Simulation time: 00 hr 37 min 37 sec)
Heartbeat CPU 0 instructions: 310000003 cycles: 134369280 heartbeat IPC: 2.011 cumulative IPC: 2.133 (Simulation time: 00 hr 39 min 06 sec)
Heartbeat CPU 0 instructions: 320000003 cycles: 139888530 heartbeat IPC: 1.812 cumulative IPC: 2.12 (Simulation time: 00 hr 40 min 40 sec)
Heartbeat CPU 0 instructions: 330000003 cycles: 147692798 heartbeat IPC: 1.281 cumulative IPC: 2.071 (Simulation time: 00 hr 42 min 40 sec)
Heartbeat CPU 0 instructions: 340000001 cycles: 155363973 heartbeat IPC: 1.304 cumulative IPC: 2.03 (Simulation time: 00 hr 44 min 39 sec)
Heartbeat CPU 0 instructions: 350000001 cycles: 163045247 heartbeat IPC: 1.302 cumulative IPC: 1.993 (Simulation time: 00 hr 46 min 39 sec)
Heartbeat CPU 0 instructions: 360000001 cycles: 170692872 heartbeat IPC: 1.308 cumulative IPC: 1.96 (Simulation time: 00 hr 48 min 35 sec)
Heartbeat CPU 0 instructions: 370000002 cycles: 178446790 heartbeat IPC: 1.29 cumulative IPC: 1.928 (Simulation time: 00 hr 50 min 31 sec)
Heartbeat CPU 0 instructions: 380000001 cycles: 186927301 heartbeat IPC: 1.179 cumulative IPC: 1.892 (Simulation time: 00 hr 52 min 46 sec)
Heartbeat CPU 0 instructions: 390000003 cycles: 196163903 heartbeat IPC: 1.083 cumulative IPC: 1.851 (Simulation time: 00 hr 54 min 59 sec)
Heartbeat CPU 0 instructions: 400000001 cycles: 205348917 heartbeat IPC: 1.089 cumulative IPC: 1.815 (Simulation time: 00 hr 57 min 14 sec)
Heartbeat CPU 0 instructions: 410000004 cycles: 214539823 heartbeat IPC: 1.088 cumulative IPC: 1.782 (Simulation time: 00 hr 59 min 28 sec)
Heartbeat CPU 0 instructions: 420000000 cycles: 226679595 heartbeat IPC: 0.8237 cumulative IPC: 1.728 (Simulation time: 01 hr 02 min 13 sec)
Heartbeat CPU 0 instructions: 430000003 cycles: 237426099 heartbeat IPC: 0.9305 cumulative IPC: 1.689 (Simulation time: 01 hr 04 min 43 sec)
Heartbeat CPU 0 instructions: 440000004 cycles: 370072595 heartbeat IPC: 0.07539 cumulative IPC: 1.091 (Simulation time: 01 hr 28 min 51 sec)
Heartbeat CPU 0 instructions: 450000002 cycles: 378749967 heartbeat IPC: 1.152 cumulative IPC: 1.092 (Simulation time: 01 hr 30 min 58 sec)
Heartbeat CPU 0 instructions: 460000000 cycles: 387767670 heartbeat IPC: 1.109 cumulative IPC: 1.093 (Simulation time: 01 hr 33 min 09 sec)
Heartbeat CPU 0 instructions: 470000003 cycles: 396337663 heartbeat IPC: 1.167 cumulative IPC: 1.094 (Simulation time: 01 hr 35 min 15 sec)
Heartbeat CPU 0 instructions: 480000003 cycles: 405634344 heartbeat IPC: 1.076 cumulative IPC: 1.094 (Simulation time: 01 hr 37 min 29 sec)
Heartbeat CPU 0 instructions: 490000002 cycles: 414901709 heartbeat IPC: 1.079 cumulative IPC: 1.093 (Simulation time: 01 hr 39 min 43 sec)
Heartbeat CPU 0 instructions: 500000004 cycles: 430083759 heartbeat IPC: 0.6587 cumulative IPC: 1.078 (Simulation time: 01 hr 43 min 01 sec)
Heartbeat CPU 0 instructions: 510000003 cycles: 446751511 heartbeat IPC: 0.6 cumulative IPC: 1.059 (Simulation time: 01 hr 46 min 34 sec)
Heartbeat CPU 0 instructions: 520000003 cycles: 462668946 heartbeat IPC: 0.6282 cumulative IPC: 1.044 (Simulation time: 01 hr 50 min 00 sec)
Heartbeat CPU 0 instructions: 530000001 cycles: 478790746 heartbeat IPC: 0.6203 cumulative IPC: 1.029 (Simulation time: 01 hr 53 min 37 sec)
Heartbeat CPU 0 instructions: 540000002 cycles: 494789042 heartbeat IPC: 0.6251 cumulative IPC: 1.016 (Simulation time: 01 hr 57 min 04 sec)
Heartbeat CPU 0 instructions: 550000000 cycles: 506667215 heartbeat IPC: 0.8419 cumulative IPC: 1.012 (Simulation time: 01 hr 59 min 48 sec)
Heartbeat CPU 0 instructions: 560000002 cycles: 516683468 heartbeat IPC: 0.9984 cumulative IPC: 1.012 (Simulation time: 02 hr 02 min 13 sec)
Heartbeat CPU 0 instructions: 570000000 cycles: 526924631 heartbeat IPC: 0.9765 cumulative IPC: 1.011 (Simulation time: 02 hr 04 min 39 sec)
Heartbeat CPU 0 instructions: 580000001 cycles: 537274755 heartbeat IPC: 0.9662 cumulative IPC: 1.01 (Simulation time: 02 hr 07 min 08 sec)
Heartbeat CPU 0 instructions: 590000000 cycles: 547549261 heartbeat IPC: 0.9733 cumulative IPC: 1.009 (Simulation time: 02 hr 09 min 38 sec)
*** Reached end of trace: (0, "traces/lu.A.champsimtrace")
Heartbeat CPU 0 instructions: 600000001 cycles: 557833860 heartbeat IPC: 0.9723 cumulative IPC: 1.009 (Simulation time: 02 hr 12 min 16 sec)
Heartbeat CPU 0 instructions: 610000004 cycles: 566521075 heartbeat IPC: 1.151 cumulative IPC: 1.011 (Simulation time: 02 hr 14 min 23 sec)
Heartbeat CPU 0 instructions: 620000003 cycles: 569021074 heartbeat IPC: 4 cumulative IPC: 1.024 (Simulation time: 02 hr 15 min 23 sec)
Heartbeat CPU 0 instructions: 630000002 cycles: 571521402 heartbeat IPC: 3.999 cumulative IPC: 1.038 (Simulation time: 02 hr 16 min 23 sec)
Heartbeat CPU 0 instructions: 640000000 cycles: 574022079 heartbeat IPC: 3.999 cumulative IPC: 1.051 (Simulation time: 02 hr 17 min 21 sec)
Heartbeat CPU 0 instructions: 650000004 cycles: 576522630 heartbeat IPC: 3.999 cumulative IPC: 1.064 (Simulation time: 02 hr 18 min 20 sec)
Simulation finished CPU 0 instructions: 600000004 cycles: 564022428 cumulative IPC: 1.064 (Simulation time: 02 hr 18 min 20 sec)
Simulation complete CPU 0 instructions: 600000004 cycles: 564022428 cumulative IPC: 1.064 (Simulation time: 02 hr 18 min 20 sec)

ChampSim completed all CPUs

=== Simulation ===
CPU 0 runs traces/lu.A.champsimtrace
Region of Interest Statistics

CPU 0 cumulative IPC: 1.064 instructions: 600000004 cycles: 564022428
CPU 0 Branch Prediction Accuracy: 99.98% MPKI: 0.0041 Average ROB Occupancy at Mispredict: 120.6
Branch type MPKI
BRANCH_DIRECT_JUMP: 5e-06
BRANCH_INDIRECT: 7.83e-05
BRANCH_CONDITIONAL: 0.00396
BRANCH_DIRECT_CALL: 6.67e-06
BRANCH_INDIRECT_CALL: 3.5e-05
BRANCH_RETURN: 1.83e-05

LLC TOTAL        ACCESS:    7698685 HIT:    2327983 MISS:    5370702
LLC LOAD         ACCESS:    2480827 HIT:    1364800 MISS:    1116027
LLC RFO          ACCESS:     831661 HIT:      82960 MISS:     748701
LLC PREFETCH     ACCESS:    2592475 HIT:     236376 MISS:    2356099
LLC WRITE        ACCESS:    1781890 HIT:     643164 MISS:    1138726
LLC TRANSLATION  ACCESS:      11832 HIT:        683 MISS:      11149
LLC PREFETCH REQUESTED:    3845350 ISSUED:    2592475 USEFUL:    1665309 USELESS:      87028
LLC AVERAGE MISS LATENCY: 1185 cycles
cpu0_DTLB TOTAL        ACCESS:  124943138 HIT:  117514063 MISS:    7429075
cpu0_DTLB LOAD         ACCESS:  124943138 HIT:  117514063 MISS:    7429075
cpu0_DTLB RFO          ACCESS:          0 HIT:          0 MISS:          0
cpu0_DTLB PREFETCH     ACCESS:          0 HIT:          0 MISS:          0
cpu0_DTLB WRITE        ACCESS:          0 HIT:          0 MISS:          0
cpu0_DTLB TRANSLATION  ACCESS:          0 HIT:          0 MISS:          0
cpu0_DTLB PREFETCH REQUESTED:          0 ISSUED:          0 USEFUL:          0 USELESS:          0
cpu0_DTLB AVERAGE MISS LATENCY: 8.099 cycles
cpu0_ITLB TOTAL        ACCESS:    1259158 HIT:    1258923 MISS:        235
cpu0_ITLB LOAD         ACCESS:    1259158 HIT:    1258923 MISS:        235
cpu0_ITLB RFO          ACCESS:          0 HIT:          0 MISS:          0
cpu0_ITLB PREFETCH     ACCESS:          0 HIT:          0 MISS:          0
cpu0_ITLB WRITE        ACCESS:          0 HIT:          0 MISS:          0
cpu0_ITLB TRANSLATION  ACCESS:          0 HIT:          0 MISS:          0
cpu0_ITLB PREFETCH REQUESTED:          0 ISSUED:          0 USEFUL:          0 USELESS:          0
cpu0_ITLB AVERAGE MISS LATENCY: 388.3 cycles
cpu0_L1D TOTAL        ACCESS:  178434465 HIT:  168928869 MISS:    9505596
cpu0_L1D LOAD         ACCESS:  141382613 HIT:  135610796 MISS:    5771817
cpu0_L1D RFO          ACCESS:          0 HIT:          0 MISS:          0
cpu0_L1D PREFETCH     ACCESS:          0 HIT:          0 MISS:          0
cpu0_L1D WRITE        ACCESS:   36999253 HIT:   33290900 MISS:    3708353
cpu0_L1D TRANSLATION  ACCESS:      52599 HIT:      27173 MISS:      25426
cpu0_L1D PREFETCH REQUESTED:          0 ISSUED:          0 USEFUL:          0 USELESS:          0
cpu0_L1D AVERAGE MISS LATENCY: 264.1 cycles
cpu0_L1I TOTAL        ACCESS:    1577741 HIT:    1574817 MISS:       2924
cpu0_L1I LOAD         ACCESS:    1577741 HIT:    1574817 MISS:       2924
cpu0_L1I RFO          ACCESS:          0 HIT:          0 MISS:          0
cpu0_L1I PREFETCH     ACCESS:          0 HIT:          0 MISS:          0
cpu0_L1I WRITE        ACCESS:          0 HIT:          0 MISS:          0
cpu0_L1I TRANSLATION  ACCESS:          0 HIT:          0 MISS:          0
cpu0_L1I PREFETCH REQUESTED:          0 ISSUED:          0 USEFUL:          0 USELESS:          0
cpu0_L1I AVERAGE MISS LATENCY: 480.3 cycles
cpu0_L2C TOTAL        ACCESS:    5966030 HIT:    2637555 MISS:    3328475
cpu0_L2C LOAD         ACCESS:    3059413 HIT:     578586 MISS:    2480827
cpu0_L2C RFO          ACCESS:     876769 HIT:      45108 MISS:     831661
cpu0_L2C PREFETCH     ACCESS:          0 HIT:          0 MISS:          0
cpu0_L2C WRITE        ACCESS:    2004479 HIT:    2000324 MISS:       4155
cpu0_L2C TRANSLATION  ACCESS:      25369 HIT:      13537 MISS:      11832
cpu0_L2C PREFETCH REQUESTED:          0 ISSUED:          0 USEFUL:          0 USELESS:          0
cpu0_L2C AVERAGE MISS LATENCY: 812.2 cycles
cpu0_STLB TOTAL        ACCESS:    4046863 HIT:    3994280 MISS:      52583
cpu0_STLB LOAD         ACCESS:    4046863 HIT:    3994280 MISS:      52583
cpu0_STLB RFO          ACCESS:          0 HIT:          0 MISS:          0
cpu0_STLB PREFETCH     ACCESS:          0 HIT:          0 MISS:          0
cpu0_STLB WRITE        ACCESS:          0 HIT:          0 MISS:          0
cpu0_STLB TRANSLATION  ACCESS:          0 HIT:          0 MISS:          0
cpu0_STLB PREFETCH REQUESTED:          0 ISSUED:          0 USEFUL:          0 USELESS:          0
cpu0_STLB AVERAGE MISS LATENCY: 1038 cycles

DRAM Statistics

Channel 0 RQ ROW_BUFFER_HIT:     805954
  ROW_BUFFER_MISS:    2324814
 AVG DBUS CONGESTED CYCLE: 3.969
WQ ROW_BUFFER_HIT: Channel 0 
  ROW_BUFFER_MISS:     456578
  FULL:    1225159
