WARNING: physical memory size is smaller than virtual memory size.

*** ChampSim Multicore Out-of-Order Simulator ***
Warmup Instructions: 50000000
Simulation Instructions: 600000000
Number of CPUs: 1
Page size: 4096

CPU 0 Tage branch predictor
Off-chip DRAM Size: 4 GiB Channels: 1 Width: 64-bit Data Race: 3200 MT/s
Heartbeat CPU 0 instructions: 10000001 cycles: 2500202 heartbeat IPC: 4 cumulative IPC: 4 (Simulation time: 00 hr 01 min 20 sec)
Heartbeat CPU 0 instructions: 20000001 cycles: 5000202 heartbeat IPC: 4 cumulative IPC: 4 (Simulation time: 00 hr 02 min 32 sec)
Heartbeat CPU 0 instructions: 30000001 cycles: 7500202 heartbeat IPC: 4 cumulative IPC: 4 (Simulation time: 00 hr 03 min 58 sec)
Heartbeat CPU 0 instructions: 40000001 cycles: 10000202 heartbeat IPC: 4 cumulative IPC: 4 (Simulation time: 00 hr 05 min 16 sec)
Heartbeat CPU 0 instructions: 50000001 cycles: 12500202 heartbeat IPC: 4 cumulative IPC: 4 (Simulation time: 00 hr 06 min 33 sec)
Warmup finished CPU 0 instructions: 50000001 cycles: 12500203 cumulative IPC: 4 (Simulation time: 00 hr 06 min 33 sec)
Warmup complete CPU 0 instructions: 50000001 cycles: 12500203 cumulative IPC: 4 (Simulation time: 00 hr 06 min 33 sec)
Heartbeat CPU 0 instructions: 60000001 cycles: 15000215 heartbeat IPC: 4 cumulative IPC: 4 (Simulation time: 00 hr 08 min 38 sec)
Heartbeat CPU 0 instructions: 70000004 cycles: 17500218 heartbeat IPC: 4 cumulative IPC: 4 (Simulation time: 00 hr 10 min 10 sec)
Heartbeat CPU 0 instructions: 80000003 cycles: 20000216 heartbeat IPC: 4 cumulative IPC: 4 (Simulation time: 00 hr 11 min 33 sec)
Heartbeat CPU 0 instructions: 90000003 cycles: 22501000 heartbeat IPC: 3.999 cumulative IPC: 4 (Simulation time: 00 hr 12 min 49 sec)
Heartbeat CPU 0 instructions: 100000002 cycles: 25002354 heartbeat IPC: 3.998 cumulative IPC: 3.999 (Simulation time: 00 hr 14 min 21 sec)
Heartbeat CPU 0 instructions: 110000003 cycles: 27503024 heartbeat IPC: 3.999 cumulative IPC: 3.999 (Simulation time: 00 hr 15 min 56 sec)
Heartbeat CPU 0 instructions: 120000001 cycles: 30004888 heartbeat IPC: 3.997 cumulative IPC: 3.999 (Simulation time: 00 hr 17 min 31 sec)
Heartbeat CPU 0 instructions: 130000001 cycles: 32505356 heartbeat IPC: 3.999 cumulative IPC: 3.999 (Simulation time: 00 hr 19 min 01 sec)
Heartbeat CPU 0 instructions: 140000002 cycles: 35005850 heartbeat IPC: 3.999 cumulative IPC: 3.999 (Simulation time: 00 hr 20 min 34 sec)
Heartbeat CPU 0 instructions: 150000004 cycles: 37506922 heartbeat IPC: 3.998 cumulative IPC: 3.999 (Simulation time: 00 hr 22 min 06 sec)
Heartbeat CPU 0 instructions: 160000003 cycles: 40007160 heartbeat IPC: 4 cumulative IPC: 3.999 (Simulation time: 00 hr 23 min 31 sec)
Heartbeat CPU 0 instructions: 170000003 cycles: 42507617 heartbeat IPC: 3.999 cumulative IPC: 3.999 (Simulation time: 00 hr 24 min 59 sec)
Heartbeat CPU 0 instructions: 180000002 cycles: 45008152 heartbeat IPC: 3.999 cumulative IPC: 3.999 (Simulation time: 00 hr 26 min 27 sec)
Heartbeat CPU 0 instructions: 190000000 cycles: 47510173 heartbeat IPC: 3.997 cumulative IPC: 3.999 (Simulation time: 00 hr 27 min 43 sec)
Heartbeat CPU 0 instructions: 200000001 cycles: 50010903 heartbeat IPC: 3.999 cumulative IPC: 3.999 (Simulation time: 00 hr 28 min 51 sec)
Heartbeat CPU 0 instructions: 210000001 cycles: 52511715 heartbeat IPC: 3.999 cumulative IPC: 3.999 (Simulation time: 00 hr 30 min 05 sec)
Heartbeat CPU 0 instructions: 220000002 cycles: 55013583 heartbeat IPC: 3.997 cumulative IPC: 3.999 (Simulation time: 00 hr 31 min 36 sec)
Heartbeat CPU 0 instructions: 230000001 cycles: 57515073 heartbeat IPC: 3.998 cumulative IPC: 3.999 (Simulation time: 00 hr 33 min 12 sec)
Heartbeat CPU 0 instructions: 240000003 cycles: 91478155 heartbeat IPC: 0.2944 cumulative IPC: 2.406 (Simulation time: 00 hr 39 min 30 sec)
Heartbeat CPU 0 instructions: 250000004 cycles: 100607415 heartbeat IPC: 1.095 cumulative IPC: 2.27 (Simulation time: 00 hr 42 min 17 sec)
Heartbeat CPU 0 instructions: 260000004 cycles: 109712732 heartbeat IPC: 1.098 cumulative IPC: 2.16 (Simulation time: 00 hr 44 min 59 sec)
Heartbeat CPU 0 instructions: 270000001 cycles: 122242827 heartbeat IPC: 0.7981 cumulative IPC: 2.005 (Simulation time: 00 hr 48 min 34 sec)
Heartbeat CPU 0 instructions: 280000002 cycles: 134208467 heartbeat IPC: 0.8357 cumulative IPC: 1.89 (Simulation time: 00 hr 51 min 33 sec)
Heartbeat CPU 0 instructions: 290000004 cycles: 143560298 heartbeat IPC: 1.069 cumulative IPC: 1.831 (Simulation time: 00 hr 54 min 09 sec)
Heartbeat CPU 0 instructions: 300000000 cycles: 153129418 heartbeat IPC: 1.045 cumulative IPC: 1.778 (Simulation time: 00 hr 57 min 03 sec)
Heartbeat CPU 0 instructions: 310000001 cycles: 162288393 heartbeat IPC: 1.092 cumulative IPC: 1.736 (Simulation time: 00 hr 59 min 29 sec)
Heartbeat CPU 0 instructions: 320000003 cycles: 170973907 heartbeat IPC: 1.151 cumulative IPC: 1.704 (Simulation time: 01 hr 02 min 04 sec)
Heartbeat CPU 0 instructions: 330000001 cycles: 180216422 heartbeat IPC: 1.082 cumulative IPC: 1.669 (Simulation time: 01 hr 04 min 31 sec)
Heartbeat CPU 0 instructions: 340000001 cycles: 188837337 heartbeat IPC: 1.16 cumulative IPC: 1.645 (Simulation time: 01 hr 07 min 00 sec)
Heartbeat CPU 0 instructions: 350000000 cycles: 197352890 heartbeat IPC: 1.174 cumulative IPC: 1.623 (Simulation time: 01 hr 09 min 48 sec)
Heartbeat CPU 0 instructions: 360000000 cycles: 205830912 heartbeat IPC: 1.18 cumulative IPC: 1.603 (Simulation time: 01 hr 12 min 23 sec)
Heartbeat CPU 0 instructions: 370000000 cycles: 214301400 heartbeat IPC: 1.181 cumulative IPC: 1.586 (Simulation time: 01 hr 14 min 27 sec)
Heartbeat CPU 0 instructions: 380000000 cycles: 222314278 heartbeat IPC: 1.248 cumulative IPC: 1.573 (Simulation time: 01 hr 16 min 51 sec)
Heartbeat CPU 0 instructions: 390000000 cycles: 230020699 heartbeat IPC: 1.298 cumulative IPC: 1.563 (Simulation time: 01 hr 19 min 24 sec)
Heartbeat CPU 0 instructions: 400000001 cycles: 238124610 heartbeat IPC: 1.234 cumulative IPC: 1.551 (Simulation time: 01 hr 21 min 57 sec)
Heartbeat CPU 0 instructions: 410000002 cycles: 246304486 heartbeat IPC: 1.223 cumulative IPC: 1.54 (Simulation time: 01 hr 24 min 06 sec)
Heartbeat CPU 0 instructions: 420000002 cycles: 254403832 heartbeat IPC: 1.235 cumulative IPC: 1.53 (Simulation time: 01 hr 26 min 37 sec)
Heartbeat CPU 0 instructions: 430000002 cycles: 262218353 heartbeat IPC: 1.28 cumulative IPC: 1.522 (Simulation time: 01 hr 29 min 11 sec)
Heartbeat CPU 0 instructions: 440000002 cycles: 383433436 heartbeat IPC: 0.0825 cumulative IPC: 1.051 (Simulation time: 01 hr 52 min 06 sec)
Heartbeat CPU 0 instructions: 450000002 cycles: 393979284 heartbeat IPC: 0.9482 cumulative IPC: 1.049 (Simulation time: 01 hr 55 min 08 sec)
Heartbeat CPU 0 instructions: 460000004 cycles: 404870059 heartbeat IPC: 0.9182 cumulative IPC: 1.045 (Simulation time: 01 hr 58 min 15 sec)
Heartbeat CPU 0 instructions: 470000002 cycles: 416050955 heartbeat IPC: 0.8944 cumulative IPC: 1.041 (Simulation time: 02 hr 01 min 04 sec)
Heartbeat CPU 0 instructions: 480000001 cycles: 426687900 heartbeat IPC: 0.9401 cumulative IPC: 1.038 (Simulation time: 02 hr 03 min 44 sec)
Heartbeat CPU 0 instructions: 490000000 cycles: 438767450 heartbeat IPC: 0.8278 cumulative IPC: 1.032 (Simulation time: 02 hr 06 min 56 sec)
Heartbeat CPU 0 instructions: 500000000 cycles: 451884025 heartbeat IPC: 0.7624 cumulative IPC: 1.024 (Simulation time: 02 hr 10 min 42 sec)
Heartbeat CPU 0 instructions: 510000001 cycles: 465114985 heartbeat IPC: 0.7558 cumulative IPC: 1.016 (Simulation time: 02 hr 14 min 42 sec)
Heartbeat CPU 0 instructions: 520000004 cycles: 478656845 heartbeat IPC: 0.7385 cumulative IPC: 1.008 (Simulation time: 02 hr 18 min 58 sec)
Heartbeat CPU 0 instructions: 530000002 cycles: 492282075 heartbeat IPC: 0.7339 cumulative IPC: 1 (Simulation time: 02 hr 23 min 38 sec)
Heartbeat CPU 0 instructions: 540000000 cycles: 507190001 heartbeat IPC: 0.6708 cumulative IPC: 0.9905 (Simulation time: 02 hr 27 min 28 sec)
Heartbeat CPU 0 instructions: 550000002 cycles: 517448961 heartbeat IPC: 0.9748 cumulative IPC: 0.9902 (Simulation time: 02 hr 30 min 57 sec)
Heartbeat CPU 0 instructions: 560000001 cycles: 527937613 heartbeat IPC: 0.9534 cumulative IPC: 0.9895 (Simulation time: 02 hr 34 min 28 sec)
Heartbeat CPU 0 instructions: 570000001 cycles: 539105747 heartbeat IPC: 0.8954 cumulative IPC: 0.9875 (Simulation time: 02 hr 38 min 00 sec)
Heartbeat CPU 0 instructions: 580000001 cycles: 550227142 heartbeat IPC: 0.8992 cumulative IPC: 0.9856 (Simulation time: 02 hr 41 min 54 sec)
Heartbeat CPU 0 instructions: 590000000 cycles: 560933784 heartbeat IPC: 0.934 cumulative IPC: 0.9846 (Simulation time: 02 hr 45 min 24 sec)
*** Reached end of trace: (0, "traces/lu.A.champsimtrace")
Heartbeat CPU 0 instructions: 600000001 cycles: 571970891 heartbeat IPC: 0.906 cumulative IPC: 0.9831 (Simulation time: 02 hr 48 min 18 sec)
Heartbeat CPU 0 instructions: 610000003 cycles: 580770698 heartbeat IPC: 1.136 cumulative IPC: 0.9854 (Simulation time: 02 hr 51 min 17 sec)
Heartbeat CPU 0 instructions: 620000001 cycles: 583272487 heartbeat IPC: 3.997 cumulative IPC: 0.9986 (Simulation time: 02 hr 52 min 52 sec)
Heartbeat CPU 0 instructions: 630000001 cycles: 585772796 heartbeat IPC: 4 cumulative IPC: 1.012 (Simulation time: 02 hr 54 min 27 sec)
Heartbeat CPU 0 instructions: 640000000 cycles: 588273173 heartbeat IPC: 3.999 cumulative IPC: 1.025 (Simulation time: 02 hr 55 min 39 sec)
Heartbeat CPU 0 instructions: 650000000 cycles: 590773784 heartbeat IPC: 3.999 cumulative IPC: 1.038 (Simulation time: 02 hr 57 min 08 sec)
Simulation finished CPU 0 instructions: 600000004 cycles: 578273583 cumulative IPC: 1.038 (Simulation time: 02 hr 57 min 08 sec)
Simulation complete CPU 0 instructions: 600000004 cycles: 578273583 cumulative IPC: 1.038 (Simulation time: 02 hr 57 min 08 sec)

ChampSim completed all CPUs

=== Simulation ===
CPU 0 runs traces/lu.A.champsimtrace
Region of Interest Statistics

CPU 0 cumulative IPC: 1.038 instructions: 600000004 cycles: 578273583
CPU 0 Branch Prediction Accuracy: 99.98% MPKI: 0.004072 Average ROB Occupancy at Mispredict: 122.9
Branch type MPKI
BRANCH_DIRECT_JUMP: 5e-06
BRANCH_INDIRECT: 7.67e-05
BRANCH_CONDITIONAL: 0.00393
BRANCH_DIRECT_CALL: 6.67e-06
BRANCH_INDIRECT_CALL: 3.33e-05
BRANCH_RETURN: 1.67e-05

LLC TOTAL        ACCESS:    6246707 HIT:    2478164 MISS:    3768543
LLC LOAD         ACCESS:    2483067 HIT:     557436 MISS:    1925631
LLC RFO          ACCESS:     831672 HIT:       8870 MISS:     822802
LLC PREFETCH     ACCESS:    1136415 HIT:     362653 MISS:     773762
LLC WRITE        ACCESS:    1783676 HIT:    1543884 MISS:     239792
LLC TRANSLATION  ACCESS:      11877 HIT:       5321 MISS:       6556
LLC PREFETCH REQUESTED:    1136415 ISSUED:    1136415 USEFUL:     530523 USELESS:       8113
LLC AVERAGE MISS LATENCY: 1006 cycles
cpu0_DTLB TOTAL        ACCESS:  125888910 HIT:  118489422 MISS:    7399488
cpu0_DTLB LOAD         ACCESS:  125888910 HIT:  118489422 MISS:    7399488
cpu0_DTLB RFO          ACCESS:          0 HIT:          0 MISS:          0
cpu0_DTLB PREFETCH     ACCESS:          0 HIT:          0 MISS:          0
cpu0_DTLB WRITE        ACCESS:          0 HIT:          0 MISS:          0
cpu0_DTLB TRANSLATION  ACCESS:          0 HIT:          0 MISS:          0
cpu0_DTLB PREFETCH REQUESTED:          0 ISSUED:          0 USEFUL:          0 USELESS:          0
cpu0_DTLB AVERAGE MISS LATENCY: 5.858 cycles
cpu0_ITLB TOTAL        ACCESS:    1263944 HIT:    1263721 MISS:        223
cpu0_ITLB LOAD         ACCESS:    1263944 HIT:    1263721 MISS:        223
cpu0_ITLB RFO          ACCESS:          0 HIT:          0 MISS:          0
cpu0_ITLB PREFETCH     ACCESS:          0 HIT:          0 MISS:          0
cpu0_ITLB WRITE        ACCESS:          0 HIT:          0 MISS:          0
cpu0_ITLB TRANSLATION  ACCESS:          0 HIT:          0 MISS:          0
cpu0_ITLB PREFETCH REQUESTED:          0 ISSUED:          0 USEFUL:          0 USELESS:          0
cpu0_ITLB AVERAGE MISS LATENCY: 404.9 cycles
cpu0_L1D TOTAL        ACCESS:  180404172 HIT:  170433837 MISS:    9970335
cpu0_L1D LOAD         ACCESS:  143351796 HIT:  137252498 MISS:    6099298
cpu0_L1D RFO          ACCESS:          0 HIT:          0 MISS:          0
cpu0_L1D PREFETCH     ACCESS:          0 HIT:          0 MISS:          0
cpu0_L1D WRITE        ACCESS:   36999778 HIT:   33153571 MISS:    3846207
cpu0_L1D TRANSLATION  ACCESS:      52598 HIT:      27768 MISS:      24830
cpu0_L1D PREFETCH REQUESTED:          0 ISSUED:          0 USEFUL:          0 USELESS:          0
cpu0_L1D AVERAGE MISS LATENCY: 303.7 cycles
cpu0_L1I TOTAL        ACCESS:    1591018 HIT:    1588135 MISS:       2883
cpu0_L1I LOAD         ACCESS:    1591018 HIT:    1588135 MISS:       2883
cpu0_L1I RFO          ACCESS:          0 HIT:          0 MISS:          0
cpu0_L1I PREFETCH     ACCESS:          0 HIT:          0 MISS:          0
cpu0_L1I WRITE        ACCESS:          0 HIT:          0 MISS:          0
cpu0_L1I TRANSLATION  ACCESS:          0 HIT:          0 MISS:          0
cpu0_L1I PREFETCH REQUESTED:          0 ISSUED:          0 USEFUL:          0 USELESS:          0
cpu0_L1I AVERAGE MISS LATENCY: 687.2 cycles
cpu0_L2C TOTAL        ACCESS:    5981147 HIT:    2650447 MISS:    3330700
cpu0_L2C LOAD         ACCESS:    3057183 HIT:     574115 MISS:    2483068
cpu0_L2C RFO          ACCESS:     880104 HIT:      48432 MISS:     831672
cpu0_L2C PREFETCH     ACCESS:          0 HIT:          0 MISS:          0
cpu0_L2C WRITE        ACCESS:    2019072 HIT:    2014989 MISS:       4083
cpu0_L2C TRANSLATION  ACCESS:      24788 HIT:      12911 MISS:      11877
cpu0_L2C PREFETCH REQUESTED:          0 ISSUED:          0 USEFUL:          0 USELESS:          0
cpu0_L2C AVERAGE MISS LATENCY: 973.4 cycles
cpu0_STLB TOTAL        ACCESS:    3993901 HIT:    3941311 MISS:      52590
cpu0_STLB LOAD         ACCESS:    3993901 HIT:    3941311 MISS:      52590
cpu0_STLB RFO          ACCESS:          0 HIT:          0 MISS:          0
cpu0_STLB PREFETCH     ACCESS:          0 HIT:          0 MISS:          0
cpu0_STLB WRITE        ACCESS:          0 HIT:          0 MISS:          0
cpu0_STLB TRANSLATION  ACCESS:          0 HIT:          0 MISS:          0
cpu0_STLB PREFETCH REQUESTED:          0 ISSUED:          0 USEFUL:          0 USELESS:          0
cpu0_STLB AVERAGE MISS LATENCY: 641.7 cycles

DRAM Statistics

Channel 0 RQ ROW_BUFFER_HIT:     804135
  ROW_BUFFER_MISS:    2314350
 AVG DBUS CONGESTED CYCLE: 3.945
WQ ROW_BUFFER_HIT: Channel 0 
  ROW_BUFFER_MISS:     199331
  FULL:    1491747
