WARNING: physical memory size is smaller than virtual memory size.

*** ChampSim Multicore Out-of-Order Simulator ***
Warmup Instructions: 50000000
Simulation Instructions: 600000000
Number of CPUs: 1
Page size: 4096

Off-chip DRAM Size: 4 GiB Channels: 1 Width: 64-bit Data Race: 3200 MT/s
Heartbeat CPU 0 instructions: 10000000 cycles: 2500202 heartbeat IPC: 4 cumulative IPC: 4 (Simulation time: 00 hr 00 min 38 sec)
Heartbeat CPU 0 instructions: 20000000 cycles: 5000202 heartbeat IPC: 4 cumulative IPC: 4 (Simulation time: 00 hr 01 min 16 sec)
Heartbeat CPU 0 instructions: 30000000 cycles: 7500202 heartbeat IPC: 4 cumulative IPC: 4 (Simulation time: 00 hr 01 min 56 sec)
Heartbeat CPU 0 instructions: 40000000 cycles: 10000202 heartbeat IPC: 4 cumulative IPC: 4 (Simulation time: 00 hr 02 min 38 sec)
Heartbeat CPU 0 instructions: 50000000 cycles: 12500202 heartbeat IPC: 4 cumulative IPC: 4 (Simulation time: 00 hr 03 min 20 sec)
Warmup finished CPU 0 instructions: 50000000 cycles: 12500203 cumulative IPC: 4 (Simulation time: 00 hr 03 min 20 sec)
Warmup complete CPU 0 instructions: 50000000 cycles: 12500203 cumulative IPC: 4 (Simulation time: 00 hr 03 min 20 sec)
Heartbeat CPU 0 instructions: 60000004 cycles: 15001959 heartbeat IPC: 3.997 cumulative IPC: 3.997 (Simulation time: 00 hr 04 min 06 sec)
Heartbeat CPU 0 instructions: 70000003 cycles: 17503710 heartbeat IPC: 3.997 cumulative IPC: 3.997 (Simulation time: 00 hr 04 min 53 sec)
Heartbeat CPU 0 instructions: 80000004 cycles: 20005666 heartbeat IPC: 3.997 cumulative IPC: 3.997 (Simulation time: 00 hr 05 min 36 sec)
Heartbeat CPU 0 instructions: 90000000 cycles: 22511196 heartbeat IPC: 3.991 cumulative IPC: 3.996 (Simulation time: 00 hr 06 min 19 sec)
Heartbeat CPU 0 instructions: 100000001 cycles: 25013544 heartbeat IPC: 3.996 cumulative IPC: 3.996 (Simulation time: 00 hr 07 min 00 sec)
Heartbeat CPU 0 instructions: 110000000 cycles: 27515309 heartbeat IPC: 3.997 cumulative IPC: 3.996 (Simulation time: 00 hr 07 min 47 sec)
Heartbeat CPU 0 instructions: 120000004 cycles: 30018976 heartbeat IPC: 3.994 cumulative IPC: 3.996 (Simulation time: 00 hr 08 min 48 sec)
Heartbeat CPU 0 instructions: 130000000 cycles: 32521024 heartbeat IPC: 3.997 cumulative IPC: 3.996 (Simulation time: 00 hr 09 min 46 sec)
Heartbeat CPU 0 instructions: 140000004 cycles: 35022776 heartbeat IPC: 3.997 cumulative IPC: 3.996 (Simulation time: 00 hr 10 min 47 sec)
Heartbeat CPU 0 instructions: 150000000 cycles: 37525361 heartbeat IPC: 3.996 cumulative IPC: 3.996 (Simulation time: 00 hr 11 min 43 sec)
Heartbeat CPU 0 instructions: 160000001 cycles: 40028479 heartbeat IPC: 3.995 cumulative IPC: 3.996 (Simulation time: 00 hr 12 min 36 sec)
Heartbeat CPU 0 instructions: 170000000 cycles: 42530991 heartbeat IPC: 3.996 cumulative IPC: 3.996 (Simulation time: 00 hr 13 min 33 sec)
Heartbeat CPU 0 instructions: 180000003 cycles: 45034527 heartbeat IPC: 3.994 cumulative IPC: 3.996 (Simulation time: 00 hr 14 min 30 sec)
Heartbeat CPU 0 instructions: 190000000 cycles: 47536278 heartbeat IPC: 3.997 cumulative IPC: 3.996 (Simulation time: 00 hr 15 min 26 sec)
Heartbeat CPU 0 instructions: 200000004 cycles: 50038455 heartbeat IPC: 3.997 cumulative IPC: 3.996 (Simulation time: 00 hr 16 min 20 sec)
Heartbeat CPU 0 instructions: 210000004 cycles: 52540330 heartbeat IPC: 3.997 cumulative IPC: 3.996 (Simulation time: 00 hr 17 min 11 sec)
Heartbeat CPU 0 instructions: 220000001 cycles: 55043358 heartbeat IPC: 3.995 cumulative IPC: 3.996 (Simulation time: 00 hr 18 min 04 sec)
Heartbeat CPU 0 instructions: 230000000 cycles: 57545112 heartbeat IPC: 3.997 cumulative IPC: 3.996 (Simulation time: 00 hr 19 min 03 sec)
Heartbeat CPU 0 instructions: 240000000 cycles: 91106239 heartbeat IPC: 0.298 cumulative IPC: 2.417 (Simulation time: 00 hr 24 min 12 sec)
Heartbeat CPU 0 instructions: 250000001 cycles: 100398376 heartbeat IPC: 1.076 cumulative IPC: 2.275 (Simulation time: 00 hr 26 min 17 sec)
Heartbeat CPU 0 instructions: 260000001 cycles: 109376480 heartbeat IPC: 1.114 cumulative IPC: 2.168 (Simulation time: 00 hr 28 min 16 sec)
Heartbeat CPU 0 instructions: 270000001 cycles: 121276498 heartbeat IPC: 0.8403 cumulative IPC: 2.022 (Simulation time: 00 hr 30 min 40 sec)
Heartbeat CPU 0 instructions: 280000002 cycles: 133529086 heartbeat IPC: 0.8162 cumulative IPC: 1.9 (Simulation time: 00 hr 33 min 08 sec)
Heartbeat CPU 0 instructions: 290000001 cycles: 144874061 heartbeat IPC: 0.8814 cumulative IPC: 1.813 (Simulation time: 00 hr 35 min 35 sec)
Heartbeat CPU 0 instructions: 300000002 cycles: 154096254 heartbeat IPC: 1.084 cumulative IPC: 1.766 (Simulation time: 00 hr 37 min 31 sec)
Heartbeat CPU 0 instructions: 310000001 cycles: 163027717 heartbeat IPC: 1.12 cumulative IPC: 1.727 (Simulation time: 00 hr 39 min 28 sec)
Heartbeat CPU 0 instructions: 320000001 cycles: 171791439 heartbeat IPC: 1.141 cumulative IPC: 1.695 (Simulation time: 00 hr 41 min 24 sec)
Heartbeat CPU 0 instructions: 330000002 cycles: 179325939 heartbeat IPC: 1.327 cumulative IPC: 1.678 (Simulation time: 00 hr 43 min 10 sec)
Heartbeat CPU 0 instructions: 340000004 cycles: 187305029 heartbeat IPC: 1.253 cumulative IPC: 1.659 (Simulation time: 00 hr 45 min 04 sec)
Heartbeat CPU 0 instructions: 350000003 cycles: 195218485 heartbeat IPC: 1.264 cumulative IPC: 1.642 (Simulation time: 00 hr 46 min 51 sec)
Heartbeat CPU 0 instructions: 360000001 cycles: 202738067 heartbeat IPC: 1.33 cumulative IPC: 1.63 (Simulation time: 00 hr 48 min 36 sec)
Heartbeat CPU 0 instructions: 370000002 cycles: 210028056 heartbeat IPC: 1.372 cumulative IPC: 1.62 (Simulation time: 00 hr 50 min 22 sec)
Heartbeat CPU 0 instructions: 380000003 cycles: 217439718 heartbeat IPC: 1.349 cumulative IPC: 1.61 (Simulation time: 00 hr 52 min 11 sec)
Heartbeat CPU 0 instructions: 390000000 cycles: 225008065 heartbeat IPC: 1.321 cumulative IPC: 1.6 (Simulation time: 00 hr 53 min 56 sec)
Heartbeat CPU 0 instructions: 400000003 cycles: 232608668 heartbeat IPC: 1.316 cumulative IPC: 1.59 (Simulation time: 00 hr 55 min 46 sec)
Heartbeat CPU 0 instructions: 410000004 cycles: 240167869 heartbeat IPC: 1.323 cumulative IPC: 1.581 (Simulation time: 00 hr 57 min 30 sec)
Heartbeat CPU 0 instructions: 420000004 cycles: 247679034 heartbeat IPC: 1.331 cumulative IPC: 1.573 (Simulation time: 00 hr 59 min 19 sec)
Heartbeat CPU 0 instructions: 430000002 cycles: 255177165 heartbeat IPC: 1.334 cumulative IPC: 1.566 (Simulation time: 01 hr 01 min 00 sec)
Heartbeat CPU 0 instructions: 440000004 cycles: 375290655 heartbeat IPC: 0.08325 cumulative IPC: 1.075 (Simulation time: 01 hr 21 min 23 sec)
Heartbeat CPU 0 instructions: 450000003 cycles: 385251635 heartbeat IPC: 1.004 cumulative IPC: 1.073 (Simulation time: 01 hr 23 min 32 sec)
Heartbeat CPU 0 instructions: 460000004 cycles: 393366961 heartbeat IPC: 1.232 cumulative IPC: 1.076 (Simulation time: 01 hr 25 min 19 sec)
Heartbeat CPU 0 instructions: 470000002 cycles: 404122847 heartbeat IPC: 0.9297 cumulative IPC: 1.072 (Simulation time: 01 hr 27 min 39 sec)
Heartbeat CPU 0 instructions: 480000004 cycles: 414687686 heartbeat IPC: 0.9465 cumulative IPC: 1.069 (Simulation time: 01 hr 29 min 56 sec)
Heartbeat CPU 0 instructions: 490000002 cycles: 425322405 heartbeat IPC: 0.9403 cumulative IPC: 1.066 (Simulation time: 01 hr 32 min 08 sec)
Heartbeat CPU 0 instructions: 500000003 cycles: 438067922 heartbeat IPC: 0.7846 cumulative IPC: 1.057 (Simulation time: 01 hr 34 min 52 sec)
Heartbeat CPU 0 instructions: 510000002 cycles: 450675115 heartbeat IPC: 0.7932 cumulative IPC: 1.05 (Simulation time: 01 hr 37 min 41 sec)
Heartbeat CPU 0 instructions: 520000004 cycles: 465065743 heartbeat IPC: 0.6949 cumulative IPC: 1.039 (Simulation time: 01 hr 40 min 53 sec)
Heartbeat CPU 0 instructions: 530000004 cycles: 478118461 heartbeat IPC: 0.7661 cumulative IPC: 1.031 (Simulation time: 01 hr 43 min 51 sec)
Heartbeat CPU 0 instructions: 540000002 cycles: 491264512 heartbeat IPC: 0.7607 cumulative IPC: 1.023 (Simulation time: 01 hr 46 min 53 sec)
Heartbeat CPU 0 instructions: 550000002 cycles: 502420308 heartbeat IPC: 0.8964 cumulative IPC: 1.021 (Simulation time: 01 hr 49 min 27 sec)
Heartbeat CPU 0 instructions: 560000000 cycles: 512901897 heartbeat IPC: 0.9541 cumulative IPC: 1.019 (Simulation time: 01 hr 51 min 57 sec)
Heartbeat CPU 0 instructions: 570000002 cycles: 523556346 heartbeat IPC: 0.9386 cumulative IPC: 1.018 (Simulation time: 01 hr 54 min 21 sec)
Heartbeat CPU 0 instructions: 580000003 cycles: 534012963 heartbeat IPC: 0.9563 cumulative IPC: 1.016 (Simulation time: 01 hr 56 min 50 sec)
Heartbeat CPU 0 instructions: 590000003 cycles: 544435591 heartbeat IPC: 0.9595 cumulative IPC: 1.015 (Simulation time: 01 hr 59 min 15 sec)
*** Reached end of trace: (0, "traces/lu.A.champsimtrace")
Heartbeat CPU 0 instructions: 600000001 cycles: 554845418 heartbeat IPC: 0.9606 cumulative IPC: 1.014 (Simulation time: 02 hr 01 min 40 sec)
Heartbeat CPU 0 instructions: 610000000 cycles: 562430743 heartbeat IPC: 1.318 cumulative IPC: 1.018 (Simulation time: 02 hr 03 min 20 sec)
Heartbeat CPU 0 instructions: 620000000 cycles: 564932745 heartbeat IPC: 3.997 cumulative IPC: 1.032 (Simulation time: 02 hr 04 min 14 sec)
Heartbeat CPU 0 instructions: 630000004 cycles: 567434508 heartbeat IPC: 3.997 cumulative IPC: 1.045 (Simulation time: 02 hr 05 min 09 sec)
Heartbeat CPU 0 instructions: 640000002 cycles: 569936317 heartbeat IPC: 3.997 cumulative IPC: 1.058 (Simulation time: 02 hr 06 min 01 sec)
Heartbeat CPU 0 instructions: 650000001 cycles: 572438079 heartbeat IPC: 3.997 cumulative IPC: 1.072 (Simulation time: 02 hr 06 min 53 sec)
Simulation finished CPU 0 instructions: 600000001 cycles: 559937877 cumulative IPC: 1.072 (Simulation time: 02 hr 06 min 53 sec)
Simulation complete CPU 0 instructions: 600000001 cycles: 559937877 cumulative IPC: 1.072 (Simulation time: 02 hr 06 min 53 sec)

ChampSim completed all CPUs

=== Simulation ===
CPU 0 runs traces/lu.A.champsimtrace
Region of Interest Statistics

CPU 0 cumulative IPC: 1.072 instructions: 600000001 cycles: 559937877
CPU 0 Branch Prediction Accuracy: 98.73% MPKI: 0.2427 Average ROB Occupancy at Mispredict: 326.5
Branch type MPKI
BRANCH_DIRECT_JUMP: 5e-06
BRANCH_INDIRECT: 7.33e-05
BRANCH_CONDITIONAL: 0.243
BRANCH_DIRECT_CALL: 6.67e-06
BRANCH_INDIRECT_CALL: 3.17e-05
BRANCH_RETURN: 1.83e-05

LLC TOTAL        ACCESS:    6211454 HIT:    2090802 MISS:    4120652
LLC LOAD         ACCESS:    2481304 HIT:     654024 MISS:    1827280
LLC RFO          ACCESS:     831678 HIT:      18493 MISS:     813185
LLC PREFETCH     ACCESS:    1104289 HIT:     340256 MISS:     764033
LLC WRITE        ACCESS:    1782313 HIT:    1070893 MISS:     711420
LLC TRANSLATION  ACCESS:      11870 HIT:       7136 MISS:       4734
LLC PREFETCH REQUESTED:    1104289 ISSUED:    1104289 USEFUL:     517522 USELESS:      11061
LLC AVERAGE MISS LATENCY: 868 cycles
cpu0_DTLB TOTAL        ACCESS:  123553832 HIT:  116345936 MISS:    7207896
cpu0_DTLB LOAD         ACCESS:  123553832 HIT:  116345936 MISS:    7207896
cpu0_DTLB RFO          ACCESS:          0 HIT:          0 MISS:          0
cpu0_DTLB PREFETCH     ACCESS:          0 HIT:          0 MISS:          0
cpu0_DTLB WRITE        ACCESS:          0 HIT:          0 MISS:          0
cpu0_DTLB TRANSLATION  ACCESS:          0 HIT:          0 MISS:          0
cpu0_DTLB PREFETCH REQUESTED:          0 ISSUED:          0 USEFUL:          0 USELESS:          0
cpu0_DTLB AVERAGE MISS LATENCY: 5.472 cycles
cpu0_ITLB TOTAL        ACCESS:     719648 HIT:     719442 MISS:        206
cpu0_ITLB LOAD         ACCESS:     719648 HIT:     719442 MISS:        206
cpu0_ITLB RFO          ACCESS:          0 HIT:          0 MISS:          0
cpu0_ITLB PREFETCH     ACCESS:          0 HIT:          0 MISS:          0
cpu0_ITLB WRITE        ACCESS:          0 HIT:          0 MISS:          0
cpu0_ITLB TRANSLATION  ACCESS:          0 HIT:          0 MISS:          0
cpu0_ITLB PREFETCH REQUESTED:          0 ISSUED:          0 USEFUL:          0 USELESS:          0
cpu0_ITLB AVERAGE MISS LATENCY: 360.1 cycles
cpu0_L1D TOTAL        ACCESS:  177131568 HIT:  167332510 MISS:    9799058
cpu0_L1D LOAD         ACCESS:  140078438 HIT:  134125157 MISS:    5953281
cpu0_L1D RFO          ACCESS:          0 HIT:          0 MISS:          0
cpu0_L1D PREFETCH     ACCESS:          0 HIT:          0 MISS:          0
cpu0_L1D WRITE        ACCESS:   37000534 HIT:   33179678 MISS:    3820856
cpu0_L1D TRANSLATION  ACCESS:      52596 HIT:      27675 MISS:      24921
cpu0_L1D PREFETCH REQUESTED:          0 ISSUED:          0 USEFUL:          0 USELESS:          0
cpu0_L1D AVERAGE MISS LATENCY: 290 cycles
cpu0_L1I TOTAL        ACCESS:    1106291 HIT:    1103581 MISS:       2710
cpu0_L1I LOAD         ACCESS:    1106291 HIT:    1103581 MISS:       2710
cpu0_L1I RFO          ACCESS:          0 HIT:          0 MISS:          0
cpu0_L1I PREFETCH     ACCESS:          0 HIT:          0 MISS:          0
cpu0_L1I WRITE        ACCESS:          0 HIT:          0 MISS:          0
cpu0_L1I TRANSLATION  ACCESS:          0 HIT:          0 MISS:          0
cpu0_L1I PREFETCH REQUESTED:          0 ISSUED:          0 USEFUL:          0 USELESS:          0
cpu0_L1I AVERAGE MISS LATENCY: 575 cycles
cpu0_L2C TOTAL        ACCESS:    5979530 HIT:    2650368 MISS:    3329162
cpu0_L2C LOAD         ACCESS:    3058863 HIT:     577558 MISS:    2481305
cpu0_L2C RFO          ACCESS:     877996 HIT:      46318 MISS:     831678
cpu0_L2C PREFETCH     ACCESS:          0 HIT:          0 MISS:          0
cpu0_L2C WRITE        ACCESS:    2017798 HIT:    2013489 MISS:       4309
cpu0_L2C TRANSLATION  ACCESS:      24873 HIT:      13003 MISS:      11870
cpu0_L2C PREFETCH REQUESTED:          0 ISSUED:          0 USEFUL:          0 USELESS:          0
cpu0_L2C AVERAGE MISS LATENCY: 916.6 cycles
cpu0_STLB TOTAL        ACCESS:    3989025 HIT:    3936439 MISS:      52586
cpu0_STLB LOAD         ACCESS:    3989025 HIT:    3936439 MISS:      52586
cpu0_STLB RFO          ACCESS:          0 HIT:          0 MISS:          0
cpu0_STLB PREFETCH     ACCESS:          0 HIT:          0 MISS:          0
cpu0_STLB WRITE        ACCESS:          0 HIT:          0 MISS:          0
cpu0_STLB TRANSLATION  ACCESS:          0 HIT:          0 MISS:          0
cpu0_STLB PREFETCH REQUESTED:          0 ISSUED:          0 USEFUL:          0 USELESS:          0
cpu0_STLB AVERAGE MISS LATENCY: 511.1 cycles

DRAM Statistics

Channel 0 RQ ROW_BUFFER_HIT:     803987
  ROW_BUFFER_MISS:    2202495
 AVG DBUS CONGESTED CYCLE: 3.943
WQ ROW_BUFFER_HIT: Channel 0 
  ROW_BUFFER_MISS:     246607
  FULL:    1367344
