WARNING: physical memory size is smaller than virtual memory size.

*** ChampSim Multicore Out-of-Order Simulator ***
Warmup Instructions: 50000000
Simulation Instructions: 600000000
Number of CPUs: 1
Page size: 4096

CPU 0 Tage branch predictor
Off-chip DRAM Size: 4 GiB Channels: 1 Width: 64-bit Data Race: 3200 MT/s
Heartbeat CPU 0 instructions: 10000000 cycles: 2500202 heartbeat IPC: 4 cumulative IPC: 4 (Simulation time: 00 hr 00 min 40 sec)
Heartbeat CPU 0 instructions: 20000000 cycles: 5000202 heartbeat IPC: 4 cumulative IPC: 4 (Simulation time: 00 hr 01 min 19 sec)
Heartbeat CPU 0 instructions: 30000000 cycles: 7500202 heartbeat IPC: 4 cumulative IPC: 4 (Simulation time: 00 hr 01 min 56 sec)
Heartbeat CPU 0 instructions: 40000000 cycles: 10000202 heartbeat IPC: 4 cumulative IPC: 4 (Simulation time: 00 hr 02 min 36 sec)
Heartbeat CPU 0 instructions: 50000000 cycles: 12500202 heartbeat IPC: 4 cumulative IPC: 4 (Simulation time: 00 hr 03 min 13 sec)
Warmup finished CPU 0 instructions: 50000000 cycles: 12500203 cumulative IPC: 4 (Simulation time: 00 hr 03 min 13 sec)
Warmup complete CPU 0 instructions: 50000000 cycles: 12500203 cumulative IPC: 4 (Simulation time: 00 hr 03 min 13 sec)
Heartbeat CPU 0 instructions: 60000004 cycles: 15001968 heartbeat IPC: 3.997 cumulative IPC: 3.997 (Simulation time: 00 hr 04 min 04 sec)
Heartbeat CPU 0 instructions: 70000003 cycles: 17501992 heartbeat IPC: 4 cumulative IPC: 3.999 (Simulation time: 00 hr 04 min 53 sec)
Heartbeat CPU 0 instructions: 80000004 cycles: 20002480 heartbeat IPC: 3.999 cumulative IPC: 3.999 (Simulation time: 00 hr 05 min 44 sec)
Heartbeat CPU 0 instructions: 90000000 cycles: 22505196 heartbeat IPC: 3.996 cumulative IPC: 3.998 (Simulation time: 00 hr 06 min 27 sec)
Heartbeat CPU 0 instructions: 100000001 cycles: 25005307 heartbeat IPC: 4 cumulative IPC: 3.998 (Simulation time: 00 hr 07 min 09 sec)
Heartbeat CPU 0 instructions: 110000000 cycles: 27505432 heartbeat IPC: 4 cumulative IPC: 3.999 (Simulation time: 00 hr 07 min 50 sec)
Heartbeat CPU 0 instructions: 120000004 cycles: 30005876 heartbeat IPC: 3.999 cumulative IPC: 3.999 (Simulation time: 00 hr 08 min 31 sec)
Heartbeat CPU 0 instructions: 130000000 cycles: 32507432 heartbeat IPC: 3.998 cumulative IPC: 3.999 (Simulation time: 00 hr 09 min 14 sec)
Heartbeat CPU 0 instructions: 140000004 cycles: 35007664 heartbeat IPC: 4 cumulative IPC: 3.999 (Simulation time: 00 hr 09 min 57 sec)
Heartbeat CPU 0 instructions: 150000000 cycles: 37507697 heartbeat IPC: 4 cumulative IPC: 3.999 (Simulation time: 00 hr 10 min 41 sec)
Heartbeat CPU 0 instructions: 160000001 cycles: 40010389 heartbeat IPC: 3.996 cumulative IPC: 3.999 (Simulation time: 00 hr 11 min 24 sec)
Heartbeat CPU 0 instructions: 170000000 cycles: 42510412 heartbeat IPC: 4 cumulative IPC: 3.999 (Simulation time: 00 hr 12 min 08 sec)
Heartbeat CPU 0 instructions: 180000003 cycles: 45010447 heartbeat IPC: 4 cumulative IPC: 3.999 (Simulation time: 00 hr 12 min 53 sec)
Heartbeat CPU 0 instructions: 190000000 cycles: 47510952 heartbeat IPC: 3.999 cumulative IPC: 3.999 (Simulation time: 00 hr 13 min 36 sec)
Heartbeat CPU 0 instructions: 200000004 cycles: 50013682 heartbeat IPC: 3.996 cumulative IPC: 3.999 (Simulation time: 00 hr 14 min 19 sec)
Heartbeat CPU 0 instructions: 210000004 cycles: 52513684 heartbeat IPC: 4 cumulative IPC: 3.999 (Simulation time: 00 hr 15 min 00 sec)
Heartbeat CPU 0 instructions: 220000001 cycles: 55014634 heartbeat IPC: 3.998 cumulative IPC: 3.999 (Simulation time: 00 hr 15 min 40 sec)
Heartbeat CPU 0 instructions: 230000000 cycles: 57514825 heartbeat IPC: 4 cumulative IPC: 3.999 (Simulation time: 00 hr 16 min 22 sec)
Heartbeat CPU 0 instructions: 240000000 cycles: 89508726 heartbeat IPC: 0.3126 cumulative IPC: 2.467 (Simulation time: 00 hr 19 min 47 sec)
Heartbeat CPU 0 instructions: 250000001 cycles: 98174360 heartbeat IPC: 1.154 cumulative IPC: 2.334 (Simulation time: 00 hr 21 min 12 sec)
Heartbeat CPU 0 instructions: 260000001 cycles: 106819723 heartbeat IPC: 1.157 cumulative IPC: 2.226 (Simulation time: 00 hr 22 min 36 sec)
Heartbeat CPU 0 instructions: 270000003 cycles: 114155109 heartbeat IPC: 1.363 cumulative IPC: 2.164 (Simulation time: 00 hr 23 min 51 sec)
Heartbeat CPU 0 instructions: 280000003 cycles: 119757948 heartbeat IPC: 1.785 cumulative IPC: 2.144 (Simulation time: 00 hr 24 min 54 sec)
Heartbeat CPU 0 instructions: 290000000 cycles: 125327993 heartbeat IPC: 1.795 cumulative IPC: 2.127 (Simulation time: 00 hr 25 min 56 sec)
Heartbeat CPU 0 instructions: 300000002 cycles: 130937193 heartbeat IPC: 1.783 cumulative IPC: 2.111 (Simulation time: 00 hr 26 min 59 sec)
Heartbeat CPU 0 instructions: 310000002 cycles: 136509695 heartbeat IPC: 1.795 cumulative IPC: 2.097 (Simulation time: 00 hr 28 min 01 sec)
Heartbeat CPU 0 instructions: 320000000 cycles: 142748326 heartbeat IPC: 1.603 cumulative IPC: 2.073 (Simulation time: 00 hr 29 min 10 sec)
Heartbeat CPU 0 instructions: 330000002 cycles: 150813257 heartbeat IPC: 1.24 cumulative IPC: 2.024 (Simulation time: 00 hr 30 min 36 sec)
Heartbeat CPU 0 instructions: 340000000 cycles: 158905816 heartbeat IPC: 1.236 cumulative IPC: 1.981 (Simulation time: 00 hr 32 min 01 sec)
Heartbeat CPU 0 instructions: 350000003 cycles: 167007983 heartbeat IPC: 1.234 cumulative IPC: 1.942 (Simulation time: 00 hr 33 min 27 sec)
Heartbeat CPU 0 instructions: 360000003 cycles: 175129470 heartbeat IPC: 1.231 cumulative IPC: 1.906 (Simulation time: 00 hr 34 min 54 sec)
Heartbeat CPU 0 instructions: 370000002 cycles: 183078648 heartbeat IPC: 1.258 cumulative IPC: 1.876 (Simulation time: 00 hr 36 min 18 sec)
Heartbeat CPU 0 instructions: 380000003 cycles: 191465886 heartbeat IPC: 1.192 cumulative IPC: 1.844 (Simulation time: 00 hr 37 min 46 sec)
Heartbeat CPU 0 instructions: 390000000 cycles: 200209317 heartbeat IPC: 1.144 cumulative IPC: 1.811 (Simulation time: 00 hr 39 min 18 sec)
Heartbeat CPU 0 instructions: 400000000 cycles: 209107112 heartbeat IPC: 1.124 cumulative IPC: 1.78 (Simulation time: 00 hr 40 min 50 sec)
Heartbeat CPU 0 instructions: 410000002 cycles: 217969130 heartbeat IPC: 1.128 cumulative IPC: 1.752 (Simulation time: 00 hr 42 min 19 sec)
Heartbeat CPU 0 instructions: 420000000 cycles: 226779716 heartbeat IPC: 1.135 cumulative IPC: 1.727 (Simulation time: 00 hr 43 min 50 sec)
Heartbeat CPU 0 instructions: 430000002 cycles: 235547620 heartbeat IPC: 1.141 cumulative IPC: 1.704 (Simulation time: 00 hr 45 min 21 sec)
Heartbeat CPU 0 instructions: 440000004 cycles: 374431969 heartbeat IPC: 0.072 cumulative IPC: 1.078 (Simulation time: 01 hr 03 min 14 sec)
Heartbeat CPU 0 instructions: 450000003 cycles: 383128918 heartbeat IPC: 1.15 cumulative IPC: 1.079 (Simulation time: 01 hr 04 min 43 sec)
Heartbeat CPU 0 instructions: 460000004 cycles: 392005278 heartbeat IPC: 1.127 cumulative IPC: 1.08 (Simulation time: 01 hr 06 min 13 sec)
Heartbeat CPU 0 instructions: 470000002 cycles: 400680262 heartbeat IPC: 1.153 cumulative IPC: 1.082 (Simulation time: 01 hr 07 min 43 sec)
Heartbeat CPU 0 instructions: 480000004 cycles: 409665201 heartbeat IPC: 1.113 cumulative IPC: 1.083 (Simulation time: 01 hr 09 min 13 sec)
Heartbeat CPU 0 instructions: 490000002 cycles: 418545213 heartbeat IPC: 1.126 cumulative IPC: 1.084 (Simulation time: 01 hr 10 min 44 sec)
Heartbeat CPU 0 instructions: 500000003 cycles: 433801363 heartbeat IPC: 0.6555 cumulative IPC: 1.068 (Simulation time: 01 hr 13 min 22 sec)
Heartbeat CPU 0 instructions: 510000004 cycles: 450783006 heartbeat IPC: 0.5889 cumulative IPC: 1.05 (Simulation time: 01 hr 16 min 23 sec)
Heartbeat CPU 0 instructions: 520000000 cycles: 467736424 heartbeat IPC: 0.5899 cumulative IPC: 1.032 (Simulation time: 01 hr 19 min 13 sec)
Heartbeat CPU 0 instructions: 530000004 cycles: 484734660 heartbeat IPC: 0.5883 cumulative IPC: 1.016 (Simulation time: 01 hr 22 min 06 sec)
Heartbeat CPU 0 instructions: 540000000 cycles: 501674547 heartbeat IPC: 0.5903 cumulative IPC: 1.002 (Simulation time: 01 hr 24 min 50 sec)
Heartbeat CPU 0 instructions: 550000002 cycles: 514377357 heartbeat IPC: 0.7872 cumulative IPC: 0.9963 (Simulation time: 01 hr 27 min 04 sec)
Heartbeat CPU 0 instructions: 560000000 cycles: 525573530 heartbeat IPC: 0.8932 cumulative IPC: 0.994 (Simulation time: 01 hr 29 min 19 sec)
Heartbeat CPU 0 instructions: 570000002 cycles: 536757388 heartbeat IPC: 0.8941 cumulative IPC: 0.9919 (Simulation time: 01 hr 31 min 25 sec)
Heartbeat CPU 0 instructions: 580000000 cycles: 547954535 heartbeat IPC: 0.8931 cumulative IPC: 0.9898 (Simulation time: 01 hr 33 min 25 sec)
Heartbeat CPU 0 instructions: 590000003 cycles: 559118173 heartbeat IPC: 0.8958 cumulative IPC: 0.9879 (Simulation time: 01 hr 35 min 28 sec)
*** Reached end of trace: (0, "traces/lu.A.champsimtrace")
Heartbeat CPU 0 instructions: 600000001 cycles: 570362361 heartbeat IPC: 0.8893 cumulative IPC: 0.9859 (Simulation time: 01 hr 37 min 29 sec)
Heartbeat CPU 0 instructions: 610000000 cycles: 574118877 heartbeat IPC: 2.662 cumulative IPC: 0.9971 (Simulation time: 01 hr 38 min 20 sec)
Heartbeat CPU 0 instructions: 620000000 cycles: 576618878 heartbeat IPC: 4 cumulative IPC: 1.01 (Simulation time: 01 hr 39 min 09 sec)
Heartbeat CPU 0 instructions: 630000004 cycles: 579120149 heartbeat IPC: 3.998 cumulative IPC: 1.024 (Simulation time: 01 hr 39 min 58 sec)
Heartbeat CPU 0 instructions: 640000002 cycles: 581620149 heartbeat IPC: 4 cumulative IPC: 1.037 (Simulation time: 01 hr 40 min 48 sec)
Heartbeat CPU 0 instructions: 650000001 cycles: 584120332 heartbeat IPC: 4 cumulative IPC: 1.05 (Simulation time: 01 hr 41 min 35 sec)
Simulation finished CPU 0 instructions: 600000001 cycles: 571620130 cumulative IPC: 1.05 (Simulation time: 01 hr 41 min 35 sec)
Simulation complete CPU 0 instructions: 600000001 cycles: 571620130 cumulative IPC: 1.05 (Simulation time: 01 hr 41 min 35 sec)

ChampSim completed all CPUs

=== Simulation ===
CPU 0 runs traces/lu.A.champsimtrace
Region of Interest Statistics

CPU 0 cumulative IPC: 1.05 instructions: 600000001 cycles: 571620130
CPU 0 Branch Prediction Accuracy: 99.98% MPKI: 0.004037 Average ROB Occupancy at Mispredict: 117.6
Branch type MPKI
BRANCH_DIRECT_JUMP: 5e-06
BRANCH_INDIRECT: 7.33e-05
BRANCH_CONDITIONAL: 0.0039
BRANCH_DIRECT_CALL: 6.67e-06
BRANCH_INDIRECT_CALL: 3.17e-05
BRANCH_RETURN: 1.83e-05

LLC TOTAL        ACCESS:    5107141 HIT:     292900 MISS:    4814241
LLC LOAD         ACCESS:    2481315 HIT:     158519 MISS:    2322796
LLC RFO          ACCESS:     831677 HIT:      38464 MISS:     793213
LLC PREFETCH     ACCESS:          0 HIT:          0 MISS:          0
LLC WRITE        ACCESS:    1782302 HIT:      93244 MISS:    1689058
LLC TRANSLATION  ACCESS:      11847 HIT:       2673 MISS:       9174
LLC PREFETCH REQUESTED:          0 ISSUED:          0 USEFUL:          0 USELESS:          0
LLC AVERAGE MISS LATENCY: 668.6 cycles
cpu0_DTLB TOTAL        ACCESS:  125337032 HIT:  117933269 MISS:    7403763
cpu0_DTLB LOAD         ACCESS:  125337032 HIT:  117933269 MISS:    7403763
cpu0_DTLB RFO          ACCESS:          0 HIT:          0 MISS:          0
cpu0_DTLB PREFETCH     ACCESS:          0 HIT:          0 MISS:          0
cpu0_DTLB WRITE        ACCESS:          0 HIT:          0 MISS:          0
cpu0_DTLB TRANSLATION  ACCESS:          0 HIT:          0 MISS:          0
cpu0_DTLB PREFETCH REQUESTED:          0 ISSUED:          0 USEFUL:          0 USELESS:          0
cpu0_DTLB AVERAGE MISS LATENCY: 6.287 cycles
cpu0_ITLB TOTAL        ACCESS:    1264775 HIT:    1264554 MISS:        221
cpu0_ITLB LOAD         ACCESS:    1264775 HIT:    1264554 MISS:        221
cpu0_ITLB RFO          ACCESS:          0 HIT:          0 MISS:          0
cpu0_ITLB PREFETCH     ACCESS:          0 HIT:          0 MISS:          0
cpu0_ITLB WRITE        ACCESS:          0 HIT:          0 MISS:          0
cpu0_ITLB TRANSLATION  ACCESS:          0 HIT:          0 MISS:          0
cpu0_ITLB PREFETCH REQUESTED:          0 ISSUED:          0 USEFUL:          0 USELESS:          0
cpu0_ITLB AVERAGE MISS LATENCY: 261.8 cycles
cpu0_L1D TOTAL        ACCESS:  179465306 HIT:  169843669 MISS:    9621637
cpu0_L1D LOAD         ACCESS:  142406556 HIT:  136551029 MISS:    5855527
cpu0_L1D RFO          ACCESS:          0 HIT:          0 MISS:          0
cpu0_L1D PREFETCH     ACCESS:          0 HIT:          0 MISS:          0
cpu0_L1D WRITE        ACCESS:   37006150 HIT:   33264921 MISS:    3741229
cpu0_L1D TRANSLATION  ACCESS:      52600 HIT:      27719 MISS:      24881
cpu0_L1D PREFETCH REQUESTED:          0 ISSUED:          0 USEFUL:          0 USELESS:          0
cpu0_L1D AVERAGE MISS LATENCY: 321.6 cycles
cpu0_L1I TOTAL        ACCESS:    1590859 HIT:    1587951 MISS:       2908
cpu0_L1I LOAD         ACCESS:    1590859 HIT:    1587951 MISS:       2908
cpu0_L1I RFO          ACCESS:          0 HIT:          0 MISS:          0
cpu0_L1I PREFETCH     ACCESS:          0 HIT:          0 MISS:          0
cpu0_L1I WRITE        ACCESS:          0 HIT:          0 MISS:          0
cpu0_L1I TRANSLATION  ACCESS:          0 HIT:          0 MISS:          0
cpu0_L1I PREFETCH REQUESTED:          0 ISSUED:          0 USEFUL:          0 USELESS:          0
cpu0_L1I AVERAGE MISS LATENCY: 496.1 cycles
cpu0_L2C TOTAL        ACCESS:    5978592 HIT:    2649455 MISS:    3329137
cpu0_L2C LOAD         ACCESS:    3057337 HIT:     576022 MISS:    2481315
cpu0_L2C RFO          ACCESS:     878576 HIT:      46899 MISS:     831677
cpu0_L2C PREFETCH     ACCESS:          0 HIT:          0 MISS:          0
cpu0_L2C WRITE        ACCESS:    2017844 HIT:    2013546 MISS:       4298
cpu0_L2C TRANSLATION  ACCESS:      24835 HIT:      12988 MISS:      11847
cpu0_L2C PREFETCH REQUESTED:          0 ISSUED:          0 USEFUL:          0 USELESS:          0
cpu0_L2C AVERAGE MISS LATENCY: 987.7 cycles
cpu0_STLB TOTAL        ACCESS:    3993773 HIT:    3941187 MISS:      52586
cpu0_STLB LOAD         ACCESS:    3993773 HIT:    3941187 MISS:      52586
cpu0_STLB RFO          ACCESS:          0 HIT:          0 MISS:          0
cpu0_STLB PREFETCH     ACCESS:          0 HIT:          0 MISS:          0
cpu0_STLB WRITE        ACCESS:          0 HIT:          0 MISS:          0
cpu0_STLB TRANSLATION  ACCESS:          0 HIT:          0 MISS:          0
cpu0_STLB PREFETCH REQUESTED:          0 ISSUED:          0 USEFUL:          0 USELESS:          0
cpu0_STLB AVERAGE MISS LATENCY: 713.1 cycles

DRAM Statistics

Channel 0 RQ ROW_BUFFER_HIT:     776510
  ROW_BUFFER_MISS:    2346426
 AVG DBUS CONGESTED CYCLE: 3.933
WQ ROW_BUFFER_HIT: Channel 0 
  ROW_BUFFER_MISS:     509100
  FULL:    1219996
