WARNING: physical memory size is smaller than virtual memory size.

*** ChampSim Multicore Out-of-Order Simulator ***
Warmup Instructions: 50000000
Simulation Instructions: 600000000
Number of CPUs: 1
Page size: 4096

Off-chip DRAM Size: 4 GiB Channels: 1 Width: 64-bit Data Race: 3200 MT/s
Heartbeat CPU 0 instructions: 10000001 cycles: 2500202 heartbeat IPC: 4 cumulative IPC: 4 (Simulation time: 00 hr 00 min 36 sec)
Heartbeat CPU 0 instructions: 20000001 cycles: 5000202 heartbeat IPC: 4 cumulative IPC: 4 (Simulation time: 00 hr 01 min 22 sec)
Heartbeat CPU 0 instructions: 30000001 cycles: 7500202 heartbeat IPC: 4 cumulative IPC: 4 (Simulation time: 00 hr 02 min 03 sec)
Heartbeat CPU 0 instructions: 40000001 cycles: 10000202 heartbeat IPC: 4 cumulative IPC: 4 (Simulation time: 00 hr 02 min 42 sec)
Heartbeat CPU 0 instructions: 50000001 cycles: 12500202 heartbeat IPC: 4 cumulative IPC: 4 (Simulation time: 00 hr 03 min 29 sec)
Warmup finished CPU 0 instructions: 50000001 cycles: 12500203 cumulative IPC: 4 (Simulation time: 00 hr 03 min 29 sec)
Warmup complete CPU 0 instructions: 50000001 cycles: 12500203 cumulative IPC: 4 (Simulation time: 00 hr 03 min 29 sec)
Heartbeat CPU 0 instructions: 60000002 cycles: 15001958 heartbeat IPC: 3.997 cumulative IPC: 3.997 (Simulation time: 00 hr 04 min 26 sec)
Heartbeat CPU 0 instructions: 70000004 cycles: 17503710 heartbeat IPC: 3.997 cumulative IPC: 3.997 (Simulation time: 00 hr 05 min 15 sec)
Heartbeat CPU 0 instructions: 80000003 cycles: 20005963 heartbeat IPC: 3.996 cumulative IPC: 3.997 (Simulation time: 00 hr 06 min 15 sec)
Heartbeat CPU 0 instructions: 90000003 cycles: 22508753 heartbeat IPC: 3.996 cumulative IPC: 3.997 (Simulation time: 00 hr 07 min 18 sec)
Heartbeat CPU 0 instructions: 100000002 cycles: 25010735 heartbeat IPC: 3.997 cumulative IPC: 3.997 (Simulation time: 00 hr 08 min 14 sec)
Heartbeat CPU 0 instructions: 110000003 cycles: 27513593 heartbeat IPC: 3.995 cumulative IPC: 3.996 (Simulation time: 00 hr 08 min 57 sec)
Heartbeat CPU 0 instructions: 120000001 cycles: 30016340 heartbeat IPC: 3.996 cumulative IPC: 3.996 (Simulation time: 00 hr 09 min 53 sec)
Heartbeat CPU 0 instructions: 130000001 cycles: 32520187 heartbeat IPC: 3.994 cumulative IPC: 3.996 (Simulation time: 00 hr 10 min 45 sec)
Heartbeat CPU 0 instructions: 140000002 cycles: 35022405 heartbeat IPC: 3.996 cumulative IPC: 3.996 (Simulation time: 00 hr 11 min 34 sec)
Heartbeat CPU 0 instructions: 150000004 cycles: 37524892 heartbeat IPC: 3.996 cumulative IPC: 3.996 (Simulation time: 00 hr 12 min 26 sec)
Heartbeat CPU 0 instructions: 160000003 cycles: 40027362 heartbeat IPC: 3.996 cumulative IPC: 3.996 (Simulation time: 00 hr 13 min 38 sec)
Heartbeat CPU 0 instructions: 170000003 cycles: 42530037 heartbeat IPC: 3.996 cumulative IPC: 3.996 (Simulation time: 00 hr 14 min 39 sec)
Heartbeat CPU 0 instructions: 180000002 cycles: 45033367 heartbeat IPC: 3.995 cumulative IPC: 3.996 (Simulation time: 00 hr 15 min 44 sec)
Heartbeat CPU 0 instructions: 190000000 cycles: 47537121 heartbeat IPC: 3.994 cumulative IPC: 3.996 (Simulation time: 00 hr 16 min 44 sec)
Heartbeat CPU 0 instructions: 200000001 cycles: 50039884 heartbeat IPC: 3.996 cumulative IPC: 3.996 (Simulation time: 00 hr 17 min 49 sec)
Heartbeat CPU 0 instructions: 210000001 cycles: 52542155 heartbeat IPC: 3.996 cumulative IPC: 3.996 (Simulation time: 00 hr 18 min 49 sec)
Heartbeat CPU 0 instructions: 220000002 cycles: 55044904 heartbeat IPC: 3.996 cumulative IPC: 3.996 (Simulation time: 00 hr 19 min 49 sec)
Heartbeat CPU 0 instructions: 230000001 cycles: 57547798 heartbeat IPC: 3.995 cumulative IPC: 3.996 (Simulation time: 00 hr 20 min 46 sec)
Heartbeat CPU 0 instructions: 240000003 cycles: 91578858 heartbeat IPC: 0.2938 cumulative IPC: 2.403 (Simulation time: 00 hr 24 min 47 sec)
Heartbeat CPU 0 instructions: 250000004 cycles: 100749468 heartbeat IPC: 1.09 cumulative IPC: 2.266 (Simulation time: 00 hr 26 min 52 sec)
Heartbeat CPU 0 instructions: 260000004 cycles: 109903444 heartbeat IPC: 1.092 cumulative IPC: 2.156 (Simulation time: 00 hr 28 min 41 sec)
Heartbeat CPU 0 instructions: 270000003 cycles: 119617247 heartbeat IPC: 1.029 cumulative IPC: 2.054 (Simulation time: 00 hr 30 min 28 sec)
Heartbeat CPU 0 instructions: 280000003 cycles: 127349076 heartbeat IPC: 1.293 cumulative IPC: 2.003 (Simulation time: 00 hr 32 min 02 sec)
Heartbeat CPU 0 instructions: 290000003 cycles: 133663576 heartbeat IPC: 1.584 cumulative IPC: 1.981 (Simulation time: 00 hr 33 min 27 sec)
Heartbeat CPU 0 instructions: 300000000 cycles: 140077804 heartbeat IPC: 1.559 cumulative IPC: 1.96 (Simulation time: 00 hr 34 min 49 sec)
Heartbeat CPU 0 instructions: 310000002 cycles: 146370849 heartbeat IPC: 1.589 cumulative IPC: 1.942 (Simulation time: 00 hr 36 min 17 sec)
Heartbeat CPU 0 instructions: 320000001 cycles: 153331871 heartbeat IPC: 1.437 cumulative IPC: 1.917 (Simulation time: 00 hr 37 min 47 sec)
Heartbeat CPU 0 instructions: 330000000 cycles: 162838796 heartbeat IPC: 1.052 cumulative IPC: 1.862 (Simulation time: 00 hr 39 min 48 sec)
Heartbeat CPU 0 instructions: 340000000 cycles: 171362073 heartbeat IPC: 1.173 cumulative IPC: 1.825 (Simulation time: 00 hr 41 min 46 sec)
Heartbeat CPU 0 instructions: 350000000 cycles: 179655934 heartbeat IPC: 1.206 cumulative IPC: 1.795 (Simulation time: 00 hr 43 min 37 sec)
Heartbeat CPU 0 instructions: 360000004 cycles: 187917970 heartbeat IPC: 1.21 cumulative IPC: 1.767 (Simulation time: 00 hr 45 min 29 sec)
Heartbeat CPU 0 instructions: 370000000 cycles: 195451909 heartbeat IPC: 1.327 cumulative IPC: 1.749 (Simulation time: 00 hr 47 min 10 sec)
Heartbeat CPU 0 instructions: 380000000 cycles: 203172844 heartbeat IPC: 1.295 cumulative IPC: 1.731 (Simulation time: 00 hr 48 min 47 sec)
Heartbeat CPU 0 instructions: 390000000 cycles: 212307945 heartbeat IPC: 1.095 cumulative IPC: 1.702 (Simulation time: 00 hr 50 min 24 sec)
Heartbeat CPU 0 instructions: 400000003 cycles: 221326517 heartbeat IPC: 1.109 cumulative IPC: 1.676 (Simulation time: 00 hr 52 min 04 sec)
Heartbeat CPU 0 instructions: 410000000 cycles: 230328226 heartbeat IPC: 1.111 cumulative IPC: 1.653 (Simulation time: 00 hr 54 min 10 sec)
Heartbeat CPU 0 instructions: 420000002 cycles: 239328825 heartbeat IPC: 1.111 cumulative IPC: 1.631 (Simulation time: 00 hr 55 min 47 sec)
Heartbeat CPU 0 instructions: 430000002 cycles: 250299344 heartbeat IPC: 0.9115 cumulative IPC: 1.598 (Simulation time: 00 hr 57 min 28 sec)
Heartbeat CPU 0 instructions: 440000003 cycles: 401751279 heartbeat IPC: 0.06603 cumulative IPC: 1.002 (Simulation time: 01 hr 18 min 21 sec)
Heartbeat CPU 0 instructions: 450000002 cycles: 412929092 heartbeat IPC: 0.8946 cumulative IPC: 0.9989 (Simulation time: 01 hr 20 min 26 sec)
Heartbeat CPU 0 instructions: 460000004 cycles: 423785619 heartbeat IPC: 0.9211 cumulative IPC: 0.9969 (Simulation time: 01 hr 22 min 25 sec)
Heartbeat CPU 0 instructions: 470000001 cycles: 434693682 heartbeat IPC: 0.9168 cumulative IPC: 0.9948 (Simulation time: 01 hr 24 min 18 sec)
Heartbeat CPU 0 instructions: 480000001 cycles: 445026910 heartbeat IPC: 0.9678 cumulative IPC: 0.9942 (Simulation time: 01 hr 26 min 13 sec)
Heartbeat CPU 0 instructions: 490000003 cycles: 457895595 heartbeat IPC: 0.7771 cumulative IPC: 0.9879 (Simulation time: 01 hr 28 min 48 sec)
Heartbeat CPU 0 instructions: 500000000 cycles: 470695578 heartbeat IPC: 0.7813 cumulative IPC: 0.9821 (Simulation time: 01 hr 31 min 28 sec)
Heartbeat CPU 0 instructions: 510000001 cycles: 483476914 heartbeat IPC: 0.7824 cumulative IPC: 0.9767 (Simulation time: 01 hr 34 min 07 sec)
Heartbeat CPU 0 instructions: 520000004 cycles: 496507124 heartbeat IPC: 0.7674 cumulative IPC: 0.9711 (Simulation time: 01 hr 36 min 38 sec)
Heartbeat CPU 0 instructions: 530000003 cycles: 509584874 heartbeat IPC: 0.7647 cumulative IPC: 0.9656 (Simulation time: 01 hr 39 min 10 sec)
Heartbeat CPU 0 instructions: 540000004 cycles: 523827418 heartbeat IPC: 0.7021 cumulative IPC: 0.9583 (Simulation time: 01 hr 42 min 29 sec)
Heartbeat CPU 0 instructions: 550000002 cycles: 533924301 heartbeat IPC: 0.9904 cumulative IPC: 0.9589 (Simulation time: 01 hr 44 min 57 sec)
Heartbeat CPU 0 instructions: 560000001 cycles: 543445909 heartbeat IPC: 1.05 cumulative IPC: 0.9606 (Simulation time: 01 hr 46 min 32 sec)
Heartbeat CPU 0 instructions: 570000001 cycles: 553326311 heartbeat IPC: 1.012 cumulative IPC: 0.9615 (Simulation time: 01 hr 48 min 21 sec)
Heartbeat CPU 0 instructions: 580000001 cycles: 563613702 heartbeat IPC: 0.9721 cumulative IPC: 0.9617 (Simulation time: 01 hr 50 min 36 sec)
Heartbeat CPU 0 instructions: 590000000 cycles: 572654742 heartbeat IPC: 1.106 cumulative IPC: 0.964 (Simulation time: 01 hr 53 min 02 sec)
*** Reached end of trace: (0, "traces/lu.A.champsimtrace")
Heartbeat CPU 0 instructions: 600000001 cycles: 582936276 heartbeat IPC: 0.9726 cumulative IPC: 0.9642 (Simulation time: 01 hr 55 min 31 sec)
Heartbeat CPU 0 instructions: 610000003 cycles: 590724562 heartbeat IPC: 1.284 cumulative IPC: 0.9685 (Simulation time: 01 hr 57 min 25 sec)
Heartbeat CPU 0 instructions: 620000001 cycles: 593226849 heartbeat IPC: 3.996 cumulative IPC: 0.9815 (Simulation time: 01 hr 58 min 27 sec)
Heartbeat CPU 0 instructions: 630000001 cycles: 595729341 heartbeat IPC: 3.996 cumulative IPC: 0.9945 (Simulation time: 01 hr 59 min 35 sec)
Heartbeat CPU 0 instructions: 640000000 cycles: 598232007 heartbeat IPC: 3.996 cumulative IPC: 1.007 (Simulation time: 02 hr 00 min 35 sec)
Heartbeat CPU 0 instructions: 650000000 cycles: 600734679 heartbeat IPC: 3.996 cumulative IPC: 1.02 (Simulation time: 02 hr 01 min 36 sec)
Simulation finished CPU 0 instructions: 600000004 cycles: 588234478 cumulative IPC: 1.02 (Simulation time: 02 hr 01 min 36 sec)
Simulation complete CPU 0 instructions: 600000004 cycles: 588234478 cumulative IPC: 1.02 (Simulation time: 02 hr 01 min 36 sec)

ChampSim completed all CPUs

=== Simulation ===
CPU 0 runs traces/lu.A.champsimtrace
Region of Interest Statistics

CPU 0 cumulative IPC: 1.02 instructions: 600000004 cycles: 588234478
CPU 0 Branch Prediction Accuracy: 98.73% MPKI: 0.2425 Average ROB Occupancy at Mispredict: 324.5
Branch type MPKI
BRANCH_DIRECT_JUMP: 5e-06
BRANCH_INDIRECT: 7.67e-05
BRANCH_CONDITIONAL: 0.242
BRANCH_DIRECT_CALL: 6.67e-06
BRANCH_INDIRECT_CALL: 3.33e-05
BRANCH_RETURN: 1.67e-05

LLC TOTAL        ACCESS:    7723326 HIT:    3229775 MISS:    4493551
LLC LOAD         ACCESS:    2483147 HIT:    1419655 MISS:    1063492
LLC RFO          ACCESS:     831683 HIT:      47235 MISS:     784448
LLC PREFETCH     ACCESS:    2612953 HIT:     215000 MISS:    2397953
LLC WRITE        ACCESS:    1783674 HIT:    1542517 MISS:     241157
LLC TRANSLATION  ACCESS:      11869 HIT:       5368 MISS:       6501
LLC PREFETCH REQUESTED:    4380756 ISSUED:    2612953 USEFUL:    1735738 USELESS:      33877
LLC AVERAGE MISS LATENCY: 1621 cycles
cpu0_DTLB TOTAL        ACCESS:  122444100 HIT:  115276358 MISS:    7167742
cpu0_DTLB LOAD         ACCESS:  122444100 HIT:  115276358 MISS:    7167742
cpu0_DTLB RFO          ACCESS:          0 HIT:          0 MISS:          0
cpu0_DTLB PREFETCH     ACCESS:          0 HIT:          0 MISS:          0
cpu0_DTLB WRITE        ACCESS:          0 HIT:          0 MISS:          0
cpu0_DTLB TRANSLATION  ACCESS:          0 HIT:          0 MISS:          0
cpu0_DTLB PREFETCH REQUESTED:          0 ISSUED:          0 USEFUL:          0 USELESS:          0
cpu0_DTLB AVERAGE MISS LATENCY: 7.306 cycles
cpu0_ITLB TOTAL        ACCESS:     710058 HIT:     709848 MISS:        210
cpu0_ITLB LOAD         ACCESS:     710058 HIT:     709848 MISS:        210
cpu0_ITLB RFO          ACCESS:          0 HIT:          0 MISS:          0
cpu0_ITLB PREFETCH     ACCESS:          0 HIT:          0 MISS:          0
cpu0_ITLB WRITE        ACCESS:          0 HIT:          0 MISS:          0
cpu0_ITLB TRANSLATION  ACCESS:          0 HIT:          0 MISS:          0
cpu0_ITLB PREFETCH REQUESTED:          0 ISSUED:          0 USEFUL:          0 USELESS:          0
cpu0_ITLB AVERAGE MISS LATENCY: 446.5 cycles
cpu0_L1D TOTAL        ACCESS:  175677272 HIT:  166118341 MISS:    9558931
cpu0_L1D LOAD         ACCESS:  138624245 HIT:  132890010 MISS:    5734235
cpu0_L1D RFO          ACCESS:          0 HIT:          0 MISS:          0
cpu0_L1D PREFETCH     ACCESS:          0 HIT:          0 MISS:          0
cpu0_L1D WRITE        ACCESS:   37000430 HIT:   33200628 MISS:    3799802
cpu0_L1D TRANSLATION  ACCESS:      52597 HIT:      27703 MISS:      24894
cpu0_L1D PREFETCH REQUESTED:          0 ISSUED:          0 USEFUL:          0 USELESS:          0
cpu0_L1D AVERAGE MISS LATENCY: 301.7 cycles
cpu0_L1I TOTAL        ACCESS:    1094568 HIT:    1091876 MISS:       2692
cpu0_L1I LOAD         ACCESS:    1094568 HIT:    1091876 MISS:       2692
cpu0_L1I RFO          ACCESS:          0 HIT:          0 MISS:          0
cpu0_L1I PREFETCH     ACCESS:          0 HIT:          0 MISS:          0
cpu0_L1I WRITE        ACCESS:          0 HIT:          0 MISS:          0
cpu0_L1I TRANSLATION  ACCESS:          0 HIT:          0 MISS:          0
cpu0_L1I PREFETCH REQUESTED:          0 ISSUED:          0 USEFUL:          0 USELESS:          0
cpu0_L1I AVERAGE MISS LATENCY: 548.4 cycles
cpu0_L2C TOTAL        ACCESS:    5993817 HIT:    2663106 MISS:    3330711
cpu0_L2C LOAD         ACCESS:    3068461 HIT:     585313 MISS:    2483148
cpu0_L2C RFO          ACCESS:     879904 HIT:      48221 MISS:     831683
cpu0_L2C PREFETCH     ACCESS:          0 HIT:          0 MISS:          0
cpu0_L2C WRITE        ACCESS:    2020604 HIT:    2016593 MISS:       4011
cpu0_L2C TRANSLATION  ACCESS:      24848 HIT:      12979 MISS:      11869
cpu0_L2C PREFETCH REQUESTED:          0 ISSUED:          0 USEFUL:          0 USELESS:          0
cpu0_L2C AVERAGE MISS LATENCY: 932.3 cycles
cpu0_STLB TOTAL        ACCESS:    3987576 HIT:    3934986 MISS:      52590
cpu0_STLB LOAD         ACCESS:    3987576 HIT:    3934986 MISS:      52590
cpu0_STLB RFO          ACCESS:          0 HIT:          0 MISS:          0
cpu0_STLB PREFETCH     ACCESS:          0 HIT:          0 MISS:          0
cpu0_STLB WRITE        ACCESS:          0 HIT:          0 MISS:          0
cpu0_STLB TRANSLATION  ACCESS:          0 HIT:          0 MISS:          0
cpu0_STLB PREFETCH REQUESTED:          0 ISSUED:          0 USEFUL:          0 USELESS:          0
cpu0_STLB AVERAGE MISS LATENCY: 817.8 cycles

DRAM Statistics

Channel 0 RQ ROW_BUFFER_HIT:     724127
  ROW_BUFFER_MISS:    2424863
 AVG DBUS CONGESTED CYCLE: 3.975
WQ ROW_BUFFER_HIT: Channel 0 
  ROW_BUFFER_MISS:     205068
  FULL:    1491212
