WARNING: physical memory size is smaller than virtual memory size.

*** ChampSim Multicore Out-of-Order Simulator ***
Warmup Instructions: 50000000
Simulation Instructions: 600000000
Number of CPUs: 1
Page size: 4096

CPU 0 Tage branch predictor
Off-chip DRAM Size: 4 GiB Channels: 1 Width: 64-bit Data Race: 3200 MT/s
Heartbeat CPU 0 instructions: 10000000 cycles: 2500202 heartbeat IPC: 4 cumulative IPC: 4 (Simulation time: 00 hr 00 min 47 sec)
Heartbeat CPU 0 instructions: 20000000 cycles: 5000202 heartbeat IPC: 4 cumulative IPC: 4 (Simulation time: 00 hr 01 min 42 sec)
Heartbeat CPU 0 instructions: 30000000 cycles: 7500202 heartbeat IPC: 4 cumulative IPC: 4 (Simulation time: 00 hr 02 min 41 sec)
Heartbeat CPU 0 instructions: 40000000 cycles: 10000202 heartbeat IPC: 4 cumulative IPC: 4 (Simulation time: 00 hr 03 min 39 sec)
Heartbeat CPU 0 instructions: 50000000 cycles: 12500202 heartbeat IPC: 4 cumulative IPC: 4 (Simulation time: 00 hr 04 min 46 sec)
Warmup finished CPU 0 instructions: 50000000 cycles: 12500203 cumulative IPC: 4 (Simulation time: 00 hr 04 min 46 sec)
Warmup complete CPU 0 instructions: 50000000 cycles: 12500203 cumulative IPC: 4 (Simulation time: 00 hr 04 min 46 sec)
Heartbeat CPU 0 instructions: 60000004 cycles: 15000697 heartbeat IPC: 3.999 cumulative IPC: 3.999 (Simulation time: 00 hr 06 min 01 sec)
Heartbeat CPU 0 instructions: 70000003 cycles: 17502521 heartbeat IPC: 3.997 cumulative IPC: 3.998 (Simulation time: 00 hr 07 min 09 sec)
Heartbeat CPU 0 instructions: 80000004 cycles: 20003732 heartbeat IPC: 3.998 cumulative IPC: 3.998 (Simulation time: 00 hr 08 min 17 sec)
Heartbeat CPU 0 instructions: 90000000 cycles: 22504389 heartbeat IPC: 3.999 cumulative IPC: 3.998 (Simulation time: 00 hr 09 min 29 sec)
Heartbeat CPU 0 instructions: 100000001 cycles: 25004911 heartbeat IPC: 3.999 cumulative IPC: 3.998 (Simulation time: 00 hr 10 min 36 sec)
Heartbeat CPU 0 instructions: 110000000 cycles: 27507017 heartbeat IPC: 3.997 cumulative IPC: 3.998 (Simulation time: 00 hr 11 min 44 sec)
Heartbeat CPU 0 instructions: 120000004 cycles: 30007713 heartbeat IPC: 3.999 cumulative IPC: 3.998 (Simulation time: 00 hr 12 min 48 sec)
Heartbeat CPU 0 instructions: 130000000 cycles: 32508215 heartbeat IPC: 3.999 cumulative IPC: 3.998 (Simulation time: 00 hr 13 min 52 sec)
Heartbeat CPU 0 instructions: 140000004 cycles: 35008761 heartbeat IPC: 3.999 cumulative IPC: 3.998 (Simulation time: 00 hr 14 min 54 sec)
Heartbeat CPU 0 instructions: 150000000 cycles: 37509958 heartbeat IPC: 3.998 cumulative IPC: 3.998 (Simulation time: 00 hr 15 min 56 sec)
Heartbeat CPU 0 instructions: 160000001 cycles: 40010987 heartbeat IPC: 3.998 cumulative IPC: 3.998 (Simulation time: 00 hr 16 min 58 sec)
Heartbeat CPU 0 instructions: 170000000 cycles: 42512402 heartbeat IPC: 3.998 cumulative IPC: 3.998 (Simulation time: 00 hr 18 min 03 sec)
Heartbeat CPU 0 instructions: 180000003 cycles: 45013976 heartbeat IPC: 3.997 cumulative IPC: 3.998 (Simulation time: 00 hr 19 min 07 sec)
Heartbeat CPU 0 instructions: 190000000 cycles: 47514138 heartbeat IPC: 4 cumulative IPC: 3.998 (Simulation time: 00 hr 20 min 10 sec)
Heartbeat CPU 0 instructions: 200000004 cycles: 50015924 heartbeat IPC: 3.997 cumulative IPC: 3.998 (Simulation time: 00 hr 21 min 13 sec)
Heartbeat CPU 0 instructions: 210000004 cycles: 52516840 heartbeat IPC: 3.999 cumulative IPC: 3.998 (Simulation time: 00 hr 22 min 15 sec)
Heartbeat CPU 0 instructions: 220000001 cycles: 55017922 heartbeat IPC: 3.998 cumulative IPC: 3.998 (Simulation time: 00 hr 23 min 17 sec)
Heartbeat CPU 0 instructions: 230000000 cycles: 57517924 heartbeat IPC: 4 cumulative IPC: 3.998 (Simulation time: 00 hr 24 min 19 sec)
Heartbeat CPU 0 instructions: 240000000 cycles: 91205993 heartbeat IPC: 0.2968 cumulative IPC: 2.414 (Simulation time: 00 hr 29 min 45 sec)
Heartbeat CPU 0 instructions: 250000001 cycles: 100316150 heartbeat IPC: 1.098 cumulative IPC: 2.277 (Simulation time: 00 hr 32 min 04 sec)
Heartbeat CPU 0 instructions: 260000001 cycles: 109425894 heartbeat IPC: 1.098 cumulative IPC: 2.167 (Simulation time: 00 hr 34 min 22 sec)
Heartbeat CPU 0 instructions: 270000003 cycles: 118973638 heartbeat IPC: 1.047 cumulative IPC: 2.066 (Simulation time: 00 hr 36 min 47 sec)
Heartbeat CPU 0 instructions: 280000003 cycles: 124651640 heartbeat IPC: 1.761 cumulative IPC: 2.051 (Simulation time: 00 hr 38 min 28 sec)
Heartbeat CPU 0 instructions: 290000000 cycles: 130442982 heartbeat IPC: 1.727 cumulative IPC: 2.035 (Simulation time: 00 hr 40 min 11 sec)
Heartbeat CPU 0 instructions: 300000002 cycles: 136125325 heartbeat IPC: 1.76 cumulative IPC: 2.022 (Simulation time: 00 hr 41 min 53 sec)
Heartbeat CPU 0 instructions: 310000002 cycles: 141851293 heartbeat IPC: 1.746 cumulative IPC: 2.01 (Simulation time: 00 hr 43 min 39 sec)
Heartbeat CPU 0 instructions: 320000002 cycles: 148154153 heartbeat IPC: 1.587 cumulative IPC: 1.99 (Simulation time: 00 hr 45 min 26 sec)
Heartbeat CPU 0 instructions: 330000002 cycles: 156157193 heartbeat IPC: 1.25 cumulative IPC: 1.949 (Simulation time: 00 hr 47 min 35 sec)
Heartbeat CPU 0 instructions: 340000000 cycles: 163986198 heartbeat IPC: 1.277 cumulative IPC: 1.914 (Simulation time: 00 hr 49 min 40 sec)
Heartbeat CPU 0 instructions: 350000003 cycles: 171932431 heartbeat IPC: 1.258 cumulative IPC: 1.882 (Simulation time: 00 hr 51 min 49 sec)
Heartbeat CPU 0 instructions: 360000001 cycles: 179903422 heartbeat IPC: 1.255 cumulative IPC: 1.852 (Simulation time: 00 hr 53 min 57 sec)
Heartbeat CPU 0 instructions: 370000002 cycles: 187796134 heartbeat IPC: 1.267 cumulative IPC: 1.825 (Simulation time: 00 hr 56 min 05 sec)
Heartbeat CPU 0 instructions: 380000003 cycles: 195982477 heartbeat IPC: 1.222 cumulative IPC: 1.799 (Simulation time: 00 hr 58 min 17 sec)
Heartbeat CPU 0 instructions: 390000000 cycles: 204818578 heartbeat IPC: 1.132 cumulative IPC: 1.768 (Simulation time: 01 hr 00 min 42 sec)
Heartbeat CPU 0 instructions: 400000000 cycles: 213707561 heartbeat IPC: 1.125 cumulative IPC: 1.739 (Simulation time: 01 hr 03 min 08 sec)
Heartbeat CPU 0 instructions: 410000000 cycles: 222516026 heartbeat IPC: 1.135 cumulative IPC: 1.714 (Simulation time: 01 hr 05 min 38 sec)
Heartbeat CPU 0 instructions: 420000004 cycles: 231352898 heartbeat IPC: 1.132 cumulative IPC: 1.691 (Simulation time: 01 hr 08 min 04 sec)
Heartbeat CPU 0 instructions: 430000002 cycles: 240242511 heartbeat IPC: 1.125 cumulative IPC: 1.669 (Simulation time: 01 hr 10 min 28 sec)
Heartbeat CPU 0 instructions: 440000004 cycles: 389173079 heartbeat IPC: 0.06715 cumulative IPC: 1.035 (Simulation time: 01 hr 39 min 21 sec)
Heartbeat CPU 0 instructions: 450000003 cycles: 398784975 heartbeat IPC: 1.04 cumulative IPC: 1.036 (Simulation time: 01 hr 41 min 52 sec)
Heartbeat CPU 0 instructions: 460000004 cycles: 408422144 heartbeat IPC: 1.038 cumulative IPC: 1.036 (Simulation time: 01 hr 44 min 20 sec)
Heartbeat CPU 0 instructions: 470000001 cycles: 417925094 heartbeat IPC: 1.052 cumulative IPC: 1.036 (Simulation time: 01 hr 46 min 47 sec)
Heartbeat CPU 0 instructions: 480000000 cycles: 427398495 heartbeat IPC: 1.056 cumulative IPC: 1.036 (Simulation time: 01 hr 49 min 14 sec)
Heartbeat CPU 0 instructions: 490000002 cycles: 437174803 heartbeat IPC: 1.023 cumulative IPC: 1.036 (Simulation time: 01 hr 51 min 44 sec)
Heartbeat CPU 0 instructions: 500000003 cycles: 449663389 heartbeat IPC: 0.8007 cumulative IPC: 1.029 (Simulation time: 01 hr 54 min 47 sec)
Heartbeat CPU 0 instructions: 510000004 cycles: 462068396 heartbeat IPC: 0.8061 cumulative IPC: 1.023 (Simulation time: 01 hr 57 min 48 sec)
Heartbeat CPU 0 instructions: 520000000 cycles: 474822211 heartbeat IPC: 0.7841 cumulative IPC: 1.017 (Simulation time: 02 hr 00 min 56 sec)
Heartbeat CPU 0 instructions: 530000004 cycles: 487379598 heartbeat IPC: 0.7963 cumulative IPC: 1.011 (Simulation time: 02 hr 03 min 58 sec)
Heartbeat CPU 0 instructions: 540000002 cycles: 499973832 heartbeat IPC: 0.794 cumulative IPC: 1.005 (Simulation time: 02 hr 07 min 00 sec)
Heartbeat CPU 0 instructions: 550000002 cycles: 510241401 heartbeat IPC: 0.9739 cumulative IPC: 1.005 (Simulation time: 02 hr 09 min 32 sec)
Heartbeat CPU 0 instructions: 560000000 cycles: 520080103 heartbeat IPC: 1.016 cumulative IPC: 1.005 (Simulation time: 02 hr 12 min 01 sec)
Heartbeat CPU 0 instructions: 570000002 cycles: 529881512 heartbeat IPC: 1.02 cumulative IPC: 1.005 (Simulation time: 02 hr 14 min 28 sec)
Heartbeat CPU 0 instructions: 580000002 cycles: 539687011 heartbeat IPC: 1.02 cumulative IPC: 1.005 (Simulation time: 02 hr 17 min 00 sec)
Heartbeat CPU 0 instructions: 590000003 cycles: 549513895 heartbeat IPC: 1.018 cumulative IPC: 1.006 (Simulation time: 02 hr 19 min 33 sec)
*** Reached end of trace: (0, "traces/lu.A.champsimtrace")
Heartbeat CPU 0 instructions: 600000001 cycles: 559461996 heartbeat IPC: 1.005 cumulative IPC: 1.006 (Simulation time: 02 hr 22 min 05 sec)
Heartbeat CPU 0 instructions: 610000000 cycles: 566339829 heartbeat IPC: 1.454 cumulative IPC: 1.011 (Simulation time: 02 hr 23 min 55 sec)
Heartbeat CPU 0 instructions: 620000000 cycles: 568840720 heartbeat IPC: 3.999 cumulative IPC: 1.025 (Simulation time: 02 hr 25 min 01 sec)
Heartbeat CPU 0 instructions: 630000004 cycles: 571341471 heartbeat IPC: 3.999 cumulative IPC: 1.038 (Simulation time: 02 hr 26 min 02 sec)
Heartbeat CPU 0 instructions: 640000002 cycles: 573841471 heartbeat IPC: 4 cumulative IPC: 1.051 (Simulation time: 02 hr 27 min 08 sec)
Heartbeat CPU 0 instructions: 650000001 cycles: 576342084 heartbeat IPC: 3.999 cumulative IPC: 1.064 (Simulation time: 02 hr 28 min 12 sec)
Simulation finished CPU 0 instructions: 600000001 cycles: 563841882 cumulative IPC: 1.064 (Simulation time: 02 hr 28 min 12 sec)
Simulation complete CPU 0 instructions: 600000001 cycles: 563841882 cumulative IPC: 1.064 (Simulation time: 02 hr 28 min 12 sec)

ChampSim completed all CPUs

=== Simulation ===
CPU 0 runs traces/lu.A.champsimtrace
Region of Interest Statistics

CPU 0 cumulative IPC: 1.064 instructions: 600000001 cycles: 563841882
CPU 0 Branch Prediction Accuracy: 99.98% MPKI: 0.004037 Average ROB Occupancy at Mispredict: 117.8
Branch type MPKI
BRANCH_DIRECT_JUMP: 5e-06
BRANCH_INDIRECT: 7.33e-05
BRANCH_CONDITIONAL: 0.0039
BRANCH_DIRECT_CALL: 6.67e-06
BRANCH_INDIRECT_CALL: 3.17e-05
BRANCH_RETURN: 1.83e-05

LLC TOTAL        ACCESS:    7722537 HIT:    3451837 MISS:    4270700
LLC LOAD         ACCESS:    2481369 HIT:    1418068 MISS:    1063301
LLC RFO          ACCESS:     831675 HIT:      41804 MISS:     789871
LLC PREFETCH     ACCESS:    2615270 HIT:     201964 MISS:    2413306
LLC WRITE        ACCESS:    1782356 HIT:    1780942 MISS:       1414
LLC TRANSLATION  ACCESS:      11867 HIT:       9059 MISS:       2808
LLC PREFETCH REQUESTED:    4415025 ISSUED:    2615270 USEFUL:    1762276 USELESS:      37468
LLC AVERAGE MISS LATENCY: 1632 cycles
cpu0_DTLB TOTAL        ACCESS:  124985210 HIT:  117601874 MISS:    7383336
cpu0_DTLB LOAD         ACCESS:  124985210 HIT:  117601874 MISS:    7383336
cpu0_DTLB RFO          ACCESS:          0 HIT:          0 MISS:          0
cpu0_DTLB PREFETCH     ACCESS:          0 HIT:          0 MISS:          0
cpu0_DTLB WRITE        ACCESS:          0 HIT:          0 MISS:          0
cpu0_DTLB TRANSLATION  ACCESS:          0 HIT:          0 MISS:          0
cpu0_DTLB PREFETCH REQUESTED:          0 ISSUED:          0 USEFUL:          0 USELESS:          0
cpu0_DTLB AVERAGE MISS LATENCY: 5.668 cycles
cpu0_ITLB TOTAL        ACCESS:    1251505 HIT:    1251280 MISS:        225
cpu0_ITLB LOAD         ACCESS:    1251505 HIT:    1251280 MISS:        225
cpu0_ITLB RFO          ACCESS:          0 HIT:          0 MISS:          0
cpu0_ITLB PREFETCH     ACCESS:          0 HIT:          0 MISS:          0
cpu0_ITLB WRITE        ACCESS:          0 HIT:          0 MISS:          0
cpu0_ITLB TRANSLATION  ACCESS:          0 HIT:          0 MISS:          0
cpu0_ITLB PREFETCH REQUESTED:          0 ISSUED:          0 USEFUL:          0 USELESS:          0
cpu0_ITLB AVERAGE MISS LATENCY: 343.7 cycles
cpu0_L1D TOTAL        ACCESS:  178984641 HIT:  169271754 MISS:    9712887
cpu0_L1D LOAD         ACCESS:  141933277 HIT:  136052497 MISS:    5880780
cpu0_L1D RFO          ACCESS:          0 HIT:          0 MISS:          0
cpu0_L1D PREFETCH     ACCESS:          0 HIT:          0 MISS:          0
cpu0_L1D WRITE        ACCESS:   36998765 HIT:   33191587 MISS:    3807178
cpu0_L1D TRANSLATION  ACCESS:      52599 HIT:      27670 MISS:      24929
cpu0_L1D PREFETCH REQUESTED:          0 ISSUED:          0 USEFUL:          0 USELESS:          0
cpu0_L1D AVERAGE MISS LATENCY: 284.4 cycles
cpu0_L1I TOTAL        ACCESS:    1575749 HIT:    1572870 MISS:       2879
cpu0_L1I LOAD         ACCESS:    1575749 HIT:    1572870 MISS:       2879
cpu0_L1I RFO          ACCESS:          0 HIT:          0 MISS:          0
cpu0_L1I PREFETCH     ACCESS:          0 HIT:          0 MISS:          0
cpu0_L1I WRITE        ACCESS:          0 HIT:          0 MISS:          0
cpu0_L1I TRANSLATION  ACCESS:          0 HIT:          0 MISS:          0
cpu0_L1I PREFETCH REQUESTED:          0 ISSUED:          0 USEFUL:          0 USELESS:          0
cpu0_L1I AVERAGE MISS LATENCY: 453.6 cycles
cpu0_L2C TOTAL        ACCESS:    5991823 HIT:    2662658 MISS:    3329165
cpu0_L2C LOAD         ACCESS:    3069962 HIT:     588591 MISS:    2481371
cpu0_L2C RFO          ACCESS:     877655 HIT:      45980 MISS:     831675
cpu0_L2C PREFETCH     ACCESS:          0 HIT:          0 MISS:          0
cpu0_L2C WRITE        ACCESS:    2019326 HIT:    2015074 MISS:       4252
cpu0_L2C TRANSLATION  ACCESS:      24880 HIT:      13013 MISS:      11867
cpu0_L2C PREFETCH REQUESTED:          0 ISSUED:          0 USEFUL:          0 USELESS:          0
cpu0_L2C AVERAGE MISS LATENCY: 892 cycles
cpu0_STLB TOTAL        ACCESS:    3992639 HIT:    3940053 MISS:      52586
cpu0_STLB LOAD         ACCESS:    3992639 HIT:    3940053 MISS:      52586
cpu0_STLB RFO          ACCESS:          0 HIT:          0 MISS:          0
cpu0_STLB PREFETCH     ACCESS:          0 HIT:          0 MISS:          0
cpu0_STLB WRITE        ACCESS:          0 HIT:          0 MISS:          0
cpu0_STLB TRANSLATION  ACCESS:          0 HIT:          0 MISS:          0
cpu0_STLB PREFETCH REQUESTED:          0 ISSUED:          0 USEFUL:          0 USELESS:          0
cpu0_STLB AVERAGE MISS LATENCY: 573.1 cycles

DRAM Statistics

Channel 0 RQ ROW_BUFFER_HIT:     768540
  ROW_BUFFER_MISS:    2389273
 AVG DBUS CONGESTED CYCLE: 3.974
WQ ROW_BUFFER_HIT: Channel 0 
  ROW_BUFFER_MISS:     325549
  FULL:    1356745
