WARNING: physical memory size is smaller than virtual memory size.

*** ChampSim Multicore Out-of-Order Simulator ***
Warmup Instructions: 50000000
Simulation Instructions: 600000000
Number of CPUs: 1
Page size: 4096

CPU 0 Tage branch predictor
Off-chip DRAM Size: 4 GiB Channels: 1 Width: 64-bit Data Race: 3200 MT/s
Heartbeat CPU 0 instructions: 10000000 cycles: 2500202 heartbeat IPC: 4 cumulative IPC: 4 (Simulation time: 00 hr 00 min 47 sec)
Heartbeat CPU 0 instructions: 20000000 cycles: 5000202 heartbeat IPC: 4 cumulative IPC: 4 (Simulation time: 00 hr 01 min 33 sec)
Heartbeat CPU 0 instructions: 30000000 cycles: 7500202 heartbeat IPC: 4 cumulative IPC: 4 (Simulation time: 00 hr 02 min 17 sec)
Heartbeat CPU 0 instructions: 40000000 cycles: 10000202 heartbeat IPC: 4 cumulative IPC: 4 (Simulation time: 00 hr 03 min 00 sec)
Heartbeat CPU 0 instructions: 50000000 cycles: 12500202 heartbeat IPC: 4 cumulative IPC: 4 (Simulation time: 00 hr 03 min 44 sec)
Warmup finished CPU 0 instructions: 50000000 cycles: 12500203 cumulative IPC: 4 (Simulation time: 00 hr 03 min 44 sec)
Warmup complete CPU 0 instructions: 50000000 cycles: 12500203 cumulative IPC: 4 (Simulation time: 00 hr 03 min 44 sec)
Heartbeat CPU 0 instructions: 60000004 cycles: 15001226 heartbeat IPC: 3.998 cumulative IPC: 3.998 (Simulation time: 00 hr 04 min 34 sec)
Heartbeat CPU 0 instructions: 70000003 cycles: 17502776 heartbeat IPC: 3.998 cumulative IPC: 3.998 (Simulation time: 00 hr 05 min 29 sec)
Heartbeat CPU 0 instructions: 80000004 cycles: 20003726 heartbeat IPC: 3.998 cumulative IPC: 3.998 (Simulation time: 00 hr 06 min 22 sec)
Heartbeat CPU 0 instructions: 90000000 cycles: 22504216 heartbeat IPC: 3.999 cumulative IPC: 3.998 (Simulation time: 00 hr 07 min 14 sec)
Heartbeat CPU 0 instructions: 100000001 cycles: 25004748 heartbeat IPC: 3.999 cumulative IPC: 3.999 (Simulation time: 00 hr 08 min 05 sec)
Heartbeat CPU 0 instructions: 110000000 cycles: 27506347 heartbeat IPC: 3.997 cumulative IPC: 3.998 (Simulation time: 00 hr 08 min 57 sec)
Heartbeat CPU 0 instructions: 120000004 cycles: 30007777 heartbeat IPC: 3.998 cumulative IPC: 3.998 (Simulation time: 00 hr 09 min 46 sec)
Heartbeat CPU 0 instructions: 130000000 cycles: 32509441 heartbeat IPC: 3.997 cumulative IPC: 3.998 (Simulation time: 00 hr 10 min 34 sec)
Heartbeat CPU 0 instructions: 140000004 cycles: 35010226 heartbeat IPC: 3.999 cumulative IPC: 3.998 (Simulation time: 00 hr 11 min 23 sec)
Heartbeat CPU 0 instructions: 150000000 cycles: 37511478 heartbeat IPC: 3.998 cumulative IPC: 3.998 (Simulation time: 00 hr 12 min 11 sec)
Heartbeat CPU 0 instructions: 160000001 cycles: 40012729 heartbeat IPC: 3.998 cumulative IPC: 3.998 (Simulation time: 00 hr 13 min 03 sec)
Heartbeat CPU 0 instructions: 170000000 cycles: 42513264 heartbeat IPC: 3.999 cumulative IPC: 3.998 (Simulation time: 00 hr 13 min 56 sec)
Heartbeat CPU 0 instructions: 180000003 cycles: 45013981 heartbeat IPC: 3.999 cumulative IPC: 3.998 (Simulation time: 00 hr 14 min 48 sec)
Heartbeat CPU 0 instructions: 190000000 cycles: 47514889 heartbeat IPC: 3.999 cumulative IPC: 3.998 (Simulation time: 00 hr 15 min 38 sec)
Heartbeat CPU 0 instructions: 200000004 cycles: 50016284 heartbeat IPC: 3.998 cumulative IPC: 3.998 (Simulation time: 00 hr 16 min 28 sec)
Heartbeat CPU 0 instructions: 210000004 cycles: 52517897 heartbeat IPC: 3.997 cumulative IPC: 3.998 (Simulation time: 00 hr 17 min 18 sec)
Heartbeat CPU 0 instructions: 220000001 cycles: 55019105 heartbeat IPC: 3.998 cumulative IPC: 3.998 (Simulation time: 00 hr 18 min 11 sec)
Heartbeat CPU 0 instructions: 230000000 cycles: 57519590 heartbeat IPC: 3.999 cumulative IPC: 3.998 (Simulation time: 00 hr 19 min 12 sec)
Heartbeat CPU 0 instructions: 240000000 cycles: 91298408 heartbeat IPC: 0.296 cumulative IPC: 2.411 (Simulation time: 00 hr 23 min 35 sec)
Heartbeat CPU 0 instructions: 250000001 cycles: 100387647 heartbeat IPC: 1.1 cumulative IPC: 2.276 (Simulation time: 00 hr 25 min 33 sec)
Heartbeat CPU 0 instructions: 260000001 cycles: 109520379 heartbeat IPC: 1.095 cumulative IPC: 2.164 (Simulation time: 00 hr 27 min 27 sec)
Heartbeat CPU 0 instructions: 270000003 cycles: 121779137 heartbeat IPC: 0.8157 cumulative IPC: 2.013 (Simulation time: 00 hr 29 min 43 sec)
Heartbeat CPU 0 instructions: 280000002 cycles: 132016018 heartbeat IPC: 0.9769 cumulative IPC: 1.924 (Simulation time: 00 hr 31 min 41 sec)
Heartbeat CPU 0 instructions: 290000000 cycles: 141919079 heartbeat IPC: 1.01 cumulative IPC: 1.854 (Simulation time: 00 hr 34 min 31 sec)
Heartbeat CPU 0 instructions: 300000002 cycles: 151845961 heartbeat IPC: 1.007 cumulative IPC: 1.794 (Simulation time: 00 hr 36 min 10 sec)
Heartbeat CPU 0 instructions: 310000001 cycles: 161745710 heartbeat IPC: 1.01 cumulative IPC: 1.742 (Simulation time: 00 hr 38 min 04 sec)
Heartbeat CPU 0 instructions: 320000000 cycles: 171343801 heartbeat IPC: 1.042 cumulative IPC: 1.7 (Simulation time: 00 hr 40 min 09 sec)
Heartbeat CPU 0 instructions: 330000002 cycles: 179635787 heartbeat IPC: 1.206 cumulative IPC: 1.675 (Simulation time: 00 hr 41 min 59 sec)
Heartbeat CPU 0 instructions: 340000000 cycles: 187968988 heartbeat IPC: 1.2 cumulative IPC: 1.653 (Simulation time: 00 hr 43 min 46 sec)
Heartbeat CPU 0 instructions: 350000003 cycles: 196521058 heartbeat IPC: 1.169 cumulative IPC: 1.63 (Simulation time: 00 hr 45 min 24 sec)
Heartbeat CPU 0 instructions: 360000001 cycles: 205018404 heartbeat IPC: 1.177 cumulative IPC: 1.61 (Simulation time: 00 hr 47 min 02 sec)
Heartbeat CPU 0 instructions: 370000002 cycles: 213451497 heartbeat IPC: 1.186 cumulative IPC: 1.592 (Simulation time: 00 hr 48 min 41 sec)
Heartbeat CPU 0 instructions: 380000003 cycles: 221480925 heartbeat IPC: 1.245 cumulative IPC: 1.579 (Simulation time: 00 hr 50 min 15 sec)
Heartbeat CPU 0 instructions: 390000000 cycles: 229628182 heartbeat IPC: 1.227 cumulative IPC: 1.566 (Simulation time: 00 hr 51 min 46 sec)
Heartbeat CPU 0 instructions: 400000000 cycles: 237713227 heartbeat IPC: 1.237 cumulative IPC: 1.554 (Simulation time: 00 hr 53 min 16 sec)
Heartbeat CPU 0 instructions: 410000002 cycles: 245721182 heartbeat IPC: 1.249 cumulative IPC: 1.544 (Simulation time: 00 hr 54 min 46 sec)
Heartbeat CPU 0 instructions: 420000002 cycles: 253735724 heartbeat IPC: 1.248 cumulative IPC: 1.534 (Simulation time: 00 hr 56 min 17 sec)
Heartbeat CPU 0 instructions: 430000002 cycles: 261769587 heartbeat IPC: 1.245 cumulative IPC: 1.524 (Simulation time: 00 hr 57 min 42 sec)
Heartbeat CPU 0 instructions: 440000004 cycles: 381061478 heartbeat IPC: 0.08383 cumulative IPC: 1.058 (Simulation time: 01 hr 13 min 06 sec)
Heartbeat CPU 0 instructions: 450000003 cycles: 391511382 heartbeat IPC: 0.9569 cumulative IPC: 1.055 (Simulation time: 01 hr 14 min 49 sec)
Heartbeat CPU 0 instructions: 460000004 cycles: 402625055 heartbeat IPC: 0.8998 cumulative IPC: 1.051 (Simulation time: 01 hr 16 min 35 sec)
Heartbeat CPU 0 instructions: 470000002 cycles: 413714455 heartbeat IPC: 0.9018 cumulative IPC: 1.047 (Simulation time: 01 hr 18 min 23 sec)
Heartbeat CPU 0 instructions: 480000004 cycles: 424822767 heartbeat IPC: 0.9002 cumulative IPC: 1.043 (Simulation time: 01 hr 20 min 14 sec)
Heartbeat CPU 0 instructions: 490000002 cycles: 436215285 heartbeat IPC: 0.8778 cumulative IPC: 1.038 (Simulation time: 01 hr 22 min 09 sec)
Heartbeat CPU 0 instructions: 500000003 cycles: 449167584 heartbeat IPC: 0.7721 cumulative IPC: 1.031 (Simulation time: 01 hr 24 min 20 sec)
Heartbeat CPU 0 instructions: 510000003 cycles: 462358733 heartbeat IPC: 0.7581 cumulative IPC: 1.023 (Simulation time: 01 hr 26 min 27 sec)
Heartbeat CPU 0 instructions: 520000000 cycles: 475818852 heartbeat IPC: 0.7429 cumulative IPC: 1.014 (Simulation time: 01 hr 28 min 39 sec)
Heartbeat CPU 0 instructions: 530000004 cycles: 489033938 heartbeat IPC: 0.7567 cumulative IPC: 1.007 (Simulation time: 01 hr 30 min 52 sec)
Heartbeat CPU 0 instructions: 540000002 cycles: 502283115 heartbeat IPC: 0.7548 cumulative IPC: 1 (Simulation time: 01 hr 33 min 02 sec)
Heartbeat CPU 0 instructions: 550000002 cycles: 513896309 heartbeat IPC: 0.8611 cumulative IPC: 0.9972 (Simulation time: 01 hr 34 min 53 sec)
Heartbeat CPU 0 instructions: 560000000 cycles: 525192417 heartbeat IPC: 0.8853 cumulative IPC: 0.9947 (Simulation time: 01 hr 36 min 40 sec)
Heartbeat CPU 0 instructions: 570000002 cycles: 536361025 heartbeat IPC: 0.8954 cumulative IPC: 0.9926 (Simulation time: 01 hr 38 min 26 sec)
Heartbeat CPU 0 instructions: 580000000 cycles: 547513165 heartbeat IPC: 0.8967 cumulative IPC: 0.9906 (Simulation time: 01 hr 40 min 13 sec)
Heartbeat CPU 0 instructions: 590000003 cycles: 558676478 heartbeat IPC: 0.8958 cumulative IPC: 0.9887 (Simulation time: 01 hr 42 min 01 sec)
*** Reached end of trace: (0, "traces/lu.A.champsimtrace")
Heartbeat CPU 0 instructions: 600000001 cycles: 569935195 heartbeat IPC: 0.8882 cumulative IPC: 0.9867 (Simulation time: 01 hr 43 min 49 sec)
Heartbeat CPU 0 instructions: 610000000 cycles: 576931340 heartbeat IPC: 1.429 cumulative IPC: 0.9921 (Simulation time: 01 hr 45 min 01 sec)
Heartbeat CPU 0 instructions: 620000000 cycles: 579432110 heartbeat IPC: 3.999 cumulative IPC: 1.005 (Simulation time: 01 hr 45 min 42 sec)
Heartbeat CPU 0 instructions: 630000004 cycles: 581932851 heartbeat IPC: 3.999 cumulative IPC: 1.019 (Simulation time: 01 hr 46 min 24 sec)
Heartbeat CPU 0 instructions: 640000002 cycles: 584433283 heartbeat IPC: 3.999 cumulative IPC: 1.032 (Simulation time: 01 hr 47 min 06 sec)
Heartbeat CPU 0 instructions: 650000001 cycles: 586933540 heartbeat IPC: 4 cumulative IPC: 1.045 (Simulation time: 01 hr 47 min 48 sec)
Simulation finished CPU 0 instructions: 600000001 cycles: 574433338 cumulative IPC: 1.045 (Simulation time: 01 hr 47 min 48 sec)
Simulation complete CPU 0 instructions: 600000001 cycles: 574433338 cumulative IPC: 1.045 (Simulation time: 01 hr 47 min 48 sec)

ChampSim completed all CPUs

=== Simulation ===
CPU 0 runs traces/lu.A.champsimtrace
Region of Interest Statistics

CPU 0 cumulative IPC: 1.045 instructions: 600000001 cycles: 574433338
CPU 0 Branch Prediction Accuracy: 99.98% MPKI: 0.004037 Average ROB Occupancy at Mispredict: 118
Branch type MPKI
BRANCH_DIRECT_JUMP: 5e-06
BRANCH_INDIRECT: 7.33e-05
BRANCH_CONDITIONAL: 0.0039
BRANCH_DIRECT_CALL: 6.67e-06
BRANCH_INDIRECT_CALL: 3.17e-05
BRANCH_RETURN: 1.83e-05

LLC TOTAL        ACCESS:    6242516 HIT:    2682334 MISS:    3560182
LLC LOAD         ACCESS:    2481297 HIT:     537916 MISS:    1943381
LLC RFO          ACCESS:     831678 HIT:       5037 MISS:     826641
LLC PREFETCH     ACCESS:    1135385 HIT:     361247 MISS:     774138
LLC WRITE        ACCESS:    1782300 HIT:    1768886 MISS:      13414
LLC TRANSLATION  ACCESS:      11856 HIT:       9248 MISS:       2608
LLC PREFETCH REQUESTED:    1135385 ISSUED:    1135385 USEFUL:     532129 USELESS:       8138
LLC AVERAGE MISS LATENCY: 1056 cycles
cpu0_DTLB TOTAL        ACCESS:  125871863 HIT:  118473598 MISS:    7398265
cpu0_DTLB LOAD         ACCESS:  125871863 HIT:  118473598 MISS:    7398265
cpu0_DTLB RFO          ACCESS:          0 HIT:          0 MISS:          0
cpu0_DTLB PREFETCH     ACCESS:          0 HIT:          0 MISS:          0
cpu0_DTLB WRITE        ACCESS:          0 HIT:          0 MISS:          0
cpu0_DTLB TRANSLATION  ACCESS:          0 HIT:          0 MISS:          0
cpu0_DTLB PREFETCH REQUESTED:          0 ISSUED:          0 USEFUL:          0 USELESS:          0
cpu0_DTLB AVERAGE MISS LATENCY: 5.006 cycles
cpu0_ITLB TOTAL        ACCESS:    1263809 HIT:    1263584 MISS:        225
cpu0_ITLB LOAD         ACCESS:    1263809 HIT:    1263584 MISS:        225
cpu0_ITLB RFO          ACCESS:          0 HIT:          0 MISS:          0
cpu0_ITLB PREFETCH     ACCESS:          0 HIT:          0 MISS:          0
cpu0_ITLB WRITE        ACCESS:          0 HIT:          0 MISS:          0
cpu0_ITLB TRANSLATION  ACCESS:          0 HIT:          0 MISS:          0
cpu0_ITLB PREFETCH REQUESTED:          0 ISSUED:          0 USEFUL:          0 USELESS:          0
cpu0_ITLB AVERAGE MISS LATENCY: 335.7 cycles
cpu0_L1D TOTAL        ACCESS:  180299629 HIT:  170368233 MISS:    9931396
cpu0_L1D LOAD         ACCESS:  143247525 HIT:  137193540 MISS:    6053985
cpu0_L1D RFO          ACCESS:          0 HIT:          0 MISS:          0
cpu0_L1D PREFETCH     ACCESS:          0 HIT:          0 MISS:          0
cpu0_L1D WRITE        ACCESS:   36999504 HIT:   33147003 MISS:    3852501
cpu0_L1D TRANSLATION  ACCESS:      52600 HIT:      27690 MISS:      24910
cpu0_L1D PREFETCH REQUESTED:          0 ISSUED:          0 USEFUL:          0 USELESS:          0
cpu0_L1D AVERAGE MISS LATENCY: 302.5 cycles
cpu0_L1I TOTAL        ACCESS:    1590601 HIT:    1587694 MISS:       2907
cpu0_L1I LOAD         ACCESS:    1590601 HIT:    1587694 MISS:       2907
cpu0_L1I RFO          ACCESS:          0 HIT:          0 MISS:          0
cpu0_L1I PREFETCH     ACCESS:          0 HIT:          0 MISS:          0
cpu0_L1I WRITE        ACCESS:          0 HIT:          0 MISS:          0
cpu0_L1I TRANSLATION  ACCESS:          0 HIT:          0 MISS:          0
cpu0_L1I PREFETCH REQUESTED:          0 ISSUED:          0 USEFUL:          0 USELESS:          0
cpu0_L1I AVERAGE MISS LATENCY: 490.2 cycles
cpu0_L2C TOTAL        ACCESS:    5978927 HIT:    2649798 MISS:    3329129
cpu0_L2C LOAD         ACCESS:    3057566 HIT:     576269 MISS:    2481297
cpu0_L2C RFO          ACCESS:     878564 HIT:      46886 MISS:     831678
cpu0_L2C PREFETCH     ACCESS:          0 HIT:          0 MISS:          0
cpu0_L2C WRITE        ACCESS:    2017932 HIT:    2013634 MISS:       4298
cpu0_L2C TRANSLATION  ACCESS:      24865 HIT:      13009 MISS:      11856
cpu0_L2C PREFETCH REQUESTED:          0 ISSUED:          0 USEFUL:          0 USELESS:          0
cpu0_L2C AVERAGE MISS LATENCY: 966.1 cycles
cpu0_STLB TOTAL        ACCESS:    3993622 HIT:    3941036 MISS:      52586
cpu0_STLB LOAD         ACCESS:    3993622 HIT:    3941036 MISS:      52586
cpu0_STLB RFO          ACCESS:          0 HIT:          0 MISS:          0
cpu0_STLB PREFETCH     ACCESS:          0 HIT:          0 MISS:          0
cpu0_STLB WRITE        ACCESS:          0 HIT:          0 MISS:          0
cpu0_STLB TRANSLATION  ACCESS:          0 HIT:          0 MISS:          0
cpu0_STLB PREFETCH REQUESTED:          0 ISSUED:          0 USEFUL:          0 USELESS:          0
cpu0_STLB AVERAGE MISS LATENCY: 475.1 cycles

DRAM Statistics

Channel 0 RQ ROW_BUFFER_HIT:     813880
  ROW_BUFFER_MISS:    2321391
 AVG DBUS CONGESTED CYCLE: 3.946
WQ ROW_BUFFER_HIT: Channel 0 
  ROW_BUFFER_MISS:     184772
  FULL:    1497066
