WARNING: physical memory size is smaller than virtual memory size.

*** ChampSim Multicore Out-of-Order Simulator ***
Warmup Instructions: 50000000
Simulation Instructions: 600000000
Number of CPUs: 1
Page size: 4096

Off-chip DRAM Size: 4 GiB Channels: 1 Width: 64-bit Data Race: 3200 MT/s
Heartbeat CPU 0 instructions: 10000000 cycles: 2500202 heartbeat IPC: 4 cumulative IPC: 4 (Simulation time: 00 hr 00 min 32 sec)
Heartbeat CPU 0 instructions: 20000000 cycles: 5000202 heartbeat IPC: 4 cumulative IPC: 4 (Simulation time: 00 hr 01 min 05 sec)
Heartbeat CPU 0 instructions: 30000000 cycles: 7500202 heartbeat IPC: 4 cumulative IPC: 4 (Simulation time: 00 hr 01 min 39 sec)
Heartbeat CPU 0 instructions: 40000000 cycles: 10000202 heartbeat IPC: 4 cumulative IPC: 4 (Simulation time: 00 hr 02 min 12 sec)
Heartbeat CPU 0 instructions: 50000000 cycles: 12500202 heartbeat IPC: 4 cumulative IPC: 4 (Simulation time: 00 hr 02 min 45 sec)
Warmup finished CPU 0 instructions: 50000000 cycles: 12500203 cumulative IPC: 4 (Simulation time: 00 hr 02 min 45 sec)
Warmup complete CPU 0 instructions: 50000000 cycles: 12500203 cumulative IPC: 4 (Simulation time: 00 hr 02 min 45 sec)
Heartbeat CPU 0 instructions: 60000004 cycles: 15003357 heartbeat IPC: 3.995 cumulative IPC: 3.995 (Simulation time: 00 hr 03 min 20 sec)
Heartbeat CPU 0 instructions: 70000003 cycles: 17505108 heartbeat IPC: 3.997 cumulative IPC: 3.996 (Simulation time: 00 hr 03 min 58 sec)
Heartbeat CPU 0 instructions: 80000004 cycles: 20007017 heartbeat IPC: 3.997 cumulative IPC: 3.996 (Simulation time: 00 hr 04 min 35 sec)
Heartbeat CPU 0 instructions: 90000000 cycles: 22511132 heartbeat IPC: 3.993 cumulative IPC: 3.996 (Simulation time: 00 hr 05 min 12 sec)
Heartbeat CPU 0 instructions: 100000001 cycles: 25012871 heartbeat IPC: 3.997 cumulative IPC: 3.996 (Simulation time: 00 hr 05 min 49 sec)
Heartbeat CPU 0 instructions: 110000000 cycles: 27514634 heartbeat IPC: 3.997 cumulative IPC: 3.996 (Simulation time: 00 hr 06 min 27 sec)
Heartbeat CPU 0 instructions: 120000004 cycles: 30017314 heartbeat IPC: 3.996 cumulative IPC: 3.996 (Simulation time: 00 hr 07 min 05 sec)
Heartbeat CPU 0 instructions: 130000000 cycles: 32520551 heartbeat IPC: 3.995 cumulative IPC: 3.996 (Simulation time: 00 hr 07 min 42 sec)
Heartbeat CPU 0 instructions: 140000004 cycles: 35022303 heartbeat IPC: 3.997 cumulative IPC: 3.996 (Simulation time: 00 hr 08 min 19 sec)
Heartbeat CPU 0 instructions: 150000000 cycles: 37525049 heartbeat IPC: 3.996 cumulative IPC: 3.996 (Simulation time: 00 hr 08 min 58 sec)
Heartbeat CPU 0 instructions: 160000001 cycles: 40027691 heartbeat IPC: 3.996 cumulative IPC: 3.996 (Simulation time: 00 hr 09 min 37 sec)
Heartbeat CPU 0 instructions: 170000000 cycles: 42529529 heartbeat IPC: 3.997 cumulative IPC: 3.996 (Simulation time: 00 hr 10 min 16 sec)
Heartbeat CPU 0 instructions: 180000003 cycles: 45031419 heartbeat IPC: 3.997 cumulative IPC: 3.996 (Simulation time: 00 hr 10 min 55 sec)
Heartbeat CPU 0 instructions: 190000000 cycles: 47534128 heartbeat IPC: 3.996 cumulative IPC: 3.996 (Simulation time: 00 hr 11 min 33 sec)
Heartbeat CPU 0 instructions: 200000004 cycles: 50037571 heartbeat IPC: 3.995 cumulative IPC: 3.996 (Simulation time: 00 hr 12 min 12 sec)
Heartbeat CPU 0 instructions: 210000004 cycles: 52539669 heartbeat IPC: 3.997 cumulative IPC: 3.996 (Simulation time: 00 hr 12 min 51 sec)
Heartbeat CPU 0 instructions: 220000001 cycles: 55041923 heartbeat IPC: 3.996 cumulative IPC: 3.996 (Simulation time: 00 hr 13 min 31 sec)
Heartbeat CPU 0 instructions: 230000000 cycles: 57543677 heartbeat IPC: 3.997 cumulative IPC: 3.996 (Simulation time: 00 hr 14 min 10 sec)
Heartbeat CPU 0 instructions: 240000000 cycles: 89537980 heartbeat IPC: 0.3126 cumulative IPC: 2.466 (Simulation time: 00 hr 17 min 35 sec)
Heartbeat CPU 0 instructions: 250000000 cycles: 98259939 heartbeat IPC: 1.147 cumulative IPC: 2.332 (Simulation time: 00 hr 18 min 55 sec)
Heartbeat CPU 0 instructions: 260000001 cycles: 106938455 heartbeat IPC: 1.152 cumulative IPC: 2.224 (Simulation time: 00 hr 20 min 14 sec)
Heartbeat CPU 0 instructions: 270000001 cycles: 113958787 heartbeat IPC: 1.424 cumulative IPC: 2.168 (Simulation time: 00 hr 21 min 23 sec)
Heartbeat CPU 0 instructions: 280000003 cycles: 118756138 heartbeat IPC: 2.084 cumulative IPC: 2.165 (Simulation time: 00 hr 22 min 17 sec)
Heartbeat CPU 0 instructions: 290000001 cycles: 123578550 heartbeat IPC: 2.074 cumulative IPC: 2.161 (Simulation time: 00 hr 23 min 12 sec)
Heartbeat CPU 0 instructions: 300000002 cycles: 128434656 heartbeat IPC: 2.059 cumulative IPC: 2.156 (Simulation time: 00 hr 24 min 09 sec)
Heartbeat CPU 0 instructions: 310000002 cycles: 133288708 heartbeat IPC: 2.06 cumulative IPC: 2.153 (Simulation time: 00 hr 25 min 04 sec)
Heartbeat CPU 0 instructions: 320000002 cycles: 139622792 heartbeat IPC: 1.579 cumulative IPC: 2.124 (Simulation time: 00 hr 26 min 16 sec)
Heartbeat CPU 0 instructions: 330000002 cycles: 148323108 heartbeat IPC: 1.149 cumulative IPC: 2.062 (Simulation time: 00 hr 27 min 50 sec)
Heartbeat CPU 0 instructions: 340000004 cycles: 156637652 heartbeat IPC: 1.203 cumulative IPC: 2.012 (Simulation time: 00 hr 29 min 28 sec)
Heartbeat CPU 0 instructions: 350000003 cycles: 164946226 heartbeat IPC: 1.204 cumulative IPC: 1.968 (Simulation time: 00 hr 30 min 58 sec)
Heartbeat CPU 0 instructions: 360000001 cycles: 173212449 heartbeat IPC: 1.21 cumulative IPC: 1.929 (Simulation time: 00 hr 32 min 24 sec)
Heartbeat CPU 0 instructions: 370000002 cycles: 181476727 heartbeat IPC: 1.21 cumulative IPC: 1.894 (Simulation time: 00 hr 33 min 52 sec)
Heartbeat CPU 0 instructions: 380000003 cycles: 190249075 heartbeat IPC: 1.14 cumulative IPC: 1.857 (Simulation time: 00 hr 35 min 24 sec)
Heartbeat CPU 0 instructions: 390000000 cycles: 199602403 heartbeat IPC: 1.069 cumulative IPC: 1.817 (Simulation time: 00 hr 37 min 00 sec)
Heartbeat CPU 0 instructions: 400000000 cycles: 208959133 heartbeat IPC: 1.069 cumulative IPC: 1.782 (Simulation time: 00 hr 38 min 33 sec)
Heartbeat CPU 0 instructions: 410000004 cycles: 218230250 heartbeat IPC: 1.079 cumulative IPC: 1.75 (Simulation time: 00 hr 40 min 07 sec)
Heartbeat CPU 0 instructions: 420000002 cycles: 227478699 heartbeat IPC: 1.081 cumulative IPC: 1.721 (Simulation time: 00 hr 41 min 42 sec)
Heartbeat CPU 0 instructions: 430000002 cycles: 236675136 heartbeat IPC: 1.087 cumulative IPC: 1.695 (Simulation time: 00 hr 43 min 26 sec)
Heartbeat CPU 0 instructions: 440000004 cycles: 376349302 heartbeat IPC: 0.0716 cumulative IPC: 1.072 (Simulation time: 01 hr 02 min 38 sec)
Heartbeat CPU 0 instructions: 450000003 cycles: 385640212 heartbeat IPC: 1.076 cumulative IPC: 1.072 (Simulation time: 01 hr 04 min 13 sec)
Heartbeat CPU 0 instructions: 460000004 cycles: 395067637 heartbeat IPC: 1.061 cumulative IPC: 1.072 (Simulation time: 01 hr 05 min 45 sec)
Heartbeat CPU 0 instructions: 470000001 cycles: 404325656 heartbeat IPC: 1.08 cumulative IPC: 1.072 (Simulation time: 01 hr 07 min 19 sec)
Heartbeat CPU 0 instructions: 480000000 cycles: 413685940 heartbeat IPC: 1.068 cumulative IPC: 1.072 (Simulation time: 01 hr 08 min 51 sec)
Heartbeat CPU 0 instructions: 490000002 cycles: 423144695 heartbeat IPC: 1.057 cumulative IPC: 1.071 (Simulation time: 01 hr 10 min 35 sec)
Heartbeat CPU 0 instructions: 500000003 cycles: 438842108 heartbeat IPC: 0.637 cumulative IPC: 1.055 (Simulation time: 01 hr 13 min 27 sec)
Heartbeat CPU 0 instructions: 510000004 cycles: 454837863 heartbeat IPC: 0.6252 cumulative IPC: 1.04 (Simulation time: 01 hr 16 min 07 sec)
Heartbeat CPU 0 instructions: 520000000 cycles: 471136422 heartbeat IPC: 0.6136 cumulative IPC: 1.025 (Simulation time: 01 hr 18 min 56 sec)
Heartbeat CPU 0 instructions: 530000003 cycles: 486799790 heartbeat IPC: 0.6384 cumulative IPC: 1.012 (Simulation time: 01 hr 21 min 38 sec)
Heartbeat CPU 0 instructions: 540000002 cycles: 503703201 heartbeat IPC: 0.5916 cumulative IPC: 0.9976 (Simulation time: 01 hr 24 min 24 sec)
Heartbeat CPU 0 instructions: 550000002 cycles: 516209960 heartbeat IPC: 0.7996 cumulative IPC: 0.9926 (Simulation time: 01 hr 26 min 27 sec)
Heartbeat CPU 0 instructions: 560000000 cycles: 527788339 heartbeat IPC: 0.8637 cumulative IPC: 0.9897 (Simulation time: 01 hr 28 min 33 sec)
Heartbeat CPU 0 instructions: 570000002 cycles: 539417599 heartbeat IPC: 0.8599 cumulative IPC: 0.9869 (Simulation time: 01 hr 30 min 35 sec)
Heartbeat CPU 0 instructions: 580000003 cycles: 551090749 heartbeat IPC: 0.8567 cumulative IPC: 0.984 (Simulation time: 01 hr 32 min 32 sec)
Heartbeat CPU 0 instructions: 590000003 cycles: 562748228 heartbeat IPC: 0.8578 cumulative IPC: 0.9814 (Simulation time: 01 hr 34 min 36 sec)
*** Reached end of trace: (0, "traces/lu.A.champsimtrace")
Heartbeat CPU 0 instructions: 600000001 cycles: 574580641 heartbeat IPC: 0.8451 cumulative IPC: 0.9785 (Simulation time: 01 hr 36 min 35 sec)
Heartbeat CPU 0 instructions: 610000000 cycles: 581251136 heartbeat IPC: 1.499 cumulative IPC: 0.9846 (Simulation time: 01 hr 37 min 49 sec)
Heartbeat CPU 0 instructions: 620000000 cycles: 583752915 heartbeat IPC: 3.997 cumulative IPC: 0.9978 (Simulation time: 01 hr 38 min 31 sec)
Heartbeat CPU 0 instructions: 630000004 cycles: 586255794 heartbeat IPC: 3.995 cumulative IPC: 1.011 (Simulation time: 01 hr 39 min 14 sec)
Heartbeat CPU 0 instructions: 640000002 cycles: 588757958 heartbeat IPC: 3.997 cumulative IPC: 1.024 (Simulation time: 01 hr 39 min 55 sec)
Heartbeat CPU 0 instructions: 650000001 cycles: 591260275 heartbeat IPC: 3.996 cumulative IPC: 1.037 (Simulation time: 01 hr 40 min 38 sec)
Simulation finished CPU 0 instructions: 600000001 cycles: 578760073 cumulative IPC: 1.037 (Simulation time: 01 hr 40 min 38 sec)
Simulation complete CPU 0 instructions: 600000001 cycles: 578760073 cumulative IPC: 1.037 (Simulation time: 01 hr 40 min 38 sec)

ChampSim completed all CPUs

=== Simulation ===
CPU 0 runs traces/lu.A.champsimtrace
Region of Interest Statistics

CPU 0 cumulative IPC: 1.037 instructions: 600000001 cycles: 578760073
CPU 0 Branch Prediction Accuracy: 98.73% MPKI: 0.2427 Average ROB Occupancy at Mispredict: 324.4
Branch type MPKI
BRANCH_DIRECT_JUMP: 5e-06
BRANCH_INDIRECT: 7.33e-05
BRANCH_CONDITIONAL: 0.243
BRANCH_DIRECT_CALL: 6.67e-06
BRANCH_INDIRECT_CALL: 3.17e-05
BRANCH_RETURN: 1.83e-05

LLC TOTAL        ACCESS:    7704142 HIT:    2223221 MISS:    5480921
LLC LOAD         ACCESS:    2481393 HIT:    1353847 MISS:    1127546
LLC RFO          ACCESS:     831681 HIT:      69205 MISS:     762476
LLC PREFETCH     ACCESS:    2596924 HIT:     233988 MISS:    2362936
LLC WRITE        ACCESS:    1782320 HIT:     564296 MISS:    1218024
LLC TRANSLATION  ACCESS:      11824 HIT:       1885 MISS:       9939
LLC PREFETCH REQUESTED:    4066053 ISSUED:    2596924 USEFUL:    1636356 USELESS:     123364
LLC AVERAGE MISS LATENCY: 1122 cycles
cpu0_DTLB TOTAL        ACCESS:  122579716 HIT:  115417889 MISS:    7161827
cpu0_DTLB LOAD         ACCESS:  122579716 HIT:  115417889 MISS:    7161827
cpu0_DTLB RFO          ACCESS:          0 HIT:          0 MISS:          0
cpu0_DTLB PREFETCH     ACCESS:          0 HIT:          0 MISS:          0
cpu0_DTLB WRITE        ACCESS:          0 HIT:          0 MISS:          0
cpu0_DTLB TRANSLATION  ACCESS:          0 HIT:          0 MISS:          0
cpu0_DTLB PREFETCH REQUESTED:          0 ISSUED:          0 USEFUL:          0 USELESS:          0
cpu0_DTLB AVERAGE MISS LATENCY: 8.017 cycles
cpu0_ITLB TOTAL        ACCESS:     710779 HIT:     710573 MISS:        206
cpu0_ITLB LOAD         ACCESS:     710779 HIT:     710573 MISS:        206
cpu0_ITLB RFO          ACCESS:          0 HIT:          0 MISS:          0
cpu0_ITLB PREFETCH     ACCESS:          0 HIT:          0 MISS:          0
cpu0_ITLB WRITE        ACCESS:          0 HIT:          0 MISS:          0
cpu0_ITLB TRANSLATION  ACCESS:          0 HIT:          0 MISS:          0
cpu0_ITLB PREFETCH REQUESTED:          0 ISSUED:          0 USEFUL:          0 USELESS:          0
cpu0_ITLB AVERAGE MISS LATENCY: 363.7 cycles
cpu0_L1D TOTAL        ACCESS:  175664470 HIT:  166129143 MISS:    9535327
cpu0_L1D LOAD         ACCESS:  138609954 HIT:  132882756 MISS:    5727198
cpu0_L1D RFO          ACCESS:          0 HIT:          0 MISS:          0
cpu0_L1D PREFETCH     ACCESS:          0 HIT:          0 MISS:          0
cpu0_L1D WRITE        ACCESS:   37001922 HIT:   33218724 MISS:    3783198
cpu0_L1D TRANSLATION  ACCESS:      52594 HIT:      27663 MISS:      24931
cpu0_L1D PREFETCH REQUESTED:          0 ISSUED:          0 USEFUL:          0 USELESS:          0
cpu0_L1D AVERAGE MISS LATENCY: 262.4 cycles
cpu0_L1I TOTAL        ACCESS:    1094870 HIT:    1092173 MISS:       2697
cpu0_L1I LOAD         ACCESS:    1094870 HIT:    1092173 MISS:       2697
cpu0_L1I RFO          ACCESS:          0 HIT:          0 MISS:          0
cpu0_L1I PREFETCH     ACCESS:          0 HIT:          0 MISS:          0
cpu0_L1I WRITE        ACCESS:          0 HIT:          0 MISS:          0
cpu0_L1I TRANSLATION  ACCESS:          0 HIT:          0 MISS:          0
cpu0_L1I PREFETCH REQUESTED:          0 ISSUED:          0 USEFUL:          0 USELESS:          0
cpu0_L1I AVERAGE MISS LATENCY: 503.6 cycles
cpu0_L2C TOTAL        ACCESS:    5993783 HIT:    2664783 MISS:    3329000
cpu0_L2C LOAD         ACCESS:    3071778 HIT:     590383 MISS:    2481395
cpu0_L2C RFO          ACCESS:     877386 HIT:      45705 MISS:     831681
cpu0_L2C PREFETCH     ACCESS:          0 HIT:          0 MISS:          0
cpu0_L2C WRITE        ACCESS:    2019728 HIT:    2015628 MISS:       4100
cpu0_L2C TRANSLATION  ACCESS:      24891 HIT:      13067 MISS:      11824
cpu0_L2C PREFETCH REQUESTED:          0 ISSUED:          0 USEFUL:          0 USELESS:          0
cpu0_L2C AVERAGE MISS LATENCY: 810.7 cycles
cpu0_STLB TOTAL        ACCESS:    3987923 HIT:    3935337 MISS:      52586
cpu0_STLB LOAD         ACCESS:    3987923 HIT:    3935337 MISS:      52586
cpu0_STLB RFO          ACCESS:          0 HIT:          0 MISS:          0
cpu0_STLB PREFETCH     ACCESS:          0 HIT:          0 MISS:          0
cpu0_STLB WRITE        ACCESS:          0 HIT:          0 MISS:          0
cpu0_STLB TRANSLATION  ACCESS:          0 HIT:          0 MISS:          0
cpu0_STLB PREFETCH REQUESTED:          0 ISSUED:          0 USEFUL:          0 USELESS:          0
cpu0_STLB AVERAGE MISS LATENCY: 951.8 cycles

DRAM Statistics

Channel 0 RQ ROW_BUFFER_HIT:     803214
  ROW_BUFFER_MISS:    2381978
 AVG DBUS CONGESTED CYCLE: 3.968
WQ ROW_BUFFER_HIT: Channel 0 
  ROW_BUFFER_MISS:     418437
  FULL:    1261903
