WARNING: physical memory size is smaller than virtual memory size.

*** ChampSim Multicore Out-of-Order Simulator ***
Warmup Instructions: 50000000
Simulation Instructions: 600000000
Number of CPUs: 1
Page size: 4096

Off-chip DRAM Size: 4 GiB Channels: 1 Width: 64-bit Data Race: 3200 MT/s
Heartbeat CPU 0 instructions: 10000000 cycles: 2500202 heartbeat IPC: 4 cumulative IPC: 4 (Simulation time: 00 hr 00 min 44 sec)
Heartbeat CPU 0 instructions: 20000000 cycles: 5000202 heartbeat IPC: 4 cumulative IPC: 4 (Simulation time: 00 hr 01 min 28 sec)
Heartbeat CPU 0 instructions: 30000000 cycles: 7500202 heartbeat IPC: 4 cumulative IPC: 4 (Simulation time: 00 hr 02 min 12 sec)
Heartbeat CPU 0 instructions: 40000000 cycles: 10000202 heartbeat IPC: 4 cumulative IPC: 4 (Simulation time: 00 hr 02 min 57 sec)
Heartbeat CPU 0 instructions: 50000000 cycles: 12500202 heartbeat IPC: 4 cumulative IPC: 4 (Simulation time: 00 hr 03 min 40 sec)
Warmup finished CPU 0 instructions: 50000000 cycles: 12500203 cumulative IPC: 4 (Simulation time: 00 hr 03 min 40 sec)
Warmup complete CPU 0 instructions: 50000000 cycles: 12500203 cumulative IPC: 4 (Simulation time: 00 hr 03 min 40 sec)
Heartbeat CPU 0 instructions: 60000004 cycles: 15001960 heartbeat IPC: 3.997 cumulative IPC: 3.997 (Simulation time: 00 hr 04 min 30 sec)
Heartbeat CPU 0 instructions: 70000001 cycles: 17503956 heartbeat IPC: 3.997 cumulative IPC: 3.997 (Simulation time: 00 hr 05 min 21 sec)
Heartbeat CPU 0 instructions: 80000004 cycles: 20006212 heartbeat IPC: 3.996 cumulative IPC: 3.997 (Simulation time: 00 hr 06 min 12 sec)
Heartbeat CPU 0 instructions: 90000000 cycles: 22510512 heartbeat IPC: 3.993 cumulative IPC: 3.996 (Simulation time: 00 hr 07 min 04 sec)
Heartbeat CPU 0 instructions: 100000004 cycles: 25012845 heartbeat IPC: 3.996 cumulative IPC: 3.996 (Simulation time: 00 hr 07 min 57 sec)
Heartbeat CPU 0 instructions: 110000003 cycles: 27515770 heartbeat IPC: 3.995 cumulative IPC: 3.996 (Simulation time: 00 hr 08 min 47 sec)
Heartbeat CPU 0 instructions: 120000004 cycles: 30021005 heartbeat IPC: 3.992 cumulative IPC: 3.995 (Simulation time: 00 hr 09 min 37 sec)
Heartbeat CPU 0 instructions: 130000000 cycles: 32523965 heartbeat IPC: 3.995 cumulative IPC: 3.995 (Simulation time: 00 hr 10 min 28 sec)
Heartbeat CPU 0 instructions: 140000004 cycles: 35025707 heartbeat IPC: 3.997 cumulative IPC: 3.995 (Simulation time: 00 hr 11 min 19 sec)
Heartbeat CPU 0 instructions: 150000000 cycles: 37528916 heartbeat IPC: 3.995 cumulative IPC: 3.995 (Simulation time: 00 hr 12 min 09 sec)
Heartbeat CPU 0 instructions: 160000001 cycles: 40032446 heartbeat IPC: 3.994 cumulative IPC: 3.995 (Simulation time: 00 hr 13 min 00 sec)
Heartbeat CPU 0 instructions: 170000000 cycles: 42537015 heartbeat IPC: 3.993 cumulative IPC: 3.995 (Simulation time: 00 hr 13 min 51 sec)
Heartbeat CPU 0 instructions: 180000003 cycles: 45041384 heartbeat IPC: 3.993 cumulative IPC: 3.995 (Simulation time: 00 hr 14 min 42 sec)
Heartbeat CPU 0 instructions: 190000003 cycles: 47544945 heartbeat IPC: 3.994 cumulative IPC: 3.995 (Simulation time: 00 hr 15 min 32 sec)
Heartbeat CPU 0 instructions: 200000002 cycles: 50047740 heartbeat IPC: 3.996 cumulative IPC: 3.995 (Simulation time: 00 hr 16 min 23 sec)
Heartbeat CPU 0 instructions: 210000000 cycles: 52550088 heartbeat IPC: 3.996 cumulative IPC: 3.995 (Simulation time: 00 hr 17 min 14 sec)
Heartbeat CPU 0 instructions: 220000002 cycles: 55054999 heartbeat IPC: 3.992 cumulative IPC: 3.995 (Simulation time: 00 hr 18 min 06 sec)
Heartbeat CPU 0 instructions: 230000003 cycles: 57558347 heartbeat IPC: 3.995 cumulative IPC: 3.995 (Simulation time: 00 hr 18 min 56 sec)
Heartbeat CPU 0 instructions: 240000003 cycles: 89649074 heartbeat IPC: 0.3116 cumulative IPC: 2.463 (Simulation time: 00 hr 24 min 01 sec)
Heartbeat CPU 0 instructions: 250000000 cycles: 98410961 heartbeat IPC: 1.141 cumulative IPC: 2.328 (Simulation time: 00 hr 26 min 01 sec)
Heartbeat CPU 0 instructions: 260000003 cycles: 107156337 heartbeat IPC: 1.143 cumulative IPC: 2.219 (Simulation time: 00 hr 27 min 58 sec)
Heartbeat CPU 0 instructions: 270000000 cycles: 114438772 heartbeat IPC: 1.373 cumulative IPC: 2.158 (Simulation time: 00 hr 29 min 43 sec)
Heartbeat CPU 0 instructions: 280000003 cycles: 119268876 heartbeat IPC: 2.07 cumulative IPC: 2.154 (Simulation time: 00 hr 31 min 00 sec)
Heartbeat CPU 0 instructions: 290000000 cycles: 124097413 heartbeat IPC: 2.071 cumulative IPC: 2.151 (Simulation time: 00 hr 32 min 16 sec)
Heartbeat CPU 0 instructions: 300000003 cycles: 128935852 heartbeat IPC: 2.067 cumulative IPC: 2.147 (Simulation time: 00 hr 33 min 33 sec)
Heartbeat CPU 0 instructions: 310000003 cycles: 133748315 heartbeat IPC: 2.078 cumulative IPC: 2.144 (Simulation time: 00 hr 34 min 51 sec)
Heartbeat CPU 0 instructions: 320000003 cycles: 139146081 heartbeat IPC: 1.853 cumulative IPC: 2.132 (Simulation time: 00 hr 36 min 15 sec)
Heartbeat CPU 0 instructions: 330000001 cycles: 146895667 heartbeat IPC: 1.29 cumulative IPC: 2.083 (Simulation time: 00 hr 38 min 06 sec)
Heartbeat CPU 0 instructions: 340000001 cycles: 154619345 heartbeat IPC: 1.295 cumulative IPC: 2.041 (Simulation time: 00 hr 39 min 56 sec)
Heartbeat CPU 0 instructions: 350000002 cycles: 162244424 heartbeat IPC: 1.311 cumulative IPC: 2.003 (Simulation time: 00 hr 41 min 46 sec)
Heartbeat CPU 0 instructions: 360000000 cycles: 169955412 heartbeat IPC: 1.297 cumulative IPC: 1.969 (Simulation time: 00 hr 43 min 37 sec)
Heartbeat CPU 0 instructions: 370000002 cycles: 177680944 heartbeat IPC: 1.294 cumulative IPC: 1.937 (Simulation time: 00 hr 45 min 27 sec)
Heartbeat CPU 0 instructions: 380000001 cycles: 186166675 heartbeat IPC: 1.178 cumulative IPC: 1.9 (Simulation time: 00 hr 47 min 28 sec)
Heartbeat CPU 0 instructions: 390000003 cycles: 195481926 heartbeat IPC: 1.074 cumulative IPC: 1.858 (Simulation time: 00 hr 49 min 37 sec)
Heartbeat CPU 0 instructions: 400000004 cycles: 204759515 heartbeat IPC: 1.078 cumulative IPC: 1.82 (Simulation time: 00 hr 51 min 47 sec)
Heartbeat CPU 0 instructions: 410000002 cycles: 213973997 heartbeat IPC: 1.085 cumulative IPC: 1.787 (Simulation time: 00 hr 53 min 57 sec)
Heartbeat CPU 0 instructions: 420000000 cycles: 225983356 heartbeat IPC: 0.8327 cumulative IPC: 1.733 (Simulation time: 00 hr 56 min 34 sec)
Heartbeat CPU 0 instructions: 430000003 cycles: 236905109 heartbeat IPC: 0.9156 cumulative IPC: 1.693 (Simulation time: 00 hr 59 min 00 sec)
Heartbeat CPU 0 instructions: 440000004 cycles: 369486952 heartbeat IPC: 0.07543 cumulative IPC: 1.092 (Simulation time: 01 hr 23 min 05 sec)
Heartbeat CPU 0 instructions: 450000002 cycles: 377977877 heartbeat IPC: 1.178 cumulative IPC: 1.094 (Simulation time: 01 hr 25 min 03 sec)
Heartbeat CPU 0 instructions: 460000000 cycles: 386847112 heartbeat IPC: 1.127 cumulative IPC: 1.095 (Simulation time: 01 hr 27 min 06 sec)
Heartbeat CPU 0 instructions: 470000003 cycles: 395368548 heartbeat IPC: 1.174 cumulative IPC: 1.097 (Simulation time: 01 hr 29 min 04 sec)
Heartbeat CPU 0 instructions: 480000003 cycles: 404538450 heartbeat IPC: 1.091 cumulative IPC: 1.097 (Simulation time: 01 hr 31 min 11 sec)
Heartbeat CPU 0 instructions: 490000002 cycles: 413690952 heartbeat IPC: 1.093 cumulative IPC: 1.097 (Simulation time: 01 hr 33 min 17 sec)
Heartbeat CPU 0 instructions: 500000003 cycles: 428883100 heartbeat IPC: 0.6582 cumulative IPC: 1.081 (Simulation time: 01 hr 36 min 29 sec)
Heartbeat CPU 0 instructions: 510000003 cycles: 445508831 heartbeat IPC: 0.6015 cumulative IPC: 1.062 (Simulation time: 01 hr 39 min 55 sec)
Heartbeat CPU 0 instructions: 520000003 cycles: 461372599 heartbeat IPC: 0.6304 cumulative IPC: 1.047 (Simulation time: 01 hr 43 min 11 sec)
Heartbeat CPU 0 instructions: 530000000 cycles: 477644325 heartbeat IPC: 0.6146 cumulative IPC: 1.032 (Simulation time: 01 hr 46 min 32 sec)
Heartbeat CPU 0 instructions: 540000002 cycles: 493680969 heartbeat IPC: 0.6236 cumulative IPC: 1.018 (Simulation time: 01 hr 49 min 54 sec)
Heartbeat CPU 0 instructions: 550000000 cycles: 505657959 heartbeat IPC: 0.8349 cumulative IPC: 1.014 (Simulation time: 01 hr 52 min 29 sec)
Heartbeat CPU 0 instructions: 560000002 cycles: 515744892 heartbeat IPC: 0.9914 cumulative IPC: 1.013 (Simulation time: 01 hr 54 min 44 sec)
Heartbeat CPU 0 instructions: 570000000 cycles: 526035210 heartbeat IPC: 0.9718 cumulative IPC: 1.013 (Simulation time: 01 hr 57 min 00 sec)
Heartbeat CPU 0 instructions: 580000001 cycles: 536496993 heartbeat IPC: 0.9559 cumulative IPC: 1.011 (Simulation time: 01 hr 59 min 17 sec)
Heartbeat CPU 0 instructions: 590000000 cycles: 546830380 heartbeat IPC: 0.9677 cumulative IPC: 1.011 (Simulation time: 02 hr 01 min 31 sec)
*** Reached end of trace: (0, "traces/lu.A.champsimtrace")
Heartbeat CPU 0 instructions: 600000001 cycles: 557065969 heartbeat IPC: 0.977 cumulative IPC: 1.01 (Simulation time: 02 hr 03 min 44 sec)
Heartbeat CPU 0 instructions: 610000004 cycles: 565819864 heartbeat IPC: 1.142 cumulative IPC: 1.012 (Simulation time: 02 hr 05 min 47 sec)
Heartbeat CPU 0 instructions: 620000003 cycles: 568322048 heartbeat IPC: 3.997 cumulative IPC: 1.026 (Simulation time: 02 hr 06 min 37 sec)
Heartbeat CPU 0 instructions: 630000002 cycles: 570824730 heartbeat IPC: 3.996 cumulative IPC: 1.039 (Simulation time: 02 hr 07 min 27 sec)
Heartbeat CPU 0 instructions: 640000000 cycles: 573327297 heartbeat IPC: 3.996 cumulative IPC: 1.052 (Simulation time: 02 hr 08 min 18 sec)
Heartbeat CPU 0 instructions: 650000004 cycles: 575829058 heartbeat IPC: 3.997 cumulative IPC: 1.065 (Simulation time: 02 hr 09 min 08 sec)
Simulation finished CPU 0 instructions: 600000004 cycles: 563328856 cumulative IPC: 1.065 (Simulation time: 02 hr 09 min 08 sec)
Simulation complete CPU 0 instructions: 600000004 cycles: 563328856 cumulative IPC: 1.065 (Simulation time: 02 hr 09 min 08 sec)

ChampSim completed all CPUs

=== Simulation ===
CPU 0 runs traces/lu.A.champsimtrace
Region of Interest Statistics

CPU 0 cumulative IPC: 1.065 instructions: 600000004 cycles: 563328856
CPU 0 Branch Prediction Accuracy: 98.73% MPKI: 0.2426 Average ROB Occupancy at Mispredict: 323.8
Branch type MPKI
BRANCH_DIRECT_JUMP: 5e-06
BRANCH_INDIRECT: 7.83e-05
BRANCH_CONDITIONAL: 0.242
BRANCH_DIRECT_CALL: 6.67e-06
BRANCH_INDIRECT_CALL: 3.5e-05
BRANCH_RETURN: 1.83e-05

LLC TOTAL        ACCESS:    7697630 HIT:    2328886 MISS:    5368744
LLC LOAD         ACCESS:    2480844 HIT:    1364648 MISS:    1116196
LLC RFO          ACCESS:     831663 HIT:      82917 MISS:     748746
LLC PREFETCH     ACCESS:    2591425 HIT:     236871 MISS:    2354554
LLC WRITE        ACCESS:    1781854 HIT:     643804 MISS:    1138050
LLC TRANSLATION  ACCESS:      11844 HIT:        646 MISS:      11198
LLC PREFETCH REQUESTED:    3807904 ISSUED:    2591425 USEFUL:    1658183 USELESS:      86946
LLC AVERAGE MISS LATENCY: 1176 cycles
cpu0_DTLB TOTAL        ACCESS:  122844577 HIT:  115616017 MISS:    7228560
cpu0_DTLB LOAD         ACCESS:  122844577 HIT:  115616017 MISS:    7228560
cpu0_DTLB RFO          ACCESS:          0 HIT:          0 MISS:          0
cpu0_DTLB PREFETCH     ACCESS:          0 HIT:          0 MISS:          0
cpu0_DTLB WRITE        ACCESS:          0 HIT:          0 MISS:          0
cpu0_DTLB TRANSLATION  ACCESS:          0 HIT:          0 MISS:          0
cpu0_DTLB PREFETCH REQUESTED:          0 ISSUED:          0 USEFUL:          0 USELESS:          0
cpu0_DTLB AVERAGE MISS LATENCY: 8.425 cycles
cpu0_ITLB TOTAL        ACCESS:     709899 HIT:     709688 MISS:        211
cpu0_ITLB LOAD         ACCESS:     709899 HIT:     709688 MISS:        211
cpu0_ITLB RFO          ACCESS:          0 HIT:          0 MISS:          0
cpu0_ITLB PREFETCH     ACCESS:          0 HIT:          0 MISS:          0
cpu0_ITLB WRITE        ACCESS:          0 HIT:          0 MISS:          0
cpu0_ITLB TRANSLATION  ACCESS:          0 HIT:          0 MISS:          0
cpu0_ITLB PREFETCH REQUESTED:          0 ISSUED:          0 USEFUL:          0 USELESS:          0
cpu0_ITLB AVERAGE MISS LATENCY: 418.9 cycles
cpu0_L1D TOTAL        ACCESS:  175465716 HIT:  166044630 MISS:    9421086
cpu0_L1D LOAD         ACCESS:  138412784 HIT:  132723834 MISS:    5688950
cpu0_L1D RFO          ACCESS:          0 HIT:          0 MISS:          0
cpu0_L1D PREFETCH     ACCESS:          0 HIT:          0 MISS:          0
cpu0_L1D WRITE        ACCESS:   37000334 HIT:   33293644 MISS:    3706690
cpu0_L1D TRANSLATION  ACCESS:      52598 HIT:      27152 MISS:      25446
cpu0_L1D PREFETCH REQUESTED:          0 ISSUED:          0 USEFUL:          0 USELESS:          0
cpu0_L1D AVERAGE MISS LATENCY: 263.4 cycles
cpu0_L1I TOTAL        ACCESS:    1094233 HIT:    1091520 MISS:       2713
cpu0_L1I LOAD         ACCESS:    1094233 HIT:    1091520 MISS:       2713
cpu0_L1I RFO          ACCESS:          0 HIT:          0 MISS:          0
cpu0_L1I PREFETCH     ACCESS:          0 HIT:          0 MISS:          0
cpu0_L1I WRITE        ACCESS:          0 HIT:          0 MISS:          0
cpu0_L1I TRANSLATION  ACCESS:          0 HIT:          0 MISS:          0
cpu0_L1I PREFETCH REQUESTED:          0 ISSUED:          0 USEFUL:          0 USELESS:          0
cpu0_L1I AVERAGE MISS LATENCY: 490.7 cycles
cpu0_L2C TOTAL        ACCESS:    5965891 HIT:    2637440 MISS:    3328451
cpu0_L2C LOAD         ACCESS:    3059302 HIT:     578458 MISS:    2480844
cpu0_L2C RFO          ACCESS:     876467 HIT:      44804 MISS:     831663
cpu0_L2C PREFETCH     ACCESS:          0 HIT:          0 MISS:          0
cpu0_L2C WRITE        ACCESS:    2004725 HIT:    2000625 MISS:       4100
cpu0_L2C TRANSLATION  ACCESS:      25397 HIT:      13553 MISS:      11844
cpu0_L2C PREFETCH REQUESTED:          0 ISSUED:          0 USEFUL:          0 USELESS:          0
cpu0_L2C AVERAGE MISS LATENCY: 804 cycles
cpu0_STLB TOTAL        ACCESS:    4041121 HIT:    3988538 MISS:      52583
cpu0_STLB LOAD         ACCESS:    4041121 HIT:    3988538 MISS:      52583
cpu0_STLB RFO          ACCESS:          0 HIT:          0 MISS:          0
cpu0_STLB PREFETCH     ACCESS:          0 HIT:          0 MISS:          0
cpu0_STLB WRITE        ACCESS:          0 HIT:          0 MISS:          0
cpu0_STLB TRANSLATION  ACCESS:          0 HIT:          0 MISS:          0
cpu0_STLB PREFETCH REQUESTED:          0 ISSUED:          0 USEFUL:          0 USELESS:          0
cpu0_STLB AVERAGE MISS LATENCY: 1031 cycles

DRAM Statistics

Channel 0 RQ ROW_BUFFER_HIT:     814057
  ROW_BUFFER_MISS:    2316669
 AVG DBUS CONGESTED CYCLE: 3.966
WQ ROW_BUFFER_HIT: Channel 0 
  ROW_BUFFER_MISS:     459040
  FULL:    1223322
