WARNING: physical memory size is smaller than virtual memory size.

*** ChampSim Multicore Out-of-Order Simulator ***
Warmup Instructions: 50000000
Simulation Instructions: 600000000
Number of CPUs: 1
Page size: 4096

Off-chip DRAM Size: 4 GiB Channels: 1 Width: 64-bit Data Race: 3200 MT/s
Heartbeat CPU 0 instructions: 10000000 cycles: 2500202 heartbeat IPC: 4 cumulative IPC: 4 (Simulation time: 00 hr 00 min 31 sec)
Heartbeat CPU 0 instructions: 20000000 cycles: 5000202 heartbeat IPC: 4 cumulative IPC: 4 (Simulation time: 00 hr 01 min 01 sec)
Heartbeat CPU 0 instructions: 30000000 cycles: 7500202 heartbeat IPC: 4 cumulative IPC: 4 (Simulation time: 00 hr 01 min 32 sec)
Heartbeat CPU 0 instructions: 40000000 cycles: 10000202 heartbeat IPC: 4 cumulative IPC: 4 (Simulation time: 00 hr 02 min 02 sec)
Heartbeat CPU 0 instructions: 50000000 cycles: 12500202 heartbeat IPC: 4 cumulative IPC: 4 (Simulation time: 00 hr 02 min 32 sec)
Warmup finished CPU 0 instructions: 50000000 cycles: 12500203 cumulative IPC: 4 (Simulation time: 00 hr 02 min 32 sec)
Warmup complete CPU 0 instructions: 50000000 cycles: 12500203 cumulative IPC: 4 (Simulation time: 00 hr 02 min 32 sec)
Heartbeat CPU 0 instructions: 60000004 cycles: 15003357 heartbeat IPC: 3.995 cumulative IPC: 3.995 (Simulation time: 00 hr 03 min 09 sec)
Heartbeat CPU 0 instructions: 70000003 cycles: 17505108 heartbeat IPC: 3.997 cumulative IPC: 3.996 (Simulation time: 00 hr 03 min 48 sec)
Heartbeat CPU 0 instructions: 80000004 cycles: 20007017 heartbeat IPC: 3.997 cumulative IPC: 3.996 (Simulation time: 00 hr 04 min 27 sec)
Heartbeat CPU 0 instructions: 90000000 cycles: 22511132 heartbeat IPC: 3.993 cumulative IPC: 3.996 (Simulation time: 00 hr 05 min 14 sec)
Heartbeat CPU 0 instructions: 100000001 cycles: 25012871 heartbeat IPC: 3.997 cumulative IPC: 3.996 (Simulation time: 00 hr 05 min 53 sec)
Heartbeat CPU 0 instructions: 110000000 cycles: 27514634 heartbeat IPC: 3.997 cumulative IPC: 3.996 (Simulation time: 00 hr 06 min 33 sec)
Heartbeat CPU 0 instructions: 120000004 cycles: 30017314 heartbeat IPC: 3.996 cumulative IPC: 3.996 (Simulation time: 00 hr 07 min 19 sec)
Heartbeat CPU 0 instructions: 130000000 cycles: 32520551 heartbeat IPC: 3.995 cumulative IPC: 3.996 (Simulation time: 00 hr 08 min 07 sec)
Heartbeat CPU 0 instructions: 140000004 cycles: 35022303 heartbeat IPC: 3.997 cumulative IPC: 3.996 (Simulation time: 00 hr 08 min 52 sec)
Heartbeat CPU 0 instructions: 150000000 cycles: 37525049 heartbeat IPC: 3.996 cumulative IPC: 3.996 (Simulation time: 00 hr 09 min 36 sec)
Heartbeat CPU 0 instructions: 160000001 cycles: 40027691 heartbeat IPC: 3.996 cumulative IPC: 3.996 (Simulation time: 00 hr 10 min 19 sec)
Heartbeat CPU 0 instructions: 170000000 cycles: 42529529 heartbeat IPC: 3.997 cumulative IPC: 3.996 (Simulation time: 00 hr 11 min 01 sec)
Heartbeat CPU 0 instructions: 180000003 cycles: 45031419 heartbeat IPC: 3.997 cumulative IPC: 3.996 (Simulation time: 00 hr 11 min 40 sec)
Heartbeat CPU 0 instructions: 190000000 cycles: 47533170 heartbeat IPC: 3.997 cumulative IPC: 3.996 (Simulation time: 00 hr 12 min 18 sec)
Heartbeat CPU 0 instructions: 200000004 cycles: 50036410 heartbeat IPC: 3.995 cumulative IPC: 3.996 (Simulation time: 00 hr 12 min 57 sec)
Heartbeat CPU 0 instructions: 210000004 cycles: 52538161 heartbeat IPC: 3.997 cumulative IPC: 3.996 (Simulation time: 00 hr 13 min 37 sec)
Heartbeat CPU 0 instructions: 220000001 cycles: 55040310 heartbeat IPC: 3.997 cumulative IPC: 3.996 (Simulation time: 00 hr 14 min 16 sec)
Heartbeat CPU 0 instructions: 230000000 cycles: 57542064 heartbeat IPC: 3.997 cumulative IPC: 3.996 (Simulation time: 00 hr 14 min 55 sec)
Heartbeat CPU 0 instructions: 240000000 cycles: 89538081 heartbeat IPC: 0.3125 cumulative IPC: 2.466 (Simulation time: 00 hr 18 min 24 sec)
Heartbeat CPU 0 instructions: 250000000 cycles: 98242288 heartbeat IPC: 1.149 cumulative IPC: 2.333 (Simulation time: 00 hr 19 min 55 sec)
Heartbeat CPU 0 instructions: 260000001 cycles: 106925303 heartbeat IPC: 1.152 cumulative IPC: 2.224 (Simulation time: 00 hr 21 min 22 sec)
Heartbeat CPU 0 instructions: 270000001 cycles: 116627690 heartbeat IPC: 1.031 cumulative IPC: 2.113 (Simulation time: 00 hr 23 min 16 sec)
Heartbeat CPU 0 instructions: 280000002 cycles: 125662736 heartbeat IPC: 1.107 cumulative IPC: 2.032 (Simulation time: 00 hr 24 min 52 sec)
Heartbeat CPU 0 instructions: 290000001 cycles: 134533956 heartbeat IPC: 1.127 cumulative IPC: 1.967 (Simulation time: 00 hr 26 min 26 sec)
Heartbeat CPU 0 instructions: 300000002 cycles: 143386600 heartbeat IPC: 1.13 cumulative IPC: 1.91 (Simulation time: 00 hr 28 min 05 sec)
Heartbeat CPU 0 instructions: 310000001 cycles: 152241262 heartbeat IPC: 1.129 cumulative IPC: 1.861 (Simulation time: 00 hr 29 min 40 sec)
Heartbeat CPU 0 instructions: 320000000 cycles: 160848321 heartbeat IPC: 1.162 cumulative IPC: 1.82 (Simulation time: 00 hr 31 min 10 sec)
Heartbeat CPU 0 instructions: 330000002 cycles: 168940166 heartbeat IPC: 1.236 cumulative IPC: 1.79 (Simulation time: 00 hr 32 min 40 sec)
Heartbeat CPU 0 instructions: 340000004 cycles: 177037060 heartbeat IPC: 1.235 cumulative IPC: 1.763 (Simulation time: 00 hr 34 min 12 sec)
Heartbeat CPU 0 instructions: 350000003 cycles: 185128726 heartbeat IPC: 1.236 cumulative IPC: 1.738 (Simulation time: 00 hr 35 min 45 sec)
Heartbeat CPU 0 instructions: 360000001 cycles: 193246525 heartbeat IPC: 1.232 cumulative IPC: 1.715 (Simulation time: 00 hr 37 min 13 sec)
Heartbeat CPU 0 instructions: 370000002 cycles: 201158448 heartbeat IPC: 1.264 cumulative IPC: 1.696 (Simulation time: 00 hr 38 min 42 sec)
Heartbeat CPU 0 instructions: 380000003 cycles: 209420178 heartbeat IPC: 1.21 cumulative IPC: 1.676 (Simulation time: 00 hr 40 min 12 sec)
Heartbeat CPU 0 instructions: 390000000 cycles: 218068507 heartbeat IPC: 1.156 cumulative IPC: 1.654 (Simulation time: 00 hr 41 min 48 sec)
Heartbeat CPU 0 instructions: 400000000 cycles: 226921919 heartbeat IPC: 1.13 cumulative IPC: 1.632 (Simulation time: 00 hr 43 min 22 sec)
Heartbeat CPU 0 instructions: 410000002 cycles: 235778900 heartbeat IPC: 1.129 cumulative IPC: 1.612 (Simulation time: 00 hr 44 min 52 sec)
Heartbeat CPU 0 instructions: 420000000 cycles: 244546528 heartbeat IPC: 1.141 cumulative IPC: 1.595 (Simulation time: 00 hr 46 min 18 sec)
Heartbeat CPU 0 instructions: 430000002 cycles: 253295650 heartbeat IPC: 1.143 cumulative IPC: 1.578 (Simulation time: 00 hr 47 min 46 sec)
Heartbeat CPU 0 instructions: 440000004 cycles: 366967845 heartbeat IPC: 0.08797 cumulative IPC: 1.1 (Simulation time: 01 hr 04 min 14 sec)
Heartbeat CPU 0 instructions: 450000003 cycles: 377198679 heartbeat IPC: 0.9774 cumulative IPC: 1.097 (Simulation time: 01 hr 05 min 55 sec)
Heartbeat CPU 0 instructions: 460000004 cycles: 387610625 heartbeat IPC: 0.9604 cumulative IPC: 1.093 (Simulation time: 01 hr 07 min 46 sec)
Heartbeat CPU 0 instructions: 470000002 cycles: 397976533 heartbeat IPC: 0.9647 cumulative IPC: 1.09 (Simulation time: 01 hr 09 min 42 sec)
Heartbeat CPU 0 instructions: 480000004 cycles: 408241551 heartbeat IPC: 0.9742 cumulative IPC: 1.087 (Simulation time: 01 hr 11 min 36 sec)
Heartbeat CPU 0 instructions: 490000002 cycles: 418670434 heartbeat IPC: 0.9589 cumulative IPC: 1.083 (Simulation time: 01 hr 13 min 32 sec)
Heartbeat CPU 0 instructions: 500000003 cycles: 433645204 heartbeat IPC: 0.6678 cumulative IPC: 1.069 (Simulation time: 01 hr 16 min 02 sec)
Heartbeat CPU 0 instructions: 510000002 cycles: 449643041 heartbeat IPC: 0.6251 cumulative IPC: 1.052 (Simulation time: 01 hr 18 min 40 sec)
Heartbeat CPU 0 instructions: 520000000 cycles: 465717259 heartbeat IPC: 0.6221 cumulative IPC: 1.037 (Simulation time: 01 hr 21 min 14 sec)
Heartbeat CPU 0 instructions: 530000004 cycles: 481846133 heartbeat IPC: 0.62 cumulative IPC: 1.023 (Simulation time: 01 hr 23 min 50 sec)
Heartbeat CPU 0 instructions: 540000002 cycles: 497970705 heartbeat IPC: 0.6202 cumulative IPC: 1.009 (Simulation time: 01 hr 26 min 23 sec)
Heartbeat CPU 0 instructions: 550000002 cycles: 510208605 heartbeat IPC: 0.8171 cumulative IPC: 1.005 (Simulation time: 01 hr 28 min 20 sec)
Heartbeat CPU 0 instructions: 560000000 cycles: 521372164 heartbeat IPC: 0.8958 cumulative IPC: 1.002 (Simulation time: 01 hr 30 min 02 sec)
Heartbeat CPU 0 instructions: 570000002 cycles: 532482643 heartbeat IPC: 0.9001 cumulative IPC: 1 (Simulation time: 01 hr 31 min 43 sec)
Heartbeat CPU 0 instructions: 580000003 cycles: 543612402 heartbeat IPC: 0.8985 cumulative IPC: 0.9979 (Simulation time: 01 hr 33 min 26 sec)
Heartbeat CPU 0 instructions: 590000003 cycles: 554680911 heartbeat IPC: 0.9035 cumulative IPC: 0.996 (Simulation time: 01 hr 35 min 07 sec)
*** Reached end of trace: (0, "traces/lu.A.champsimtrace")
Heartbeat CPU 0 instructions: 600000001 cycles: 565808705 heartbeat IPC: 0.8987 cumulative IPC: 0.994 (Simulation time: 01 hr 36 min 47 sec)
Heartbeat CPU 0 instructions: 610000000 cycles: 570856357 heartbeat IPC: 1.981 cumulative IPC: 1.003 (Simulation time: 01 hr 37 min 41 sec)
Heartbeat CPU 0 instructions: 620000000 cycles: 573358136 heartbeat IPC: 3.997 cumulative IPC: 1.016 (Simulation time: 01 hr 38 min 19 sec)
Heartbeat CPU 0 instructions: 630000004 cycles: 575862208 heartbeat IPC: 3.993 cumulative IPC: 1.03 (Simulation time: 01 hr 38 min 57 sec)
Heartbeat CPU 0 instructions: 640000002 cycles: 578364284 heartbeat IPC: 3.997 cumulative IPC: 1.043 (Simulation time: 01 hr 39 min 35 sec)
Heartbeat CPU 0 instructions: 650000001 cycles: 580866361 heartbeat IPC: 3.997 cumulative IPC: 1.056 (Simulation time: 01 hr 40 min 13 sec)
Simulation finished CPU 0 instructions: 600000001 cycles: 568366159 cumulative IPC: 1.056 (Simulation time: 01 hr 40 min 13 sec)
Simulation complete CPU 0 instructions: 600000001 cycles: 568366159 cumulative IPC: 1.056 (Simulation time: 01 hr 40 min 13 sec)

ChampSim completed all CPUs

=== Simulation ===
CPU 0 runs traces/lu.A.champsimtrace
Region of Interest Statistics

CPU 0 cumulative IPC: 1.056 instructions: 600000001 cycles: 568366159
CPU 0 Branch Prediction Accuracy: 98.73% MPKI: 0.2427 Average ROB Occupancy at Mispredict: 326.6
Branch type MPKI
BRANCH_DIRECT_JUMP: 5e-06
BRANCH_INDIRECT: 7.33e-05
BRANCH_CONDITIONAL: 0.243
BRANCH_DIRECT_CALL: 6.67e-06
BRANCH_INDIRECT_CALL: 3.17e-05
BRANCH_RETURN: 1.83e-05

LLC TOTAL        ACCESS:    6219384 HIT:    1099415 MISS:    5119969
LLC LOAD         ACCESS:    2481326 HIT:     524847 MISS:    1956479
LLC RFO          ACCESS:     831678 HIT:      31614 MISS:     800064
LLC PREFETCH     ACCESS:    1112204 HIT:     314524 MISS:     797680
LLC WRITE        ACCESS:    1782332 HIT:     225522 MISS:    1556810
LLC TRANSLATION  ACCESS:      11844 HIT:       2908 MISS:       8936
LLC PREFETCH REQUESTED:    1112204 ISSUED:    1112204 USEFUL:     523060 USELESS:      28992
LLC AVERAGE MISS LATENCY: 700.4 cycles
cpu0_DTLB TOTAL        ACCESS:  123729660 HIT:  116505999 MISS:    7223661
cpu0_DTLB LOAD         ACCESS:  123729660 HIT:  116505999 MISS:    7223661
cpu0_DTLB RFO          ACCESS:          0 HIT:          0 MISS:          0
cpu0_DTLB PREFETCH     ACCESS:          0 HIT:          0 MISS:          0
cpu0_DTLB WRITE        ACCESS:          0 HIT:          0 MISS:          0
cpu0_DTLB TRANSLATION  ACCESS:          0 HIT:          0 MISS:          0
cpu0_DTLB PREFETCH REQUESTED:          0 ISSUED:          0 USEFUL:          0 USELESS:          0
cpu0_DTLB AVERAGE MISS LATENCY: 6.535 cycles
cpu0_ITLB TOTAL        ACCESS:     719811 HIT:     719608 MISS:        203
cpu0_ITLB LOAD         ACCESS:     719811 HIT:     719608 MISS:        203
cpu0_ITLB RFO          ACCESS:          0 HIT:          0 MISS:          0
cpu0_ITLB PREFETCH     ACCESS:          0 HIT:          0 MISS:          0
cpu0_ITLB WRITE        ACCESS:          0 HIT:          0 MISS:          0
cpu0_ITLB TRANSLATION  ACCESS:          0 HIT:          0 MISS:          0
cpu0_ITLB PREFETCH REQUESTED:          0 ISSUED:          0 USEFUL:          0 USELESS:          0
cpu0_ITLB AVERAGE MISS LATENCY: 342.8 cycles
cpu0_L1D TOTAL        ACCESS:  177290020 HIT:  167490455 MISS:    9799565
cpu0_L1D LOAD         ACCESS:  140232682 HIT:  134279148 MISS:    5953534
cpu0_L1D RFO          ACCESS:          0 HIT:          0 MISS:          0
cpu0_L1D PREFETCH     ACCESS:          0 HIT:          0 MISS:          0
cpu0_L1D WRITE        ACCESS:   37004742 HIT:   33183571 MISS:    3821171
cpu0_L1D TRANSLATION  ACCESS:      52596 HIT:      27736 MISS:      24860
cpu0_L1D PREFETCH REQUESTED:          0 ISSUED:          0 USEFUL:          0 USELESS:          0
cpu0_L1D AVERAGE MISS LATENCY: 291.8 cycles
cpu0_L1I TOTAL        ACCESS:    1106356 HIT:    1103633 MISS:       2723
cpu0_L1I LOAD         ACCESS:    1106356 HIT:    1103633 MISS:       2723
cpu0_L1I RFO          ACCESS:          0 HIT:          0 MISS:          0
cpu0_L1I PREFETCH     ACCESS:          0 HIT:          0 MISS:          0
cpu0_L1I WRITE        ACCESS:          0 HIT:          0 MISS:          0
cpu0_L1I TRANSLATION  ACCESS:          0 HIT:          0 MISS:          0
cpu0_L1I PREFETCH REQUESTED:          0 ISSUED:          0 USEFUL:          0 USELESS:          0
cpu0_L1I AVERAGE MISS LATENCY: 569.2 cycles
cpu0_L2C TOTAL        ACCESS:    5978230 HIT:    2649051 MISS:    3329179
cpu0_L2C LOAD         ACCESS:    3057663 HIT:     576337 MISS:    2481326
cpu0_L2C RFO          ACCESS:     878169 HIT:      46491 MISS:     831678
cpu0_L2C PREFETCH     ACCESS:          0 HIT:          0 MISS:          0
cpu0_L2C WRITE        ACCESS:    2017579 HIT:    2013248 MISS:       4331
cpu0_L2C TRANSLATION  ACCESS:      24819 HIT:      12975 MISS:      11844
cpu0_L2C PREFETCH REQUESTED:          0 ISSUED:          0 USEFUL:          0 USELESS:          0
cpu0_L2C AVERAGE MISS LATENCY: 920.9 cycles
cpu0_STLB TOTAL        ACCESS:    3989409 HIT:    3936823 MISS:      52586
cpu0_STLB LOAD         ACCESS:    3989409 HIT:    3936823 MISS:      52586
cpu0_STLB RFO          ACCESS:          0 HIT:          0 MISS:          0
cpu0_STLB PREFETCH     ACCESS:          0 HIT:          0 MISS:          0
cpu0_STLB WRITE        ACCESS:          0 HIT:          0 MISS:          0
cpu0_STLB TRANSLATION  ACCESS:          0 HIT:          0 MISS:          0
cpu0_STLB PREFETCH REQUESTED:          0 ISSUED:          0 USEFUL:          0 USELESS:          0
cpu0_STLB AVERAGE MISS LATENCY: 708.4 cycles

DRAM Statistics

Channel 0 RQ ROW_BUFFER_HIT:     845689
  ROW_BUFFER_MISS:    2298918
 AVG DBUS CONGESTED CYCLE: 3.936
WQ ROW_BUFFER_HIT: Channel 0 
  ROW_BUFFER_MISS:     361485
  FULL:    1318973
