WARNING: physical memory size is smaller than virtual memory size.

*** ChampSim Multicore Out-of-Order Simulator ***
Warmup Instructions: 50000000
Simulation Instructions: 600000000
Number of CPUs: 1
Page size: 4096

Off-chip DRAM Size: 4 GiB Channels: 1 Width: 64-bit Data Race: 3200 MT/s
Heartbeat CPU 0 instructions: 10000000 cycles: 2500202 heartbeat IPC: 4 cumulative IPC: 4 (Simulation time: 00 hr 00 min 17 sec)
Heartbeat CPU 0 instructions: 20000000 cycles: 5000202 heartbeat IPC: 4 cumulative IPC: 4 (Simulation time: 00 hr 00 min 41 sec)
Heartbeat CPU 0 instructions: 30000000 cycles: 7500202 heartbeat IPC: 4 cumulative IPC: 4 (Simulation time: 00 hr 01 min 12 sec)
Heartbeat CPU 0 instructions: 40000000 cycles: 10000202 heartbeat IPC: 4 cumulative IPC: 4 (Simulation time: 00 hr 01 min 55 sec)
Heartbeat CPU 0 instructions: 50000000 cycles: 12500202 heartbeat IPC: 4 cumulative IPC: 4 (Simulation time: 00 hr 02 min 35 sec)
Warmup finished CPU 0 instructions: 50000000 cycles: 12500203 cumulative IPC: 4 (Simulation time: 00 hr 02 min 35 sec)
Warmup complete CPU 0 instructions: 50000000 cycles: 12500203 cumulative IPC: 4 (Simulation time: 00 hr 02 min 35 sec)
Heartbeat CPU 0 instructions: 60000004 cycles: 15135275 heartbeat IPC: 3.795 cumulative IPC: 3.795 (Simulation time: 00 hr 03 min 19 sec)
Heartbeat CPU 0 instructions: 70000003 cycles: 17769899 heartbeat IPC: 3.796 cumulative IPC: 3.795 (Simulation time: 00 hr 04 min 03 sec)
Heartbeat CPU 0 instructions: 80000003 cycles: 20404678 heartbeat IPC: 3.795 cumulative IPC: 3.795 (Simulation time: 00 hr 04 min 47 sec)
Heartbeat CPU 0 instructions: 90000004 cycles: 23041377 heartbeat IPC: 3.793 cumulative IPC: 3.795 (Simulation time: 00 hr 05 min 29 sec)
Heartbeat CPU 0 instructions: 100000002 cycles: 25675984 heartbeat IPC: 3.796 cumulative IPC: 3.795 (Simulation time: 00 hr 06 min 14 sec)
Heartbeat CPU 0 instructions: 110000003 cycles: 28310618 heartbeat IPC: 3.796 cumulative IPC: 3.795 (Simulation time: 00 hr 06 min 58 sec)
Heartbeat CPU 0 instructions: 120000004 cycles: 30945256 heartbeat IPC: 3.796 cumulative IPC: 3.795 (Simulation time: 00 hr 07 min 43 sec)
Heartbeat CPU 0 instructions: 130000000 cycles: 33580774 heartbeat IPC: 3.794 cumulative IPC: 3.795 (Simulation time: 00 hr 08 min 25 sec)
Heartbeat CPU 0 instructions: 140000004 cycles: 36215398 heartbeat IPC: 3.796 cumulative IPC: 3.795 (Simulation time: 00 hr 09 min 07 sec)
Heartbeat CPU 0 instructions: 150000000 cycles: 38850025 heartbeat IPC: 3.796 cumulative IPC: 3.795 (Simulation time: 00 hr 09 min 51 sec)
Heartbeat CPU 0 instructions: 160000001 cycles: 41485028 heartbeat IPC: 3.795 cumulative IPC: 3.795 (Simulation time: 00 hr 10 min 32 sec)
Heartbeat CPU 0 instructions: 170000000 cycles: 44119652 heartbeat IPC: 3.796 cumulative IPC: 3.795 (Simulation time: 00 hr 11 min 12 sec)
Heartbeat CPU 0 instructions: 180000003 cycles: 46754291 heartbeat IPC: 3.796 cumulative IPC: 3.795 (Simulation time: 00 hr 11 min 51 sec)
Heartbeat CPU 0 instructions: 190000000 cycles: 49388918 heartbeat IPC: 3.796 cumulative IPC: 3.795 (Simulation time: 00 hr 12 min 29 sec)
Heartbeat CPU 0 instructions: 200000004 cycles: 52024081 heartbeat IPC: 3.795 cumulative IPC: 3.795 (Simulation time: 00 hr 13 min 07 sec)
Heartbeat CPU 0 instructions: 210000004 cycles: 54658707 heartbeat IPC: 3.796 cumulative IPC: 3.795 (Simulation time: 00 hr 13 min 45 sec)
Heartbeat CPU 0 instructions: 220000001 cycles: 57293699 heartbeat IPC: 3.795 cumulative IPC: 3.795 (Simulation time: 00 hr 14 min 22 sec)
Heartbeat CPU 0 instructions: 230000002 cycles: 59928338 heartbeat IPC: 3.796 cumulative IPC: 3.795 (Simulation time: 00 hr 14 min 59 sec)
Heartbeat CPU 0 instructions: 240000003 cycles: 91925099 heartbeat IPC: 0.3125 cumulative IPC: 2.392 (Simulation time: 00 hr 18 min 30 sec)
Heartbeat CPU 0 instructions: 250000000 cycles: 100620435 heartbeat IPC: 1.15 cumulative IPC: 2.27 (Simulation time: 00 hr 20 min 01 sec)
Heartbeat CPU 0 instructions: 260000001 cycles: 109303673 heartbeat IPC: 1.152 cumulative IPC: 2.169 (Simulation time: 00 hr 21 min 38 sec)
Heartbeat CPU 0 instructions: 270000001 cycles: 116671961 heartbeat IPC: 1.357 cumulative IPC: 2.112 (Simulation time: 00 hr 23 min 03 sec)
Heartbeat CPU 0 instructions: 280000003 cycles: 122351569 heartbeat IPC: 1.761 cumulative IPC: 2.094 (Simulation time: 00 hr 24 min 12 sec)
Heartbeat CPU 0 instructions: 290000001 cycles: 128002416 heartbeat IPC: 1.77 cumulative IPC: 2.078 (Simulation time: 00 hr 25 min 19 sec)
Heartbeat CPU 0 instructions: 300000002 cycles: 133683930 heartbeat IPC: 1.76 cumulative IPC: 2.063 (Simulation time: 00 hr 26 min 24 sec)
Heartbeat CPU 0 instructions: 310000002 cycles: 139351388 heartbeat IPC: 1.764 cumulative IPC: 2.05 (Simulation time: 00 hr 27 min 27 sec)
Heartbeat CPU 0 instructions: 320000000 cycles: 145634376 heartbeat IPC: 1.592 cumulative IPC: 2.028 (Simulation time: 00 hr 28 min 33 sec)
Heartbeat CPU 0 instructions: 330000002 cycles: 153703471 heartbeat IPC: 1.239 cumulative IPC: 1.983 (Simulation time: 00 hr 29 min 52 sec)
Heartbeat CPU 0 instructions: 340000004 cycles: 161778486 heartbeat IPC: 1.238 cumulative IPC: 1.943 (Simulation time: 00 hr 31 min 12 sec)
Heartbeat CPU 0 instructions: 350000003 cycles: 169867880 heartbeat IPC: 1.236 cumulative IPC: 1.906 (Simulation time: 00 hr 32 min 31 sec)
Heartbeat CPU 0 instructions: 360000001 cycles: 177981236 heartbeat IPC: 1.233 cumulative IPC: 1.873 (Simulation time: 00 hr 33 min 51 sec)
Heartbeat CPU 0 instructions: 370000002 cycles: 185917458 heartbeat IPC: 1.26 cumulative IPC: 1.845 (Simulation time: 00 hr 35 min 08 sec)
Heartbeat CPU 0 instructions: 380000003 cycles: 194379423 heartbeat IPC: 1.182 cumulative IPC: 1.814 (Simulation time: 00 hr 36 min 31 sec)
Heartbeat CPU 0 instructions: 390000000 cycles: 203255201 heartbeat IPC: 1.127 cumulative IPC: 1.782 (Simulation time: 00 hr 37 min 56 sec)
Heartbeat CPU 0 instructions: 400000000 cycles: 212234922 heartbeat IPC: 1.114 cumulative IPC: 1.752 (Simulation time: 00 hr 39 min 28 sec)
Heartbeat CPU 0 instructions: 410000002 cycles: 221237005 heartbeat IPC: 1.111 cumulative IPC: 1.725 (Simulation time: 00 hr 41 min 05 sec)
Heartbeat CPU 0 instructions: 420000000 cycles: 230161539 heartbeat IPC: 1.121 cumulative IPC: 1.7 (Simulation time: 00 hr 42 min 54 sec)
Heartbeat CPU 0 instructions: 430000002 cycles: 239031590 heartbeat IPC: 1.127 cumulative IPC: 1.677 (Simulation time: 00 hr 44 min 33 sec)
Heartbeat CPU 0 instructions: 440000004 cycles: 377810301 heartbeat IPC: 0.07206 cumulative IPC: 1.068 (Simulation time: 01 hr 04 min 56 sec)
Heartbeat CPU 0 instructions: 450000003 cycles: 386496021 heartbeat IPC: 1.151 cumulative IPC: 1.07 (Simulation time: 01 hr 06 min 36 sec)
Heartbeat CPU 0 instructions: 460000004 cycles: 395334090 heartbeat IPC: 1.131 cumulative IPC: 1.071 (Simulation time: 01 hr 08 min 20 sec)
Heartbeat CPU 0 instructions: 470000002 cycles: 404016943 heartbeat IPC: 1.152 cumulative IPC: 1.073 (Simulation time: 01 hr 09 min 59 sec)
Heartbeat CPU 0 instructions: 480000004 cycles: 413007852 heartbeat IPC: 1.112 cumulative IPC: 1.074 (Simulation time: 01 hr 11 min 44 sec)
Heartbeat CPU 0 instructions: 490000002 cycles: 421873782 heartbeat IPC: 1.128 cumulative IPC: 1.075 (Simulation time: 01 hr 13 min 31 sec)
Heartbeat CPU 0 instructions: 500000003 cycles: 436683033 heartbeat IPC: 0.6753 cumulative IPC: 1.061 (Simulation time: 01 hr 16 min 08 sec)
Heartbeat CPU 0 instructions: 510000000 cycles: 452600644 heartbeat IPC: 0.6282 cumulative IPC: 1.045 (Simulation time: 01 hr 19 min 11 sec)
Heartbeat CPU 0 instructions: 520000000 cycles: 468592059 heartbeat IPC: 0.6253 cumulative IPC: 1.03 (Simulation time: 01 hr 22 min 07 sec)
Heartbeat CPU 0 instructions: 530000004 cycles: 484695480 heartbeat IPC: 0.621 cumulative IPC: 1.017 (Simulation time: 01 hr 25 min 06 sec)
Heartbeat CPU 0 instructions: 540000002 cycles: 500861346 heartbeat IPC: 0.6186 cumulative IPC: 1.003 (Simulation time: 01 hr 27 min 56 sec)
Heartbeat CPU 0 instructions: 550000002 cycles: 513379708 heartbeat IPC: 0.7988 cumulative IPC: 0.9982 (Simulation time: 01 hr 30 min 05 sec)
Heartbeat CPU 0 instructions: 560000000 cycles: 524610891 heartbeat IPC: 0.8904 cumulative IPC: 0.9959 (Simulation time: 01 hr 32 min 57 sec)
Heartbeat CPU 0 instructions: 570000002 cycles: 535834683 heartbeat IPC: 0.891 cumulative IPC: 0.9936 (Simulation time: 01 hr 34 min 40 sec)
Heartbeat CPU 0 instructions: 580000003 cycles: 547070368 heartbeat IPC: 0.89 cumulative IPC: 0.9915 (Simulation time: 01 hr 36 min 39 sec)
Heartbeat CPU 0 instructions: 590000003 cycles: 558231892 heartbeat IPC: 0.8959 cumulative IPC: 0.9895 (Simulation time: 01 hr 38 min 50 sec)
*** Reached end of trace: (0, "traces/lu.A.champsimtrace")
Heartbeat CPU 0 instructions: 600000001 cycles: 569509086 heartbeat IPC: 0.8867 cumulative IPC: 0.9874 (Simulation time: 01 hr 40 min 58 sec)
Heartbeat CPU 0 instructions: 610000000 cycles: 573508008 heartbeat IPC: 2.501 cumulative IPC: 0.9982 (Simulation time: 01 hr 41 min 51 sec)
Heartbeat CPU 0 instructions: 620000000 cycles: 576142651 heartbeat IPC: 3.796 cumulative IPC: 1.011 (Simulation time: 01 hr 42 min 31 sec)
Heartbeat CPU 0 instructions: 630000004 cycles: 578778536 heartbeat IPC: 3.794 cumulative IPC: 1.024 (Simulation time: 01 hr 43 min 10 sec)
Heartbeat CPU 0 instructions: 640000002 cycles: 581413159 heartbeat IPC: 3.796 cumulative IPC: 1.037 (Simulation time: 01 hr 43 min 50 sec)
Heartbeat CPU 0 instructions: 650000001 cycles: 584047798 heartbeat IPC: 3.796 cumulative IPC: 1.05 (Simulation time: 01 hr 44 min 30 sec)
Simulation finished CPU 0 instructions: 600000001 cycles: 571547596 cumulative IPC: 1.05 (Simulation time: 01 hr 44 min 30 sec)
Simulation complete CPU 0 instructions: 600000001 cycles: 571547596 cumulative IPC: 1.05 (Simulation time: 01 hr 44 min 30 sec)

ChampSim completed all CPUs

=== Simulation ===
CPU 0 runs traces/lu.A.champsimtrace
Region of Interest Statistics

CPU 0 cumulative IPC: 1.05 instructions: 600000001 cycles: 571547596
CPU 0 Branch Prediction Accuracy: 96.65% MPKI: 0.6426 Average ROB Occupancy at Mispredict: 329.9
Branch type MPKI
BRANCH_DIRECT_JUMP: 5e-06
BRANCH_INDIRECT: 7.33e-05
BRANCH_CONDITIONAL: 0.642
BRANCH_DIRECT_CALL: 6.67e-06
BRANCH_INDIRECT_CALL: 3.17e-05
BRANCH_RETURN: 1.83e-05

LLC TOTAL        ACCESS:    5107154 HIT:     334568 MISS:    4772586
LLC LOAD         ACCESS:    2481301 HIT:     163832 MISS:    2317469
LLC RFO          ACCESS:     831678 HIT:      37904 MISS:     793774
LLC PREFETCH     ACCESS:          0 HIT:          0 MISS:          0
LLC WRITE        ACCESS:    1782319 HIT:     129574 MISS:    1652745
LLC TRANSLATION  ACCESS:      11856 HIT:       3258 MISS:       8598
LLC PREFETCH REQUESTED:          0 ISSUED:          0 USEFUL:          0 USELESS:          0
LLC AVERAGE MISS LATENCY: 665.7 cycles
cpu0_DTLB TOTAL        ACCESS:  116120725 HIT:  108901531 MISS:    7219194
cpu0_DTLB LOAD         ACCESS:  116120725 HIT:  108901531 MISS:    7219194
cpu0_DTLB RFO          ACCESS:          0 HIT:          0 MISS:          0
cpu0_DTLB PREFETCH     ACCESS:          0 HIT:          0 MISS:          0
cpu0_DTLB WRITE        ACCESS:          0 HIT:          0 MISS:          0
cpu0_DTLB TRANSLATION  ACCESS:          0 HIT:          0 MISS:          0
cpu0_DTLB PREFETCH REQUESTED:          0 ISSUED:          0 USEFUL:          0 USELESS:          0
cpu0_DTLB AVERAGE MISS LATENCY: 6.47 cycles
cpu0_ITLB TOTAL        ACCESS:     712124 HIT:     711915 MISS:        209
cpu0_ITLB LOAD         ACCESS:     712124 HIT:     711915 MISS:        209
cpu0_ITLB RFO          ACCESS:          0 HIT:          0 MISS:          0
cpu0_ITLB PREFETCH     ACCESS:          0 HIT:          0 MISS:          0
cpu0_ITLB WRITE        ACCESS:          0 HIT:          0 MISS:          0
cpu0_ITLB TRANSLATION  ACCESS:          0 HIT:          0 MISS:          0
cpu0_ITLB PREFETCH REQUESTED:          0 ISSUED:          0 USEFUL:          0 USELESS:          0
cpu0_ITLB AVERAGE MISS LATENCY: 265.7 cycles
cpu0_L1D TOTAL        ACCESS:  167677673 HIT:  158078709 MISS:    9598964
cpu0_L1D LOAD         ACCESS:  130618350 HIT:  124813493 MISS:    5804857
cpu0_L1D RFO          ACCESS:          0 HIT:          0 MISS:          0
cpu0_L1D PREFETCH     ACCESS:          0 HIT:          0 MISS:          0
cpu0_L1D WRITE        ACCESS:   37006726 HIT:   33237534 MISS:    3769192
cpu0_L1D TRANSLATION  ACCESS:      52597 HIT:      27682 MISS:      24915
cpu0_L1D PREFETCH REQUESTED:          0 ISSUED:          0 USEFUL:          0 USELESS:          0
cpu0_L1D AVERAGE MISS LATENCY: 317.4 cycles
cpu0_L1I TOTAL        ACCESS:    1089636 HIT:    1086906 MISS:       2730
cpu0_L1I LOAD         ACCESS:    1089636 HIT:    1086906 MISS:       2730
cpu0_L1I RFO          ACCESS:          0 HIT:          0 MISS:          0
cpu0_L1I PREFETCH     ACCESS:          0 HIT:          0 MISS:          0
cpu0_L1I WRITE        ACCESS:          0 HIT:          0 MISS:          0
cpu0_L1I TRANSLATION  ACCESS:          0 HIT:          0 MISS:          0
cpu0_L1I PREFETCH REQUESTED:          0 ISSUED:          0 USEFUL:          0 USELESS:          0
cpu0_L1I AVERAGE MISS LATENCY: 493.3 cycles
cpu0_L2C TOTAL        ACCESS:    5977285 HIT:    2648105 MISS:    3329180
cpu0_L2C LOAD         ACCESS:    3056970 HIT:     575669 MISS:    2481301
cpu0_L2C RFO          ACCESS:     878198 HIT:      46520 MISS:     831678
cpu0_L2C PREFETCH     ACCESS:          0 HIT:          0 MISS:          0
cpu0_L2C WRITE        ACCESS:    2017249 HIT:    2012904 MISS:       4345
cpu0_L2C TRANSLATION  ACCESS:      24868 HIT:      13012 MISS:      11856
cpu0_L2C PREFETCH REQUESTED:          0 ISSUED:          0 USEFUL:          0 USELESS:          0
cpu0_L2C AVERAGE MISS LATENCY: 975.3 cycles
cpu0_STLB TOTAL        ACCESS:    3989333 HIT:    3936747 MISS:      52586
cpu0_STLB LOAD         ACCESS:    3989333 HIT:    3936747 MISS:      52586
cpu0_STLB RFO          ACCESS:          0 HIT:          0 MISS:          0
cpu0_STLB PREFETCH     ACCESS:          0 HIT:          0 MISS:          0
cpu0_STLB WRITE        ACCESS:          0 HIT:          0 MISS:          0
cpu0_STLB TRANSLATION  ACCESS:          0 HIT:          0 MISS:          0
cpu0_STLB PREFETCH REQUESTED:          0 ISSUED:          0 USEFUL:          0 USELESS:          0
cpu0_STLB AVERAGE MISS LATENCY: 696.6 cycles

DRAM Statistics

Channel 0 RQ ROW_BUFFER_HIT:     773702
  ROW_BUFFER_MISS:    2344068
 AVG DBUS CONGESTED CYCLE: 3.925
WQ ROW_BUFFER_HIT: Channel 0 
  ROW_BUFFER_MISS:     505433
  FULL:    1190324
