WARNING: physical memory size is smaller than virtual memory size.

*** ChampSim Multicore Out-of-Order Simulator ***
Warmup Instructions: 50000000
Simulation Instructions: 600000000
Number of CPUs: 1
Page size: 4096

Off-chip DRAM Size: 4 GiB Channels: 1 Width: 64-bit Data Race: 3200 MT/s
Heartbeat CPU 0 instructions: 10000000 cycles: 2500202 heartbeat IPC: 4 cumulative IPC: 4 (Simulation time: 00 hr 00 min 21 sec)
Heartbeat CPU 0 instructions: 20000000 cycles: 5000202 heartbeat IPC: 4 cumulative IPC: 4 (Simulation time: 00 hr 00 min 49 sec)
Heartbeat CPU 0 instructions: 30000000 cycles: 7500202 heartbeat IPC: 4 cumulative IPC: 4 (Simulation time: 00 hr 01 min 23 sec)
Heartbeat CPU 0 instructions: 40000000 cycles: 10000202 heartbeat IPC: 4 cumulative IPC: 4 (Simulation time: 00 hr 02 min 00 sec)
Heartbeat CPU 0 instructions: 50000000 cycles: 12500202 heartbeat IPC: 4 cumulative IPC: 4 (Simulation time: 00 hr 02 min 35 sec)
Warmup finished CPU 0 instructions: 50000000 cycles: 12500203 cumulative IPC: 4 (Simulation time: 00 hr 02 min 35 sec)
Warmup complete CPU 0 instructions: 50000000 cycles: 12500203 cumulative IPC: 4 (Simulation time: 00 hr 02 min 35 sec)
Heartbeat CPU 0 instructions: 60000004 cycles: 15003357 heartbeat IPC: 3.995 cumulative IPC: 3.995 (Simulation time: 00 hr 03 min 21 sec)
Heartbeat CPU 0 instructions: 70000003 cycles: 17505108 heartbeat IPC: 3.997 cumulative IPC: 3.996 (Simulation time: 00 hr 04 min 04 sec)
Heartbeat CPU 0 instructions: 80000004 cycles: 20007017 heartbeat IPC: 3.997 cumulative IPC: 3.996 (Simulation time: 00 hr 04 min 47 sec)
Heartbeat CPU 0 instructions: 90000000 cycles: 22511132 heartbeat IPC: 3.993 cumulative IPC: 3.996 (Simulation time: 00 hr 05 min 31 sec)
Heartbeat CPU 0 instructions: 100000001 cycles: 25012871 heartbeat IPC: 3.997 cumulative IPC: 3.996 (Simulation time: 00 hr 06 min 15 sec)
Heartbeat CPU 0 instructions: 110000000 cycles: 27514634 heartbeat IPC: 3.997 cumulative IPC: 3.996 (Simulation time: 00 hr 06 min 58 sec)
Heartbeat CPU 0 instructions: 120000004 cycles: 30017314 heartbeat IPC: 3.996 cumulative IPC: 3.996 (Simulation time: 00 hr 07 min 41 sec)
Heartbeat CPU 0 instructions: 130000000 cycles: 32520551 heartbeat IPC: 3.995 cumulative IPC: 3.996 (Simulation time: 00 hr 08 min 23 sec)
Heartbeat CPU 0 instructions: 140000004 cycles: 35022303 heartbeat IPC: 3.997 cumulative IPC: 3.996 (Simulation time: 00 hr 09 min 04 sec)
Heartbeat CPU 0 instructions: 150000000 cycles: 37525049 heartbeat IPC: 3.996 cumulative IPC: 3.996 (Simulation time: 00 hr 09 min 47 sec)
Heartbeat CPU 0 instructions: 160000001 cycles: 40027691 heartbeat IPC: 3.996 cumulative IPC: 3.996 (Simulation time: 00 hr 10 min 28 sec)
Heartbeat CPU 0 instructions: 170000000 cycles: 42529529 heartbeat IPC: 3.997 cumulative IPC: 3.996 (Simulation time: 00 hr 11 min 08 sec)
Heartbeat CPU 0 instructions: 180000003 cycles: 45031419 heartbeat IPC: 3.997 cumulative IPC: 3.996 (Simulation time: 00 hr 11 min 48 sec)
Heartbeat CPU 0 instructions: 190000000 cycles: 47533633 heartbeat IPC: 3.996 cumulative IPC: 3.996 (Simulation time: 00 hr 12 min 28 sec)
Heartbeat CPU 0 instructions: 200000004 cycles: 50037345 heartbeat IPC: 3.994 cumulative IPC: 3.996 (Simulation time: 00 hr 13 min 07 sec)
Heartbeat CPU 0 instructions: 210000004 cycles: 52539096 heartbeat IPC: 3.997 cumulative IPC: 3.996 (Simulation time: 00 hr 13 min 45 sec)
Heartbeat CPU 0 instructions: 220000001 cycles: 55041938 heartbeat IPC: 3.995 cumulative IPC: 3.996 (Simulation time: 00 hr 14 min 23 sec)
Heartbeat CPU 0 instructions: 230000000 cycles: 57543692 heartbeat IPC: 3.997 cumulative IPC: 3.996 (Simulation time: 00 hr 15 min 01 sec)
Heartbeat CPU 0 instructions: 240000000 cycles: 89527247 heartbeat IPC: 0.3127 cumulative IPC: 2.467 (Simulation time: 00 hr 18 min 38 sec)
Heartbeat CPU 0 instructions: 250000000 cycles: 98230530 heartbeat IPC: 1.149 cumulative IPC: 2.333 (Simulation time: 00 hr 20 min 11 sec)
Heartbeat CPU 0 instructions: 260000001 cycles: 106917718 heartbeat IPC: 1.151 cumulative IPC: 2.224 (Simulation time: 00 hr 21 min 51 sec)
Heartbeat CPU 0 instructions: 270000001 cycles: 114281931 heartbeat IPC: 1.358 cumulative IPC: 2.161 (Simulation time: 00 hr 23 min 14 sec)
Heartbeat CPU 0 instructions: 280000003 cycles: 119961539 heartbeat IPC: 1.761 cumulative IPC: 2.14 (Simulation time: 00 hr 24 min 21 sec)
Heartbeat CPU 0 instructions: 290000001 cycles: 125612386 heartbeat IPC: 1.77 cumulative IPC: 2.122 (Simulation time: 00 hr 25 min 28 sec)
Heartbeat CPU 0 instructions: 300000002 cycles: 131293900 heartbeat IPC: 1.76 cumulative IPC: 2.104 (Simulation time: 00 hr 26 min 33 sec)
Heartbeat CPU 0 instructions: 310000002 cycles: 136961358 heartbeat IPC: 1.764 cumulative IPC: 2.089 (Simulation time: 00 hr 27 min 34 sec)
Heartbeat CPU 0 instructions: 320000000 cycles: 143258721 heartbeat IPC: 1.588 cumulative IPC: 2.065 (Simulation time: 00 hr 28 min 40 sec)
Heartbeat CPU 0 instructions: 330000002 cycles: 151327816 heartbeat IPC: 1.239 cumulative IPC: 2.017 (Simulation time: 00 hr 30 min 00 sec)
Heartbeat CPU 0 instructions: 340000004 cycles: 159402831 heartbeat IPC: 1.238 cumulative IPC: 1.974 (Simulation time: 00 hr 31 min 19 sec)
Heartbeat CPU 0 instructions: 350000003 cycles: 167464640 heartbeat IPC: 1.24 cumulative IPC: 1.936 (Simulation time: 00 hr 32 min 38 sec)
Heartbeat CPU 0 instructions: 360000001 cycles: 175577996 heartbeat IPC: 1.233 cumulative IPC: 1.901 (Simulation time: 00 hr 33 min 58 sec)
Heartbeat CPU 0 instructions: 370000002 cycles: 183522698 heartbeat IPC: 1.259 cumulative IPC: 1.871 (Simulation time: 00 hr 35 min 16 sec)
Heartbeat CPU 0 instructions: 380000003 cycles: 191975570 heartbeat IPC: 1.183 cumulative IPC: 1.839 (Simulation time: 00 hr 36 min 39 sec)
Heartbeat CPU 0 instructions: 390000000 cycles: 200852446 heartbeat IPC: 1.127 cumulative IPC: 1.805 (Simulation time: 00 hr 38 min 06 sec)
Heartbeat CPU 0 instructions: 400000000 cycles: 209832167 heartbeat IPC: 1.114 cumulative IPC: 1.774 (Simulation time: 00 hr 39 min 40 sec)
Heartbeat CPU 0 instructions: 410000002 cycles: 218839415 heartbeat IPC: 1.11 cumulative IPC: 1.745 (Simulation time: 00 hr 41 min 21 sec)
Heartbeat CPU 0 instructions: 420000000 cycles: 227763949 heartbeat IPC: 1.121 cumulative IPC: 1.719 (Simulation time: 00 hr 43 min 08 sec)
Heartbeat CPU 0 instructions: 430000002 cycles: 236634000 heartbeat IPC: 1.127 cumulative IPC: 1.695 (Simulation time: 00 hr 44 min 48 sec)
Heartbeat CPU 0 instructions: 440000004 cycles: 375371091 heartbeat IPC: 0.07208 cumulative IPC: 1.075 (Simulation time: 01 hr 05 min 34 sec)
Heartbeat CPU 0 instructions: 450000003 cycles: 384054821 heartbeat IPC: 1.152 cumulative IPC: 1.077 (Simulation time: 01 hr 07 min 16 sec)
Heartbeat CPU 0 instructions: 460000004 cycles: 392892885 heartbeat IPC: 1.131 cumulative IPC: 1.078 (Simulation time: 01 hr 08 min 55 sec)
Heartbeat CPU 0 instructions: 470000002 cycles: 401576258 heartbeat IPC: 1.152 cumulative IPC: 1.079 (Simulation time: 01 hr 10 min 35 sec)
Heartbeat CPU 0 instructions: 480000004 cycles: 410557077 heartbeat IPC: 1.113 cumulative IPC: 1.08 (Simulation time: 01 hr 12 min 22 sec)
Heartbeat CPU 0 instructions: 490000002 cycles: 419425703 heartbeat IPC: 1.128 cumulative IPC: 1.081 (Simulation time: 01 hr 14 min 07 sec)
Heartbeat CPU 0 instructions: 500000003 cycles: 434168760 heartbeat IPC: 0.6783 cumulative IPC: 1.067 (Simulation time: 01 hr 16 min 48 sec)
Heartbeat CPU 0 instructions: 510000004 cycles: 450124401 heartbeat IPC: 0.6267 cumulative IPC: 1.051 (Simulation time: 01 hr 19 min 52 sec)
Heartbeat CPU 0 instructions: 520000000 cycles: 466196678 heartbeat IPC: 0.6222 cumulative IPC: 1.036 (Simulation time: 01 hr 22 min 48 sec)
Heartbeat CPU 0 instructions: 530000003 cycles: 482350561 heartbeat IPC: 0.619 cumulative IPC: 1.022 (Simulation time: 01 hr 25 min 53 sec)
Heartbeat CPU 0 instructions: 540000002 cycles: 498539581 heartbeat IPC: 0.6177 cumulative IPC: 1.008 (Simulation time: 01 hr 28 min 41 sec)
Heartbeat CPU 0 instructions: 550000002 cycles: 511024193 heartbeat IPC: 0.801 cumulative IPC: 1.003 (Simulation time: 01 hr 31 min 41 sec)
Heartbeat CPU 0 instructions: 560000000 cycles: 522251716 heartbeat IPC: 0.8907 cumulative IPC: 1 (Simulation time: 01 hr 33 min 38 sec)
Heartbeat CPU 0 instructions: 570000002 cycles: 533495751 heartbeat IPC: 0.8894 cumulative IPC: 0.9981 (Simulation time: 01 hr 35 min 31 sec)
Heartbeat CPU 0 instructions: 580000003 cycles: 544711723 heartbeat IPC: 0.8916 cumulative IPC: 0.9958 (Simulation time: 01 hr 37 min 38 sec)
Heartbeat CPU 0 instructions: 590000003 cycles: 555880322 heartbeat IPC: 0.8954 cumulative IPC: 0.9938 (Simulation time: 01 hr 39 min 46 sec)
*** Reached end of trace: (0, "traces/lu.A.champsimtrace")
Heartbeat CPU 0 instructions: 600000001 cycles: 567129379 heartbeat IPC: 0.889 cumulative IPC: 0.9917 (Simulation time: 01 hr 41 min 51 sec)
Heartbeat CPU 0 instructions: 610000000 cycles: 571061605 heartbeat IPC: 2.543 cumulative IPC: 1.003 (Simulation time: 01 hr 42 min 40 sec)
Heartbeat CPU 0 instructions: 620000000 cycles: 573563384 heartbeat IPC: 3.997 cumulative IPC: 1.016 (Simulation time: 01 hr 43 min 21 sec)
Heartbeat CPU 0 instructions: 630000004 cycles: 576067068 heartbeat IPC: 3.994 cumulative IPC: 1.029 (Simulation time: 01 hr 44 min 02 sec)
Heartbeat CPU 0 instructions: 640000002 cycles: 578568818 heartbeat IPC: 3.997 cumulative IPC: 1.042 (Simulation time: 01 hr 44 min 42 sec)
Heartbeat CPU 0 instructions: 650000001 cycles: 581070906 heartbeat IPC: 3.997 cumulative IPC: 1.055 (Simulation time: 01 hr 45 min 22 sec)
Simulation finished CPU 0 instructions: 600000001 cycles: 568570704 cumulative IPC: 1.055 (Simulation time: 01 hr 45 min 22 sec)
Simulation complete CPU 0 instructions: 600000001 cycles: 568570704 cumulative IPC: 1.055 (Simulation time: 01 hr 45 min 22 sec)

ChampSim completed all CPUs

=== Simulation ===
CPU 0 runs traces/lu.A.champsimtrace
Region of Interest Statistics

CPU 0 cumulative IPC: 1.055 instructions: 600000001 cycles: 568570704
CPU 0 Branch Prediction Accuracy: 98.73% MPKI: 0.2427 Average ROB Occupancy at Mispredict: 326.6
Branch type MPKI
BRANCH_DIRECT_JUMP: 5e-06
BRANCH_INDIRECT: 7.33e-05
BRANCH_CONDITIONAL: 0.243
BRANCH_DIRECT_CALL: 6.67e-06
BRANCH_INDIRECT_CALL: 3.17e-05
BRANCH_RETURN: 1.83e-05

LLC TOTAL        ACCESS:    5107189 HIT:     334873 MISS:    4772316
LLC LOAD         ACCESS:    2481326 HIT:     163845 MISS:    2317481
LLC RFO          ACCESS:     831675 HIT:      37915 MISS:     793760
LLC PREFETCH     ACCESS:          0 HIT:          0 MISS:          0
LLC WRITE        ACCESS:    1782337 HIT:     129811 MISS:    1652526
LLC TRANSLATION  ACCESS:      11851 HIT:       3302 MISS:       8549
LLC PREFETCH REQUESTED:          0 ISSUED:          0 USEFUL:          0 USELESS:          0
LLC AVERAGE MISS LATENCY: 664 cycles
cpu0_DTLB TOTAL        ACCESS:  123197850 HIT:  115974903 MISS:    7222947
cpu0_DTLB LOAD         ACCESS:  123197850 HIT:  115974903 MISS:    7222947
cpu0_DTLB RFO          ACCESS:          0 HIT:          0 MISS:          0
cpu0_DTLB PREFETCH     ACCESS:          0 HIT:          0 MISS:          0
cpu0_DTLB WRITE        ACCESS:          0 HIT:          0 MISS:          0
cpu0_DTLB TRANSLATION  ACCESS:          0 HIT:          0 MISS:          0
cpu0_DTLB PREFETCH REQUESTED:          0 ISSUED:          0 USEFUL:          0 USELESS:          0
cpu0_DTLB AVERAGE MISS LATENCY: 6.424 cycles
cpu0_ITLB TOTAL        ACCESS:     719669 HIT:     719467 MISS:        202
cpu0_ITLB LOAD         ACCESS:     719669 HIT:     719467 MISS:        202
cpu0_ITLB RFO          ACCESS:          0 HIT:          0 MISS:          0
cpu0_ITLB PREFETCH     ACCESS:          0 HIT:          0 MISS:          0
cpu0_ITLB WRITE        ACCESS:          0 HIT:          0 MISS:          0
cpu0_ITLB TRANSLATION  ACCESS:          0 HIT:          0 MISS:          0
cpu0_ITLB PREFETCH REQUESTED:          0 ISSUED:          0 USEFUL:          0 USELESS:          0
cpu0_ITLB AVERAGE MISS LATENCY: 288.5 cycles
cpu0_L1D TOTAL        ACCESS:  176521951 HIT:  166944515 MISS:    9577436
cpu0_L1D LOAD         ACCESS:  139462610 HIT:  133650847 MISS:    5811763
cpu0_L1D RFO          ACCESS:          0 HIT:          0 MISS:          0
cpu0_L1D PREFETCH     ACCESS:          0 HIT:          0 MISS:          0
cpu0_L1D WRITE        ACCESS:   37006745 HIT:   33265967 MISS:    3740778
cpu0_L1D TRANSLATION  ACCESS:      52596 HIT:      27701 MISS:      24895
cpu0_L1D PREFETCH REQUESTED:          0 ISSUED:          0 USEFUL:          0 USELESS:          0
cpu0_L1D AVERAGE MISS LATENCY: 317.7 cycles
cpu0_L1I TOTAL        ACCESS:    1106286 HIT:    1103571 MISS:       2715
cpu0_L1I LOAD         ACCESS:    1106286 HIT:    1103571 MISS:       2715
cpu0_L1I RFO          ACCESS:          0 HIT:          0 MISS:          0
cpu0_L1I PREFETCH     ACCESS:          0 HIT:          0 MISS:          0
cpu0_L1I WRITE        ACCESS:          0 HIT:          0 MISS:          0
cpu0_L1I TRANSLATION  ACCESS:          0 HIT:          0 MISS:          0
cpu0_L1I PREFETCH REQUESTED:          0 ISSUED:          0 USEFUL:          0 USELESS:          0
cpu0_L1I AVERAGE MISS LATENCY: 491.1 cycles
cpu0_L2C TOTAL        ACCESS:    5978006 HIT:    2648818 MISS:    3329188
cpu0_L2C LOAD         ACCESS:    3057395 HIT:     576069 MISS:    2481326
cpu0_L2C RFO          ACCESS:     878211 HIT:      46536 MISS:     831675
cpu0_L2C PREFETCH     ACCESS:          0 HIT:          0 MISS:          0
cpu0_L2C WRITE        ACCESS:    2017553 HIT:    2013217 MISS:       4336
cpu0_L2C TRANSLATION  ACCESS:      24847 HIT:      12996 MISS:      11851
cpu0_L2C PREFETCH REQUESTED:          0 ISSUED:          0 USEFUL:          0 USELESS:          0
cpu0_L2C AVERAGE MISS LATENCY: 972.7 cycles
cpu0_STLB TOTAL        ACCESS:    3989313 HIT:    3936727 MISS:      52586
cpu0_STLB LOAD         ACCESS:    3989313 HIT:    3936727 MISS:      52586
cpu0_STLB RFO          ACCESS:          0 HIT:          0 MISS:          0
cpu0_STLB PREFETCH     ACCESS:          0 HIT:          0 MISS:          0
cpu0_STLB WRITE        ACCESS:          0 HIT:          0 MISS:          0
cpu0_STLB TRANSLATION  ACCESS:          0 HIT:          0 MISS:          0
cpu0_STLB PREFETCH REQUESTED:          0 ISSUED:          0 USEFUL:          0 USELESS:          0
cpu0_STLB AVERAGE MISS LATENCY: 687.4 cycles

DRAM Statistics

Channel 0 RQ ROW_BUFFER_HIT:     782946
  ROW_BUFFER_MISS:    2334721
 AVG DBUS CONGESTED CYCLE: 3.926
WQ ROW_BUFFER_HIT: Channel 0 
  ROW_BUFFER_MISS:     493144
  FULL:    1202371
