WARNING: physical memory size is smaller than virtual memory size.

*** ChampSim Multicore Out-of-Order Simulator ***
Warmup Instructions: 50000000
Simulation Instructions: 600000000
Number of CPUs: 1
Page size: 4096

CPU 0 Tage branch predictor
Off-chip DRAM Size: 4 GiB Channels: 1 Width: 64-bit Data Race: 3200 MT/s
Heartbeat CPU 0 instructions: 10000000 cycles: 2500202 heartbeat IPC: 4 cumulative IPC: 4 (Simulation time: 00 hr 00 min 59 sec)
Heartbeat CPU 0 instructions: 20000000 cycles: 5000202 heartbeat IPC: 4 cumulative IPC: 4 (Simulation time: 00 hr 01 min 58 sec)
Heartbeat CPU 0 instructions: 30000000 cycles: 7500202 heartbeat IPC: 4 cumulative IPC: 4 (Simulation time: 00 hr 02 min 57 sec)
Heartbeat CPU 0 instructions: 40000000 cycles: 10000202 heartbeat IPC: 4 cumulative IPC: 4 (Simulation time: 00 hr 03 min 56 sec)
Heartbeat CPU 0 instructions: 50000000 cycles: 12500202 heartbeat IPC: 4 cumulative IPC: 4 (Simulation time: 00 hr 04 min 55 sec)
Warmup finished CPU 0 instructions: 50000000 cycles: 12500203 cumulative IPC: 4 (Simulation time: 00 hr 04 min 55 sec)
Warmup complete CPU 0 instructions: 50000000 cycles: 12500203 cumulative IPC: 4 (Simulation time: 00 hr 04 min 55 sec)
Heartbeat CPU 0 instructions: 60000004 cycles: 15000207 heartbeat IPC: 4 cumulative IPC: 4 (Simulation time: 00 hr 06 min 02 sec)
Heartbeat CPU 0 instructions: 70000001 cycles: 17500204 heartbeat IPC: 4 cumulative IPC: 4 (Simulation time: 00 hr 07 min 09 sec)
Heartbeat CPU 0 instructions: 80000004 cycles: 20000721 heartbeat IPC: 3.999 cumulative IPC: 4 (Simulation time: 00 hr 08 min 16 sec)
Heartbeat CPU 0 instructions: 90000000 cycles: 22502387 heartbeat IPC: 3.997 cumulative IPC: 3.999 (Simulation time: 00 hr 09 min 23 sec)
Heartbeat CPU 0 instructions: 100000004 cycles: 25002875 heartbeat IPC: 3.999 cumulative IPC: 3.999 (Simulation time: 00 hr 10 min 29 sec)
Heartbeat CPU 0 instructions: 110000003 cycles: 27504532 heartbeat IPC: 3.997 cumulative IPC: 3.999 (Simulation time: 00 hr 11 min 36 sec)
Heartbeat CPU 0 instructions: 120000004 cycles: 30006118 heartbeat IPC: 3.997 cumulative IPC: 3.999 (Simulation time: 00 hr 12 min 42 sec)
Heartbeat CPU 0 instructions: 130000004 cycles: 32506922 heartbeat IPC: 3.999 cumulative IPC: 3.999 (Simulation time: 00 hr 13 min 49 sec)
Heartbeat CPU 0 instructions: 140000004 cycles: 35008136 heartbeat IPC: 3.998 cumulative IPC: 3.999 (Simulation time: 00 hr 14 min 56 sec)
Heartbeat CPU 0 instructions: 150000000 cycles: 37510539 heartbeat IPC: 3.996 cumulative IPC: 3.998 (Simulation time: 00 hr 16 min 04 sec)
Heartbeat CPU 0 instructions: 160000001 cycles: 40012172 heartbeat IPC: 3.997 cumulative IPC: 3.998 (Simulation time: 00 hr 17 min 12 sec)
Heartbeat CPU 0 instructions: 170000000 cycles: 42512406 heartbeat IPC: 4 cumulative IPC: 3.998 (Simulation time: 00 hr 18 min 19 sec)
Heartbeat CPU 0 instructions: 180000003 cycles: 45017418 heartbeat IPC: 3.992 cumulative IPC: 3.998 (Simulation time: 00 hr 19 min 28 sec)
Heartbeat CPU 0 instructions: 190000003 cycles: 47519036 heartbeat IPC: 3.997 cumulative IPC: 3.998 (Simulation time: 00 hr 20 min 36 sec)
Heartbeat CPU 0 instructions: 200000002 cycles: 50021561 heartbeat IPC: 3.996 cumulative IPC: 3.998 (Simulation time: 00 hr 21 min 45 sec)
Heartbeat CPU 0 instructions: 210000000 cycles: 52522302 heartbeat IPC: 3.999 cumulative IPC: 3.998 (Simulation time: 00 hr 22 min 53 sec)
Heartbeat CPU 0 instructions: 220000002 cycles: 55025668 heartbeat IPC: 3.995 cumulative IPC: 3.998 (Simulation time: 00 hr 24 min 01 sec)
Heartbeat CPU 0 instructions: 230000003 cycles: 57527408 heartbeat IPC: 3.997 cumulative IPC: 3.998 (Simulation time: 00 hr 25 min 09 sec)
Heartbeat CPU 0 instructions: 240000002 cycles: 92113225 heartbeat IPC: 0.2891 cumulative IPC: 2.387 (Simulation time: 00 hr 31 min 46 sec)
Heartbeat CPU 0 instructions: 250000000 cycles: 101147645 heartbeat IPC: 1.107 cumulative IPC: 2.256 (Simulation time: 00 hr 34 min 18 sec)
Heartbeat CPU 0 instructions: 260000003 cycles: 110023685 heartbeat IPC: 1.127 cumulative IPC: 2.153 (Simulation time: 00 hr 36 min 49 sec)
Heartbeat CPU 0 instructions: 270000004 cycles: 120019344 heartbeat IPC: 1 cumulative IPC: 2.046 (Simulation time: 00 hr 39 min 37 sec)
Heartbeat CPU 0 instructions: 280000003 cycles: 129962555 heartbeat IPC: 1.006 cumulative IPC: 1.958 (Simulation time: 00 hr 42 min 22 sec)
Heartbeat CPU 0 instructions: 290000000 cycles: 136151713 heartbeat IPC: 1.616 cumulative IPC: 1.941 (Simulation time: 00 hr 44 min 21 sec)
Heartbeat CPU 0 instructions: 300000003 cycles: 141375372 heartbeat IPC: 1.914 cumulative IPC: 1.94 (Simulation time: 00 hr 46 min 05 sec)
Heartbeat CPU 0 instructions: 310000003 cycles: 146354100 heartbeat IPC: 2.009 cumulative IPC: 1.942 (Simulation time: 00 hr 47 min 47 sec)
Heartbeat CPU 0 instructions: 320000003 cycles: 152181893 heartbeat IPC: 1.716 cumulative IPC: 1.933 (Simulation time: 00 hr 49 min 40 sec)
Heartbeat CPU 0 instructions: 330000003 cycles: 157981371 heartbeat IPC: 1.724 cumulative IPC: 1.925 (Simulation time: 00 hr 51 min 35 sec)
Heartbeat CPU 0 instructions: 340000001 cycles: 165701463 heartbeat IPC: 1.295 cumulative IPC: 1.893 (Simulation time: 00 hr 53 min 54 sec)
Heartbeat CPU 0 instructions: 350000001 cycles: 173446071 heartbeat IPC: 1.291 cumulative IPC: 1.864 (Simulation time: 00 hr 56 min 13 sec)
Heartbeat CPU 0 instructions: 360000001 cycles: 181238587 heartbeat IPC: 1.283 cumulative IPC: 1.837 (Simulation time: 00 hr 58 min 33 sec)
Heartbeat CPU 0 instructions: 370000002 cycles: 189044383 heartbeat IPC: 1.281 cumulative IPC: 1.813 (Simulation time: 01 hr 00 min 52 sec)
Heartbeat CPU 0 instructions: 380000001 cycles: 197423553 heartbeat IPC: 1.193 cumulative IPC: 1.785 (Simulation time: 01 hr 03 min 20 sec)
Heartbeat CPU 0 instructions: 390000003 cycles: 205713980 heartbeat IPC: 1.206 cumulative IPC: 1.76 (Simulation time: 01 hr 05 min 53 sec)
Heartbeat CPU 0 instructions: 400000004 cycles: 214848516 heartbeat IPC: 1.095 cumulative IPC: 1.73 (Simulation time: 01 hr 08 min 50 sec)
Heartbeat CPU 0 instructions: 410000001 cycles: 224023018 heartbeat IPC: 1.09 cumulative IPC: 1.702 (Simulation time: 01 hr 11 min 31 sec)
Heartbeat CPU 0 instructions: 420000000 cycles: 233199918 heartbeat IPC: 1.09 cumulative IPC: 1.676 (Simulation time: 01 hr 14 min 12 sec)
Heartbeat CPU 0 instructions: 430000003 cycles: 242382983 heartbeat IPC: 1.089 cumulative IPC: 1.653 (Simulation time: 01 hr 16 min 53 sec)
Heartbeat CPU 0 instructions: 440000004 cycles: 391674760 heartbeat IPC: 0.06698 cumulative IPC: 1.029 (Simulation time: 01 hr 49 min 37 sec)
Heartbeat CPU 0 instructions: 450000002 cycles: 404289989 heartbeat IPC: 0.7927 cumulative IPC: 1.021 (Simulation time: 01 hr 53 min 00 sec)
Heartbeat CPU 0 instructions: 460000000 cycles: 413969239 heartbeat IPC: 1.033 cumulative IPC: 1.021 (Simulation time: 01 hr 55 min 45 sec)
Heartbeat CPU 0 instructions: 470000003 cycles: 423074808 heartbeat IPC: 1.098 cumulative IPC: 1.023 (Simulation time: 01 hr 58 min 24 sec)
Heartbeat CPU 0 instructions: 480000003 cycles: 432800803 heartbeat IPC: 1.028 cumulative IPC: 1.023 (Simulation time: 02 hr 01 min 12 sec)
Heartbeat CPU 0 instructions: 490000002 cycles: 442501155 heartbeat IPC: 1.031 cumulative IPC: 1.023 (Simulation time: 02 hr 03 min 58 sec)
Heartbeat CPU 0 instructions: 500000003 cycles: 455400755 heartbeat IPC: 0.7752 cumulative IPC: 1.016 (Simulation time: 02 hr 07 min 27 sec)
Heartbeat CPU 0 instructions: 510000001 cycles: 467699029 heartbeat IPC: 0.8131 cumulative IPC: 1.011 (Simulation time: 02 hr 10 min 54 sec)
Heartbeat CPU 0 instructions: 520000003 cycles: 481839926 heartbeat IPC: 0.7072 cumulative IPC: 1.001 (Simulation time: 02 hr 14 min 41 sec)
Heartbeat CPU 0 instructions: 530000001 cycles: 495894037 heartbeat IPC: 0.7115 cumulative IPC: 0.993 (Simulation time: 02 hr 18 min 37 sec)
Heartbeat CPU 0 instructions: 540000001 cycles: 509146291 heartbeat IPC: 0.7546 cumulative IPC: 0.9866 (Simulation time: 02 hr 22 min 13 sec)
Heartbeat CPU 0 instructions: 550000000 cycles: 519602539 heartbeat IPC: 0.9564 cumulative IPC: 0.986 (Simulation time: 02 hr 25 min 11 sec)
Heartbeat CPU 0 instructions: 560000002 cycles: 528334205 heartbeat IPC: 1.145 cumulative IPC: 0.9887 (Simulation time: 02 hr 27 min 45 sec)
Heartbeat CPU 0 instructions: 570000000 cycles: 537377524 heartbeat IPC: 1.106 cumulative IPC: 0.9907 (Simulation time: 02 hr 30 min 25 sec)
Heartbeat CPU 0 instructions: 580000001 cycles: 546546827 heartbeat IPC: 1.091 cumulative IPC: 0.9924 (Simulation time: 02 hr 33 min 05 sec)
Heartbeat CPU 0 instructions: 590000000 cycles: 555747245 heartbeat IPC: 1.087 cumulative IPC: 0.994 (Simulation time: 02 hr 35 min 45 sec)
*** Reached end of trace: (0, "traces/lu.A.champsimtrace")
Heartbeat CPU 0 instructions: 600000001 cycles: 565407604 heartbeat IPC: 1.035 cumulative IPC: 0.9947 (Simulation time: 02 hr 38 min 30 sec)
Heartbeat CPU 0 instructions: 610000004 cycles: 573164867 heartbeat IPC: 1.289 cumulative IPC: 0.9988 (Simulation time: 02 hr 40 min 42 sec)
Heartbeat CPU 0 instructions: 620000003 cycles: 575666020 heartbeat IPC: 3.998 cumulative IPC: 1.012 (Simulation time: 02 hr 41 min 52 sec)
Heartbeat CPU 0 instructions: 630000002 cycles: 578168264 heartbeat IPC: 3.996 cumulative IPC: 1.025 (Simulation time: 02 hr 43 min 01 sec)
Heartbeat CPU 0 instructions: 640000000 cycles: 580669385 heartbeat IPC: 3.998 cumulative IPC: 1.038 (Simulation time: 02 hr 44 min 10 sec)
Heartbeat CPU 0 instructions: 650000004 cycles: 583171195 heartbeat IPC: 3.997 cumulative IPC: 1.051 (Simulation time: 02 hr 45 min 19 sec)
Simulation finished CPU 0 instructions: 600000004 cycles: 570670993 cumulative IPC: 1.051 (Simulation time: 02 hr 45 min 19 sec)
Simulation complete CPU 0 instructions: 600000004 cycles: 570670993 cumulative IPC: 1.051 (Simulation time: 02 hr 45 min 19 sec)

ChampSim completed all CPUs

=== Simulation ===
CPU 0 runs traces/lu.A.champsimtrace
Region of Interest Statistics

CPU 0 cumulative IPC: 1.051 instructions: 600000004 cycles: 570670993
CPU 0 Branch Prediction Accuracy: 99.98% MPKI: 0.0041 Average ROB Occupancy at Mispredict: 120.8
Branch type MPKI
BRANCH_DIRECT_JUMP: 5e-06
BRANCH_INDIRECT: 7.83e-05
BRANCH_CONDITIONAL: 0.00396
BRANCH_DIRECT_CALL: 6.67e-06
BRANCH_INDIRECT_CALL: 3.5e-05
BRANCH_RETURN: 1.83e-05

LLC TOTAL        ACCESS:    7722550 HIT:    2739793 MISS:    4982757
LLC LOAD         ACCESS:    2480866 HIT:    1429294 MISS:    1051572
LLC RFO          ACCESS:     831654 HIT:      49405 MISS:     782249
LLC PREFETCH     ACCESS:    2616281 HIT:     242894 MISS:    2373387
LLC WRITE        ACCESS:    1781910 HIT:    1015100 MISS:     766810
LLC TRANSLATION  ACCESS:      11839 HIT:       3100 MISS:       8739
LLC PREFETCH REQUESTED:    4428851 ISSUED:    2616281 USEFUL:    1726433 USELESS:      30299
LLC AVERAGE MISS LATENCY: 1392 cycles
cpu0_DTLB TOTAL        ACCESS:  125158901 HIT:  117721998 MISS:    7436903
cpu0_DTLB LOAD         ACCESS:  125158901 HIT:  117721998 MISS:    7436903
cpu0_DTLB RFO          ACCESS:          0 HIT:          0 MISS:          0
cpu0_DTLB PREFETCH     ACCESS:          0 HIT:          0 MISS:          0
cpu0_DTLB WRITE        ACCESS:          0 HIT:          0 MISS:          0
cpu0_DTLB TRANSLATION  ACCESS:          0 HIT:          0 MISS:          0
cpu0_DTLB PREFETCH REQUESTED:          0 ISSUED:          0 USEFUL:          0 USELESS:          0
cpu0_DTLB AVERAGE MISS LATENCY: 7.363 cycles
cpu0_ITLB TOTAL        ACCESS:    1255532 HIT:    1255302 MISS:        230
cpu0_ITLB LOAD         ACCESS:    1255532 HIT:    1255302 MISS:        230
cpu0_ITLB RFO          ACCESS:          0 HIT:          0 MISS:          0
cpu0_ITLB PREFETCH     ACCESS:          0 HIT:          0 MISS:          0
cpu0_ITLB WRITE        ACCESS:          0 HIT:          0 MISS:          0
cpu0_ITLB TRANSLATION  ACCESS:          0 HIT:          0 MISS:          0
cpu0_ITLB PREFETCH REQUESTED:          0 ISSUED:          0 USEFUL:          0 USELESS:          0
cpu0_ITLB AVERAGE MISS LATENCY: 413.5 cycles
cpu0_L1D TOTAL        ACCESS:  178819030 HIT:  169246587 MISS:    9572443
cpu0_L1D LOAD         ACCESS:  141766953 HIT:  135942265 MISS:    5824688
cpu0_L1D RFO          ACCESS:          0 HIT:          0 MISS:          0
cpu0_L1D PREFETCH     ACCESS:          0 HIT:          0 MISS:          0
cpu0_L1D WRITE        ACCESS:   36999479 HIT:   33277107 MISS:    3722372
cpu0_L1D TRANSLATION  ACCESS:      52598 HIT:      27215 MISS:      25383
cpu0_L1D PREFETCH REQUESTED:          0 ISSUED:          0 USEFUL:          0 USELESS:          0
cpu0_L1D AVERAGE MISS LATENCY: 294.2 cycles
cpu0_L1I TOTAL        ACCESS:    1575469 HIT:    1572538 MISS:       2931
cpu0_L1I LOAD         ACCESS:    1575469 HIT:    1572538 MISS:       2931
cpu0_L1I RFO          ACCESS:          0 HIT:          0 MISS:          0
cpu0_L1I PREFETCH     ACCESS:          0 HIT:          0 MISS:          0
cpu0_L1I WRITE        ACCESS:          0 HIT:          0 MISS:          0
cpu0_L1I TRANSLATION  ACCESS:          0 HIT:          0 MISS:          0
cpu0_L1I PREFETCH REQUESTED:          0 ISSUED:          0 USEFUL:          0 USELESS:          0
cpu0_L1I AVERAGE MISS LATENCY: 515.6 cycles
cpu0_L2C TOTAL        ACCESS:    5963969 HIT:    2635356 MISS:    3328613
cpu0_L2C LOAD         ACCESS:    3057552 HIT:     576686 MISS:    2480866
cpu0_L2C RFO          ACCESS:     876900 HIT:      45246 MISS:     831654
cpu0_L2C PREFETCH     ACCESS:          0 HIT:          0 MISS:          0
cpu0_L2C WRITE        ACCESS:    2004183 HIT:    1999929 MISS:       4254
cpu0_L2C TRANSLATION  ACCESS:      25334 HIT:      13495 MISS:      11839
cpu0_L2C PREFETCH REQUESTED:          0 ISSUED:          0 USEFUL:          0 USELESS:          0
cpu0_L2C AVERAGE MISS LATENCY: 909.3 cycles
cpu0_STLB TOTAL        ACCESS:    4047412 HIT:    3994829 MISS:      52583
cpu0_STLB LOAD         ACCESS:    4047412 HIT:    3994829 MISS:      52583
cpu0_STLB RFO          ACCESS:          0 HIT:          0 MISS:          0
cpu0_STLB PREFETCH     ACCESS:          0 HIT:          0 MISS:          0
cpu0_STLB WRITE        ACCESS:          0 HIT:          0 MISS:          0
cpu0_STLB TRANSLATION  ACCESS:          0 HIT:          0 MISS:          0
cpu0_STLB PREFETCH REQUESTED:          0 ISSUED:          0 USEFUL:          0 USELESS:          0
cpu0_STLB AVERAGE MISS LATENCY: 904.3 cycles

DRAM Statistics

Channel 0 RQ ROW_BUFFER_HIT:     759602
  ROW_BUFFER_MISS:    2354048
 AVG DBUS CONGESTED CYCLE: 3.975
WQ ROW_BUFFER_HIT: Channel 0 
  ROW_BUFFER_MISS:     319094
  FULL:    1348635
Final OPTGen Hits: 27671
Final OPTGen Access: 52585
Final OPTGEN Hit Rate: 52.6215
