WARNING: physical memory size is smaller than virtual memory size.

*** ChampSim Multicore Out-of-Order Simulator ***
Warmup Instructions: 50000000
Simulation Instructions: 600000000
Number of CPUs: 1
Page size: 4096

CPU 0 Tage branch predictor
Off-chip DRAM Size: 4 GiB Channels: 1 Width: 64-bit Data Race: 3200 MT/s
Heartbeat CPU 0 instructions: 10000001 cycles: 2500202 heartbeat IPC: 4 cumulative IPC: 4 (Simulation time: 00 hr 01 min 15 sec)
Heartbeat CPU 0 instructions: 20000001 cycles: 5000202 heartbeat IPC: 4 cumulative IPC: 4 (Simulation time: 00 hr 02 min 39 sec)
Heartbeat CPU 0 instructions: 30000001 cycles: 7500202 heartbeat IPC: 4 cumulative IPC: 4 (Simulation time: 00 hr 06 min 01 sec)
Heartbeat CPU 0 instructions: 40000001 cycles: 10000202 heartbeat IPC: 4 cumulative IPC: 4 (Simulation time: 00 hr 08 min 48 sec)
Heartbeat CPU 0 instructions: 50000001 cycles: 12500202 heartbeat IPC: 4 cumulative IPC: 4 (Simulation time: 00 hr 11 min 35 sec)
Warmup finished CPU 0 instructions: 50000001 cycles: 12500203 cumulative IPC: 4 (Simulation time: 00 hr 11 min 35 sec)
Warmup complete CPU 0 instructions: 50000001 cycles: 12500203 cumulative IPC: 4 (Simulation time: 00 hr 11 min 35 sec)
Heartbeat CPU 0 instructions: 60000001 cycles: 15000238 heartbeat IPC: 4 cumulative IPC: 4 (Simulation time: 00 hr 14 min 27 sec)
Heartbeat CPU 0 instructions: 70000004 cycles: 17500264 heartbeat IPC: 4 cumulative IPC: 4 (Simulation time: 00 hr 17 min 32 sec)
Heartbeat CPU 0 instructions: 80000003 cycles: 20000296 heartbeat IPC: 4 cumulative IPC: 4 (Simulation time: 00 hr 20 min 27 sec)
Heartbeat CPU 0 instructions: 90000003 cycles: 22501933 heartbeat IPC: 3.997 cumulative IPC: 3.999 (Simulation time: 00 hr 23 min 12 sec)
Heartbeat CPU 0 instructions: 100000002 cycles: 25001953 heartbeat IPC: 4 cumulative IPC: 3.999 (Simulation time: 00 hr 25 min 55 sec)
Heartbeat CPU 0 instructions: 110000002 cycles: 27502556 heartbeat IPC: 3.999 cumulative IPC: 3.999 (Simulation time: 00 hr 29 min 19 sec)
Heartbeat CPU 0 instructions: 120000001 cycles: 30003736 heartbeat IPC: 3.998 cumulative IPC: 3.999 (Simulation time: 00 hr 31 min 51 sec)
Heartbeat CPU 0 instructions: 130000001 cycles: 32503916 heartbeat IPC: 4 cumulative IPC: 3.999 (Simulation time: 00 hr 35 min 35 sec)
Heartbeat CPU 0 instructions: 140000002 cycles: 35003917 heartbeat IPC: 4 cumulative IPC: 3.999 (Simulation time: 00 hr 39 min 28 sec)
Heartbeat CPU 0 instructions: 150000004 cycles: 37504818 heartbeat IPC: 3.999 cumulative IPC: 3.999 (Simulation time: 00 hr 42 min 23 sec)
Heartbeat CPU 0 instructions: 160000003 cycles: 40005855 heartbeat IPC: 3.998 cumulative IPC: 3.999 (Simulation time: 00 hr 45 min 37 sec)
Heartbeat CPU 0 instructions: 170000003 cycles: 42505855 heartbeat IPC: 4 cumulative IPC: 3.999 (Simulation time: 00 hr 48 min 28 sec)
Heartbeat CPU 0 instructions: 180000002 cycles: 45008059 heartbeat IPC: 3.996 cumulative IPC: 3.999 (Simulation time: 00 hr 52 min 06 sec)
Heartbeat CPU 0 instructions: 190000000 cycles: 47509508 heartbeat IPC: 3.998 cumulative IPC: 3.999 (Simulation time: 00 hr 55 min 20 sec)
Heartbeat CPU 0 instructions: 200000001 cycles: 50010788 heartbeat IPC: 3.998 cumulative IPC: 3.999 (Simulation time: 00 hr 58 min 37 sec)
Heartbeat CPU 0 instructions: 210000001 cycles: 52511556 heartbeat IPC: 3.999 cumulative IPC: 3.999 (Simulation time: 01 hr 01 min 23 sec)
Heartbeat CPU 0 instructions: 220000002 cycles: 55013594 heartbeat IPC: 3.997 cumulative IPC: 3.999 (Simulation time: 01 hr 04 min 40 sec)
Heartbeat CPU 0 instructions: 230000001 cycles: 57513594 heartbeat IPC: 4 cumulative IPC: 3.999 (Simulation time: 01 hr 07 min 25 sec)
Heartbeat CPU 0 instructions: 240000003 cycles: 90960602 heartbeat IPC: 0.299 cumulative IPC: 2.422 (Simulation time: 01 hr 14 min 28 sec)
Heartbeat CPU 0 instructions: 250000004 cycles: 100224011 heartbeat IPC: 1.08 cumulative IPC: 2.28 (Simulation time: 01 hr 17 min 49 sec)
Heartbeat CPU 0 instructions: 260000004 cycles: 108972256 heartbeat IPC: 1.143 cumulative IPC: 2.177 (Simulation time: 01 hr 21 min 05 sec)
Heartbeat CPU 0 instructions: 270000001 cycles: 117753151 heartbeat IPC: 1.139 cumulative IPC: 2.09 (Simulation time: 01 hr 24 min 03 sec)
Heartbeat CPU 0 instructions: 280000003 cycles: 123376209 heartbeat IPC: 1.778 cumulative IPC: 2.074 (Simulation time: 01 hr 26 min 29 sec)
Heartbeat CPU 0 instructions: 290000003 cycles: 129536742 heartbeat IPC: 1.623 cumulative IPC: 2.051 (Simulation time: 01 hr 28 min 51 sec)
Heartbeat CPU 0 instructions: 300000000 cycles: 135943628 heartbeat IPC: 1.561 cumulative IPC: 2.025 (Simulation time: 01 hr 31 min 30 sec)
Heartbeat CPU 0 instructions: 310000002 cycles: 141867592 heartbeat IPC: 1.688 cumulative IPC: 2.01 (Simulation time: 01 hr 34 min 38 sec)
Heartbeat CPU 0 instructions: 320000001 cycles: 148190406 heartbeat IPC: 1.582 cumulative IPC: 1.99 (Simulation time: 01 hr 37 min 47 sec)
Heartbeat CPU 0 instructions: 330000001 cycles: 156302667 heartbeat IPC: 1.233 cumulative IPC: 1.947 (Simulation time: 01 hr 41 min 23 sec)
Heartbeat CPU 0 instructions: 340000000 cycles: 163990975 heartbeat IPC: 1.301 cumulative IPC: 1.914 (Simulation time: 01 hr 45 min 06 sec)
Heartbeat CPU 0 instructions: 350000000 cycles: 171836147 heartbeat IPC: 1.275 cumulative IPC: 1.883 (Simulation time: 01 hr 48 min 33 sec)
Heartbeat CPU 0 instructions: 360000003 cycles: 179492555 heartbeat IPC: 1.306 cumulative IPC: 1.856 (Simulation time: 01 hr 52 min 22 sec)
Heartbeat CPU 0 instructions: 370000000 cycles: 187247367 heartbeat IPC: 1.29 cumulative IPC: 1.831 (Simulation time: 01 hr 56 min 44 sec)
Heartbeat CPU 0 instructions: 380000000 cycles: 195008531 heartbeat IPC: 1.288 cumulative IPC: 1.808 (Simulation time: 02 hr 00 min 12 sec)
Heartbeat CPU 0 instructions: 390000000 cycles: 203235727 heartbeat IPC: 1.215 cumulative IPC: 1.783 (Simulation time: 02 hr 03 min 48 sec)
Heartbeat CPU 0 instructions: 400000001 cycles: 211889725 heartbeat IPC: 1.156 cumulative IPC: 1.755 (Simulation time: 02 hr 07 min 39 sec)
Heartbeat CPU 0 instructions: 410000004 cycles: 220547887 heartbeat IPC: 1.155 cumulative IPC: 1.73 (Simulation time: 02 hr 11 min 33 sec)
Heartbeat CPU 0 instructions: 420000002 cycles: 229226190 heartbeat IPC: 1.152 cumulative IPC: 1.707 (Simulation time: 02 hr 15 min 18 sec)
Heartbeat CPU 0 instructions: 430000002 cycles: 237984514 heartbeat IPC: 1.142 cumulative IPC: 1.685 (Simulation time: 02 hr 18 min 53 sec)
Heartbeat CPU 0 instructions: 440000003 cycles: 386704701 heartbeat IPC: 0.06724 cumulative IPC: 1.042 (Simulation time: 02 hr 52 min 28 sec)
Heartbeat CPU 0 instructions: 450000002 cycles: 396849511 heartbeat IPC: 0.9857 cumulative IPC: 1.041 (Simulation time: 02 hr 56 min 04 sec)
Heartbeat CPU 0 instructions: 460000004 cycles: 407600855 heartbeat IPC: 0.9301 cumulative IPC: 1.038 (Simulation time: 02 hr 59 min 48 sec)
Heartbeat CPU 0 instructions: 470000001 cycles: 418588968 heartbeat IPC: 0.9101 cumulative IPC: 1.034 (Simulation time: 03 hr 03 min 19 sec)
Heartbeat CPU 0 instructions: 480000001 cycles: 429418376 heartbeat IPC: 0.9234 cumulative IPC: 1.031 (Simulation time: 03 hr 06 min 40 sec)
Heartbeat CPU 0 instructions: 490000002 cycles: 440229433 heartbeat IPC: 0.925 cumulative IPC: 1.029 (Simulation time: 03 hr 10 min 07 sec)
Heartbeat CPU 0 instructions: 500000000 cycles: 453636292 heartbeat IPC: 0.7459 cumulative IPC: 1.02 (Simulation time: 03 hr 14 min 40 sec)
Heartbeat CPU 0 instructions: 510000001 cycles: 466566646 heartbeat IPC: 0.7734 cumulative IPC: 1.013 (Simulation time: 03 hr 18 min 40 sec)
Heartbeat CPU 0 instructions: 520000004 cycles: 479463002 heartbeat IPC: 0.7754 cumulative IPC: 1.007 (Simulation time: 03 hr 22 min 40 sec)
Heartbeat CPU 0 instructions: 530000002 cycles: 492161708 heartbeat IPC: 0.7875 cumulative IPC: 1.001 (Simulation time: 03 hr 27 min 07 sec)
Heartbeat CPU 0 instructions: 540000003 cycles: 504770130 heartbeat IPC: 0.7931 cumulative IPC: 0.9954 (Simulation time: 03 hr 31 min 21 sec)
Heartbeat CPU 0 instructions: 550000002 cycles: 513901679 heartbeat IPC: 1.095 cumulative IPC: 0.9972 (Simulation time: 03 hr 34 min 43 sec)
Heartbeat CPU 0 instructions: 560000001 cycles: 522990243 heartbeat IPC: 1.1 cumulative IPC: 0.999 (Simulation time: 03 hr 38 min 25 sec)
Heartbeat CPU 0 instructions: 570000001 cycles: 532600899 heartbeat IPC: 1.041 cumulative IPC: 0.9998 (Simulation time: 03 hr 42 min 16 sec)
Heartbeat CPU 0 instructions: 580000001 cycles: 542223050 heartbeat IPC: 1.039 cumulative IPC: 1.001 (Simulation time: 03 hr 45 min 58 sec)
Heartbeat CPU 0 instructions: 590000000 cycles: 551941930 heartbeat IPC: 1.029 cumulative IPC: 1.001 (Simulation time: 03 hr 49 min 36 sec)
*** Reached end of trace: (0, "traces/lu.A.champsimtrace")
Heartbeat CPU 0 instructions: 600000001 cycles: 561796063 heartbeat IPC: 1.015 cumulative IPC: 1.001 (Simulation time: 03 hr 53 min 05 sec)
Heartbeat CPU 0 instructions: 610000003 cycles: 569242469 heartbeat IPC: 1.343 cumulative IPC: 1.006 (Simulation time: 03 hr 56 min 06 sec)
Heartbeat CPU 0 instructions: 620000001 cycles: 571742944 heartbeat IPC: 3.999 cumulative IPC: 1.019 (Simulation time: 03 hr 59 min 00 sec)
Heartbeat CPU 0 instructions: 630000001 cycles: 574242944 heartbeat IPC: 4 cumulative IPC: 1.033 (Simulation time: 04 hr 01 min 17 sec)
Heartbeat CPU 0 instructions: 640000000 cycles: 576742945 heartbeat IPC: 4 cumulative IPC: 1.046 (Simulation time: 04 hr 03 min 47 sec)
Heartbeat CPU 0 instructions: 650000000 cycles: 579243106 heartbeat IPC: 4 cumulative IPC: 1.059 (Simulation time: 04 hr 06 min 06 sec)
Simulation finished CPU 0 instructions: 600000004 cycles: 566742905 cumulative IPC: 1.059 (Simulation time: 04 hr 06 min 06 sec)
Simulation complete CPU 0 instructions: 600000004 cycles: 566742905 cumulative IPC: 1.059 (Simulation time: 04 hr 06 min 06 sec)

ChampSim completed all CPUs

=== Simulation ===
CPU 0 runs traces/lu.A.champsimtrace
Region of Interest Statistics

CPU 0 cumulative IPC: 1.059 instructions: 600000004 cycles: 566742905
CPU 0 Branch Prediction Accuracy: 99.98% MPKI: 0.004082 Average ROB Occupancy at Mispredict: 120.4
Branch type MPKI
BRANCH_DIRECT_JUMP: 5e-06
BRANCH_INDIRECT: 7.67e-05
BRANCH_CONDITIONAL: 0.00394
BRANCH_DIRECT_CALL: 6.67e-06
BRANCH_INDIRECT_CALL: 3.33e-05
BRANCH_RETURN: 1.67e-05

LLC TOTAL        ACCESS:    7723065 HIT:    3078116 MISS:    4644949
LLC LOAD         ACCESS:    2481344 HIT:    1440901 MISS:    1040443
LLC RFO          ACCESS:     831688 HIT:      52503 MISS:     779185
LLC PREFETCH     ACCESS:    2615717 HIT:     258253 MISS:    2357464
LLC WRITE        ACCESS:    1782402 HIT:    1319436 MISS:     462966
LLC TRANSLATION  ACCESS:      11914 HIT:       7023 MISS:       4891
LLC PREFETCH REQUESTED:    4438479 ISSUED:    2615717 USEFUL:    1713785 USELESS:      39060
LLC AVERAGE MISS LATENCY: 1479 cycles
cpu0_DTLB TOTAL        ACCESS:  124965456 HIT:  117614462 MISS:    7350994
cpu0_DTLB LOAD         ACCESS:  124965456 HIT:  117614462 MISS:    7350994
cpu0_DTLB RFO          ACCESS:          0 HIT:          0 MISS:          0
cpu0_DTLB PREFETCH     ACCESS:          0 HIT:          0 MISS:          0
cpu0_DTLB WRITE        ACCESS:          0 HIT:          0 MISS:          0
cpu0_DTLB TRANSLATION  ACCESS:          0 HIT:          0 MISS:          0
cpu0_DTLB PREFETCH REQUESTED:          0 ISSUED:          0 USEFUL:          0 USELESS:          0
cpu0_DTLB AVERAGE MISS LATENCY: 6.203 cycles
cpu0_ITLB TOTAL        ACCESS:    1256313 HIT:    1256084 MISS:        229
cpu0_ITLB LOAD         ACCESS:    1256313 HIT:    1256084 MISS:        229
cpu0_ITLB RFO          ACCESS:          0 HIT:          0 MISS:          0
cpu0_ITLB PREFETCH     ACCESS:          0 HIT:          0 MISS:          0
cpu0_ITLB WRITE        ACCESS:          0 HIT:          0 MISS:          0
cpu0_ITLB TRANSLATION  ACCESS:          0 HIT:          0 MISS:          0
cpu0_ITLB PREFETCH REQUESTED:          0 ISSUED:          0 USEFUL:          0 USELESS:          0
cpu0_ITLB AVERAGE MISS LATENCY: 384.6 cycles
cpu0_L1D TOTAL        ACCESS:  178880423 HIT:  169204721 MISS:    9675702
cpu0_L1D LOAD         ACCESS:  141828085 HIT:  135956250 MISS:    5871835
cpu0_L1D RFO          ACCESS:          0 HIT:          0 MISS:          0
cpu0_L1D PREFETCH     ACCESS:          0 HIT:          0 MISS:          0
cpu0_L1D WRITE        ACCESS:   36999726 HIT:   33220767 MISS:    3778959
cpu0_L1D TRANSLATION  ACCESS:      52612 HIT:      27704 MISS:      24908
cpu0_L1D PREFETCH REQUESTED:          0 ISSUED:          0 USEFUL:          0 USELESS:          0
cpu0_L1D AVERAGE MISS LATENCY: 285.1 cycles
cpu0_L1I TOTAL        ACCESS:    1576815 HIT:    1573929 MISS:       2886
cpu0_L1I LOAD         ACCESS:    1576815 HIT:    1573929 MISS:       2886
cpu0_L1I RFO          ACCESS:          0 HIT:          0 MISS:          0
cpu0_L1I PREFETCH     ACCESS:          0 HIT:          0 MISS:          0
cpu0_L1I WRITE        ACCESS:          0 HIT:          0 MISS:          0
cpu0_L1I TRANSLATION  ACCESS:          0 HIT:          0 MISS:          0
cpu0_L1I PREFETCH REQUESTED:          0 ISSUED:          0 USEFUL:          0 USELESS:          0
cpu0_L1I AVERAGE MISS LATENCY: 518.1 cycles
cpu0_L2C TOTAL        ACCESS:    5996505 HIT:    2667381 MISS:    3329124
cpu0_L2C LOAD         ACCESS:    3069516 HIT:     588172 MISS:    2481344
cpu0_L2C RFO          ACCESS:     880389 HIT:      48701 MISS:     831688
cpu0_L2C PREFETCH     ACCESS:          0 HIT:          0 MISS:          0
cpu0_L2C WRITE        ACCESS:    2021738 HIT:    2017560 MISS:       4178
cpu0_L2C TRANSLATION  ACCESS:      24862 HIT:      12948 MISS:      11914
cpu0_L2C PREFETCH REQUESTED:          0 ISSUED:          0 USEFUL:          0 USELESS:          0
cpu0_L2C AVERAGE MISS LATENCY: 889.9 cycles
cpu0_STLB TOTAL        ACCESS:    3993245 HIT:    3940650 MISS:      52595
cpu0_STLB LOAD         ACCESS:    3993245 HIT:    3940650 MISS:      52595
cpu0_STLB RFO          ACCESS:          0 HIT:          0 MISS:          0
cpu0_STLB PREFETCH     ACCESS:          0 HIT:          0 MISS:          0
cpu0_STLB WRITE        ACCESS:          0 HIT:          0 MISS:          0
cpu0_STLB TRANSLATION  ACCESS:          0 HIT:          0 MISS:          0
cpu0_STLB PREFETCH REQUESTED:          0 ISSUED:          0 USEFUL:          0 USELESS:          0
cpu0_STLB AVERAGE MISS LATENCY: 670 cycles

DRAM Statistics

Channel 0 RQ ROW_BUFFER_HIT:     740558
  ROW_BUFFER_MISS:    2351136
 AVG DBUS CONGESTED CYCLE: 3.976
WQ ROW_BUFFER_HIT: Channel 0 
  ROW_BUFFER_MISS:     297292
  FULL:    1350456
