WARNING: physical memory size is smaller than virtual memory size.

*** ChampSim Multicore Out-of-Order Simulator ***
Warmup Instructions: 50000000
Simulation Instructions: 600000000
Number of CPUs: 1
Page size: 4096

Off-chip DRAM Size: 4 GiB Channels: 1 Width: 64-bit Data Race: 3200 MT/s
Heartbeat CPU 0 instructions: 10000000 cycles: 2500202 heartbeat IPC: 4 cumulative IPC: 4 (Simulation time: 00 hr 00 min 31 sec)
Heartbeat CPU 0 instructions: 20000000 cycles: 5000202 heartbeat IPC: 4 cumulative IPC: 4 (Simulation time: 00 hr 01 min 02 sec)
Heartbeat CPU 0 instructions: 30000000 cycles: 7500202 heartbeat IPC: 4 cumulative IPC: 4 (Simulation time: 00 hr 01 min 34 sec)
Heartbeat CPU 0 instructions: 40000000 cycles: 10000202 heartbeat IPC: 4 cumulative IPC: 4 (Simulation time: 00 hr 02 min 06 sec)
Heartbeat CPU 0 instructions: 50000000 cycles: 12500202 heartbeat IPC: 4 cumulative IPC: 4 (Simulation time: 00 hr 02 min 38 sec)
Warmup finished CPU 0 instructions: 50000000 cycles: 12500203 cumulative IPC: 4 (Simulation time: 00 hr 02 min 38 sec)
Warmup complete CPU 0 instructions: 50000000 cycles: 12500203 cumulative IPC: 4 (Simulation time: 00 hr 02 min 38 sec)
Heartbeat CPU 0 instructions: 60000004 cycles: 15135979 heartbeat IPC: 3.794 cumulative IPC: 3.794 (Simulation time: 00 hr 03 min 13 sec)
Heartbeat CPU 0 instructions: 70000003 cycles: 17771311 heartbeat IPC: 3.795 cumulative IPC: 3.794 (Simulation time: 00 hr 03 min 49 sec)
Heartbeat CPU 0 instructions: 80000003 cycles: 20406380 heartbeat IPC: 3.795 cumulative IPC: 3.795 (Simulation time: 00 hr 04 min 25 sec)
Heartbeat CPU 0 instructions: 90000004 cycles: 23042626 heartbeat IPC: 3.793 cumulative IPC: 3.794 (Simulation time: 00 hr 05 min 01 sec)
Heartbeat CPU 0 instructions: 100000002 cycles: 25677454 heartbeat IPC: 3.795 cumulative IPC: 3.794 (Simulation time: 00 hr 05 min 37 sec)
Heartbeat CPU 0 instructions: 110000003 cycles: 28312805 heartbeat IPC: 3.795 cumulative IPC: 3.794 (Simulation time: 00 hr 06 min 13 sec)
Heartbeat CPU 0 instructions: 120000004 cycles: 30948415 heartbeat IPC: 3.794 cumulative IPC: 3.794 (Simulation time: 00 hr 06 min 52 sec)
Heartbeat CPU 0 instructions: 130000000 cycles: 33583690 heartbeat IPC: 3.795 cumulative IPC: 3.794 (Simulation time: 00 hr 07 min 28 sec)
Heartbeat CPU 0 instructions: 140000004 cycles: 36218772 heartbeat IPC: 3.795 cumulative IPC: 3.794 (Simulation time: 00 hr 08 min 04 sec)
Heartbeat CPU 0 instructions: 150000000 cycles: 38853861 heartbeat IPC: 3.795 cumulative IPC: 3.795 (Simulation time: 00 hr 08 min 40 sec)
Heartbeat CPU 0 instructions: 160000001 cycles: 41488718 heartbeat IPC: 3.795 cumulative IPC: 3.795 (Simulation time: 00 hr 09 min 17 sec)
Heartbeat CPU 0 instructions: 170000000 cycles: 44123812 heartbeat IPC: 3.795 cumulative IPC: 3.795 (Simulation time: 00 hr 09 min 55 sec)
Heartbeat CPU 0 instructions: 180000003 cycles: 46759857 heartbeat IPC: 3.794 cumulative IPC: 3.795 (Simulation time: 00 hr 10 min 31 sec)
Heartbeat CPU 0 instructions: 190000000 cycles: 49395119 heartbeat IPC: 3.795 cumulative IPC: 3.795 (Simulation time: 00 hr 11 min 07 sec)
Heartbeat CPU 0 instructions: 200000004 cycles: 52030723 heartbeat IPC: 3.794 cumulative IPC: 3.795 (Simulation time: 00 hr 11 min 42 sec)
Heartbeat CPU 0 instructions: 210000004 cycles: 54666211 heartbeat IPC: 3.794 cumulative IPC: 3.795 (Simulation time: 00 hr 12 min 18 sec)
Heartbeat CPU 0 instructions: 220000001 cycles: 57301549 heartbeat IPC: 3.795 cumulative IPC: 3.795 (Simulation time: 00 hr 12 min 57 sec)
Heartbeat CPU 0 instructions: 230000002 cycles: 59936864 heartbeat IPC: 3.795 cumulative IPC: 3.795 (Simulation time: 00 hr 13 min 33 sec)
Heartbeat CPU 0 instructions: 240000000 cycles: 98372963 heartbeat IPC: 0.2602 cumulative IPC: 2.213 (Simulation time: 00 hr 17 min 25 sec)
Heartbeat CPU 0 instructions: 250000001 cycles: 109188411 heartbeat IPC: 0.9246 cumulative IPC: 2.069 (Simulation time: 00 hr 19 min 02 sec)
Heartbeat CPU 0 instructions: 260000001 cycles: 120032513 heartbeat IPC: 0.9222 cumulative IPC: 1.953 (Simulation time: 00 hr 20 min 39 sec)
Heartbeat CPU 0 instructions: 270000001 cycles: 130319436 heartbeat IPC: 0.9721 cumulative IPC: 1.867 (Simulation time: 00 hr 22 min 12 sec)
Heartbeat CPU 0 instructions: 280000002 cycles: 137994045 heartbeat IPC: 1.303 cumulative IPC: 1.833 (Simulation time: 00 hr 23 min 27 sec)
Heartbeat CPU 0 instructions: 290000001 cycles: 145194127 heartbeat IPC: 1.389 cumulative IPC: 1.809 (Simulation time: 00 hr 24 min 38 sec)
Heartbeat CPU 0 instructions: 300000002 cycles: 152352194 heartbeat IPC: 1.397 cumulative IPC: 1.788 (Simulation time: 00 hr 25 min 50 sec)
Heartbeat CPU 0 instructions: 310000002 cycles: 159535195 heartbeat IPC: 1.392 cumulative IPC: 1.768 (Simulation time: 00 hr 27 min 02 sec)
Heartbeat CPU 0 instructions: 320000002 cycles: 166999228 heartbeat IPC: 1.34 cumulative IPC: 1.748 (Simulation time: 00 hr 28 min 16 sec)
Heartbeat CPU 0 instructions: 330000002 cycles: 175403839 heartbeat IPC: 1.19 cumulative IPC: 1.719 (Simulation time: 00 hr 29 min 36 sec)
Heartbeat CPU 0 instructions: 340000004 cycles: 183744268 heartbeat IPC: 1.199 cumulative IPC: 1.693 (Simulation time: 00 hr 30 min 56 sec)
Heartbeat CPU 0 instructions: 350000003 cycles: 192097771 heartbeat IPC: 1.197 cumulative IPC: 1.67 (Simulation time: 00 hr 32 min 16 sec)
Heartbeat CPU 0 instructions: 360000001 cycles: 200507186 heartbeat IPC: 1.189 cumulative IPC: 1.649 (Simulation time: 00 hr 33 min 38 sec)
Heartbeat CPU 0 instructions: 370000002 cycles: 208848541 heartbeat IPC: 1.199 cumulative IPC: 1.63 (Simulation time: 00 hr 34 min 58 sec)
Heartbeat CPU 0 instructions: 380000003 cycles: 217384398 heartbeat IPC: 1.172 cumulative IPC: 1.611 (Simulation time: 00 hr 36 min 21 sec)
Heartbeat CPU 0 instructions: 390000000 cycles: 226404368 heartbeat IPC: 1.109 cumulative IPC: 1.589 (Simulation time: 00 hr 37 min 48 sec)
Heartbeat CPU 0 instructions: 400000000 cycles: 235447476 heartbeat IPC: 1.106 cumulative IPC: 1.57 (Simulation time: 00 hr 39 min 17 sec)
Heartbeat CPU 0 instructions: 410000000 cycles: 244495291 heartbeat IPC: 1.105 cumulative IPC: 1.552 (Simulation time: 00 hr 40 min 49 sec)
Heartbeat CPU 0 instructions: 420000002 cycles: 253587553 heartbeat IPC: 1.1 cumulative IPC: 1.535 (Simulation time: 00 hr 42 min 18 sec)
Heartbeat CPU 0 instructions: 430000002 cycles: 262627867 heartbeat IPC: 1.106 cumulative IPC: 1.519 (Simulation time: 00 hr 43 min 47 sec)
Heartbeat CPU 0 instructions: 440000004 cycles: 416602074 heartbeat IPC: 0.06495 cumulative IPC: 0.9651 (Simulation time: 01 hr 02 min 54 sec)
Heartbeat CPU 0 instructions: 450000003 cycles: 427860746 heartbeat IPC: 0.8882 cumulative IPC: 0.963 (Simulation time: 01 hr 04 min 40 sec)
Heartbeat CPU 0 instructions: 460000004 cycles: 439012718 heartbeat IPC: 0.8967 cumulative IPC: 0.9613 (Simulation time: 01 hr 06 min 23 sec)
Heartbeat CPU 0 instructions: 470000001 cycles: 450146412 heartbeat IPC: 0.8982 cumulative IPC: 0.9597 (Simulation time: 01 hr 08 min 06 sec)
Heartbeat CPU 0 instructions: 480000000 cycles: 461253264 heartbeat IPC: 0.9003 cumulative IPC: 0.9582 (Simulation time: 01 hr 09 min 48 sec)
Heartbeat CPU 0 instructions: 490000004 cycles: 472715560 heartbeat IPC: 0.8724 cumulative IPC: 0.9561 (Simulation time: 01 hr 11 min 34 sec)
Heartbeat CPU 0 instructions: 500000002 cycles: 486342357 heartbeat IPC: 0.7338 cumulative IPC: 0.9497 (Simulation time: 01 hr 13 min 36 sec)
Heartbeat CPU 0 instructions: 510000004 cycles: 499837615 heartbeat IPC: 0.741 cumulative IPC: 0.9439 (Simulation time: 01 hr 15 min 36 sec)
Heartbeat CPU 0 instructions: 520000000 cycles: 513521960 heartbeat IPC: 0.7308 cumulative IPC: 0.9381 (Simulation time: 01 hr 17 min 38 sec)
Heartbeat CPU 0 instructions: 530000003 cycles: 527189315 heartbeat IPC: 0.7317 cumulative IPC: 0.9326 (Simulation time: 01 hr 19 min 42 sec)
Heartbeat CPU 0 instructions: 540000002 cycles: 540741025 heartbeat IPC: 0.7379 cumulative IPC: 0.9276 (Simulation time: 01 hr 21 min 46 sec)
Heartbeat CPU 0 instructions: 550000002 cycles: 551357707 heartbeat IPC: 0.9419 cumulative IPC: 0.9279 (Simulation time: 01 hr 23 min 21 sec)
Heartbeat CPU 0 instructions: 560000000 cycles: 561364736 heartbeat IPC: 0.9993 cumulative IPC: 0.9292 (Simulation time: 01 hr 24 min 51 sec)
Heartbeat CPU 0 instructions: 570000002 cycles: 571420780 heartbeat IPC: 0.9944 cumulative IPC: 0.9304 (Simulation time: 01 hr 26 min 22 sec)
Heartbeat CPU 0 instructions: 580000003 cycles: 581511142 heartbeat IPC: 0.991 cumulative IPC: 0.9314 (Simulation time: 01 hr 27 min 55 sec)
Heartbeat CPU 0 instructions: 590000003 cycles: 591568132 heartbeat IPC: 0.9943 cumulative IPC: 0.9325 (Simulation time: 01 hr 29 min 26 sec)
*** Reached end of trace: (0, "traces/lu.A.champsimtrace")
Heartbeat CPU 0 instructions: 600000001 cycles: 601699984 heartbeat IPC: 0.987 cumulative IPC: 0.9335 (Simulation time: 01 hr 30 min 58 sec)
Heartbeat CPU 0 instructions: 610000000 cycles: 609175338 heartbeat IPC: 1.338 cumulative IPC: 0.9385 (Simulation time: 01 hr 32 min 07 sec)
Heartbeat CPU 0 instructions: 620000000 cycles: 611810152 heartbeat IPC: 3.795 cumulative IPC: 0.9511 (Simulation time: 01 hr 32 min 42 sec)
Heartbeat CPU 0 instructions: 630000004 cycles: 614445428 heartbeat IPC: 3.795 cumulative IPC: 0.9635 (Simulation time: 01 hr 33 min 18 sec)
Heartbeat CPU 0 instructions: 640000002 cycles: 617080053 heartbeat IPC: 3.796 cumulative IPC: 0.9759 (Simulation time: 01 hr 33 min 54 sec)
Heartbeat CPU 0 instructions: 650000001 cycles: 619714900 heartbeat IPC: 3.795 cumulative IPC: 0.9881 (Simulation time: 01 hr 34 min 30 sec)
Simulation finished CPU 0 instructions: 600000001 cycles: 607214698 cumulative IPC: 0.9881 (Simulation time: 01 hr 34 min 30 sec)
Simulation complete CPU 0 instructions: 600000001 cycles: 607214698 cumulative IPC: 0.9881 (Simulation time: 01 hr 34 min 30 sec)

ChampSim completed all CPUs

=== Simulation ===
CPU 0 runs traces/lu.A.champsimtrace
Region of Interest Statistics

CPU 0 cumulative IPC: 0.9881 instructions: 600000001 cycles: 607214698
CPU 0 Branch Prediction Accuracy: 96.65% MPKI: 0.6426 Average ROB Occupancy at Mispredict: 329
Branch type MPKI
BRANCH_DIRECT_JUMP: 5e-06
BRANCH_INDIRECT: 7.33e-05
BRANCH_CONDITIONAL: 0.642
BRANCH_DIRECT_CALL: 6.67e-06
BRANCH_INDIRECT_CALL: 3.17e-05
BRANCH_RETURN: 1.83e-05

LLC TOTAL        ACCESS:    7718546 HIT:    3220663 MISS:    4497883
LLC LOAD         ACCESS:    2481352 HIT:    1408743 MISS:    1072609
LLC RFO          ACCESS:     831682 HIT:      42902 MISS:     788780
LLC PREFETCH     ACCESS:    2611250 HIT:     194470 MISS:    2416780
LLC WRITE        ACCESS:    1782381 HIT:    1567298 MISS:     215083
LLC TRANSLATION  ACCESS:      11881 HIT:       7250 MISS:       4631
LLC PREFETCH REQUESTED:    4360416 ISSUED:    2611250 USEFUL:    1742589 USELESS:      42832
LLC AVERAGE MISS LATENCY: 1624 cycles
cpu0_DTLB TOTAL        ACCESS:  115254772 HIT:  108097369 MISS:    7157403
cpu0_DTLB LOAD         ACCESS:  115254772 HIT:  108097369 MISS:    7157403
cpu0_DTLB RFO          ACCESS:          0 HIT:          0 MISS:          0
cpu0_DTLB PREFETCH     ACCESS:          0 HIT:          0 MISS:          0
cpu0_DTLB WRITE        ACCESS:          0 HIT:          0 MISS:          0
cpu0_DTLB TRANSLATION  ACCESS:          0 HIT:          0 MISS:          0
cpu0_DTLB PREFETCH REQUESTED:          0 ISSUED:          0 USEFUL:          0 USELESS:          0
cpu0_DTLB AVERAGE MISS LATENCY: 6.868 cycles
cpu0_ITLB TOTAL        ACCESS:     702807 HIT:     702584 MISS:        223
cpu0_ITLB LOAD         ACCESS:     702807 HIT:     702584 MISS:        223
cpu0_ITLB RFO          ACCESS:          0 HIT:          0 MISS:          0
cpu0_ITLB PREFETCH     ACCESS:          0 HIT:          0 MISS:          0
cpu0_ITLB WRITE        ACCESS:          0 HIT:          0 MISS:          0
cpu0_ITLB TRANSLATION  ACCESS:          0 HIT:          0 MISS:          0
cpu0_ITLB PREFETCH REQUESTED:          0 ISSUED:          0 USEFUL:          0 USELESS:          0
cpu0_ITLB AVERAGE MISS LATENCY: 304.9 cycles
cpu0_L1D TOTAL        ACCESS:  166548990 HIT:  156987091 MISS:    9561899
cpu0_L1D LOAD         ACCESS:  129496691 HIT:  123790962 MISS:    5705729
cpu0_L1D RFO          ACCESS:          0 HIT:          0 MISS:          0
cpu0_L1D PREFETCH     ACCESS:          0 HIT:          0 MISS:          0
cpu0_L1D WRITE        ACCESS:   36999701 HIT:   33168527 MISS:    3831174
cpu0_L1D TRANSLATION  ACCESS:      52598 HIT:      27602 MISS:      24996
cpu0_L1D PREFETCH REQUESTED:          0 ISSUED:          0 USEFUL:          0 USELESS:          0
cpu0_L1D AVERAGE MISS LATENCY: 310.5 cycles
cpu0_L1I TOTAL        ACCESS:    1078370 HIT:    1075656 MISS:       2714
cpu0_L1I LOAD         ACCESS:    1078370 HIT:    1075656 MISS:       2714
cpu0_L1I RFO          ACCESS:          0 HIT:          0 MISS:          0
cpu0_L1I PREFETCH     ACCESS:          0 HIT:          0 MISS:          0
cpu0_L1I WRITE        ACCESS:          0 HIT:          0 MISS:          0
cpu0_L1I TRANSLATION  ACCESS:          0 HIT:          0 MISS:          0
cpu0_L1I PREFETCH REQUESTED:          0 ISSUED:          0 USEFUL:          0 USELESS:          0
cpu0_L1I AVERAGE MISS LATENCY: 375.6 cycles
cpu0_L2C TOTAL        ACCESS:    5990941 HIT:    2661735 MISS:    3329206
cpu0_L2C LOAD         ACCESS:    3070380 HIT:     589028 MISS:    2481352
cpu0_L2C RFO          ACCESS:     876833 HIT:      45151 MISS:     831682
cpu0_L2C PREFETCH     ACCESS:          0 HIT:          0 MISS:          0
cpu0_L2C WRITE        ACCESS:    2018774 HIT:    2014483 MISS:       4291
cpu0_L2C TRANSLATION  ACCESS:      24954 HIT:      13073 MISS:      11881
cpu0_L2C PREFETCH REQUESTED:          0 ISSUED:          0 USEFUL:          0 USELESS:          0
cpu0_L2C AVERAGE MISS LATENCY: 960.7 cycles
cpu0_STLB TOTAL        ACCESS:    3987221 HIT:    3934635 MISS:      52586
cpu0_STLB LOAD         ACCESS:    3987221 HIT:    3934635 MISS:      52586
cpu0_STLB RFO          ACCESS:          0 HIT:          0 MISS:          0
cpu0_STLB PREFETCH     ACCESS:          0 HIT:          0 MISS:          0
cpu0_STLB WRITE        ACCESS:          0 HIT:          0 MISS:          0
cpu0_STLB TRANSLATION  ACCESS:          0 HIT:          0 MISS:          0
cpu0_STLB PREFETCH REQUESTED:          0 ISSUED:          0 USEFUL:          0 USELESS:          0
cpu0_STLB AVERAGE MISS LATENCY: 726.5 cycles

DRAM Statistics

Channel 0 RQ ROW_BUFFER_HIT:     714104
  ROW_BUFFER_MISS:    2457474
 AVG DBUS CONGESTED CYCLE: 3.98
WQ ROW_BUFFER_HIT: Channel 0 
  ROW_BUFFER_MISS:      32045
  FULL:    1658759
