WARNING: physical memory size is smaller than virtual memory size.

*** ChampSim Multicore Out-of-Order Simulator ***
Warmup Instructions: 50000000
Simulation Instructions: 600000000
Number of CPUs: 1
Page size: 4096

Off-chip DRAM Size: 4 GiB Channels: 1 Width: 64-bit Data Race: 3200 MT/s
Heartbeat CPU 0 instructions: 10000000 cycles: 2500202 heartbeat IPC: 4 cumulative IPC: 4 (Simulation time: 00 hr 00 min 41 sec)
Heartbeat CPU 0 instructions: 20000000 cycles: 5000202 heartbeat IPC: 4 cumulative IPC: 4 (Simulation time: 00 hr 01 min 24 sec)
Heartbeat CPU 0 instructions: 30000000 cycles: 7500202 heartbeat IPC: 4 cumulative IPC: 4 (Simulation time: 00 hr 02 min 06 sec)
Heartbeat CPU 0 instructions: 40000000 cycles: 10000202 heartbeat IPC: 4 cumulative IPC: 4 (Simulation time: 00 hr 02 min 49 sec)
Heartbeat CPU 0 instructions: 50000000 cycles: 12500202 heartbeat IPC: 4 cumulative IPC: 4 (Simulation time: 00 hr 03 min 31 sec)
Warmup finished CPU 0 instructions: 50000000 cycles: 12500203 cumulative IPC: 4 (Simulation time: 00 hr 03 min 31 sec)
Warmup complete CPU 0 instructions: 50000000 cycles: 12500203 cumulative IPC: 4 (Simulation time: 00 hr 03 min 31 sec)
Heartbeat CPU 0 instructions: 60000004 cycles: 15001959 heartbeat IPC: 3.997 cumulative IPC: 3.997 (Simulation time: 00 hr 04 min 20 sec)
Heartbeat CPU 0 instructions: 70000003 cycles: 17503710 heartbeat IPC: 3.997 cumulative IPC: 3.997 (Simulation time: 00 hr 05 min 08 sec)
Heartbeat CPU 0 instructions: 80000004 cycles: 20006447 heartbeat IPC: 3.996 cumulative IPC: 3.997 (Simulation time: 00 hr 05 min 56 sec)
Heartbeat CPU 0 instructions: 90000000 cycles: 22510799 heartbeat IPC: 3.993 cumulative IPC: 3.996 (Simulation time: 00 hr 06 min 48 sec)
Heartbeat CPU 0 instructions: 100000001 cycles: 25013286 heartbeat IPC: 3.996 cumulative IPC: 3.996 (Simulation time: 00 hr 07 min 40 sec)
Heartbeat CPU 0 instructions: 110000000 cycles: 27515750 heartbeat IPC: 3.996 cumulative IPC: 3.996 (Simulation time: 00 hr 08 min 30 sec)
Heartbeat CPU 0 instructions: 120000004 cycles: 30019897 heartbeat IPC: 3.993 cumulative IPC: 3.996 (Simulation time: 00 hr 09 min 18 sec)
Heartbeat CPU 0 instructions: 130000000 cycles: 32522622 heartbeat IPC: 3.996 cumulative IPC: 3.996 (Simulation time: 00 hr 10 min 07 sec)
Heartbeat CPU 0 instructions: 140000004 cycles: 35024446 heartbeat IPC: 3.997 cumulative IPC: 3.996 (Simulation time: 00 hr 10 min 57 sec)
Heartbeat CPU 0 instructions: 150000000 cycles: 37527311 heartbeat IPC: 3.995 cumulative IPC: 3.996 (Simulation time: 00 hr 11 min 47 sec)
Heartbeat CPU 0 instructions: 160000001 cycles: 40029848 heartbeat IPC: 3.996 cumulative IPC: 3.996 (Simulation time: 00 hr 12 min 35 sec)
Heartbeat CPU 0 instructions: 170000000 cycles: 42532543 heartbeat IPC: 3.996 cumulative IPC: 3.996 (Simulation time: 00 hr 13 min 27 sec)
Heartbeat CPU 0 instructions: 180000003 cycles: 45035317 heartbeat IPC: 3.996 cumulative IPC: 3.996 (Simulation time: 00 hr 14 min 20 sec)
Heartbeat CPU 0 instructions: 190000000 cycles: 47538118 heartbeat IPC: 3.996 cumulative IPC: 3.996 (Simulation time: 00 hr 15 min 18 sec)
Heartbeat CPU 0 instructions: 200000004 cycles: 50040719 heartbeat IPC: 3.996 cumulative IPC: 3.996 (Simulation time: 00 hr 16 min 14 sec)
Heartbeat CPU 0 instructions: 210000004 cycles: 52542837 heartbeat IPC: 3.997 cumulative IPC: 3.996 (Simulation time: 00 hr 17 min 11 sec)
Heartbeat CPU 0 instructions: 220000001 cycles: 55046635 heartbeat IPC: 3.994 cumulative IPC: 3.996 (Simulation time: 00 hr 18 min 06 sec)
Heartbeat CPU 0 instructions: 230000000 cycles: 57548389 heartbeat IPC: 3.997 cumulative IPC: 3.996 (Simulation time: 00 hr 19 min 02 sec)
Heartbeat CPU 0 instructions: 240000000 cycles: 91104669 heartbeat IPC: 0.298 cumulative IPC: 2.417 (Simulation time: 00 hr 23 min 59 sec)
Heartbeat CPU 0 instructions: 250000001 cycles: 100414163 heartbeat IPC: 1.074 cumulative IPC: 2.275 (Simulation time: 00 hr 26 min 09 sec)
Heartbeat CPU 0 instructions: 260000000 cycles: 109404732 heartbeat IPC: 1.112 cumulative IPC: 2.167 (Simulation time: 00 hr 28 min 18 sec)
Heartbeat CPU 0 instructions: 270000001 cycles: 117198421 heartbeat IPC: 1.283 cumulative IPC: 2.101 (Simulation time: 00 hr 30 min 13 sec)
Heartbeat CPU 0 instructions: 280000003 cycles: 122710806 heartbeat IPC: 1.814 cumulative IPC: 2.087 (Simulation time: 00 hr 31 min 40 sec)
Heartbeat CPU 0 instructions: 290000001 cycles: 128190101 heartbeat IPC: 1.825 cumulative IPC: 2.075 (Simulation time: 00 hr 33 min 08 sec)
Heartbeat CPU 0 instructions: 300000002 cycles: 133725134 heartbeat IPC: 1.807 cumulative IPC: 2.062 (Simulation time: 00 hr 34 min 37 sec)
Heartbeat CPU 0 instructions: 310000001 cycles: 138191456 heartbeat IPC: 2.239 cumulative IPC: 2.069 (Simulation time: 00 hr 35 min 50 sec)
Heartbeat CPU 0 instructions: 320000004 cycles: 142971428 heartbeat IPC: 2.092 cumulative IPC: 2.069 (Simulation time: 00 hr 37 min 09 sec)
Heartbeat CPU 0 instructions: 330000002 cycles: 151859289 heartbeat IPC: 1.125 cumulative IPC: 2.009 (Simulation time: 00 hr 39 min 21 sec)
Heartbeat CPU 0 instructions: 340000004 cycles: 160789421 heartbeat IPC: 1.12 cumulative IPC: 1.956 (Simulation time: 00 hr 41 min 28 sec)
Heartbeat CPU 0 instructions: 350000003 cycles: 169259120 heartbeat IPC: 1.181 cumulative IPC: 1.914 (Simulation time: 00 hr 43 min 29 sec)
Heartbeat CPU 0 instructions: 360000001 cycles: 176468604 heartbeat IPC: 1.387 cumulative IPC: 1.891 (Simulation time: 00 hr 45 min 22 sec)
Heartbeat CPU 0 instructions: 370000002 cycles: 182276251 heartbeat IPC: 1.722 cumulative IPC: 1.885 (Simulation time: 00 hr 46 min 53 sec)
Heartbeat CPU 0 instructions: 380000003 cycles: 189275195 heartbeat IPC: 1.429 cumulative IPC: 1.867 (Simulation time: 00 hr 48 min 35 sec)
Heartbeat CPU 0 instructions: 390000000 cycles: 196451549 heartbeat IPC: 1.393 cumulative IPC: 1.848 (Simulation time: 00 hr 50 min 21 sec)
Heartbeat CPU 0 instructions: 400000000 cycles: 203588422 heartbeat IPC: 1.401 cumulative IPC: 1.832 (Simulation time: 00 hr 52 min 03 sec)
Heartbeat CPU 0 instructions: 410000002 cycles: 210691812 heartbeat IPC: 1.408 cumulative IPC: 1.816 (Simulation time: 00 hr 53 min 50 sec)
Heartbeat CPU 0 instructions: 420000002 cycles: 217777168 heartbeat IPC: 1.411 cumulative IPC: 1.802 (Simulation time: 00 hr 55 min 47 sec)
Heartbeat CPU 0 instructions: 430000002 cycles: 224732923 heartbeat IPC: 1.438 cumulative IPC: 1.79 (Simulation time: 00 hr 57 min 36 sec)
Heartbeat CPU 0 instructions: 440000004 cycles: 354490094 heartbeat IPC: 0.07707 cumulative IPC: 1.14 (Simulation time: 01 hr 18 min 07 sec)
Heartbeat CPU 0 instructions: 450000003 cycles: 363681780 heartbeat IPC: 1.088 cumulative IPC: 1.139 (Simulation time: 01 hr 20 min 10 sec)
Heartbeat CPU 0 instructions: 460000004 cycles: 372832252 heartbeat IPC: 1.093 cumulative IPC: 1.138 (Simulation time: 01 hr 22 min 15 sec)
Heartbeat CPU 0 instructions: 470000002 cycles: 381100092 heartbeat IPC: 1.21 cumulative IPC: 1.139 (Simulation time: 01 hr 24 min 06 sec)
Heartbeat CPU 0 instructions: 480000004 cycles: 390282788 heartbeat IPC: 1.089 cumulative IPC: 1.138 (Simulation time: 01 hr 26 min 15 sec)
Heartbeat CPU 0 instructions: 490000002 cycles: 400518843 heartbeat IPC: 0.9769 cumulative IPC: 1.134 (Simulation time: 01 hr 29 min 38 sec)
Heartbeat CPU 0 instructions: 500000003 cycles: 415921353 heartbeat IPC: 0.6492 cumulative IPC: 1.115 (Simulation time: 01 hr 34 min 04 sec)
Heartbeat CPU 0 instructions: 510000004 cycles: 429658903 heartbeat IPC: 0.7279 cumulative IPC: 1.103 (Simulation time: 01 hr 36 min 31 sec)
Heartbeat CPU 0 instructions: 520000000 cycles: 443098758 heartbeat IPC: 0.7441 cumulative IPC: 1.092 (Simulation time: 01 hr 38 min 50 sec)
Heartbeat CPU 0 instructions: 530000004 cycles: 456264483 heartbeat IPC: 0.7595 cumulative IPC: 1.082 (Simulation time: 01 hr 41 min 17 sec)
Heartbeat CPU 0 instructions: 540000002 cycles: 469118966 heartbeat IPC: 0.7779 cumulative IPC: 1.073 (Simulation time: 01 hr 43 min 42 sec)
Heartbeat CPU 0 instructions: 550000002 cycles: 481133048 heartbeat IPC: 0.8324 cumulative IPC: 1.067 (Simulation time: 01 hr 46 min 45 sec)
Heartbeat CPU 0 instructions: 560000000 cycles: 491880321 heartbeat IPC: 0.9305 cumulative IPC: 1.064 (Simulation time: 01 hr 50 min 02 sec)
Heartbeat CPU 0 instructions: 570000002 cycles: 502483423 heartbeat IPC: 0.9431 cumulative IPC: 1.061 (Simulation time: 01 hr 53 min 18 sec)
Heartbeat CPU 0 instructions: 580000003 cycles: 513013179 heartbeat IPC: 0.9497 cumulative IPC: 1.059 (Simulation time: 01 hr 56 min 32 sec)
Heartbeat CPU 0 instructions: 590000003 cycles: 523580985 heartbeat IPC: 0.9463 cumulative IPC: 1.057 (Simulation time: 01 hr 59 min 37 sec)
*** Reached end of trace: (0, "traces/lu.A.champsimtrace")
Heartbeat CPU 0 instructions: 600000001 cycles: 534176151 heartbeat IPC: 0.9438 cumulative IPC: 1.054 (Simulation time: 02 hr 02 min 47 sec)
Heartbeat CPU 0 instructions: 610000000 cycles: 541961169 heartbeat IPC: 1.285 cumulative IPC: 1.058 (Simulation time: 02 hr 04 min 50 sec)
Heartbeat CPU 0 instructions: 620000000 cycles: 544463035 heartbeat IPC: 3.997 cumulative IPC: 1.072 (Simulation time: 02 hr 05 min 51 sec)
Heartbeat CPU 0 instructions: 630000004 cycles: 546965016 heartbeat IPC: 3.997 cumulative IPC: 1.085 (Simulation time: 02 hr 07 min 06 sec)
Heartbeat CPU 0 instructions: 640000002 cycles: 549466766 heartbeat IPC: 3.997 cumulative IPC: 1.099 (Simulation time: 02 hr 08 min 25 sec)
Heartbeat CPU 0 instructions: 650000001 cycles: 551968528 heartbeat IPC: 3.997 cumulative IPC: 1.112 (Simulation time: 02 hr 09 min 40 sec)
Simulation finished CPU 0 instructions: 600000001 cycles: 539468326 cumulative IPC: 1.112 (Simulation time: 02 hr 09 min 40 sec)
Simulation complete CPU 0 instructions: 600000001 cycles: 539468326 cumulative IPC: 1.112 (Simulation time: 02 hr 09 min 40 sec)

ChampSim completed all CPUs

=== Simulation ===
CPU 0 runs traces/lu.A.champsimtrace
Region of Interest Statistics

CPU 0 cumulative IPC: 1.112 instructions: 600000001 cycles: 539468326
CPU 0 Branch Prediction Accuracy: 98.73% MPKI: 0.2427 Average ROB Occupancy at Mispredict: 326.4
Branch type MPKI
BRANCH_DIRECT_JUMP: 5e-06
BRANCH_INDIRECT: 7.33e-05
BRANCH_CONDITIONAL: 0.243
BRANCH_DIRECT_CALL: 6.67e-06
BRANCH_INDIRECT_CALL: 3.17e-05
BRANCH_RETURN: 1.83e-05

LLC TOTAL        ACCESS:    5107215 HIT:    1360685 MISS:    3746530
LLC LOAD         ACCESS:    2481311 HIT:     413985 MISS:    2067326
LLC RFO          ACCESS:     831681 HIT:      31569 MISS:     800112
LLC PREFETCH     ACCESS:          0 HIT:          0 MISS:          0
LLC WRITE        ACCESS:    1782350 HIT:     906971 MISS:     875379
LLC TRANSLATION  ACCESS:      11873 HIT:       8160 MISS:       3713
LLC PREFETCH REQUESTED:          0 ISSUED:          0 USEFUL:          0 USELESS:          0
LLC AVERAGE MISS LATENCY: 797.1 cycles
cpu0_DTLB TOTAL        ACCESS:  123160903 HIT:  115956593 MISS:    7204310
cpu0_DTLB LOAD         ACCESS:  123160903 HIT:  115956593 MISS:    7204310
cpu0_DTLB RFO          ACCESS:          0 HIT:          0 MISS:          0
cpu0_DTLB PREFETCH     ACCESS:          0 HIT:          0 MISS:          0
cpu0_DTLB WRITE        ACCESS:          0 HIT:          0 MISS:          0
cpu0_DTLB TRANSLATION  ACCESS:          0 HIT:          0 MISS:          0
cpu0_DTLB PREFETCH REQUESTED:          0 ISSUED:          0 USEFUL:          0 USELESS:          0
cpu0_DTLB AVERAGE MISS LATENCY: 5.358 cycles
cpu0_ITLB TOTAL        ACCESS:     717941 HIT:     717735 MISS:        206
cpu0_ITLB LOAD         ACCESS:     717941 HIT:     717735 MISS:        206
cpu0_ITLB RFO          ACCESS:          0 HIT:          0 MISS:          0
cpu0_ITLB PREFETCH     ACCESS:          0 HIT:          0 MISS:          0
cpu0_ITLB WRITE        ACCESS:          0 HIT:          0 MISS:          0
cpu0_ITLB TRANSLATION  ACCESS:          0 HIT:          0 MISS:          0
cpu0_ITLB PREFETCH REQUESTED:          0 ISSUED:          0 USEFUL:          0 USELESS:          0
cpu0_ITLB AVERAGE MISS LATENCY: 344.6 cycles
cpu0_L1D TOTAL        ACCESS:  176573189 HIT:  166895056 MISS:    9678133
cpu0_L1D LOAD         ACCESS:  139520098 HIT:  133635757 MISS:    5884341
cpu0_L1D RFO          ACCESS:          0 HIT:          0 MISS:          0
cpu0_L1D PREFETCH     ACCESS:          0 HIT:          0 MISS:          0
cpu0_L1D WRITE        ACCESS:   37000495 HIT:   33231645 MISS:    3768850
cpu0_L1D TRANSLATION  ACCESS:      52596 HIT:      27654 MISS:      24942
cpu0_L1D PREFETCH REQUESTED:          0 ISSUED:          0 USEFUL:          0 USELESS:          0
cpu0_L1D AVERAGE MISS LATENCY: 296 cycles
cpu0_L1I TOTAL        ACCESS:    1104235 HIT:    1101511 MISS:       2724
cpu0_L1I LOAD         ACCESS:    1104235 HIT:    1101511 MISS:       2724
cpu0_L1I RFO          ACCESS:          0 HIT:          0 MISS:          0
cpu0_L1I PREFETCH     ACCESS:          0 HIT:          0 MISS:          0
cpu0_L1I WRITE        ACCESS:          0 HIT:          0 MISS:          0
cpu0_L1I TRANSLATION  ACCESS:          0 HIT:          0 MISS:          0
cpu0_L1I PREFETCH REQUESTED:          0 ISSUED:          0 USEFUL:          0 USELESS:          0
cpu0_L1I AVERAGE MISS LATENCY: 549.2 cycles
cpu0_L2C TOTAL        ACCESS:    5979372 HIT:    2650167 MISS:    3329205
cpu0_L2C LOAD         ACCESS:    3058557 HIT:     577245 MISS:    2481312
cpu0_L2C RFO          ACCESS:     878113 HIT:      46432 MISS:     831681
cpu0_L2C PREFETCH     ACCESS:          0 HIT:          0 MISS:          0
cpu0_L2C WRITE        ACCESS:    2017807 HIT:    2013468 MISS:       4339
cpu0_L2C TRANSLATION  ACCESS:      24895 HIT:      13022 MISS:      11873
cpu0_L2C PREFETCH REQUESTED:          0 ISSUED:          0 USEFUL:          0 USELESS:          0
cpu0_L2C AVERAGE MISS LATENCY: 917.9 cycles
cpu0_STLB TOTAL        ACCESS:    3988390 HIT:    3935804 MISS:      52586
cpu0_STLB LOAD         ACCESS:    3988390 HIT:    3935804 MISS:      52586
cpu0_STLB RFO          ACCESS:          0 HIT:          0 MISS:          0
cpu0_STLB PREFETCH     ACCESS:          0 HIT:          0 MISS:          0
cpu0_STLB WRITE        ACCESS:          0 HIT:          0 MISS:          0
cpu0_STLB TRANSLATION  ACCESS:          0 HIT:          0 MISS:          0
cpu0_STLB PREFETCH REQUESTED:          0 ISSUED:          0 USEFUL:          0 USELESS:          0
cpu0_STLB AVERAGE MISS LATENCY: 483.7 cycles

DRAM Statistics

Channel 0 RQ ROW_BUFFER_HIT:     742119
  ROW_BUFFER_MISS:    2129028
 AVG DBUS CONGESTED CYCLE: 3.933
WQ ROW_BUFFER_HIT: Channel 0 
  ROW_BUFFER_MISS:     358054
  FULL:    1173453
