WARNING: physical memory size is smaller than virtual memory size.

*** ChampSim Multicore Out-of-Order Simulator ***
Warmup Instructions: 50000000
Simulation Instructions: 600000000
Number of CPUs: 1
Page size: 4096

Off-chip DRAM Size: 4 GiB Channels: 1 Width: 64-bit Data Race: 3200 MT/s
Heartbeat CPU 0 instructions: 10000000 cycles: 2500202 heartbeat IPC: 4 cumulative IPC: 4 (Simulation time: 00 hr 00 min 53 sec)
Heartbeat CPU 0 instructions: 20000000 cycles: 5000202 heartbeat IPC: 4 cumulative IPC: 4 (Simulation time: 00 hr 01 min 41 sec)
Heartbeat CPU 0 instructions: 30000000 cycles: 7500202 heartbeat IPC: 4 cumulative IPC: 4 (Simulation time: 00 hr 02 min 32 sec)
Heartbeat CPU 0 instructions: 40000000 cycles: 10000202 heartbeat IPC: 4 cumulative IPC: 4 (Simulation time: 00 hr 03 min 29 sec)
Heartbeat CPU 0 instructions: 50000000 cycles: 12500202 heartbeat IPC: 4 cumulative IPC: 4 (Simulation time: 00 hr 04 min 25 sec)
Warmup finished CPU 0 instructions: 50000000 cycles: 12500203 cumulative IPC: 4 (Simulation time: 00 hr 04 min 25 sec)
Warmup complete CPU 0 instructions: 50000000 cycles: 12500203 cumulative IPC: 4 (Simulation time: 00 hr 04 min 25 sec)
Heartbeat CPU 0 instructions: 60000004 cycles: 15134826 heartbeat IPC: 3.796 cumulative IPC: 3.796 (Simulation time: 00 hr 05 min 26 sec)
Heartbeat CPU 0 instructions: 70000003 cycles: 17769908 heartbeat IPC: 3.795 cumulative IPC: 3.795 (Simulation time: 00 hr 06 min 25 sec)
Heartbeat CPU 0 instructions: 80000003 cycles: 20405009 heartbeat IPC: 3.795 cumulative IPC: 3.795 (Simulation time: 00 hr 07 min 26 sec)
Heartbeat CPU 0 instructions: 90000004 cycles: 23039865 heartbeat IPC: 3.795 cumulative IPC: 3.795 (Simulation time: 00 hr 08 min 26 sec)
Heartbeat CPU 0 instructions: 100000002 cycles: 25675144 heartbeat IPC: 3.795 cumulative IPC: 3.795 (Simulation time: 00 hr 09 min 23 sec)
Heartbeat CPU 0 instructions: 110000003 cycles: 28310242 heartbeat IPC: 3.795 cumulative IPC: 3.795 (Simulation time: 00 hr 10 min 19 sec)
Heartbeat CPU 0 instructions: 120000004 cycles: 30945532 heartbeat IPC: 3.795 cumulative IPC: 3.795 (Simulation time: 00 hr 11 min 14 sec)
Heartbeat CPU 0 instructions: 130000000 cycles: 33580821 heartbeat IPC: 3.795 cumulative IPC: 3.795 (Simulation time: 00 hr 12 min 09 sec)
Heartbeat CPU 0 instructions: 140000004 cycles: 36215880 heartbeat IPC: 3.795 cumulative IPC: 3.795 (Simulation time: 00 hr 13 min 03 sec)
Heartbeat CPU 0 instructions: 150000000 cycles: 38850978 heartbeat IPC: 3.795 cumulative IPC: 3.795 (Simulation time: 00 hr 13 min 56 sec)
Heartbeat CPU 0 instructions: 160000001 cycles: 41486338 heartbeat IPC: 3.795 cumulative IPC: 3.795 (Simulation time: 00 hr 14 min 49 sec)
Heartbeat CPU 0 instructions: 170000000 cycles: 44120966 heartbeat IPC: 3.796 cumulative IPC: 3.795 (Simulation time: 00 hr 15 min 42 sec)
Heartbeat CPU 0 instructions: 180000003 cycles: 46755609 heartbeat IPC: 3.796 cumulative IPC: 3.795 (Simulation time: 00 hr 16 min 38 sec)
Heartbeat CPU 0 instructions: 190000000 cycles: 49390630 heartbeat IPC: 3.795 cumulative IPC: 3.795 (Simulation time: 00 hr 17 min 33 sec)
Heartbeat CPU 0 instructions: 200000004 cycles: 52026413 heartbeat IPC: 3.794 cumulative IPC: 3.795 (Simulation time: 00 hr 18 min 28 sec)
Heartbeat CPU 0 instructions: 210000004 cycles: 54661739 heartbeat IPC: 3.795 cumulative IPC: 3.795 (Simulation time: 00 hr 19 min 21 sec)
Heartbeat CPU 0 instructions: 220000001 cycles: 57296616 heartbeat IPC: 3.795 cumulative IPC: 3.795 (Simulation time: 00 hr 20 min 14 sec)
Heartbeat CPU 0 instructions: 230000002 cycles: 59931717 heartbeat IPC: 3.795 cumulative IPC: 3.795 (Simulation time: 00 hr 21 min 06 sec)
Heartbeat CPU 0 instructions: 240000000 cycles: 93621467 heartbeat IPC: 0.2968 cumulative IPC: 2.342 (Simulation time: 00 hr 26 min 17 sec)
Heartbeat CPU 0 instructions: 250000000 cycles: 102757786 heartbeat IPC: 1.095 cumulative IPC: 2.216 (Simulation time: 00 hr 28 min 26 sec)
Heartbeat CPU 0 instructions: 260000001 cycles: 111901712 heartbeat IPC: 1.094 cumulative IPC: 2.113 (Simulation time: 00 hr 30 min 36 sec)
Heartbeat CPU 0 instructions: 270000001 cycles: 121621799 heartbeat IPC: 1.029 cumulative IPC: 2.016 (Simulation time: 00 hr 32 min 52 sec)
Heartbeat CPU 0 instructions: 280000003 cycles: 127884925 heartbeat IPC: 1.597 cumulative IPC: 1.993 (Simulation time: 00 hr 34 min 31 sec)
Heartbeat CPU 0 instructions: 290000001 cycles: 134269871 heartbeat IPC: 1.566 cumulative IPC: 1.971 (Simulation time: 00 hr 36 min 10 sec)
Heartbeat CPU 0 instructions: 300000002 cycles: 140563106 heartbeat IPC: 1.589 cumulative IPC: 1.952 (Simulation time: 00 hr 37 min 49 sec)
Heartbeat CPU 0 instructions: 310000002 cycles: 146820461 heartbeat IPC: 1.598 cumulative IPC: 1.936 (Simulation time: 00 hr 39 min 28 sec)
Heartbeat CPU 0 instructions: 320000000 cycles: 153655551 heartbeat IPC: 1.463 cumulative IPC: 1.913 (Simulation time: 00 hr 41 min 15 sec)
Heartbeat CPU 0 instructions: 330000002 cycles: 161973009 heartbeat IPC: 1.202 cumulative IPC: 1.873 (Simulation time: 00 hr 43 min 24 sec)
Heartbeat CPU 0 instructions: 340000004 cycles: 170140111 heartbeat IPC: 1.224 cumulative IPC: 1.84 (Simulation time: 00 hr 45 min 27 sec)
Heartbeat CPU 0 instructions: 350000003 cycles: 178487210 heartbeat IPC: 1.198 cumulative IPC: 1.807 (Simulation time: 00 hr 47 min 32 sec)
Heartbeat CPU 0 instructions: 360000001 cycles: 186751417 heartbeat IPC: 1.21 cumulative IPC: 1.779 (Simulation time: 00 hr 49 min 36 sec)
Heartbeat CPU 0 instructions: 370000002 cycles: 194977498 heartbeat IPC: 1.216 cumulative IPC: 1.754 (Simulation time: 00 hr 51 min 41 sec)
Heartbeat CPU 0 instructions: 380000003 cycles: 202918749 heartbeat IPC: 1.259 cumulative IPC: 1.733 (Simulation time: 00 hr 53 min 43 sec)
Heartbeat CPU 0 instructions: 390000000 cycles: 211099597 heartbeat IPC: 1.222 cumulative IPC: 1.712 (Simulation time: 00 hr 55 min 47 sec)
Heartbeat CPU 0 instructions: 400000000 cycles: 219242829 heartbeat IPC: 1.228 cumulative IPC: 1.693 (Simulation time: 00 hr 57 min 52 sec)
Heartbeat CPU 0 instructions: 410000004 cycles: 227372938 heartbeat IPC: 1.23 cumulative IPC: 1.675 (Simulation time: 00 hr 59 min 57 sec)
Heartbeat CPU 0 instructions: 420000000 cycles: 235468347 heartbeat IPC: 1.235 cumulative IPC: 1.659 (Simulation time: 01 hr 02 min 02 sec)
Heartbeat CPU 0 instructions: 430000002 cycles: 243598137 heartbeat IPC: 1.23 cumulative IPC: 1.644 (Simulation time: 01 hr 04 min 09 sec)
Heartbeat CPU 0 instructions: 440000004 cycles: 395208952 heartbeat IPC: 0.06596 cumulative IPC: 1.019 (Simulation time: 01 hr 32 min 40 sec)
Heartbeat CPU 0 instructions: 450000003 cycles: 404591049 heartbeat IPC: 1.066 cumulative IPC: 1.02 (Simulation time: 01 hr 34 min 56 sec)
Heartbeat CPU 0 instructions: 460000004 cycles: 414118907 heartbeat IPC: 1.05 cumulative IPC: 1.021 (Simulation time: 01 hr 37 min 12 sec)
Heartbeat CPU 0 instructions: 470000002 cycles: 423478123 heartbeat IPC: 1.068 cumulative IPC: 1.022 (Simulation time: 01 hr 39 min 29 sec)
Heartbeat CPU 0 instructions: 480000004 cycles: 432874424 heartbeat IPC: 1.064 cumulative IPC: 1.023 (Simulation time: 01 hr 41 min 45 sec)
Heartbeat CPU 0 instructions: 490000002 cycles: 442462150 heartbeat IPC: 1.043 cumulative IPC: 1.023 (Simulation time: 01 hr 44 min 02 sec)
Heartbeat CPU 0 instructions: 500000003 cycles: 455357182 heartbeat IPC: 0.7755 cumulative IPC: 1.016 (Simulation time: 01 hr 47 min 07 sec)
Heartbeat CPU 0 instructions: 510000004 cycles: 468319037 heartbeat IPC: 0.7715 cumulative IPC: 1.009 (Simulation time: 01 hr 50 min 07 sec)
Heartbeat CPU 0 instructions: 520000000 cycles: 481534568 heartbeat IPC: 0.7567 cumulative IPC: 1.002 (Simulation time: 01 hr 53 min 09 sec)
Heartbeat CPU 0 instructions: 530000004 cycles: 494562744 heartbeat IPC: 0.7676 cumulative IPC: 0.9957 (Simulation time: 01 hr 56 min 07 sec)
Heartbeat CPU 0 instructions: 540000002 cycles: 507611849 heartbeat IPC: 0.7663 cumulative IPC: 0.9897 (Simulation time: 01 hr 59 min 09 sec)
Heartbeat CPU 0 instructions: 550000002 cycles: 518996282 heartbeat IPC: 0.8784 cumulative IPC: 0.9872 (Simulation time: 02 hr 01 min 47 sec)
Heartbeat CPU 0 instructions: 560000000 cycles: 530163200 heartbeat IPC: 0.8955 cumulative IPC: 0.9852 (Simulation time: 02 hr 04 min 22 sec)
Heartbeat CPU 0 instructions: 570000002 cycles: 541310173 heartbeat IPC: 0.8971 cumulative IPC: 0.9833 (Simulation time: 02 hr 06 min 56 sec)
Heartbeat CPU 0 instructions: 580000003 cycles: 552473216 heartbeat IPC: 0.8958 cumulative IPC: 0.9815 (Simulation time: 02 hr 09 min 32 sec)
Heartbeat CPU 0 instructions: 590000003 cycles: 563646780 heartbeat IPC: 0.895 cumulative IPC: 0.9798 (Simulation time: 02 hr 12 min 06 sec)
*** Reached end of trace: (0, "traces/lu.A.champsimtrace")
Heartbeat CPU 0 instructions: 600000001 cycles: 574898768 heartbeat IPC: 0.8887 cumulative IPC: 0.978 (Simulation time: 02 hr 14 min 45 sec)
Heartbeat CPU 0 instructions: 610000000 cycles: 582355017 heartbeat IPC: 1.341 cumulative IPC: 0.9827 (Simulation time: 02 hr 16 min 35 sec)
Heartbeat CPU 0 instructions: 620000000 cycles: 584990268 heartbeat IPC: 3.795 cumulative IPC: 0.9957 (Simulation time: 02 hr 17 min 33 sec)
Heartbeat CPU 0 instructions: 630000004 cycles: 587625104 heartbeat IPC: 3.795 cumulative IPC: 1.008 (Simulation time: 02 hr 18 min 40 sec)
Heartbeat CPU 0 instructions: 640000002 cycles: 590259729 heartbeat IPC: 3.796 cumulative IPC: 1.021 (Simulation time: 02 hr 19 min 37 sec)
Heartbeat CPU 0 instructions: 650000001 cycles: 592894368 heartbeat IPC: 3.796 cumulative IPC: 1.034 (Simulation time: 02 hr 20 min 39 sec)
Simulation finished CPU 0 instructions: 600000001 cycles: 580394166 cumulative IPC: 1.034 (Simulation time: 02 hr 20 min 39 sec)
Simulation complete CPU 0 instructions: 600000001 cycles: 580394166 cumulative IPC: 1.034 (Simulation time: 02 hr 20 min 39 sec)

ChampSim completed all CPUs

=== Simulation ===
CPU 0 runs traces/lu.A.champsimtrace
Region of Interest Statistics

CPU 0 cumulative IPC: 1.034 instructions: 600000001 cycles: 580394166
CPU 0 Branch Prediction Accuracy: 96.65% MPKI: 0.6426 Average ROB Occupancy at Mispredict: 330.1
Branch type MPKI
BRANCH_DIRECT_JUMP: 5e-06
BRANCH_INDIRECT: 7.33e-05
BRANCH_CONDITIONAL: 0.642
BRANCH_DIRECT_CALL: 6.67e-06
BRANCH_INDIRECT_CALL: 3.17e-05
BRANCH_RETURN: 1.83e-05

LLC TOTAL        ACCESS:    5107185 HIT:    1985510 MISS:    3121675
LLC LOAD         ACCESS:    2481294 HIT:     190352 MISS:    2290942
LLC RFO          ACCESS:     831679 HIT:       5073 MISS:     826606
LLC PREFETCH     ACCESS:          0 HIT:          0 MISS:          0
LLC WRITE        ACCESS:    1782333 HIT:    1780995 MISS:       1338
LLC TRANSLATION  ACCESS:      11879 HIT:       9090 MISS:       2789
LLC PREFETCH REQUESTED:          0 ISSUED:          0 USEFUL:          0 USELESS:          0
LLC AVERAGE MISS LATENCY: 1065 cycles
cpu0_DTLB TOTAL        ACCESS:  116013347 HIT:  108792176 MISS:    7221171
cpu0_DTLB LOAD         ACCESS:  116013347 HIT:  108792176 MISS:    7221171
cpu0_DTLB RFO          ACCESS:          0 HIT:          0 MISS:          0
cpu0_DTLB PREFETCH     ACCESS:          0 HIT:          0 MISS:          0
cpu0_DTLB WRITE        ACCESS:          0 HIT:          0 MISS:          0
cpu0_DTLB TRANSLATION  ACCESS:          0 HIT:          0 MISS:          0
cpu0_DTLB PREFETCH REQUESTED:          0 ISSUED:          0 USEFUL:          0 USELESS:          0
cpu0_DTLB AVERAGE MISS LATENCY: 5.395 cycles
cpu0_ITLB TOTAL        ACCESS:     710580 HIT:     710365 MISS:        215
cpu0_ITLB LOAD         ACCESS:     710580 HIT:     710365 MISS:        215
cpu0_ITLB RFO          ACCESS:          0 HIT:          0 MISS:          0
cpu0_ITLB PREFETCH     ACCESS:          0 HIT:          0 MISS:          0
cpu0_ITLB WRITE        ACCESS:          0 HIT:          0 MISS:          0
cpu0_ITLB TRANSLATION  ACCESS:          0 HIT:          0 MISS:          0
cpu0_ITLB PREFETCH REQUESTED:          0 ISSUED:          0 USEFUL:          0 USELESS:          0
cpu0_ITLB AVERAGE MISS LATENCY: 300.2 cycles
cpu0_L1D TOTAL        ACCESS:  167592315 HIT:  157876241 MISS:    9716074
cpu0_L1D LOAD         ACCESS:  130539180 HIT:  124688170 MISS:    5851010
cpu0_L1D RFO          ACCESS:          0 HIT:          0 MISS:          0
cpu0_L1D PREFETCH     ACCESS:          0 HIT:          0 MISS:          0
cpu0_L1D WRITE        ACCESS:   37000536 HIT:   33160391 MISS:    3840145
cpu0_L1D TRANSLATION  ACCESS:      52599 HIT:      27680 MISS:      24919
cpu0_L1D PREFETCH REQUESTED:          0 ISSUED:          0 USEFUL:          0 USELESS:          0
cpu0_L1D AVERAGE MISS LATENCY: 328.4 cycles
cpu0_L1I TOTAL        ACCESS:    1087765 HIT:    1085019 MISS:       2746
cpu0_L1I LOAD         ACCESS:    1087765 HIT:    1085019 MISS:       2746
cpu0_L1I RFO          ACCESS:          0 HIT:          0 MISS:          0
cpu0_L1I PREFETCH     ACCESS:          0 HIT:          0 MISS:          0
cpu0_L1I WRITE        ACCESS:          0 HIT:          0 MISS:          0
cpu0_L1I TRANSLATION  ACCESS:          0 HIT:          0 MISS:          0
cpu0_L1I PREFETCH REQUESTED:          0 ISSUED:          0 USEFUL:          0 USELESS:          0
cpu0_L1I AVERAGE MISS LATENCY: 507.3 cycles
cpu0_L2C TOTAL        ACCESS:    5977765 HIT:    2648561 MISS:    3329204
cpu0_L2C LOAD         ACCESS:    3057265 HIT:     575970 MISS:    2481295
cpu0_L2C RFO          ACCESS:     878234 HIT:      46555 MISS:     831679
cpu0_L2C PREFETCH     ACCESS:          0 HIT:          0 MISS:          0
cpu0_L2C WRITE        ACCESS:    2017392 HIT:    2013041 MISS:       4351
cpu0_L2C TRANSLATION  ACCESS:      24874 HIT:      12995 MISS:      11879
cpu0_L2C PREFETCH REQUESTED:          0 ISSUED:          0 USEFUL:          0 USELESS:          0
cpu0_L2C AVERAGE MISS LATENCY: 1019 cycles
cpu0_STLB TOTAL        ACCESS:    3988965 HIT:    3936379 MISS:      52586
cpu0_STLB LOAD         ACCESS:    3988965 HIT:    3936379 MISS:      52586
cpu0_STLB RFO          ACCESS:          0 HIT:          0 MISS:          0
cpu0_STLB PREFETCH     ACCESS:          0 HIT:          0 MISS:          0
cpu0_STLB WRITE        ACCESS:          0 HIT:          0 MISS:          0
cpu0_STLB TRANSLATION  ACCESS:          0 HIT:          0 MISS:          0
cpu0_STLB PREFETCH REQUESTED:          0 ISSUED:          0 USEFUL:          0 USELESS:          0
cpu0_STLB AVERAGE MISS LATENCY: 501 cycles

DRAM Statistics

Channel 0 RQ ROW_BUFFER_HIT:     753762
  ROW_BUFFER_MISS:    2366570
 AVG DBUS CONGESTED CYCLE: 3.931
WQ ROW_BUFFER_HIT: Channel 0 
  ROW_BUFFER_MISS:     321038
  FULL:    1360945
