WARNING: physical memory size is smaller than virtual memory size.

*** ChampSim Multicore Out-of-Order Simulator ***
Warmup Instructions: 50000000
Simulation Instructions: 600000000
Number of CPUs: 1
Page size: 4096

Off-chip DRAM Size: 4 GiB Channels: 1 Width: 64-bit Data Race: 3200 MT/s
Heartbeat CPU 0 instructions: 10000000 cycles: 2500202 heartbeat IPC: 4 cumulative IPC: 4 (Simulation time: 00 hr 00 min 39 sec)
Heartbeat CPU 0 instructions: 20000000 cycles: 5000202 heartbeat IPC: 4 cumulative IPC: 4 (Simulation time: 00 hr 01 min 15 sec)
Heartbeat CPU 0 instructions: 30000000 cycles: 7500202 heartbeat IPC: 4 cumulative IPC: 4 (Simulation time: 00 hr 01 min 53 sec)
Heartbeat CPU 0 instructions: 40000000 cycles: 10000202 heartbeat IPC: 4 cumulative IPC: 4 (Simulation time: 00 hr 02 min 31 sec)
Heartbeat CPU 0 instructions: 50000000 cycles: 12500202 heartbeat IPC: 4 cumulative IPC: 4 (Simulation time: 00 hr 03 min 08 sec)
Warmup finished CPU 0 instructions: 50000000 cycles: 12500203 cumulative IPC: 4 (Simulation time: 00 hr 03 min 08 sec)
Warmup complete CPU 0 instructions: 50000000 cycles: 12500203 cumulative IPC: 4 (Simulation time: 00 hr 03 min 08 sec)
Heartbeat CPU 0 instructions: 60000004 cycles: 15135290 heartbeat IPC: 3.795 cumulative IPC: 3.795 (Simulation time: 00 hr 03 min 52 sec)
Heartbeat CPU 0 instructions: 70000003 cycles: 17769918 heartbeat IPC: 3.796 cumulative IPC: 3.795 (Simulation time: 00 hr 04 min 34 sec)
Heartbeat CPU 0 instructions: 80000003 cycles: 20404788 heartbeat IPC: 3.795 cumulative IPC: 3.795 (Simulation time: 00 hr 05 min 16 sec)
Heartbeat CPU 0 instructions: 90000004 cycles: 23039897 heartbeat IPC: 3.795 cumulative IPC: 3.795 (Simulation time: 00 hr 05 min 58 sec)
Heartbeat CPU 0 instructions: 100000002 cycles: 25675175 heartbeat IPC: 3.795 cumulative IPC: 3.795 (Simulation time: 00 hr 06 min 43 sec)
Heartbeat CPU 0 instructions: 110000003 cycles: 28310954 heartbeat IPC: 3.794 cumulative IPC: 3.795 (Simulation time: 00 hr 07 min 29 sec)
Heartbeat CPU 0 instructions: 120000004 cycles: 30946749 heartbeat IPC: 3.794 cumulative IPC: 3.795 (Simulation time: 00 hr 08 min 15 sec)
Heartbeat CPU 0 instructions: 130000000 cycles: 33581975 heartbeat IPC: 3.795 cumulative IPC: 3.795 (Simulation time: 00 hr 08 min 59 sec)
Heartbeat CPU 0 instructions: 140000004 cycles: 36216601 heartbeat IPC: 3.796 cumulative IPC: 3.795 (Simulation time: 00 hr 09 min 43 sec)
Heartbeat CPU 0 instructions: 150000000 cycles: 38852182 heartbeat IPC: 3.794 cumulative IPC: 3.795 (Simulation time: 00 hr 10 min 28 sec)
Heartbeat CPU 0 instructions: 160000001 cycles: 41488253 heartbeat IPC: 3.794 cumulative IPC: 3.795 (Simulation time: 00 hr 11 min 12 sec)
Heartbeat CPU 0 instructions: 170000000 cycles: 44123337 heartbeat IPC: 3.795 cumulative IPC: 3.795 (Simulation time: 00 hr 11 min 57 sec)
Heartbeat CPU 0 instructions: 180000003 cycles: 46758874 heartbeat IPC: 3.794 cumulative IPC: 3.795 (Simulation time: 00 hr 12 min 43 sec)
Heartbeat CPU 0 instructions: 190000000 cycles: 49393698 heartbeat IPC: 3.795 cumulative IPC: 3.795 (Simulation time: 00 hr 13 min 29 sec)
Heartbeat CPU 0 instructions: 200000004 cycles: 52029012 heartbeat IPC: 3.795 cumulative IPC: 3.795 (Simulation time: 00 hr 14 min 16 sec)
Heartbeat CPU 0 instructions: 210000004 cycles: 54663644 heartbeat IPC: 3.796 cumulative IPC: 3.795 (Simulation time: 00 hr 15 min 03 sec)
Heartbeat CPU 0 instructions: 220000001 cycles: 57299415 heartbeat IPC: 3.794 cumulative IPC: 3.795 (Simulation time: 00 hr 15 min 49 sec)
Heartbeat CPU 0 instructions: 230000002 cycles: 59934516 heartbeat IPC: 3.795 cumulative IPC: 3.795 (Simulation time: 00 hr 16 min 32 sec)
Heartbeat CPU 0 instructions: 240000000 cycles: 93813501 heartbeat IPC: 0.2952 cumulative IPC: 2.337 (Simulation time: 00 hr 20 min 54 sec)
Heartbeat CPU 0 instructions: 250000001 cycles: 102984821 heartbeat IPC: 1.09 cumulative IPC: 2.21 (Simulation time: 00 hr 22 min 42 sec)
Heartbeat CPU 0 instructions: 260000001 cycles: 112138918 heartbeat IPC: 1.092 cumulative IPC: 2.108 (Simulation time: 00 hr 24 min 23 sec)
Heartbeat CPU 0 instructions: 270000001 cycles: 121863702 heartbeat IPC: 1.028 cumulative IPC: 2.012 (Simulation time: 00 hr 26 min 21 sec)
Heartbeat CPU 0 instructions: 280000003 cycles: 128258888 heartbeat IPC: 1.564 cumulative IPC: 1.987 (Simulation time: 00 hr 28 min 18 sec)
Heartbeat CPU 0 instructions: 290000001 cycles: 134767368 heartbeat IPC: 1.536 cumulative IPC: 1.963 (Simulation time: 00 hr 29 min 23 sec)
Heartbeat CPU 0 instructions: 300000002 cycles: 141204457 heartbeat IPC: 1.553 cumulative IPC: 1.942 (Simulation time: 00 hr 30 min 35 sec)
Heartbeat CPU 0 instructions: 310000002 cycles: 147718603 heartbeat IPC: 1.535 cumulative IPC: 1.923 (Simulation time: 00 hr 31 min 54 sec)
Heartbeat CPU 0 instructions: 320000000 cycles: 154800846 heartbeat IPC: 1.412 cumulative IPC: 1.897 (Simulation time: 00 hr 33 min 28 sec)
Heartbeat CPU 0 instructions: 330000002 cycles: 163099096 heartbeat IPC: 1.205 cumulative IPC: 1.859 (Simulation time: 00 hr 35 min 13 sec)
Heartbeat CPU 0 instructions: 340000004 cycles: 171413181 heartbeat IPC: 1.203 cumulative IPC: 1.825 (Simulation time: 00 hr 36 min 56 sec)
Heartbeat CPU 0 instructions: 350000003 cycles: 179817520 heartbeat IPC: 1.19 cumulative IPC: 1.793 (Simulation time: 00 hr 38 min 30 sec)
Heartbeat CPU 0 instructions: 360000001 cycles: 188145093 heartbeat IPC: 1.201 cumulative IPC: 1.765 (Simulation time: 00 hr 40 min 01 sec)
Heartbeat CPU 0 instructions: 370000002 cycles: 196440014 heartbeat IPC: 1.206 cumulative IPC: 1.74 (Simulation time: 00 hr 41 min 35 sec)
Heartbeat CPU 0 instructions: 380000003 cycles: 204371233 heartbeat IPC: 1.261 cumulative IPC: 1.72 (Simulation time: 00 hr 43 min 03 sec)
Heartbeat CPU 0 instructions: 390000000 cycles: 212610224 heartbeat IPC: 1.214 cumulative IPC: 1.699 (Simulation time: 00 hr 44 min 33 sec)
Heartbeat CPU 0 instructions: 400000000 cycles: 220785644 heartbeat IPC: 1.223 cumulative IPC: 1.68 (Simulation time: 00 hr 45 min 59 sec)
Heartbeat CPU 0 instructions: 410000002 cycles: 228885603 heartbeat IPC: 1.235 cumulative IPC: 1.664 (Simulation time: 00 hr 47 min 24 sec)
Heartbeat CPU 0 instructions: 420000000 cycles: 236996737 heartbeat IPC: 1.233 cumulative IPC: 1.648 (Simulation time: 00 hr 48 min 50 sec)
Heartbeat CPU 0 instructions: 430000002 cycles: 245170787 heartbeat IPC: 1.223 cumulative IPC: 1.633 (Simulation time: 00 hr 50 min 15 sec)
Heartbeat CPU 0 instructions: 440000004 cycles: 396962282 heartbeat IPC: 0.06588 cumulative IPC: 1.014 (Simulation time: 01 hr 09 min 20 sec)
Heartbeat CPU 0 instructions: 450000003 cycles: 406429604 heartbeat IPC: 1.056 cumulative IPC: 1.015 (Simulation time: 01 hr 10 min 51 sec)
Heartbeat CPU 0 instructions: 460000004 cycles: 415972798 heartbeat IPC: 1.048 cumulative IPC: 1.016 (Simulation time: 01 hr 12 min 21 sec)
Heartbeat CPU 0 instructions: 470000002 cycles: 425375198 heartbeat IPC: 1.064 cumulative IPC: 1.017 (Simulation time: 01 hr 13 min 49 sec)
Heartbeat CPU 0 instructions: 480000004 cycles: 434796648 heartbeat IPC: 1.061 cumulative IPC: 1.018 (Simulation time: 01 hr 15 min 18 sec)
Heartbeat CPU 0 instructions: 490000002 cycles: 444407200 heartbeat IPC: 1.041 cumulative IPC: 1.019 (Simulation time: 01 hr 16 min 49 sec)
Heartbeat CPU 0 instructions: 500000003 cycles: 457284882 heartbeat IPC: 0.7765 cumulative IPC: 1.012 (Simulation time: 01 hr 18 min 47 sec)
Heartbeat CPU 0 instructions: 510000003 cycles: 470614052 heartbeat IPC: 0.7502 cumulative IPC: 1.004 (Simulation time: 01 hr 20 min 48 sec)
Heartbeat CPU 0 instructions: 520000000 cycles: 484135993 heartbeat IPC: 0.7395 cumulative IPC: 0.9965 (Simulation time: 01 hr 22 min 50 sec)
Heartbeat CPU 0 instructions: 530000004 cycles: 497534809 heartbeat IPC: 0.7463 cumulative IPC: 0.9896 (Simulation time: 01 hr 24 min 53 sec)
Heartbeat CPU 0 instructions: 540000002 cycles: 510902056 heartbeat IPC: 0.7481 cumulative IPC: 0.9831 (Simulation time: 01 hr 26 min 53 sec)
Heartbeat CPU 0 instructions: 550000002 cycles: 522497813 heartbeat IPC: 0.8624 cumulative IPC: 0.9804 (Simulation time: 01 hr 28 min 40 sec)
Heartbeat CPU 0 instructions: 560000000 cycles: 533802510 heartbeat IPC: 0.8846 cumulative IPC: 0.9783 (Simulation time: 01 hr 30 min 22 sec)
Heartbeat CPU 0 instructions: 570000002 cycles: 544966972 heartbeat IPC: 0.8957 cumulative IPC: 0.9766 (Simulation time: 01 hr 32 min 03 sec)
Heartbeat CPU 0 instructions: 580000003 cycles: 556105562 heartbeat IPC: 0.8978 cumulative IPC: 0.975 (Simulation time: 01 hr 33 min 43 sec)
Heartbeat CPU 0 instructions: 590000003 cycles: 567280987 heartbeat IPC: 0.8948 cumulative IPC: 0.9734 (Simulation time: 01 hr 35 min 24 sec)
*** Reached end of trace: (0, "traces/lu.A.champsimtrace")
Heartbeat CPU 0 instructions: 600000001 cycles: 578529753 heartbeat IPC: 0.889 cumulative IPC: 0.9717 (Simulation time: 01 hr 37 min 05 sec)
Heartbeat CPU 0 instructions: 610000000 cycles: 585953348 heartbeat IPC: 1.347 cumulative IPC: 0.9765 (Simulation time: 01 hr 38 min 12 sec)
Heartbeat CPU 0 instructions: 620000000 cycles: 588588617 heartbeat IPC: 3.795 cumulative IPC: 0.9894 (Simulation time: 01 hr 38 min 47 sec)
Heartbeat CPU 0 instructions: 630000004 cycles: 591223462 heartbeat IPC: 3.795 cumulative IPC: 1.002 (Simulation time: 01 hr 39 min 23 sec)
Heartbeat CPU 0 instructions: 640000002 cycles: 593858541 heartbeat IPC: 3.795 cumulative IPC: 1.015 (Simulation time: 01 hr 39 min 58 sec)
Heartbeat CPU 0 instructions: 650000001 cycles: 596493180 heartbeat IPC: 3.796 cumulative IPC: 1.027 (Simulation time: 01 hr 40 min 34 sec)
Simulation finished CPU 0 instructions: 600000001 cycles: 583992978 cumulative IPC: 1.027 (Simulation time: 01 hr 40 min 34 sec)
Simulation complete CPU 0 instructions: 600000001 cycles: 583992978 cumulative IPC: 1.027 (Simulation time: 01 hr 40 min 34 sec)

ChampSim completed all CPUs

=== Simulation ===
CPU 0 runs traces/lu.A.champsimtrace
Region of Interest Statistics

CPU 0 cumulative IPC: 1.027 instructions: 600000001 cycles: 583992978
CPU 0 Branch Prediction Accuracy: 96.65% MPKI: 0.6426 Average ROB Occupancy at Mispredict: 330.1
Branch type MPKI
BRANCH_DIRECT_JUMP: 5e-06
BRANCH_INDIRECT: 7.33e-05
BRANCH_CONDITIONAL: 0.642
BRANCH_DIRECT_CALL: 6.67e-06
BRANCH_INDIRECT_CALL: 3.17e-05
BRANCH_RETURN: 1.83e-05

LLC TOTAL        ACCESS:    5107165 HIT:    1968710 MISS:    3138455
LLC LOAD         ACCESS:    2481299 HIT:     185287 MISS:    2296012
LLC RFO          ACCESS:     831678 HIT:       5053 MISS:     826625
LLC PREFETCH     ACCESS:          0 HIT:          0 MISS:          0
LLC WRITE        ACCESS:    1782328 HIT:    1769069 MISS:      13259
LLC TRANSLATION  ACCESS:      11860 HIT:       9301 MISS:       2559
LLC PREFETCH REQUESTED:          0 ISSUED:          0 USEFUL:          0 USELESS:          0
LLC AVERAGE MISS LATENCY: 1066 cycles
cpu0_DTLB TOTAL        ACCESS:  115924872 HIT:  108703262 MISS:    7221610
cpu0_DTLB LOAD         ACCESS:  115924872 HIT:  108703262 MISS:    7221610
cpu0_DTLB RFO          ACCESS:          0 HIT:          0 MISS:          0
cpu0_DTLB PREFETCH     ACCESS:          0 HIT:          0 MISS:          0
cpu0_DTLB WRITE        ACCESS:          0 HIT:          0 MISS:          0
cpu0_DTLB TRANSLATION  ACCESS:          0 HIT:          0 MISS:          0
cpu0_DTLB PREFETCH REQUESTED:          0 ISSUED:          0 USEFUL:          0 USELESS:          0
cpu0_DTLB AVERAGE MISS LATENCY: 5.383 cycles
cpu0_ITLB TOTAL        ACCESS:     710210 HIT:     709992 MISS:        218
cpu0_ITLB LOAD         ACCESS:     710210 HIT:     709992 MISS:        218
cpu0_ITLB RFO          ACCESS:          0 HIT:          0 MISS:          0
cpu0_ITLB PREFETCH     ACCESS:          0 HIT:          0 MISS:          0
cpu0_ITLB WRITE        ACCESS:          0 HIT:          0 MISS:          0
cpu0_ITLB TRANSLATION  ACCESS:          0 HIT:          0 MISS:          0
cpu0_ITLB PREFETCH REQUESTED:          0 ISSUED:          0 USEFUL:          0 USELESS:          0
cpu0_ITLB AVERAGE MISS LATENCY: 299.2 cycles
cpu0_L1D TOTAL        ACCESS:  167452487 HIT:  157761679 MISS:    9690808
cpu0_L1D LOAD         ACCESS:  130399382 HIT:  124573893 MISS:    5825489
cpu0_L1D RFO          ACCESS:          0 HIT:          0 MISS:          0
cpu0_L1D PREFETCH     ACCESS:          0 HIT:          0 MISS:          0
cpu0_L1D WRITE        ACCESS:   37000506 HIT:   33160077 MISS:    3840429
cpu0_L1D TRANSLATION  ACCESS:      52599 HIT:      27709 MISS:      24890
cpu0_L1D PREFETCH REQUESTED:          0 ISSUED:          0 USEFUL:          0 USELESS:          0
cpu0_L1D AVERAGE MISS LATENCY: 331.3 cycles
cpu0_L1I TOTAL        ACCESS:    1087337 HIT:    1084596 MISS:       2741
cpu0_L1I LOAD         ACCESS:    1087337 HIT:    1084596 MISS:       2741
cpu0_L1I RFO          ACCESS:          0 HIT:          0 MISS:          0
cpu0_L1I PREFETCH     ACCESS:          0 HIT:          0 MISS:          0
cpu0_L1I WRITE        ACCESS:          0 HIT:          0 MISS:          0
cpu0_L1I TRANSLATION  ACCESS:          0 HIT:          0 MISS:          0
cpu0_L1I PREFETCH REQUESTED:          0 ISSUED:          0 USEFUL:          0 USELESS:          0
cpu0_L1I AVERAGE MISS LATENCY: 509.6 cycles
cpu0_L2C TOTAL        ACCESS:    5977561 HIT:    2648390 MISS:    3329171
cpu0_L2C LOAD         ACCESS:    3057155 HIT:     575852 MISS:    2481303
cpu0_L2C RFO          ACCESS:     878199 HIT:      46521 MISS:     831678
cpu0_L2C PREFETCH     ACCESS:          0 HIT:          0 MISS:          0
cpu0_L2C WRITE        ACCESS:    2017363 HIT:    2013033 MISS:       4330
cpu0_L2C TRANSLATION  ACCESS:      24844 HIT:      12984 MISS:      11860
cpu0_L2C PREFETCH REQUESTED:          0 ISSUED:          0 USEFUL:          0 USELESS:          0
cpu0_L2C AVERAGE MISS LATENCY: 1026 cycles
cpu0_STLB TOTAL        ACCESS:    3988928 HIT:    3936342 MISS:      52586
cpu0_STLB LOAD         ACCESS:    3988928 HIT:    3936342 MISS:      52586
cpu0_STLB RFO          ACCESS:          0 HIT:          0 MISS:          0
cpu0_STLB PREFETCH     ACCESS:          0 HIT:          0 MISS:          0
cpu0_STLB WRITE        ACCESS:          0 HIT:          0 MISS:          0
cpu0_STLB TRANSLATION  ACCESS:          0 HIT:          0 MISS:          0
cpu0_STLB PREFETCH REQUESTED:          0 ISSUED:          0 USEFUL:          0 USELESS:          0
cpu0_STLB AVERAGE MISS LATENCY: 498.3 cycles

DRAM Statistics

Channel 0 RQ ROW_BUFFER_HIT:     751957
  ROW_BUFFER_MISS:    2373232
 AVG DBUS CONGESTED CYCLE: 3.932
WQ ROW_BUFFER_HIT: Channel 0 
  ROW_BUFFER_MISS:     297523
  FULL:    1384506
