WARNING: physical memory size is smaller than virtual memory size.

*** ChampSim Multicore Out-of-Order Simulator ***
Warmup Instructions: 50000000
Simulation Instructions: 600000000
Number of CPUs: 1
Page size: 4096

Off-chip DRAM Size: 4 GiB Channels: 1 Width: 64-bit Data Race: 3200 MT/s
Heartbeat CPU 0 instructions: 10000000 cycles: 2500202 heartbeat IPC: 4 cumulative IPC: 4 (Simulation time: 00 hr 00 min 54 sec)
Heartbeat CPU 0 instructions: 20000000 cycles: 5000202 heartbeat IPC: 4 cumulative IPC: 4 (Simulation time: 00 hr 01 min 45 sec)
Heartbeat CPU 0 instructions: 30000000 cycles: 7500202 heartbeat IPC: 4 cumulative IPC: 4 (Simulation time: 00 hr 02 min 35 sec)
Heartbeat CPU 0 instructions: 40000000 cycles: 10000202 heartbeat IPC: 4 cumulative IPC: 4 (Simulation time: 00 hr 03 min 22 sec)
Heartbeat CPU 0 instructions: 50000000 cycles: 12500202 heartbeat IPC: 4 cumulative IPC: 4 (Simulation time: 00 hr 04 min 07 sec)
Warmup finished CPU 0 instructions: 50000000 cycles: 12500203 cumulative IPC: 4 (Simulation time: 00 hr 04 min 07 sec)
Warmup complete CPU 0 instructions: 50000000 cycles: 12500203 cumulative IPC: 4 (Simulation time: 00 hr 04 min 07 sec)
Heartbeat CPU 0 instructions: 60000004 cycles: 15134819 heartbeat IPC: 3.796 cumulative IPC: 3.796 (Simulation time: 00 hr 04 min 56 sec)
Heartbeat CPU 0 instructions: 70000001 cycles: 17769448 heartbeat IPC: 3.796 cumulative IPC: 3.796 (Simulation time: 00 hr 05 min 44 sec)
Heartbeat CPU 0 instructions: 80000003 cycles: 20404098 heartbeat IPC: 3.796 cumulative IPC: 3.796 (Simulation time: 00 hr 06 min 32 sec)
Heartbeat CPU 0 instructions: 90000004 cycles: 23040451 heartbeat IPC: 3.793 cumulative IPC: 3.795 (Simulation time: 00 hr 07 min 19 sec)
Heartbeat CPU 0 instructions: 100000002 cycles: 25675667 heartbeat IPC: 3.795 cumulative IPC: 3.795 (Simulation time: 00 hr 08 min 06 sec)
Heartbeat CPU 0 instructions: 110000003 cycles: 28310936 heartbeat IPC: 3.795 cumulative IPC: 3.795 (Simulation time: 00 hr 08 min 52 sec)
Heartbeat CPU 0 instructions: 120000004 cycles: 30946653 heartbeat IPC: 3.794 cumulative IPC: 3.795 (Simulation time: 00 hr 09 min 38 sec)
Heartbeat CPU 0 instructions: 130000004 cycles: 33581973 heartbeat IPC: 3.795 cumulative IPC: 3.795 (Simulation time: 00 hr 10 min 24 sec)
Heartbeat CPU 0 instructions: 140000004 cycles: 36216585 heartbeat IPC: 3.796 cumulative IPC: 3.795 (Simulation time: 00 hr 11 min 12 sec)
Heartbeat CPU 0 instructions: 150000000 cycles: 38852143 heartbeat IPC: 3.794 cumulative IPC: 3.795 (Simulation time: 00 hr 11 min 58 sec)
Heartbeat CPU 0 instructions: 160000001 cycles: 41487203 heartbeat IPC: 3.795 cumulative IPC: 3.795 (Simulation time: 00 hr 12 min 46 sec)
Heartbeat CPU 0 instructions: 170000000 cycles: 44121822 heartbeat IPC: 3.796 cumulative IPC: 3.795 (Simulation time: 00 hr 13 min 33 sec)
Heartbeat CPU 0 instructions: 180000003 cycles: 46756882 heartbeat IPC: 3.795 cumulative IPC: 3.795 (Simulation time: 00 hr 14 min 22 sec)
Heartbeat CPU 0 instructions: 190000003 cycles: 49392271 heartbeat IPC: 3.795 cumulative IPC: 3.795 (Simulation time: 00 hr 15 min 10 sec)
Heartbeat CPU 0 instructions: 200000002 cycles: 52027187 heartbeat IPC: 3.795 cumulative IPC: 3.795 (Simulation time: 00 hr 15 min 59 sec)
Heartbeat CPU 0 instructions: 210000003 cycles: 54661820 heartbeat IPC: 3.796 cumulative IPC: 3.795 (Simulation time: 00 hr 16 min 47 sec)
Heartbeat CPU 0 instructions: 220000002 cycles: 57298513 heartbeat IPC: 3.793 cumulative IPC: 3.795 (Simulation time: 00 hr 17 min 36 sec)
Heartbeat CPU 0 instructions: 230000002 cycles: 59933132 heartbeat IPC: 3.796 cumulative IPC: 3.795 (Simulation time: 00 hr 18 min 26 sec)
Heartbeat CPU 0 instructions: 240000002 cycles: 92072468 heartbeat IPC: 0.3111 cumulative IPC: 2.388 (Simulation time: 00 hr 23 min 23 sec)
Heartbeat CPU 0 instructions: 250000000 cycles: 100840083 heartbeat IPC: 1.141 cumulative IPC: 2.264 (Simulation time: 00 hr 25 min 20 sec)
Heartbeat CPU 0 instructions: 260000003 cycles: 109569429 heartbeat IPC: 1.146 cumulative IPC: 2.163 (Simulation time: 00 hr 27 min 16 sec)
Heartbeat CPU 0 instructions: 270000000 cycles: 116842992 heartbeat IPC: 1.375 cumulative IPC: 2.108 (Simulation time: 00 hr 28 min 57 sec)
Heartbeat CPU 0 instructions: 280000003 cycles: 121673101 heartbeat IPC: 2.07 cumulative IPC: 2.107 (Simulation time: 00 hr 30 min 13 sec)
Heartbeat CPU 0 instructions: 290000000 cycles: 126501638 heartbeat IPC: 2.071 cumulative IPC: 2.105 (Simulation time: 00 hr 31 min 28 sec)
Heartbeat CPU 0 instructions: 300000003 cycles: 131340077 heartbeat IPC: 2.067 cumulative IPC: 2.104 (Simulation time: 00 hr 32 min 44 sec)
Heartbeat CPU 0 instructions: 310000003 cycles: 136152340 heartbeat IPC: 2.078 cumulative IPC: 2.103 (Simulation time: 00 hr 34 min 01 sec)
Heartbeat CPU 0 instructions: 320000003 cycles: 141540281 heartbeat IPC: 1.856 cumulative IPC: 2.092 (Simulation time: 00 hr 35 min 23 sec)
Heartbeat CPU 0 instructions: 330000001 cycles: 149321262 heartbeat IPC: 1.285 cumulative IPC: 2.046 (Simulation time: 00 hr 37 min 11 sec)
Heartbeat CPU 0 instructions: 340000001 cycles: 156954724 heartbeat IPC: 1.31 cumulative IPC: 2.008 (Simulation time: 00 hr 38 min 57 sec)
Heartbeat CPU 0 instructions: 350000002 cycles: 164531877 heartbeat IPC: 1.32 cumulative IPC: 1.973 (Simulation time: 00 hr 40 min 44 sec)
Heartbeat CPU 0 instructions: 360000000 cycles: 172156318 heartbeat IPC: 1.312 cumulative IPC: 1.942 (Simulation time: 00 hr 42 min 31 sec)
Heartbeat CPU 0 instructions: 370000002 cycles: 179834647 heartbeat IPC: 1.302 cumulative IPC: 1.912 (Simulation time: 00 hr 44 min 21 sec)
Heartbeat CPU 0 instructions: 380000001 cycles: 188408254 heartbeat IPC: 1.166 cumulative IPC: 1.876 (Simulation time: 00 hr 46 min 21 sec)
Heartbeat CPU 0 instructions: 390000003 cycles: 197747478 heartbeat IPC: 1.071 cumulative IPC: 1.835 (Simulation time: 00 hr 48 min 32 sec)
Heartbeat CPU 0 instructions: 400000004 cycles: 207052353 heartbeat IPC: 1.075 cumulative IPC: 1.799 (Simulation time: 00 hr 50 min 40 sec)
Heartbeat CPU 0 instructions: 410000002 cycles: 216308475 heartbeat IPC: 1.08 cumulative IPC: 1.766 (Simulation time: 00 hr 52 min 48 sec)
Heartbeat CPU 0 instructions: 420000000 cycles: 225491012 heartbeat IPC: 1.089 cumulative IPC: 1.737 (Simulation time: 00 hr 54 min 56 sec)
Heartbeat CPU 0 instructions: 430000003 cycles: 234679735 heartbeat IPC: 1.088 cumulative IPC: 1.71 (Simulation time: 00 hr 57 min 04 sec)
Heartbeat CPU 0 instructions: 440000004 cycles: 364337047 heartbeat IPC: 0.07713 cumulative IPC: 1.108 (Simulation time: 01 hr 20 min 58 sec)
Heartbeat CPU 0 instructions: 450000002 cycles: 371838020 heartbeat IPC: 1.333 cumulative IPC: 1.113 (Simulation time: 01 hr 22 min 48 sec)
Heartbeat CPU 0 instructions: 460000000 cycles: 381033049 heartbeat IPC: 1.088 cumulative IPC: 1.113 (Simulation time: 01 hr 24 min 55 sec)
Heartbeat CPU 0 instructions: 470000003 cycles: 389809254 heartbeat IPC: 1.139 cumulative IPC: 1.113 (Simulation time: 01 hr 26 min 59 sec)
Heartbeat CPU 0 instructions: 480000003 cycles: 399150515 heartbeat IPC: 1.071 cumulative IPC: 1.112 (Simulation time: 01 hr 29 min 09 sec)
Heartbeat CPU 0 instructions: 490000002 cycles: 408402020 heartbeat IPC: 1.081 cumulative IPC: 1.111 (Simulation time: 01 hr 31 min 16 sec)
Heartbeat CPU 0 instructions: 500000003 cycles: 419781042 heartbeat IPC: 0.8788 cumulative IPC: 1.105 (Simulation time: 01 hr 33 min 47 sec)
Heartbeat CPU 0 instructions: 510000001 cycles: 435308555 heartbeat IPC: 0.644 cumulative IPC: 1.088 (Simulation time: 01 hr 37 min 03 sec)
Heartbeat CPU 0 instructions: 520000003 cycles: 451650467 heartbeat IPC: 0.6119 cumulative IPC: 1.07 (Simulation time: 01 hr 40 min 29 sec)
Heartbeat CPU 0 instructions: 530000000 cycles: 468144530 heartbeat IPC: 0.6063 cumulative IPC: 1.053 (Simulation time: 01 hr 43 min 59 sec)
Heartbeat CPU 0 instructions: 540000002 cycles: 484041164 heartbeat IPC: 0.6291 cumulative IPC: 1.039 (Simulation time: 01 hr 47 min 21 sec)
Heartbeat CPU 0 instructions: 550000000 cycles: 495655304 heartbeat IPC: 0.861 cumulative IPC: 1.035 (Simulation time: 01 hr 49 min 56 sec)
Heartbeat CPU 0 instructions: 560000002 cycles: 505620599 heartbeat IPC: 1.003 cumulative IPC: 1.034 (Simulation time: 01 hr 52 min 11 sec)
Heartbeat CPU 0 instructions: 570000000 cycles: 515697390 heartbeat IPC: 0.9924 cumulative IPC: 1.033 (Simulation time: 01 hr 54 min 24 sec)
Heartbeat CPU 0 instructions: 580000001 cycles: 525727895 heartbeat IPC: 0.997 cumulative IPC: 1.033 (Simulation time: 01 hr 56 min 38 sec)
Heartbeat CPU 0 instructions: 590000000 cycles: 535747267 heartbeat IPC: 0.9981 cumulative IPC: 1.032 (Simulation time: 01 hr 58 min 52 sec)
*** Reached end of trace: (0, "traces/lu.A.champsimtrace")
Heartbeat CPU 0 instructions: 600000001 cycles: 545899349 heartbeat IPC: 0.985 cumulative IPC: 1.031 (Simulation time: 02 hr 01 min 06 sec)
Heartbeat CPU 0 instructions: 610000004 cycles: 549378572 heartbeat IPC: 2.874 cumulative IPC: 1.043 (Simulation time: 02 hr 02 min 07 sec)
Heartbeat CPU 0 instructions: 620000003 cycles: 552013206 heartbeat IPC: 3.796 cumulative IPC: 1.057 (Simulation time: 02 hr 02 min 56 sec)
Heartbeat CPU 0 instructions: 630000002 cycles: 554647837 heartbeat IPC: 3.796 cumulative IPC: 1.07 (Simulation time: 02 hr 03 min 45 sec)
Heartbeat CPU 0 instructions: 640000000 cycles: 557282460 heartbeat IPC: 3.796 cumulative IPC: 1.083 (Simulation time: 02 hr 04 min 36 sec)
Heartbeat CPU 0 instructions: 650000004 cycles: 559917092 heartbeat IPC: 3.796 cumulative IPC: 1.096 (Simulation time: 02 hr 05 min 27 sec)
Simulation finished CPU 0 instructions: 600000004 cycles: 547416890 cumulative IPC: 1.096 (Simulation time: 02 hr 05 min 27 sec)
Simulation complete CPU 0 instructions: 600000004 cycles: 547416890 cumulative IPC: 1.096 (Simulation time: 02 hr 05 min 27 sec)

ChampSim completed all CPUs

=== Simulation ===
CPU 0 runs traces/lu.A.champsimtrace
Region of Interest Statistics

CPU 0 cumulative IPC: 1.096 instructions: 600000004 cycles: 547416890
CPU 0 Branch Prediction Accuracy: 96.64% MPKI: 0.6427 Average ROB Occupancy at Mispredict: 329
Branch type MPKI
BRANCH_DIRECT_JUMP: 5e-06
BRANCH_INDIRECT: 7.83e-05
BRANCH_CONDITIONAL: 0.643
BRANCH_DIRECT_CALL: 6.67e-06
BRANCH_INDIRECT_CALL: 3.5e-05
BRANCH_RETURN: 1.83e-05

LLC TOTAL        ACCESS:    7691444 HIT:    2489607 MISS:    5201837
LLC LOAD         ACCESS:    2480830 HIT:    1429640 MISS:    1051190
LLC RFO          ACCESS:     831663 HIT:      94937 MISS:     736726
LLC PREFETCH     ACCESS:    2585228 HIT:     322201 MISS:    2263027
LLC WRITE        ACCESS:    1781866 HIT:     639103 MISS:    1142763
LLC TRANSLATION  ACCESS:      11857 HIT:       3726 MISS:       8131
LLC PREFETCH REQUESTED:    3694141 ISSUED:    2585228 USEFUL:    1584498 USELESS:      80954
LLC AVERAGE MISS LATENCY: 1140 cycles
cpu0_DTLB TOTAL        ACCESS:  115945792 HIT:  108731234 MISS:    7214558
cpu0_DTLB LOAD         ACCESS:  115945792 HIT:  108731234 MISS:    7214558
cpu0_DTLB RFO          ACCESS:          0 HIT:          0 MISS:          0
cpu0_DTLB PREFETCH     ACCESS:          0 HIT:          0 MISS:          0
cpu0_DTLB WRITE        ACCESS:          0 HIT:          0 MISS:          0
cpu0_DTLB TRANSLATION  ACCESS:          0 HIT:          0 MISS:          0
cpu0_DTLB PREFETCH REQUESTED:          0 ISSUED:          0 USEFUL:          0 USELESS:          0
cpu0_DTLB AVERAGE MISS LATENCY: 7.528 cycles
cpu0_ITLB TOTAL        ACCESS:     702380 HIT:     702172 MISS:        208
cpu0_ITLB LOAD         ACCESS:     702380 HIT:     702172 MISS:        208
cpu0_ITLB RFO          ACCESS:          0 HIT:          0 MISS:          0
cpu0_ITLB PREFETCH     ACCESS:          0 HIT:          0 MISS:          0
cpu0_ITLB WRITE        ACCESS:          0 HIT:          0 MISS:          0
cpu0_ITLB TRANSLATION  ACCESS:          0 HIT:          0 MISS:          0
cpu0_ITLB PREFETCH REQUESTED:          0 ISSUED:          0 USEFUL:          0 USELESS:          0
cpu0_ITLB AVERAGE MISS LATENCY: 298 cycles
cpu0_L1D TOTAL        ACCESS:  167083368 HIT:  157717160 MISS:    9366208
cpu0_L1D LOAD         ACCESS:  130024712 HIT:  124339555 MISS:    5685157
cpu0_L1D RFO          ACCESS:          0 HIT:          0 MISS:          0
cpu0_L1D PREFETCH     ACCESS:          0 HIT:          0 MISS:          0
cpu0_L1D WRITE        ACCESS:   37006058 HIT:   33350490 MISS:    3655568
cpu0_L1D TRANSLATION  ACCESS:      52598 HIT:      27115 MISS:      25483
cpu0_L1D PREFETCH REQUESTED:          0 ISSUED:          0 USEFUL:          0 USELESS:          0
cpu0_L1D AVERAGE MISS LATENCY: 250.6 cycles
cpu0_L1I TOTAL        ACCESS:    1077740 HIT:    1075012 MISS:       2728
cpu0_L1I LOAD         ACCESS:    1077740 HIT:    1075012 MISS:       2728
cpu0_L1I RFO          ACCESS:          0 HIT:          0 MISS:          0
cpu0_L1I PREFETCH     ACCESS:          0 HIT:          0 MISS:          0
cpu0_L1I WRITE        ACCESS:          0 HIT:          0 MISS:          0
cpu0_L1I TRANSLATION  ACCESS:          0 HIT:          0 MISS:          0
cpu0_L1I PREFETCH REQUESTED:          0 ISSUED:          0 USEFUL:          0 USELESS:          0
cpu0_L1I AVERAGE MISS LATENCY: 394.7 cycles
cpu0_L2C TOTAL        ACCESS:    5964691 HIT:    2636204 MISS:    3328487
cpu0_L2C LOAD         ACCESS:    3058810 HIT:     577980 MISS:    2480830
cpu0_L2C RFO          ACCESS:     876222 HIT:      44559 MISS:     831663
cpu0_L2C PREFETCH     ACCESS:          0 HIT:          0 MISS:          0
cpu0_L2C WRITE        ACCESS:    2004238 HIT:    2000101 MISS:       4137
cpu0_L2C TRANSLATION  ACCESS:      25421 HIT:      13564 MISS:      11857
cpu0_L2C PREFETCH REQUESTED:          0 ISSUED:          0 USEFUL:          0 USELESS:          0
cpu0_L2C AVERAGE MISS LATENCY: 762.6 cycles
cpu0_STLB TOTAL        ACCESS:    4041736 HIT:    3989153 MISS:      52583
cpu0_STLB LOAD         ACCESS:    4041736 HIT:    3989153 MISS:      52583
cpu0_STLB RFO          ACCESS:          0 HIT:          0 MISS:          0
cpu0_STLB PREFETCH     ACCESS:          0 HIT:          0 MISS:          0
cpu0_STLB WRITE        ACCESS:          0 HIT:          0 MISS:          0
cpu0_STLB TRANSLATION  ACCESS:          0 HIT:          0 MISS:          0
cpu0_STLB PREFETCH REQUESTED:          0 ISSUED:          0 USEFUL:          0 USELESS:          0
cpu0_STLB AVERAGE MISS LATENCY: 847.3 cycles

DRAM Statistics

Channel 0 RQ ROW_BUFFER_HIT:     784031
  ROW_BUFFER_MISS:    2237887
 AVG DBUS CONGESTED CYCLE: 3.966
WQ ROW_BUFFER_HIT: Channel 0 
  ROW_BUFFER_MISS:     486238
  FULL:    1183636
