WARNING: physical memory size is smaller than virtual memory size.

*** ChampSim Multicore Out-of-Order Simulator ***
Warmup Instructions: 50000000
Simulation Instructions: 600000000
Number of CPUs: 1
Page size: 4096

Off-chip DRAM Size: 4 GiB Channels: 1 Width: 64-bit Data Race: 3200 MT/s
Heartbeat CPU 0 instructions: 10000000 cycles: 2500202 heartbeat IPC: 4 cumulative IPC: 4 (Simulation time: 00 hr 00 min 39 sec)
Heartbeat CPU 0 instructions: 20000000 cycles: 5000202 heartbeat IPC: 4 cumulative IPC: 4 (Simulation time: 00 hr 01 min 17 sec)
Heartbeat CPU 0 instructions: 30000000 cycles: 7500202 heartbeat IPC: 4 cumulative IPC: 4 (Simulation time: 00 hr 01 min 56 sec)
Heartbeat CPU 0 instructions: 40000000 cycles: 10000202 heartbeat IPC: 4 cumulative IPC: 4 (Simulation time: 00 hr 02 min 32 sec)
Heartbeat CPU 0 instructions: 50000000 cycles: 12500202 heartbeat IPC: 4 cumulative IPC: 4 (Simulation time: 00 hr 03 min 12 sec)
Warmup finished CPU 0 instructions: 50000000 cycles: 12500203 cumulative IPC: 4 (Simulation time: 00 hr 03 min 12 sec)
Warmup complete CPU 0 instructions: 50000000 cycles: 12500203 cumulative IPC: 4 (Simulation time: 00 hr 03 min 12 sec)
Heartbeat CPU 0 instructions: 60000004 cycles: 15002757 heartbeat IPC: 3.996 cumulative IPC: 3.996 (Simulation time: 00 hr 03 min 52 sec)
Heartbeat CPU 0 instructions: 70000003 cycles: 17504508 heartbeat IPC: 3.997 cumulative IPC: 3.997 (Simulation time: 00 hr 04 min 31 sec)
Heartbeat CPU 0 instructions: 80000004 cycles: 20006741 heartbeat IPC: 3.996 cumulative IPC: 3.997 (Simulation time: 00 hr 05 min 09 sec)
Heartbeat CPU 0 instructions: 90000000 cycles: 22510006 heartbeat IPC: 3.995 cumulative IPC: 3.996 (Simulation time: 00 hr 05 min 47 sec)
Heartbeat CPU 0 instructions: 100000001 cycles: 25011745 heartbeat IPC: 3.997 cumulative IPC: 3.996 (Simulation time: 00 hr 06 min 27 sec)
Heartbeat CPU 0 instructions: 110000000 cycles: 27513508 heartbeat IPC: 3.997 cumulative IPC: 3.996 (Simulation time: 00 hr 07 min 10 sec)
Heartbeat CPU 0 instructions: 120000004 cycles: 30015896 heartbeat IPC: 3.996 cumulative IPC: 3.996 (Simulation time: 00 hr 07 min 50 sec)
Heartbeat CPU 0 instructions: 130000000 cycles: 32518199 heartbeat IPC: 3.996 cumulative IPC: 3.996 (Simulation time: 00 hr 08 min 30 sec)
Heartbeat CPU 0 instructions: 140000004 cycles: 35019951 heartbeat IPC: 3.997 cumulative IPC: 3.996 (Simulation time: 00 hr 09 min 09 sec)
Heartbeat CPU 0 instructions: 150000000 cycles: 37522668 heartbeat IPC: 3.996 cumulative IPC: 3.996 (Simulation time: 00 hr 09 min 47 sec)
Heartbeat CPU 0 instructions: 160000001 cycles: 40025494 heartbeat IPC: 3.995 cumulative IPC: 3.996 (Simulation time: 00 hr 10 min 25 sec)
Heartbeat CPU 0 instructions: 170000000 cycles: 42527378 heartbeat IPC: 3.997 cumulative IPC: 3.996 (Simulation time: 00 hr 11 min 04 sec)
Heartbeat CPU 0 instructions: 180000003 cycles: 45031276 heartbeat IPC: 3.994 cumulative IPC: 3.996 (Simulation time: 00 hr 11 min 44 sec)
Heartbeat CPU 0 instructions: 190000000 cycles: 47533350 heartbeat IPC: 3.997 cumulative IPC: 3.996 (Simulation time: 00 hr 12 min 23 sec)
Heartbeat CPU 0 instructions: 200000004 cycles: 50036725 heartbeat IPC: 3.995 cumulative IPC: 3.996 (Simulation time: 00 hr 13 min 02 sec)
Heartbeat CPU 0 instructions: 210000004 cycles: 52538585 heartbeat IPC: 3.997 cumulative IPC: 3.996 (Simulation time: 00 hr 13 min 41 sec)
Heartbeat CPU 0 instructions: 220000001 cycles: 55041218 heartbeat IPC: 3.996 cumulative IPC: 3.996 (Simulation time: 00 hr 14 min 19 sec)
Heartbeat CPU 0 instructions: 230000000 cycles: 57542972 heartbeat IPC: 3.997 cumulative IPC: 3.996 (Simulation time: 00 hr 14 min 57 sec)
Heartbeat CPU 0 instructions: 240000003 cycles: 89568494 heartbeat IPC: 0.3123 cumulative IPC: 2.465 (Simulation time: 00 hr 18 min 18 sec)
Heartbeat CPU 0 instructions: 250000000 cycles: 98285656 heartbeat IPC: 1.147 cumulative IPC: 2.331 (Simulation time: 00 hr 19 min 45 sec)
Heartbeat CPU 0 instructions: 260000001 cycles: 106976415 heartbeat IPC: 1.151 cumulative IPC: 2.223 (Simulation time: 00 hr 21 min 17 sec)
Heartbeat CPU 0 instructions: 270000001 cycles: 114347651 heartbeat IPC: 1.357 cumulative IPC: 2.16 (Simulation time: 00 hr 22 min 38 sec)
Heartbeat CPU 0 instructions: 280000003 cycles: 120027524 heartbeat IPC: 1.761 cumulative IPC: 2.139 (Simulation time: 00 hr 23 min 45 sec)
Heartbeat CPU 0 instructions: 290000001 cycles: 125678126 heartbeat IPC: 1.77 cumulative IPC: 2.121 (Simulation time: 00 hr 24 min 54 sec)
Heartbeat CPU 0 instructions: 300000002 cycles: 131360375 heartbeat IPC: 1.76 cumulative IPC: 2.103 (Simulation time: 00 hr 25 min 58 sec)
Heartbeat CPU 0 instructions: 310000002 cycles: 137028743 heartbeat IPC: 1.764 cumulative IPC: 2.088 (Simulation time: 00 hr 27 min 02 sec)
Heartbeat CPU 0 instructions: 320000000 cycles: 143321365 heartbeat IPC: 1.589 cumulative IPC: 2.064 (Simulation time: 00 hr 28 min 12 sec)
Heartbeat CPU 0 instructions: 330000002 cycles: 151402451 heartbeat IPC: 1.237 cumulative IPC: 2.016 (Simulation time: 00 hr 29 min 48 sec)
Heartbeat CPU 0 instructions: 340000004 cycles: 159475832 heartbeat IPC: 1.239 cumulative IPC: 1.973 (Simulation time: 00 hr 31 min 29 sec)
Heartbeat CPU 0 instructions: 350000003 cycles: 167577175 heartbeat IPC: 1.234 cumulative IPC: 1.935 (Simulation time: 00 hr 33 min 06 sec)
Heartbeat CPU 0 instructions: 360000001 cycles: 175687953 heartbeat IPC: 1.233 cumulative IPC: 1.9 (Simulation time: 00 hr 34 min 41 sec)
Heartbeat CPU 0 instructions: 370000002 cycles: 183652813 heartbeat IPC: 1.256 cumulative IPC: 1.87 (Simulation time: 00 hr 36 min 12 sec)
Heartbeat CPU 0 instructions: 380000003 cycles: 192085684 heartbeat IPC: 1.186 cumulative IPC: 1.838 (Simulation time: 00 hr 37 min 50 sec)
Heartbeat CPU 0 instructions: 390000000 cycles: 200956581 heartbeat IPC: 1.127 cumulative IPC: 1.804 (Simulation time: 00 hr 39 min 28 sec)
Heartbeat CPU 0 instructions: 400000000 cycles: 209917965 heartbeat IPC: 1.116 cumulative IPC: 1.773 (Simulation time: 00 hr 41 min 05 sec)
Heartbeat CPU 0 instructions: 410000002 cycles: 218914430 heartbeat IPC: 1.112 cumulative IPC: 1.744 (Simulation time: 00 hr 42 min 38 sec)
Heartbeat CPU 0 instructions: 420000000 cycles: 227765174 heartbeat IPC: 1.13 cumulative IPC: 1.719 (Simulation time: 00 hr 44 min 09 sec)
Heartbeat CPU 0 instructions: 430000002 cycles: 236603793 heartbeat IPC: 1.131 cumulative IPC: 1.696 (Simulation time: 00 hr 45 min 40 sec)
Heartbeat CPU 0 instructions: 440000004 cycles: 375277581 heartbeat IPC: 0.07211 cumulative IPC: 1.075 (Simulation time: 01 hr 03 min 28 sec)
Heartbeat CPU 0 instructions: 450000003 cycles: 383973081 heartbeat IPC: 1.15 cumulative IPC: 1.077 (Simulation time: 01 hr 04 min 51 sec)
Heartbeat CPU 0 instructions: 460000004 cycles: 392809390 heartbeat IPC: 1.132 cumulative IPC: 1.078 (Simulation time: 01 hr 06 min 15 sec)
Heartbeat CPU 0 instructions: 470000002 cycles: 401486038 heartbeat IPC: 1.153 cumulative IPC: 1.08 (Simulation time: 01 hr 07 min 38 sec)
Heartbeat CPU 0 instructions: 480000004 cycles: 410469612 heartbeat IPC: 1.113 cumulative IPC: 1.08 (Simulation time: 01 hr 09 min 04 sec)
Heartbeat CPU 0 instructions: 490000002 cycles: 419331178 heartbeat IPC: 1.128 cumulative IPC: 1.082 (Simulation time: 01 hr 10 min 30 sec)
Heartbeat CPU 0 instructions: 500000003 cycles: 434640558 heartbeat IPC: 0.6532 cumulative IPC: 1.066 (Simulation time: 01 hr 12 min 45 sec)
Heartbeat CPU 0 instructions: 510000004 cycles: 451681397 heartbeat IPC: 0.5868 cumulative IPC: 1.047 (Simulation time: 01 hr 15 min 15 sec)
Heartbeat CPU 0 instructions: 520000000 cycles: 468684087 heartbeat IPC: 0.5881 cumulative IPC: 1.03 (Simulation time: 01 hr 17 min 47 sec)
Heartbeat CPU 0 instructions: 530000004 cycles: 485679132 heartbeat IPC: 0.5884 cumulative IPC: 1.014 (Simulation time: 01 hr 20 min 15 sec)
Heartbeat CPU 0 instructions: 540000002 cycles: 502615189 heartbeat IPC: 0.5905 cumulative IPC: 0.9998 (Simulation time: 01 hr 22 min 51 sec)
Heartbeat CPU 0 instructions: 550000002 cycles: 515323914 heartbeat IPC: 0.7869 cumulative IPC: 0.9944 (Simulation time: 01 hr 24 min 44 sec)
Heartbeat CPU 0 instructions: 560000000 cycles: 526548961 heartbeat IPC: 0.8909 cumulative IPC: 0.9921 (Simulation time: 01 hr 26 min 28 sec)
Heartbeat CPU 0 instructions: 570000002 cycles: 537769626 heartbeat IPC: 0.8912 cumulative IPC: 0.99 (Simulation time: 01 hr 28 min 13 sec)
Heartbeat CPU 0 instructions: 580000003 cycles: 548990337 heartbeat IPC: 0.8912 cumulative IPC: 0.9879 (Simulation time: 01 hr 29 min 55 sec)
Heartbeat CPU 0 instructions: 590000003 cycles: 560186785 heartbeat IPC: 0.8931 cumulative IPC: 0.986 (Simulation time: 01 hr 31 min 38 sec)
*** Reached end of trace: (0, "traces/lu.A.champsimtrace")
Heartbeat CPU 0 instructions: 600000001 cycles: 571454596 heartbeat IPC: 0.8875 cumulative IPC: 0.984 (Simulation time: 01 hr 33 min 26 sec)
Heartbeat CPU 0 instructions: 610000000 cycles: 575488348 heartbeat IPC: 2.479 cumulative IPC: 0.9947 (Simulation time: 01 hr 34 min 12 sec)
Heartbeat CPU 0 instructions: 620000000 cycles: 577990127 heartbeat IPC: 3.997 cumulative IPC: 1.008 (Simulation time: 01 hr 34 min 49 sec)
Heartbeat CPU 0 instructions: 630000004 cycles: 580492658 heartbeat IPC: 3.996 cumulative IPC: 1.021 (Simulation time: 01 hr 35 min 27 sec)
Heartbeat CPU 0 instructions: 640000002 cycles: 582994408 heartbeat IPC: 3.997 cumulative IPC: 1.034 (Simulation time: 01 hr 36 min 05 sec)
Heartbeat CPU 0 instructions: 650000001 cycles: 585497161 heartbeat IPC: 3.996 cumulative IPC: 1.047 (Simulation time: 01 hr 36 min 42 sec)
Simulation finished CPU 0 instructions: 600000001 cycles: 572996959 cumulative IPC: 1.047 (Simulation time: 01 hr 36 min 42 sec)
Simulation complete CPU 0 instructions: 600000001 cycles: 572996959 cumulative IPC: 1.047 (Simulation time: 01 hr 36 min 42 sec)

ChampSim completed all CPUs

=== Simulation ===
CPU 0 runs traces/lu.A.champsimtrace
Region of Interest Statistics

CPU 0 cumulative IPC: 1.047 instructions: 600000001 cycles: 572996959
CPU 0 Branch Prediction Accuracy: 98.73% MPKI: 0.2427 Average ROB Occupancy at Mispredict: 326.6
Branch type MPKI
BRANCH_DIRECT_JUMP: 5e-06
BRANCH_INDIRECT: 7.33e-05
BRANCH_CONDITIONAL: 0.243
BRANCH_DIRECT_CALL: 6.67e-06
BRANCH_INDIRECT_CALL: 3.17e-05
BRANCH_RETURN: 1.83e-05

LLC TOTAL        ACCESS:    5107193 HIT:     292956 MISS:    4814237
LLC LOAD         ACCESS:    2481324 HIT:     158531 MISS:    2322793
LLC RFO          ACCESS:     831676 HIT:      38463 MISS:     793213
LLC PREFETCH     ACCESS:          0 HIT:          0 MISS:          0
LLC WRITE        ACCESS:    1782337 HIT:      93288 MISS:    1689049
LLC TRANSLATION  ACCESS:      11856 HIT:       2674 MISS:       9182
LLC PREFETCH REQUESTED:          0 ISSUED:          0 USEFUL:          0 USELESS:          0
LLC AVERAGE MISS LATENCY: 665.2 cycles
cpu0_DTLB TOTAL        ACCESS:  123189599 HIT:  115965888 MISS:    7223711
cpu0_DTLB LOAD         ACCESS:  123189599 HIT:  115965888 MISS:    7223711
cpu0_DTLB RFO          ACCESS:          0 HIT:          0 MISS:          0
cpu0_DTLB PREFETCH     ACCESS:          0 HIT:          0 MISS:          0
cpu0_DTLB WRITE        ACCESS:          0 HIT:          0 MISS:          0
cpu0_DTLB TRANSLATION  ACCESS:          0 HIT:          0 MISS:          0
cpu0_DTLB PREFETCH REQUESTED:          0 ISSUED:          0 USEFUL:          0 USELESS:          0
cpu0_DTLB AVERAGE MISS LATENCY: 6.503 cycles
cpu0_ITLB TOTAL        ACCESS:     719656 HIT:     719455 MISS:        201
cpu0_ITLB LOAD         ACCESS:     719656 HIT:     719455 MISS:        201
cpu0_ITLB RFO          ACCESS:          0 HIT:          0 MISS:          0
cpu0_ITLB PREFETCH     ACCESS:          0 HIT:          0 MISS:          0
cpu0_ITLB WRITE        ACCESS:          0 HIT:          0 MISS:          0
cpu0_ITLB TRANSLATION  ACCESS:          0 HIT:          0 MISS:          0
cpu0_ITLB PREFETCH REQUESTED:          0 ISSUED:          0 USEFUL:          0 USELESS:          0
cpu0_ITLB AVERAGE MISS LATENCY: 288.4 cycles
cpu0_L1D TOTAL        ACCESS:  176504419 HIT:  166930699 MISS:    9573720
cpu0_L1D LOAD         ACCESS:  139445099 HIT:  133635752 MISS:    5809347
cpu0_L1D RFO          ACCESS:          0 HIT:          0 MISS:          0
cpu0_L1D PREFETCH     ACCESS:          0 HIT:          0 MISS:          0
cpu0_L1D WRITE        ACCESS:   37006724 HIT:   33267245 MISS:    3739479
cpu0_L1D TRANSLATION  ACCESS:      52596 HIT:      27702 MISS:      24894
cpu0_L1D PREFETCH REQUESTED:          0 ISSUED:          0 USEFUL:          0 USELESS:          0
cpu0_L1D AVERAGE MISS LATENCY: 321.2 cycles
cpu0_L1I TOTAL        ACCESS:    1106170 HIT:    1103441 MISS:       2729
cpu0_L1I LOAD         ACCESS:    1106170 HIT:    1103441 MISS:       2729
cpu0_L1I RFO          ACCESS:          0 HIT:          0 MISS:          0
cpu0_L1I PREFETCH     ACCESS:          0 HIT:          0 MISS:          0
cpu0_L1I WRITE        ACCESS:          0 HIT:          0 MISS:          0
cpu0_L1I TRANSLATION  ACCESS:          0 HIT:          0 MISS:          0
cpu0_L1I PREFETCH REQUESTED:          0 ISSUED:          0 USEFUL:          0 USELESS:          0
cpu0_L1I AVERAGE MISS LATENCY: 506.6 cycles
cpu0_L2C TOTAL        ACCESS:    5978028 HIT:    2648835 MISS:    3329193
cpu0_L2C LOAD         ACCESS:    3057379 HIT:     576055 MISS:    2481324
cpu0_L2C RFO          ACCESS:     878236 HIT:      46560 MISS:     831676
cpu0_L2C PREFETCH     ACCESS:          0 HIT:          0 MISS:          0
cpu0_L2C WRITE        ACCESS:    2017565 HIT:    2013228 MISS:       4337
cpu0_L2C TRANSLATION  ACCESS:      24848 HIT:      12992 MISS:      11856
cpu0_L2C PREFETCH REQUESTED:          0 ISSUED:          0 USEFUL:          0 USELESS:          0
cpu0_L2C AVERAGE MISS LATENCY: 982.9 cycles
cpu0_STLB TOTAL        ACCESS:    3989308 HIT:    3936722 MISS:      52586
cpu0_STLB LOAD         ACCESS:    3989308 HIT:    3936722 MISS:      52586
cpu0_STLB RFO          ACCESS:          0 HIT:          0 MISS:          0
cpu0_STLB PREFETCH     ACCESS:          0 HIT:          0 MISS:          0
cpu0_STLB WRITE        ACCESS:          0 HIT:          0 MISS:          0
cpu0_STLB TRANSLATION  ACCESS:          0 HIT:          0 MISS:          0
cpu0_STLB PREFETCH REQUESTED:          0 ISSUED:          0 USEFUL:          0 USELESS:          0
cpu0_STLB AVERAGE MISS LATENCY: 706.1 cycles

DRAM Statistics

Channel 0 RQ ROW_BUFFER_HIT:     777452
  ROW_BUFFER_MISS:    2345522
 AVG DBUS CONGESTED CYCLE: 3.926
WQ ROW_BUFFER_HIT: Channel 0 
  ROW_BUFFER_MISS:     514620
  FULL:    1214481
