WARNING: physical memory size is smaller than virtual memory size.

*** ChampSim Multicore Out-of-Order Simulator ***
Warmup Instructions: 50000000
Simulation Instructions: 600000000
Number of CPUs: 1
Page size: 4096

CPU 0 Tage branch predictor
Off-chip DRAM Size: 4 GiB Channels: 1 Width: 64-bit Data Race: 3200 MT/s
Heartbeat CPU 0 instructions: 10000000 cycles: 2500202 heartbeat IPC: 4 cumulative IPC: 4 (Simulation time: 00 hr 00 min 51 sec)
Heartbeat CPU 0 instructions: 20000000 cycles: 5000202 heartbeat IPC: 4 cumulative IPC: 4 (Simulation time: 00 hr 01 min 44 sec)
Heartbeat CPU 0 instructions: 30000000 cycles: 7500202 heartbeat IPC: 4 cumulative IPC: 4 (Simulation time: 00 hr 02 min 35 sec)
Heartbeat CPU 0 instructions: 40000000 cycles: 10000202 heartbeat IPC: 4 cumulative IPC: 4 (Simulation time: 00 hr 03 min 28 sec)
Heartbeat CPU 0 instructions: 50000000 cycles: 12500202 heartbeat IPC: 4 cumulative IPC: 4 (Simulation time: 00 hr 04 min 21 sec)
Warmup finished CPU 0 instructions: 50000000 cycles: 12500203 cumulative IPC: 4 (Simulation time: 00 hr 04 min 21 sec)
Warmup complete CPU 0 instructions: 50000000 cycles: 12500203 cumulative IPC: 4 (Simulation time: 00 hr 04 min 21 sec)
Heartbeat CPU 0 instructions: 60000004 cycles: 15000207 heartbeat IPC: 4 cumulative IPC: 4 (Simulation time: 00 hr 05 min 19 sec)
Heartbeat CPU 0 instructions: 70000001 cycles: 17500204 heartbeat IPC: 4 cumulative IPC: 4 (Simulation time: 00 hr 06 min 18 sec)
Heartbeat CPU 0 instructions: 80000004 cycles: 20000721 heartbeat IPC: 3.999 cumulative IPC: 4 (Simulation time: 00 hr 07 min 16 sec)
Heartbeat CPU 0 instructions: 90000000 cycles: 22502219 heartbeat IPC: 3.998 cumulative IPC: 3.999 (Simulation time: 00 hr 08 min 15 sec)
Heartbeat CPU 0 instructions: 100000004 cycles: 25003755 heartbeat IPC: 3.998 cumulative IPC: 3.999 (Simulation time: 00 hr 09 min 13 sec)
Heartbeat CPU 0 instructions: 110000003 cycles: 27505230 heartbeat IPC: 3.998 cumulative IPC: 3.999 (Simulation time: 00 hr 10 min 13 sec)
Heartbeat CPU 0 instructions: 120000004 cycles: 30007009 heartbeat IPC: 3.997 cumulative IPC: 3.998 (Simulation time: 00 hr 11 min 12 sec)
Heartbeat CPU 0 instructions: 130000004 cycles: 32508302 heartbeat IPC: 3.998 cumulative IPC: 3.998 (Simulation time: 00 hr 12 min 10 sec)
Heartbeat CPU 0 instructions: 140000004 cycles: 35008304 heartbeat IPC: 4 cumulative IPC: 3.999 (Simulation time: 00 hr 13 min 10 sec)
Heartbeat CPU 0 instructions: 150000001 cycles: 37510562 heartbeat IPC: 3.996 cumulative IPC: 3.998 (Simulation time: 00 hr 14 min 21 sec)
Heartbeat CPU 0 instructions: 160000001 cycles: 40012412 heartbeat IPC: 3.997 cumulative IPC: 3.998 (Simulation time: 00 hr 15 min 21 sec)
Heartbeat CPU 0 instructions: 170000000 cycles: 42512566 heartbeat IPC: 4 cumulative IPC: 3.998 (Simulation time: 00 hr 16 min 18 sec)
Heartbeat CPU 0 instructions: 180000003 cycles: 45013486 heartbeat IPC: 3.999 cumulative IPC: 3.998 (Simulation time: 00 hr 17 min 17 sec)
Heartbeat CPU 0 instructions: 190000003 cycles: 47516306 heartbeat IPC: 3.995 cumulative IPC: 3.998 (Simulation time: 00 hr 18 min 15 sec)
Heartbeat CPU 0 instructions: 200000002 cycles: 50018530 heartbeat IPC: 3.996 cumulative IPC: 3.998 (Simulation time: 00 hr 19 min 13 sec)
Heartbeat CPU 0 instructions: 210000000 cycles: 52520342 heartbeat IPC: 3.997 cumulative IPC: 3.998 (Simulation time: 00 hr 20 min 12 sec)
Heartbeat CPU 0 instructions: 220000002 cycles: 55022190 heartbeat IPC: 3.997 cumulative IPC: 3.998 (Simulation time: 00 hr 21 min 11 sec)
Heartbeat CPU 0 instructions: 230000003 cycles: 57522269 heartbeat IPC: 4 cumulative IPC: 3.998 (Simulation time: 00 hr 22 min 09 sec)
Heartbeat CPU 0 instructions: 240000002 cycles: 89556082 heartbeat IPC: 0.3122 cumulative IPC: 2.466 (Simulation time: 00 hr 27 min 25 sec)
Heartbeat CPU 0 instructions: 250000000 cycles: 98256455 heartbeat IPC: 1.149 cumulative IPC: 2.332 (Simulation time: 00 hr 29 min 33 sec)
Heartbeat CPU 0 instructions: 260000003 cycles: 106939933 heartbeat IPC: 1.152 cumulative IPC: 2.224 (Simulation time: 00 hr 31 min 40 sec)
Heartbeat CPU 0 instructions: 270000004 cycles: 116438453 heartbeat IPC: 1.053 cumulative IPC: 2.117 (Simulation time: 00 hr 33 min 56 sec)
Heartbeat CPU 0 instructions: 280000003 cycles: 124633201 heartbeat IPC: 1.22 cumulative IPC: 2.051 (Simulation time: 00 hr 35 min 58 sec)
Heartbeat CPU 0 instructions: 290000000 cycles: 132800591 heartbeat IPC: 1.224 cumulative IPC: 1.995 (Simulation time: 00 hr 38 min 00 sec)
Heartbeat CPU 0 instructions: 300000003 cycles: 141061290 heartbeat IPC: 1.211 cumulative IPC: 1.945 (Simulation time: 00 hr 40 min 03 sec)
Heartbeat CPU 0 instructions: 310000002 cycles: 149209718 heartbeat IPC: 1.227 cumulative IPC: 1.902 (Simulation time: 00 hr 42 min 05 sec)
Heartbeat CPU 0 instructions: 320000003 cycles: 157280566 heartbeat IPC: 1.239 cumulative IPC: 1.865 (Simulation time: 00 hr 44 min 06 sec)
Heartbeat CPU 0 instructions: 330000003 cycles: 165481771 heartbeat IPC: 1.219 cumulative IPC: 1.83 (Simulation time: 00 hr 46 min 12 sec)
Heartbeat CPU 0 instructions: 340000001 cycles: 173639665 heartbeat IPC: 1.226 cumulative IPC: 1.8 (Simulation time: 00 hr 48 min 16 sec)
Heartbeat CPU 0 instructions: 350000001 cycles: 181790969 heartbeat IPC: 1.227 cumulative IPC: 1.772 (Simulation time: 00 hr 50 min 20 sec)
Heartbeat CPU 0 instructions: 360000001 cycles: 189951731 heartbeat IPC: 1.225 cumulative IPC: 1.747 (Simulation time: 00 hr 52 min 24 sec)
Heartbeat CPU 0 instructions: 370000002 cycles: 198005797 heartbeat IPC: 1.242 cumulative IPC: 1.725 (Simulation time: 00 hr 54 min 26 sec)
Heartbeat CPU 0 instructions: 380000001 cycles: 206152667 heartbeat IPC: 1.227 cumulative IPC: 1.704 (Simulation time: 00 hr 56 min 31 sec)
Heartbeat CPU 0 instructions: 390000003 cycles: 214418716 heartbeat IPC: 1.21 cumulative IPC: 1.684 (Simulation time: 00 hr 58 min 37 sec)
Heartbeat CPU 0 instructions: 400000004 cycles: 222683010 heartbeat IPC: 1.21 cumulative IPC: 1.665 (Simulation time: 01 hr 00 min 43 sec)
Heartbeat CPU 0 instructions: 410000001 cycles: 230963357 heartbeat IPC: 1.208 cumulative IPC: 1.648 (Simulation time: 01 hr 02 min 49 sec)
Heartbeat CPU 0 instructions: 420000000 cycles: 239217296 heartbeat IPC: 1.212 cumulative IPC: 1.632 (Simulation time: 01 hr 04 min 56 sec)
Heartbeat CPU 0 instructions: 430000003 cycles: 247544004 heartbeat IPC: 1.201 cumulative IPC: 1.617 (Simulation time: 01 hr 07 min 03 sec)
Heartbeat CPU 0 instructions: 440000003 cycles: 355346260 heartbeat IPC: 0.09276 cumulative IPC: 1.138 (Simulation time: 01 hr 27 min 06 sec)
Heartbeat CPU 0 instructions: 450000002 cycles: 362389834 heartbeat IPC: 1.42 cumulative IPC: 1.143 (Simulation time: 01 hr 28 min 57 sec)
Heartbeat CPU 0 instructions: 460000000 cycles: 371638430 heartbeat IPC: 1.081 cumulative IPC: 1.142 (Simulation time: 01 hr 31 min 12 sec)
Heartbeat CPU 0 instructions: 470000003 cycles: 380628432 heartbeat IPC: 1.112 cumulative IPC: 1.141 (Simulation time: 01 hr 33 min 24 sec)
Heartbeat CPU 0 instructions: 480000003 cycles: 389965214 heartbeat IPC: 1.071 cumulative IPC: 1.139 (Simulation time: 01 hr 35 min 39 sec)
Heartbeat CPU 0 instructions: 490000002 cycles: 399172660 heartbeat IPC: 1.086 cumulative IPC: 1.138 (Simulation time: 01 hr 37 min 55 sec)
Heartbeat CPU 0 instructions: 500000004 cycles: 410745525 heartbeat IPC: 0.8641 cumulative IPC: 1.13 (Simulation time: 01 hr 40 min 38 sec)
Heartbeat CPU 0 instructions: 510000004 cycles: 425421932 heartbeat IPC: 0.6814 cumulative IPC: 1.114 (Simulation time: 01 hr 44 min 07 sec)
Heartbeat CPU 0 instructions: 520000003 cycles: 441140388 heartbeat IPC: 0.6362 cumulative IPC: 1.096 (Simulation time: 01 hr 47 min 38 sec)
Heartbeat CPU 0 instructions: 530000001 cycles: 457381096 heartbeat IPC: 0.6157 cumulative IPC: 1.079 (Simulation time: 01 hr 51 min 14 sec)
Heartbeat CPU 0 instructions: 540000001 cycles: 472945768 heartbeat IPC: 0.6425 cumulative IPC: 1.064 (Simulation time: 01 hr 54 min 43 sec)
Heartbeat CPU 0 instructions: 550000000 cycles: 484816566 heartbeat IPC: 0.8424 cumulative IPC: 1.059 (Simulation time: 01 hr 57 min 29 sec)
Heartbeat CPU 0 instructions: 560000002 cycles: 495309499 heartbeat IPC: 0.953 cumulative IPC: 1.056 (Simulation time: 02 hr 00 min 00 sec)
Heartbeat CPU 0 instructions: 570000000 cycles: 505916899 heartbeat IPC: 0.9427 cumulative IPC: 1.054 (Simulation time: 02 hr 02 min 30 sec)
Heartbeat CPU 0 instructions: 580000001 cycles: 516463071 heartbeat IPC: 0.9482 cumulative IPC: 1.052 (Simulation time: 02 hr 05 min 02 sec)
Heartbeat CPU 0 instructions: 590000000 cycles: 526971333 heartbeat IPC: 0.9516 cumulative IPC: 1.05 (Simulation time: 02 hr 07 min 32 sec)
*** Reached end of trace: (0, "traces/lu.A.champsimtrace")
Heartbeat CPU 0 instructions: 600000001 cycles: 537623009 heartbeat IPC: 0.9388 cumulative IPC: 1.047 (Simulation time: 02 hr 10 min 03 sec)
Heartbeat CPU 0 instructions: 610000004 cycles: 541165613 heartbeat IPC: 2.823 cumulative IPC: 1.059 (Simulation time: 02 hr 11 min 10 sec)
Heartbeat CPU 0 instructions: 620000003 cycles: 543665612 heartbeat IPC: 4 cumulative IPC: 1.073 (Simulation time: 02 hr 12 min 08 sec)
Heartbeat CPU 0 instructions: 630000002 cycles: 546165610 heartbeat IPC: 4 cumulative IPC: 1.087 (Simulation time: 02 hr 13 min 06 sec)
Heartbeat CPU 0 instructions: 640000000 cycles: 548665612 heartbeat IPC: 4 cumulative IPC: 1.1 (Simulation time: 02 hr 14 min 05 sec)
Heartbeat CPU 0 instructions: 650000004 cycles: 551165611 heartbeat IPC: 4 cumulative IPC: 1.114 (Simulation time: 02 hr 15 min 06 sec)
Simulation finished CPU 0 instructions: 600000004 cycles: 538665409 cumulative IPC: 1.114 (Simulation time: 02 hr 15 min 06 sec)
Simulation complete CPU 0 instructions: 600000004 cycles: 538665409 cumulative IPC: 1.114 (Simulation time: 02 hr 15 min 06 sec)

ChampSim completed all CPUs

=== Simulation ===
CPU 0 runs traces/lu.A.champsimtrace
Region of Interest Statistics

CPU 0 cumulative IPC: 1.114 instructions: 600000004 cycles: 538665409
CPU 0 Branch Prediction Accuracy: 99.98% MPKI: 0.0041 Average ROB Occupancy at Mispredict: 120.3
Branch type MPKI
BRANCH_DIRECT_JUMP: 5e-06
BRANCH_INDIRECT: 7.83e-05
BRANCH_CONDITIONAL: 0.00396
BRANCH_DIRECT_CALL: 6.67e-06
BRANCH_INDIRECT_CALL: 3.5e-05
BRANCH_RETURN: 1.83e-05

LLC TOTAL        ACCESS:    6232442 HIT:    1736555 MISS:    4495887
LLC LOAD         ACCESS:    2480838 HIT:     638334 MISS:    1842504
LLC RFO          ACCESS:     831649 HIT:      58345 MISS:     773304
LLC PREFETCH     ACCESS:    1126238 HIT:     385088 MISS:     741150
LLC WRITE        ACCESS:    1781897 HIT:     651040 MISS:    1130857
LLC TRANSLATION  ACCESS:      11820 HIT:       3748 MISS:       8072
LLC PREFETCH REQUESTED:    1126238 ISSUED:    1126238 USEFUL:     486370 USELESS:      17426
LLC AVERAGE MISS LATENCY: 730.4 cycles
cpu0_DTLB TOTAL        ACCESS:  126272097 HIT:  118808337 MISS:    7463760
cpu0_DTLB LOAD         ACCESS:  126272097 HIT:  118808337 MISS:    7463760
cpu0_DTLB RFO          ACCESS:          0 HIT:          0 MISS:          0
cpu0_DTLB PREFETCH     ACCESS:          0 HIT:          0 MISS:          0
cpu0_DTLB WRITE        ACCESS:          0 HIT:          0 MISS:          0
cpu0_DTLB TRANSLATION  ACCESS:          0 HIT:          0 MISS:          0
cpu0_DTLB PREFETCH REQUESTED:          0 ISSUED:          0 USEFUL:          0 USELESS:          0
cpu0_DTLB AVERAGE MISS LATENCY: 5.947 cycles
cpu0_ITLB TOTAL        ACCESS:    1263259 HIT:    1263042 MISS:        217
cpu0_ITLB LOAD         ACCESS:    1263259 HIT:    1263042 MISS:        217
cpu0_ITLB RFO          ACCESS:          0 HIT:          0 MISS:          0
cpu0_ITLB PREFETCH     ACCESS:          0 HIT:          0 MISS:          0
cpu0_ITLB WRITE        ACCESS:          0 HIT:          0 MISS:          0
cpu0_ITLB TRANSLATION  ACCESS:          0 HIT:          0 MISS:          0
cpu0_ITLB PREFETCH REQUESTED:          0 ISSUED:          0 USEFUL:          0 USELESS:          0
cpu0_ITLB AVERAGE MISS LATENCY: 279.9 cycles
cpu0_L1D TOTAL        ACCESS:  180378324 HIT:  170666177 MISS:    9712147
cpu0_L1D LOAD         ACCESS:  143319599 HIT:  137297991 MISS:    6021608
cpu0_L1D RFO          ACCESS:          0 HIT:          0 MISS:          0
cpu0_L1D PREFETCH     ACCESS:          0 HIT:          0 MISS:          0
cpu0_L1D WRITE        ACCESS:   37006127 HIT:   33341102 MISS:    3665025
cpu0_L1D TRANSLATION  ACCESS:      52598 HIT:      27084 MISS:      25514
cpu0_L1D PREFETCH REQUESTED:          0 ISSUED:          0 USEFUL:          0 USELESS:          0
cpu0_L1D AVERAGE MISS LATENCY: 277.2 cycles
cpu0_L1I TOTAL        ACCESS:    1590894 HIT:    1587989 MISS:       2905
cpu0_L1I LOAD         ACCESS:    1590894 HIT:    1587989 MISS:       2905
cpu0_L1I RFO          ACCESS:          0 HIT:          0 MISS:          0
cpu0_L1I PREFETCH     ACCESS:          0 HIT:          0 MISS:          0
cpu0_L1I WRITE        ACCESS:          0 HIT:          0 MISS:          0
cpu0_L1I TRANSLATION  ACCESS:          0 HIT:          0 MISS:          0
cpu0_L1I PREFETCH REQUESTED:          0 ISSUED:          0 USEFUL:          0 USELESS:          0
cpu0_L1I AVERAGE MISS LATENCY: 418.5 cycles
cpu0_L2C TOTAL        ACCESS:    5948135 HIT:    2619489 MISS:    3328646
cpu0_L2C LOAD         ACCESS:    3043851 HIT:     563013 MISS:    2480838
cpu0_L2C RFO          ACCESS:     876635 HIT:      44986 MISS:     831649
cpu0_L2C PREFETCH     ACCESS:          0 HIT:          0 MISS:          0
cpu0_L2C WRITE        ACCESS:    2002188 HIT:    1997849 MISS:       4339
cpu0_L2C TRANSLATION  ACCESS:      25461 HIT:      13641 MISS:      11820
cpu0_L2C PREFETCH REQUESTED:          0 ISSUED:          0 USEFUL:          0 USELESS:          0
cpu0_L2C AVERAGE MISS LATENCY: 865.5 cycles
cpu0_STLB TOTAL        ACCESS:    4047713 HIT:    3995130 MISS:      52583
cpu0_STLB LOAD         ACCESS:    4047713 HIT:    3995130 MISS:      52583
cpu0_STLB RFO          ACCESS:          0 HIT:          0 MISS:          0
cpu0_STLB PREFETCH     ACCESS:          0 HIT:          0 MISS:          0
cpu0_STLB WRITE        ACCESS:          0 HIT:          0 MISS:          0
cpu0_STLB TRANSLATION  ACCESS:          0 HIT:          0 MISS:          0
cpu0_STLB PREFETCH REQUESTED:          0 ISSUED:          0 USEFUL:          0 USELESS:          0
cpu0_STLB AVERAGE MISS LATENCY: 639.7 cycles

DRAM Statistics

Channel 0 RQ ROW_BUFFER_HIT:     825820
  ROW_BUFFER_MISS:    2132381
 AVG DBUS CONGESTED CYCLE: 3.941
WQ ROW_BUFFER_HIT: Channel 0 
  ROW_BUFFER_MISS:     459433
  FULL:    1209049
