WARNING: physical memory size is smaller than virtual memory size.

*** ChampSim Multicore Out-of-Order Simulator ***
Warmup Instructions: 50000000
Simulation Instructions: 600000000
Number of CPUs: 1
Page size: 4096

CPU 0 Tage branch predictor
Off-chip DRAM Size: 4 GiB Channels: 1 Width: 64-bit Data Race: 3200 MT/s
Heartbeat CPU 0 instructions: 10000000 cycles: 2500202 heartbeat IPC: 4 cumulative IPC: 4 (Simulation time: 00 hr 00 min 53 sec)
Heartbeat CPU 0 instructions: 20000000 cycles: 5000202 heartbeat IPC: 4 cumulative IPC: 4 (Simulation time: 00 hr 01 min 45 sec)
Heartbeat CPU 0 instructions: 30000000 cycles: 7500202 heartbeat IPC: 4 cumulative IPC: 4 (Simulation time: 00 hr 02 min 37 sec)
Heartbeat CPU 0 instructions: 40000000 cycles: 10000202 heartbeat IPC: 4 cumulative IPC: 4 (Simulation time: 00 hr 03 min 28 sec)
Heartbeat CPU 0 instructions: 50000000 cycles: 12500202 heartbeat IPC: 4 cumulative IPC: 4 (Simulation time: 00 hr 04 min 21 sec)
Warmup finished CPU 0 instructions: 50000000 cycles: 12500203 cumulative IPC: 4 (Simulation time: 00 hr 04 min 21 sec)
Warmup complete CPU 0 instructions: 50000000 cycles: 12500203 cumulative IPC: 4 (Simulation time: 00 hr 04 min 21 sec)
Heartbeat CPU 0 instructions: 60000004 cycles: 15000207 heartbeat IPC: 4 cumulative IPC: 4 (Simulation time: 00 hr 05 min 20 sec)
Heartbeat CPU 0 instructions: 70000001 cycles: 17500204 heartbeat IPC: 4 cumulative IPC: 4 (Simulation time: 00 hr 06 min 18 sec)
Heartbeat CPU 0 instructions: 80000004 cycles: 20000721 heartbeat IPC: 3.999 cumulative IPC: 4 (Simulation time: 00 hr 07 min 18 sec)
Heartbeat CPU 0 instructions: 90000000 cycles: 22503257 heartbeat IPC: 3.996 cumulative IPC: 3.999 (Simulation time: 00 hr 08 min 19 sec)
Heartbeat CPU 0 instructions: 100000004 cycles: 25004470 heartbeat IPC: 3.998 cumulative IPC: 3.999 (Simulation time: 00 hr 09 min 18 sec)
Heartbeat CPU 0 instructions: 110000003 cycles: 27505701 heartbeat IPC: 3.998 cumulative IPC: 3.999 (Simulation time: 00 hr 10 min 16 sec)
Heartbeat CPU 0 instructions: 120000004 cycles: 30008697 heartbeat IPC: 3.995 cumulative IPC: 3.998 (Simulation time: 00 hr 11 min 14 sec)
Heartbeat CPU 0 instructions: 130000004 cycles: 32509294 heartbeat IPC: 3.999 cumulative IPC: 3.998 (Simulation time: 00 hr 12 min 13 sec)
Heartbeat CPU 0 instructions: 140000004 cycles: 35009588 heartbeat IPC: 4 cumulative IPC: 3.998 (Simulation time: 00 hr 13 min 12 sec)
Heartbeat CPU 0 instructions: 150000001 cycles: 37511095 heartbeat IPC: 3.998 cumulative IPC: 3.998 (Simulation time: 00 hr 14 min 10 sec)
Heartbeat CPU 0 instructions: 160000001 cycles: 40014036 heartbeat IPC: 3.995 cumulative IPC: 3.998 (Simulation time: 00 hr 15 min 09 sec)
Heartbeat CPU 0 instructions: 170000000 cycles: 42514198 heartbeat IPC: 4 cumulative IPC: 3.998 (Simulation time: 00 hr 16 min 08 sec)
Heartbeat CPU 0 instructions: 180000003 cycles: 45018287 heartbeat IPC: 3.993 cumulative IPC: 3.998 (Simulation time: 00 hr 17 min 06 sec)
Heartbeat CPU 0 instructions: 190000003 cycles: 47520257 heartbeat IPC: 3.997 cumulative IPC: 3.998 (Simulation time: 00 hr 18 min 04 sec)
Heartbeat CPU 0 instructions: 200000002 cycles: 50021453 heartbeat IPC: 3.998 cumulative IPC: 3.998 (Simulation time: 00 hr 19 min 03 sec)
Heartbeat CPU 0 instructions: 210000000 cycles: 52522111 heartbeat IPC: 3.999 cumulative IPC: 3.998 (Simulation time: 00 hr 20 min 02 sec)
Heartbeat CPU 0 instructions: 220000002 cycles: 55023108 heartbeat IPC: 3.998 cumulative IPC: 3.998 (Simulation time: 00 hr 21 min 00 sec)
Heartbeat CPU 0 instructions: 230000003 cycles: 57523108 heartbeat IPC: 4 cumulative IPC: 3.998 (Simulation time: 00 hr 21 min 59 sec)
Heartbeat CPU 0 instructions: 240000000 cycles: 89527410 heartbeat IPC: 0.3125 cumulative IPC: 2.467 (Simulation time: 00 hr 27 min 17 sec)
Heartbeat CPU 0 instructions: 250000000 cycles: 98234761 heartbeat IPC: 1.148 cumulative IPC: 2.333 (Simulation time: 00 hr 29 min 24 sec)
Heartbeat CPU 0 instructions: 260000003 cycles: 106921756 heartbeat IPC: 1.151 cumulative IPC: 2.224 (Simulation time: 00 hr 31 min 31 sec)
Heartbeat CPU 0 instructions: 270000004 cycles: 114622767 heartbeat IPC: 1.299 cumulative IPC: 2.154 (Simulation time: 00 hr 33 min 27 sec)
Heartbeat CPU 0 instructions: 280000003 cycles: 120217101 heartbeat IPC: 1.788 cumulative IPC: 2.135 (Simulation time: 00 hr 35 min 00 sec)
Heartbeat CPU 0 instructions: 290000000 cycles: 125807129 heartbeat IPC: 1.789 cumulative IPC: 2.118 (Simulation time: 00 hr 36 min 35 sec)
Heartbeat CPU 0 instructions: 300000003 cycles: 131399940 heartbeat IPC: 1.788 cumulative IPC: 2.103 (Simulation time: 00 hr 38 min 09 sec)
Heartbeat CPU 0 instructions: 310000003 cycles: 136980337 heartbeat IPC: 1.792 cumulative IPC: 2.089 (Simulation time: 00 hr 39 min 43 sec)
Heartbeat CPU 0 instructions: 320000003 cycles: 143078691 heartbeat IPC: 1.64 cumulative IPC: 2.068 (Simulation time: 00 hr 41 min 23 sec)
Heartbeat CPU 0 instructions: 330000003 cycles: 151231587 heartbeat IPC: 1.227 cumulative IPC: 2.018 (Simulation time: 00 hr 43 min 40 sec)
Heartbeat CPU 0 instructions: 340000001 cycles: 159340614 heartbeat IPC: 1.233 cumulative IPC: 1.975 (Simulation time: 00 hr 45 min 43 sec)
Heartbeat CPU 0 instructions: 350000001 cycles: 167384420 heartbeat IPC: 1.243 cumulative IPC: 1.937 (Simulation time: 00 hr 47 min 47 sec)
Heartbeat CPU 0 instructions: 360000002 cycles: 175474840 heartbeat IPC: 1.236 cumulative IPC: 1.902 (Simulation time: 00 hr 49 min 51 sec)
Heartbeat CPU 0 instructions: 370000002 cycles: 183502690 heartbeat IPC: 1.246 cumulative IPC: 1.871 (Simulation time: 00 hr 51 min 55 sec)
Heartbeat CPU 0 instructions: 380000001 cycles: 191650292 heartbeat IPC: 1.227 cumulative IPC: 1.842 (Simulation time: 00 hr 53 min 59 sec)
Heartbeat CPU 0 instructions: 390000003 cycles: 199924616 heartbeat IPC: 1.209 cumulative IPC: 1.814 (Simulation time: 00 hr 56 min 06 sec)
Heartbeat CPU 0 instructions: 400000004 cycles: 208188910 heartbeat IPC: 1.21 cumulative IPC: 1.789 (Simulation time: 00 hr 58 min 12 sec)
Heartbeat CPU 0 instructions: 410000001 cycles: 216469257 heartbeat IPC: 1.208 cumulative IPC: 1.765 (Simulation time: 01 hr 00 min 17 sec)
Heartbeat CPU 0 instructions: 420000000 cycles: 224723211 heartbeat IPC: 1.212 cumulative IPC: 1.743 (Simulation time: 01 hr 02 min 35 sec)
Heartbeat CPU 0 instructions: 430000003 cycles: 233049919 heartbeat IPC: 1.201 cumulative IPC: 1.723 (Simulation time: 01 hr 04 min 41 sec)
Heartbeat CPU 0 instructions: 440000004 cycles: 363294057 heartbeat IPC: 0.07678 cumulative IPC: 1.112 (Simulation time: 01 hr 28 min 33 sec)
Heartbeat CPU 0 instructions: 450000002 cycles: 370845287 heartbeat IPC: 1.324 cumulative IPC: 1.116 (Simulation time: 01 hr 30 min 29 sec)
Heartbeat CPU 0 instructions: 460000000 cycles: 379984096 heartbeat IPC: 1.094 cumulative IPC: 1.116 (Simulation time: 01 hr 32 min 42 sec)
Heartbeat CPU 0 instructions: 470000003 cycles: 388726444 heartbeat IPC: 1.144 cumulative IPC: 1.116 (Simulation time: 01 hr 34 min 50 sec)
Heartbeat CPU 0 instructions: 480000003 cycles: 397912747 heartbeat IPC: 1.089 cumulative IPC: 1.116 (Simulation time: 01 hr 37 min 04 sec)
Heartbeat CPU 0 instructions: 490000002 cycles: 407177383 heartbeat IPC: 1.079 cumulative IPC: 1.115 (Simulation time: 01 hr 39 min 22 sec)
Heartbeat CPU 0 instructions: 500000004 cycles: 418683102 heartbeat IPC: 0.8691 cumulative IPC: 1.108 (Simulation time: 01 hr 42 min 03 sec)
Heartbeat CPU 0 instructions: 510000004 cycles: 433107241 heartbeat IPC: 0.6933 cumulative IPC: 1.094 (Simulation time: 01 hr 45 min 20 sec)
Heartbeat CPU 0 instructions: 520000003 cycles: 448653158 heartbeat IPC: 0.6433 cumulative IPC: 1.078 (Simulation time: 01 hr 48 min 46 sec)
Heartbeat CPU 0 instructions: 530000001 cycles: 464377998 heartbeat IPC: 0.6359 cumulative IPC: 1.062 (Simulation time: 01 hr 52 min 13 sec)
Heartbeat CPU 0 instructions: 540000001 cycles: 479572989 heartbeat IPC: 0.6581 cumulative IPC: 1.049 (Simulation time: 01 hr 55 min 35 sec)
Heartbeat CPU 0 instructions: 550000000 cycles: 491345284 heartbeat IPC: 0.8495 cumulative IPC: 1.044 (Simulation time: 01 hr 58 min 19 sec)
Heartbeat CPU 0 instructions: 560000002 cycles: 501817866 heartbeat IPC: 0.9549 cumulative IPC: 1.042 (Simulation time: 02 hr 00 min 47 sec)
Heartbeat CPU 0 instructions: 570000000 cycles: 512437788 heartbeat IPC: 0.9416 cumulative IPC: 1.04 (Simulation time: 02 hr 03 min 16 sec)
Heartbeat CPU 0 instructions: 580000001 cycles: 522950161 heartbeat IPC: 0.9513 cumulative IPC: 1.038 (Simulation time: 02 hr 05 min 44 sec)
Heartbeat CPU 0 instructions: 590000000 cycles: 533433170 heartbeat IPC: 0.9539 cumulative IPC: 1.037 (Simulation time: 02 hr 08 min 14 sec)
*** Reached end of trace: (0, "traces/lu.A.champsimtrace")
Heartbeat CPU 0 instructions: 600000001 cycles: 544057068 heartbeat IPC: 0.9413 cumulative IPC: 1.035 (Simulation time: 02 hr 10 min 44 sec)
Heartbeat CPU 0 instructions: 610000004 cycles: 547675132 heartbeat IPC: 2.764 cumulative IPC: 1.046 (Simulation time: 02 hr 11 min 54 sec)
Heartbeat CPU 0 instructions: 620000003 cycles: 550175131 heartbeat IPC: 4 cumulative IPC: 1.06 (Simulation time: 02 hr 12 min 53 sec)
Heartbeat CPU 0 instructions: 630000002 cycles: 552675129 heartbeat IPC: 4 cumulative IPC: 1.074 (Simulation time: 02 hr 13 min 53 sec)
Heartbeat CPU 0 instructions: 640000000 cycles: 555175131 heartbeat IPC: 4 cumulative IPC: 1.087 (Simulation time: 02 hr 14 min 51 sec)
Heartbeat CPU 0 instructions: 650000004 cycles: 557675130 heartbeat IPC: 4 cumulative IPC: 1.101 (Simulation time: 02 hr 15 min 50 sec)
Simulation finished CPU 0 instructions: 600000004 cycles: 545174928 cumulative IPC: 1.101 (Simulation time: 02 hr 15 min 50 sec)
Simulation complete CPU 0 instructions: 600000004 cycles: 545174928 cumulative IPC: 1.101 (Simulation time: 02 hr 15 min 50 sec)

ChampSim completed all CPUs

=== Simulation ===
CPU 0 runs traces/lu.A.champsimtrace
Region of Interest Statistics

CPU 0 cumulative IPC: 1.101 instructions: 600000004 cycles: 545174928
CPU 0 Branch Prediction Accuracy: 99.98% MPKI: 0.0041 Average ROB Occupancy at Mispredict: 120.9
Branch type MPKI
BRANCH_DIRECT_JUMP: 5e-06
BRANCH_INDIRECT: 7.83e-05
BRANCH_CONDITIONAL: 0.00396
BRANCH_DIRECT_CALL: 6.67e-06
BRANCH_INDIRECT_CALL: 3.5e-05
BRANCH_RETURN: 1.83e-05

LLC TOTAL        ACCESS:    5106236 HIT:    1039062 MISS:    4067174
LLC LOAD         ACCESS:    2480813 HIT:     325790 MISS:    2155023
LLC RFO          ACCESS:     831650 HIT:      58358 MISS:     773292
LLC PREFETCH     ACCESS:          0 HIT:          0 MISS:          0
LLC WRITE        ACCESS:    1781895 HIT:     651104 MISS:    1130791
LLC TRANSLATION  ACCESS:      11878 HIT:       3810 MISS:       8068
LLC PREFETCH REQUESTED:          0 ISSUED:          0 USEFUL:          0 USELESS:          0
LLC AVERAGE MISS LATENCY: 735.4 cycles
cpu0_DTLB TOTAL        ACCESS:  125681968 HIT:  118216302 MISS:    7465666
cpu0_DTLB LOAD         ACCESS:  125681968 HIT:  118216302 MISS:    7465666
cpu0_DTLB RFO          ACCESS:          0 HIT:          0 MISS:          0
cpu0_DTLB PREFETCH     ACCESS:          0 HIT:          0 MISS:          0
cpu0_DTLB WRITE        ACCESS:          0 HIT:          0 MISS:          0
cpu0_DTLB TRANSLATION  ACCESS:          0 HIT:          0 MISS:          0
cpu0_DTLB PREFETCH REQUESTED:          0 ISSUED:          0 USEFUL:          0 USELESS:          0
cpu0_DTLB AVERAGE MISS LATENCY: 6.047 cycles
cpu0_ITLB TOTAL        ACCESS:    1263293 HIT:    1263068 MISS:        225
cpu0_ITLB LOAD         ACCESS:    1263293 HIT:    1263068 MISS:        225
cpu0_ITLB RFO          ACCESS:          0 HIT:          0 MISS:          0
cpu0_ITLB PREFETCH     ACCESS:          0 HIT:          0 MISS:          0
cpu0_ITLB WRITE        ACCESS:          0 HIT:          0 MISS:          0
cpu0_ITLB TRANSLATION  ACCESS:          0 HIT:          0 MISS:          0
cpu0_ITLB PREFETCH REQUESTED:          0 ISSUED:          0 USEFUL:          0 USELESS:          0
cpu0_ITLB AVERAGE MISS LATENCY: 252.5 cycles
cpu0_L1D TOTAL        ACCESS:  179535074 HIT:  169994484 MISS:    9540590
cpu0_L1D LOAD         ACCESS:  142476310 HIT:  136585181 MISS:    5891129
cpu0_L1D RFO          ACCESS:          0 HIT:          0 MISS:          0
cpu0_L1D PREFETCH     ACCESS:          0 HIT:          0 MISS:          0
cpu0_L1D WRITE        ACCESS:   37006166 HIT:   33382002 MISS:    3624164
cpu0_L1D TRANSLATION  ACCESS:      52598 HIT:      27301 MISS:      25297
cpu0_L1D PREFETCH REQUESTED:          0 ISSUED:          0 USEFUL:          0 USELESS:          0
cpu0_L1D AVERAGE MISS LATENCY: 302.2 cycles
cpu0_L1I TOTAL        ACCESS:    1591153 HIT:    1588258 MISS:       2895
cpu0_L1I LOAD         ACCESS:    1591153 HIT:    1588258 MISS:       2895
cpu0_L1I RFO          ACCESS:          0 HIT:          0 MISS:          0
cpu0_L1I PREFETCH     ACCESS:          0 HIT:          0 MISS:          0
cpu0_L1I WRITE        ACCESS:          0 HIT:          0 MISS:          0
cpu0_L1I TRANSLATION  ACCESS:          0 HIT:          0 MISS:          0
cpu0_L1I PREFETCH REQUESTED:          0 ISSUED:          0 USEFUL:          0 USELESS:          0
cpu0_L1I AVERAGE MISS LATENCY: 395.9 cycles
cpu0_L2C TOTAL        ACCESS:    5947909 HIT:    2619228 MISS:    3328681
cpu0_L2C LOAD         ACCESS:    3043853 HIT:     563040 MISS:    2480813
cpu0_L2C RFO          ACCESS:     876627 HIT:      44977 MISS:     831650
cpu0_L2C PREFETCH     ACCESS:          0 HIT:          0 MISS:          0
cpu0_L2C WRITE        ACCESS:    2002179 HIT:    1997839 MISS:       4340
cpu0_L2C TRANSLATION  ACCESS:      25250 HIT:      13372 MISS:      11878
cpu0_L2C PREFETCH REQUESTED:          0 ISSUED:          0 USEFUL:          0 USELESS:          0
cpu0_L2C AVERAGE MISS LATENCY: 919.4 cycles
cpu0_STLB TOTAL        ACCESS:    4047702 HIT:    3995119 MISS:      52583
cpu0_STLB LOAD         ACCESS:    4047702 HIT:    3995119 MISS:      52583
cpu0_STLB RFO          ACCESS:          0 HIT:          0 MISS:          0
cpu0_STLB PREFETCH     ACCESS:          0 HIT:          0 MISS:          0
cpu0_STLB WRITE        ACCESS:          0 HIT:          0 MISS:          0
cpu0_STLB TRANSLATION  ACCESS:          0 HIT:          0 MISS:          0
cpu0_STLB PREFETCH REQUESTED:          0 ISSUED:          0 USEFUL:          0 USELESS:          0
cpu0_STLB AVERAGE MISS LATENCY: 658.5 cycles

DRAM Statistics

Channel 0 RQ ROW_BUFFER_HIT:     746031
  ROW_BUFFER_MISS:    2189163
 AVG DBUS CONGESTED CYCLE: 3.934
WQ ROW_BUFFER_HIT: Channel 0 
  ROW_BUFFER_MISS:     477576
  FULL:    1188859
