WARNING: physical memory size is smaller than virtual memory size.

*** ChampSim Multicore Out-of-Order Simulator ***
Warmup Instructions: 50000000
Simulation Instructions: 600000000
Number of CPUs: 1
Page size: 4096

CPU 0 Tage branch predictor
Off-chip DRAM Size: 4 GiB Channels: 1 Width: 64-bit Data Race: 3200 MT/s
Heartbeat CPU 0 instructions: 10000003 cycles: 2881057 heartbeat IPC: 3.471 cumulative IPC: 3.471 (Simulation time: 00 hr 00 min 33 sec)
Heartbeat CPU 0 instructions: 20000003 cycles: 5381057 heartbeat IPC: 4 cumulative IPC: 3.717 (Simulation time: 00 hr 01 min 14 sec)
Heartbeat CPU 0 instructions: 30000003 cycles: 7881057 heartbeat IPC: 4 cumulative IPC: 3.807 (Simulation time: 00 hr 01 min 59 sec)
Heartbeat CPU 0 instructions: 40000003 cycles: 10381057 heartbeat IPC: 4 cumulative IPC: 3.853 (Simulation time: 00 hr 02 min 44 sec)
Heartbeat CPU 0 instructions: 50000003 cycles: 12881057 heartbeat IPC: 4 cumulative IPC: 3.882 (Simulation time: 00 hr 03 min 29 sec)
Warmup finished CPU 0 instructions: 50000003 cycles: 12881058 cumulative IPC: 3.882 (Simulation time: 00 hr 03 min 29 sec)
Warmup complete CPU 0 instructions: 50000003 cycles: 12881058 cumulative IPC: 3.882 (Simulation time: 00 hr 03 min 29 sec)
Heartbeat CPU 0 instructions: 60000000 cycles: 18780080 heartbeat IPC: 1.695 cumulative IPC: 1.695 (Simulation time: 00 hr 04 min 51 sec)
Heartbeat CPU 0 instructions: 70000000 cycles: 24651638 heartbeat IPC: 1.703 cumulative IPC: 1.699 (Simulation time: 00 hr 06 min 13 sec)
Heartbeat CPU 0 instructions: 80000000 cycles: 30542109 heartbeat IPC: 1.698 cumulative IPC: 1.699 (Simulation time: 00 hr 07 min 38 sec)
Heartbeat CPU 0 instructions: 90000003 cycles: 36455602 heartbeat IPC: 1.691 cumulative IPC: 1.697 (Simulation time: 00 hr 08 min 58 sec)
Heartbeat CPU 0 instructions: 100000000 cycles: 40547252 heartbeat IPC: 2.444 cumulative IPC: 1.807 (Simulation time: 00 hr 10 min 02 sec)
Heartbeat CPU 0 instructions: 110000001 cycles: 43480496 heartbeat IPC: 3.409 cumulative IPC: 1.961 (Simulation time: 00 hr 10 min 53 sec)
Heartbeat CPU 0 instructions: 120000001 cycles: 50023924 heartbeat IPC: 1.528 cumulative IPC: 1.885 (Simulation time: 00 hr 12 min 13 sec)
Heartbeat CPU 0 instructions: 130000002 cycles: 57023025 heartbeat IPC: 1.429 cumulative IPC: 1.812 (Simulation time: 00 hr 13 min 33 sec)
Heartbeat CPU 0 instructions: 140000004 cycles: 64102376 heartbeat IPC: 1.413 cumulative IPC: 1.757 (Simulation time: 00 hr 14 min 52 sec)
Heartbeat CPU 0 instructions: 150000000 cycles: 71100509 heartbeat IPC: 1.429 cumulative IPC: 1.718 (Simulation time: 00 hr 16 min 14 sec)
Heartbeat CPU 0 instructions: 160000001 cycles: 78110725 heartbeat IPC: 1.426 cumulative IPC: 1.686 (Simulation time: 00 hr 17 min 38 sec)
Heartbeat CPU 0 instructions: 170000001 cycles: 85063031 heartbeat IPC: 1.438 cumulative IPC: 1.662 (Simulation time: 00 hr 19 min 02 sec)
Heartbeat CPU 0 instructions: 180000002 cycles: 92044209 heartbeat IPC: 1.432 cumulative IPC: 1.642 (Simulation time: 00 hr 20 min 30 sec)
Heartbeat CPU 0 instructions: 190000002 cycles: 98813463 heartbeat IPC: 1.477 cumulative IPC: 1.629 (Simulation time: 00 hr 21 min 59 sec)
Heartbeat CPU 0 instructions: 200000000 cycles: 104837710 heartbeat IPC: 1.66 cumulative IPC: 1.631 (Simulation time: 00 hr 23 min 18 sec)
Heartbeat CPU 0 instructions: 210000001 cycles: 110880959 heartbeat IPC: 1.655 cumulative IPC: 1.633 (Simulation time: 00 hr 24 min 35 sec)
Heartbeat CPU 0 instructions: 220000001 cycles: 116849285 heartbeat IPC: 1.676 cumulative IPC: 1.635 (Simulation time: 00 hr 25 min 51 sec)
Heartbeat CPU 0 instructions: 230000004 cycles: 122885096 heartbeat IPC: 1.657 cumulative IPC: 1.636 (Simulation time: 00 hr 27 min 04 sec)
Heartbeat CPU 0 instructions: 240000003 cycles: 128939512 heartbeat IPC: 1.652 cumulative IPC: 1.637 (Simulation time: 00 hr 28 min 15 sec)
Heartbeat CPU 0 instructions: 250000001 cycles: 134988366 heartbeat IPC: 1.653 cumulative IPC: 1.638 (Simulation time: 00 hr 29 min 24 sec)
Heartbeat CPU 0 instructions: 260000002 cycles: 141034979 heartbeat IPC: 1.654 cumulative IPC: 1.639 (Simulation time: 00 hr 30 min 32 sec)
Heartbeat CPU 0 instructions: 270000002 cycles: 147088923 heartbeat IPC: 1.652 cumulative IPC: 1.639 (Simulation time: 00 hr 31 min 40 sec)
Heartbeat CPU 0 instructions: 280000000 cycles: 153161631 heartbeat IPC: 1.647 cumulative IPC: 1.64 (Simulation time: 00 hr 32 min 50 sec)
Heartbeat CPU 0 instructions: 290000001 cycles: 203190132 heartbeat IPC: 0.1999 cumulative IPC: 1.261 (Simulation time: 00 hr 38 min 25 sec)
Heartbeat CPU 0 instructions: 300000002 cycles: 205691847 heartbeat IPC: 3.997 cumulative IPC: 1.297 (Simulation time: 00 hr 39 min 10 sec)
Heartbeat CPU 0 instructions: 310000001 cycles: 208192925 heartbeat IPC: 3.998 cumulative IPC: 1.331 (Simulation time: 00 hr 39 min 55 sec)
Heartbeat CPU 0 instructions: 320000001 cycles: 210693076 heartbeat IPC: 4 cumulative IPC: 1.365 (Simulation time: 00 hr 40 min 43 sec)
Heartbeat CPU 0 instructions: 330000003 cycles: 213193187 heartbeat IPC: 4 cumulative IPC: 1.398 (Simulation time: 00 hr 41 min 37 sec)
Heartbeat CPU 0 instructions: 340000000 cycles: 215693272 heartbeat IPC: 4 cumulative IPC: 1.43 (Simulation time: 00 hr 42 min 29 sec)
Heartbeat CPU 0 instructions: 350000004 cycles: 218193506 heartbeat IPC: 4 cumulative IPC: 1.461 (Simulation time: 00 hr 43 min 17 sec)
Heartbeat CPU 0 instructions: 360000004 cycles: 220694174 heartbeat IPC: 3.999 cumulative IPC: 1.492 (Simulation time: 00 hr 44 min 06 sec)
Heartbeat CPU 0 instructions: 370000000 cycles: 223196069 heartbeat IPC: 3.997 cumulative IPC: 1.522 (Simulation time: 00 hr 44 min 54 sec)
Heartbeat CPU 0 instructions: 380000004 cycles: 225697697 heartbeat IPC: 3.997 cumulative IPC: 1.551 (Simulation time: 00 hr 45 min 45 sec)
Heartbeat CPU 0 instructions: 390000001 cycles: 228198118 heartbeat IPC: 3.999 cumulative IPC: 1.579 (Simulation time: 00 hr 46 min 36 sec)
Heartbeat CPU 0 instructions: 400000003 cycles: 230698204 heartbeat IPC: 4 cumulative IPC: 1.607 (Simulation time: 00 hr 47 min 26 sec)
Heartbeat CPU 0 instructions: 410000003 cycles: 233199172 heartbeat IPC: 3.998 cumulative IPC: 1.634 (Simulation time: 00 hr 48 min 16 sec)
Heartbeat CPU 0 instructions: 420000002 cycles: 235700379 heartbeat IPC: 3.998 cumulative IPC: 1.661 (Simulation time: 00 hr 49 min 05 sec)
Heartbeat CPU 0 instructions: 430000000 cycles: 238201265 heartbeat IPC: 3.999 cumulative IPC: 1.686 (Simulation time: 00 hr 49 min 57 sec)
Heartbeat CPU 0 instructions: 440000001 cycles: 240703445 heartbeat IPC: 3.997 cumulative IPC: 1.712 (Simulation time: 00 hr 50 min 47 sec)
Heartbeat CPU 0 instructions: 450000000 cycles: 243203727 heartbeat IPC: 4 cumulative IPC: 1.737 (Simulation time: 00 hr 51 min 34 sec)
Heartbeat CPU 0 instructions: 460000003 cycles: 245704246 heartbeat IPC: 3.999 cumulative IPC: 1.761 (Simulation time: 00 hr 52 min 24 sec)
Heartbeat CPU 0 instructions: 470000001 cycles: 248205148 heartbeat IPC: 3.999 cumulative IPC: 1.785 (Simulation time: 00 hr 53 min 13 sec)
Heartbeat CPU 0 instructions: 480000003 cycles: 250705929 heartbeat IPC: 3.999 cumulative IPC: 1.808 (Simulation time: 00 hr 54 min 01 sec)
Heartbeat CPU 0 instructions: 490000003 cycles: 253206067 heartbeat IPC: 4 cumulative IPC: 1.831 (Simulation time: 00 hr 54 min 50 sec)
Heartbeat CPU 0 instructions: 500000002 cycles: 255707222 heartbeat IPC: 3.998 cumulative IPC: 1.853 (Simulation time: 00 hr 55 min 39 sec)
Heartbeat CPU 0 instructions: 510000003 cycles: 263422411 heartbeat IPC: 1.296 cumulative IPC: 1.836 (Simulation time: 00 hr 57 min 12 sec)
Heartbeat CPU 0 instructions: 520000001 cycles: 355824664 heartbeat IPC: 0.1082 cumulative IPC: 1.37 (Simulation time: 01 hr 10 min 54 sec)
Heartbeat CPU 0 instructions: 530000004 cycles: 432287810 heartbeat IPC: 0.1308 cumulative IPC: 1.144 (Simulation time: 01 hr 22 min 44 sec)
Heartbeat CPU 0 instructions: 540000000 cycles: 469070034 heartbeat IPC: 0.2719 cumulative IPC: 1.074 (Simulation time: 01 hr 28 min 46 sec)
Heartbeat CPU 0 instructions: 550000002 cycles: 505722700 heartbeat IPC: 0.2728 cumulative IPC: 1.015 (Simulation time: 01 hr 35 min 06 sec)
Heartbeat CPU 0 instructions: 560000004 cycles: 542286071 heartbeat IPC: 0.2735 cumulative IPC: 0.9633 (Simulation time: 01 hr 41 min 13 sec)
Heartbeat CPU 0 instructions: 570000000 cycles: 579740439 heartbeat IPC: 0.267 cumulative IPC: 0.9173 (Simulation time: 01 hr 46 min 50 sec)
Heartbeat CPU 0 instructions: 580000001 cycles: 619380669 heartbeat IPC: 0.2523 cumulative IPC: 0.8739 (Simulation time: 01 hr 52 min 30 sec)
Heartbeat CPU 0 instructions: 590000004 cycles: 659846824 heartbeat IPC: 0.2471 cumulative IPC: 0.8347 (Simulation time: 01 hr 58 min 02 sec)
*** Reached end of trace: (0, "traces/sp.A.champsimtrace")
Heartbeat CPU 0 instructions: 600000002 cycles: 699198353 heartbeat IPC: 0.2541 cumulative IPC: 0.8014 (Simulation time: 02 hr 03 min 23 sec)
Heartbeat CPU 0 instructions: 610000000 cycles: 723925941 heartbeat IPC: 0.4044 cumulative IPC: 0.7876 (Simulation time: 02 hr 06 min 05 sec)
Heartbeat CPU 0 instructions: 620000001 cycles: 727580690 heartbeat IPC: 2.736 cumulative IPC: 0.7975 (Simulation time: 02 hr 06 min 57 sec)
Heartbeat CPU 0 instructions: 630000003 cycles: 733422528 heartbeat IPC: 1.712 cumulative IPC: 0.805 (Simulation time: 02 hr 08 min 10 sec)
Heartbeat CPU 0 instructions: 640000004 cycles: 739351894 heartbeat IPC: 1.687 cumulative IPC: 0.8121 (Simulation time: 02 hr 09 min 20 sec)
Heartbeat CPU 0 instructions: 650000001 cycles: 745237989 heartbeat IPC: 1.699 cumulative IPC: 0.8193 (Simulation time: 02 hr 10 min 29 sec)
Simulation finished CPU 0 instructions: 600000003 cycles: 732356933 cumulative IPC: 0.8193 (Simulation time: 02 hr 10 min 29 sec)
Simulation complete CPU 0 instructions: 600000003 cycles: 732356933 cumulative IPC: 0.8193 (Simulation time: 02 hr 10 min 29 sec)

ChampSim completed all CPUs

=== Simulation ===
CPU 0 runs traces/sp.A.champsimtrace
Region of Interest Statistics

CPU 0 cumulative IPC: 0.8193 instructions: 600000003 cycles: 732356933
CPU 0 Branch Prediction Accuracy: 99.98% MPKI: 0.003913 Average ROB Occupancy at Mispredict: 107.5
Branch type MPKI
BRANCH_DIRECT_JUMP: 5e-06
BRANCH_INDIRECT: 7.5e-05
BRANCH_CONDITIONAL: 0.00374
BRANCH_DIRECT_CALL: 2e-05
BRANCH_INDIRECT_CALL: 3.17e-05
BRANCH_RETURN: 3.67e-05

LLC TOTAL        ACCESS:    5274075 HIT:     497111 MISS:    4776964
LLC LOAD         ACCESS:    2303706 HIT:     247618 MISS:    2056088
LLC RFO          ACCESS:     922634 HIT:      28629 MISS:     894005
LLC PREFETCH     ACCESS:          0 HIT:          0 MISS:          0
LLC WRITE        ACCESS:    2044260 HIT:     220657 MISS:    1823603
LLC TRANSLATION  ACCESS:       3475 HIT:        207 MISS:       3268
LLC PREFETCH REQUESTED:          0 ISSUED:          0 USEFUL:          0 USELESS:          0
LLC AVERAGE MISS LATENCY: 739.2 cycles
cpu0_DTLB TOTAL        ACCESS:  127223737 HIT:  126244353 MISS:     979384
cpu0_DTLB LOAD         ACCESS:  127223737 HIT:  126244353 MISS:     979384
cpu0_DTLB RFO          ACCESS:          0 HIT:          0 MISS:          0
cpu0_DTLB PREFETCH     ACCESS:          0 HIT:          0 MISS:          0
cpu0_DTLB WRITE        ACCESS:          0 HIT:          0 MISS:          0
cpu0_DTLB TRANSLATION  ACCESS:          0 HIT:          0 MISS:          0
cpu0_DTLB PREFETCH REQUESTED:          0 ISSUED:          0 USEFUL:          0 USELESS:          0
cpu0_DTLB AVERAGE MISS LATENCY: 18.76 cycles
cpu0_ITLB TOTAL        ACCESS:     235689 HIT:     235433 MISS:        256
cpu0_ITLB LOAD         ACCESS:     235689 HIT:     235433 MISS:        256
cpu0_ITLB RFO          ACCESS:          0 HIT:          0 MISS:          0
cpu0_ITLB PREFETCH     ACCESS:          0 HIT:          0 MISS:          0
cpu0_ITLB WRITE        ACCESS:          0 HIT:          0 MISS:          0
cpu0_ITLB TRANSLATION  ACCESS:          0 HIT:          0 MISS:          0
cpu0_ITLB PREFETCH REQUESTED:          0 ISSUED:          0 USEFUL:          0 USELESS:          0
cpu0_ITLB AVERAGE MISS LATENCY: 277.6 cycles
cpu0_L1D TOTAL        ACCESS:  192986839 HIT:  178252846 MISS:   14733993
cpu0_L1D LOAD         ACCESS:  157744735 HIT:  147142180 MISS:   10602555
cpu0_L1D RFO          ACCESS:          0 HIT:          0 MISS:          0
cpu0_L1D PREFETCH     ACCESS:          0 HIT:          0 MISS:          0
cpu0_L1D WRITE        ACCESS:   35194225 HIT:   31081073 MISS:    4113152
cpu0_L1D TRANSLATION  ACCESS:      47879 HIT:      29593 MISS:      18286
cpu0_L1D PREFETCH REQUESTED:          0 ISSUED:          0 USEFUL:          0 USELESS:          0
cpu0_L1D AVERAGE MISS LATENCY: 174 cycles
cpu0_L1I TOTAL        ACCESS:     246904 HIT:     243902 MISS:       3002
cpu0_L1I LOAD         ACCESS:     246904 HIT:     243902 MISS:       3002
cpu0_L1I RFO          ACCESS:          0 HIT:          0 MISS:          0
cpu0_L1I PREFETCH     ACCESS:          0 HIT:          0 MISS:          0
cpu0_L1I WRITE        ACCESS:          0 HIT:          0 MISS:          0
cpu0_L1I TRANSLATION  ACCESS:          0 HIT:          0 MISS:          0
cpu0_L1I PREFETCH REQUESTED:          0 ISSUED:          0 USEFUL:          0 USELESS:          0
cpu0_L1I AVERAGE MISS LATENCY: 501.9 cycles
cpu0_L2C TOTAL        ACCESS:    5443767 HIT:    2213569 MISS:    3230198
cpu0_L2C LOAD         ACCESS:    2445493 HIT:     141774 MISS:    2303719
cpu0_L2C RFO          ACCESS:     923521 HIT:        887 MISS:     922634
cpu0_L2C PREFETCH     ACCESS:          0 HIT:          0 MISS:          0
cpu0_L2C WRITE        ACCESS:    2056470 HIT:    2056100 MISS:        370
cpu0_L2C TRANSLATION  ACCESS:      18283 HIT:      14808 MISS:       3475
cpu0_L2C PREFETCH REQUESTED:          0 ISSUED:          0 USEFUL:          0 USELESS:          0
cpu0_L2C AVERAGE MISS LATENCY: 1114 cycles
cpu0_STLB TOTAL        ACCESS:     735432 HIT:     687583 MISS:      47849
cpu0_STLB LOAD         ACCESS:     735432 HIT:     687583 MISS:      47849
cpu0_STLB RFO          ACCESS:          0 HIT:          0 MISS:          0
cpu0_STLB PREFETCH     ACCESS:          0 HIT:          0 MISS:          0
cpu0_STLB WRITE        ACCESS:          0 HIT:          0 MISS:          0
cpu0_STLB TRANSLATION  ACCESS:          0 HIT:          0 MISS:          0
cpu0_STLB PREFETCH REQUESTED:          0 ISSUED:          0 USEFUL:          0 USELESS:          0
cpu0_STLB AVERAGE MISS LATENCY: 374.3 cycles

DRAM Statistics

Channel 0 RQ ROW_BUFFER_HIT:     746725
  ROW_BUFFER_MISS:    2149733
 AVG DBUS CONGESTED CYCLE: 3.969
WQ ROW_BUFFER_HIT: Channel 0 
  ROW_BUFFER_MISS:     623552
  FULL:    1231315
