WARNING: physical memory size is smaller than virtual memory size.

*** ChampSim Multicore Out-of-Order Simulator ***
Warmup Instructions: 50000000
Simulation Instructions: 600000000
Number of CPUs: 1
Page size: 4096

CPU 0 Tage branch predictor
Off-chip DRAM Size: 4 GiB Channels: 1 Width: 64-bit Data Race: 3200 MT/s
Heartbeat CPU 0 instructions: 10000003 cycles: 2881057 heartbeat IPC: 3.471 cumulative IPC: 3.471 (Simulation time: 00 hr 00 min 42 sec)
Heartbeat CPU 0 instructions: 20000003 cycles: 5381057 heartbeat IPC: 4 cumulative IPC: 3.717 (Simulation time: 00 hr 01 min 21 sec)
Heartbeat CPU 0 instructions: 30000003 cycles: 7881057 heartbeat IPC: 4 cumulative IPC: 3.807 (Simulation time: 00 hr 02 min 00 sec)
Heartbeat CPU 0 instructions: 40000003 cycles: 10381057 heartbeat IPC: 4 cumulative IPC: 3.853 (Simulation time: 00 hr 02 min 40 sec)
Heartbeat CPU 0 instructions: 50000003 cycles: 12881057 heartbeat IPC: 4 cumulative IPC: 3.882 (Simulation time: 00 hr 03 min 20 sec)
Warmup finished CPU 0 instructions: 50000003 cycles: 12881058 cumulative IPC: 3.882 (Simulation time: 00 hr 03 min 20 sec)
Warmup complete CPU 0 instructions: 50000003 cycles: 12881058 cumulative IPC: 3.882 (Simulation time: 00 hr 03 min 20 sec)
Heartbeat CPU 0 instructions: 60000000 cycles: 18780080 heartbeat IPC: 1.695 cumulative IPC: 1.695 (Simulation time: 00 hr 04 min 40 sec)
Heartbeat CPU 0 instructions: 70000000 cycles: 24651638 heartbeat IPC: 1.703 cumulative IPC: 1.699 (Simulation time: 00 hr 05 min 57 sec)
Heartbeat CPU 0 instructions: 80000000 cycles: 30542109 heartbeat IPC: 1.698 cumulative IPC: 1.699 (Simulation time: 00 hr 07 min 09 sec)
Heartbeat CPU 0 instructions: 90000003 cycles: 36455602 heartbeat IPC: 1.691 cumulative IPC: 1.697 (Simulation time: 00 hr 08 min 22 sec)
Heartbeat CPU 0 instructions: 100000000 cycles: 40546981 heartbeat IPC: 2.444 cumulative IPC: 1.807 (Simulation time: 00 hr 09 min 18 sec)
Heartbeat CPU 0 instructions: 110000001 cycles: 43484626 heartbeat IPC: 3.404 cumulative IPC: 1.961 (Simulation time: 00 hr 10 min 04 sec)
Heartbeat CPU 0 instructions: 120000001 cycles: 50005579 heartbeat IPC: 1.534 cumulative IPC: 1.886 (Simulation time: 00 hr 11 min 17 sec)
Heartbeat CPU 0 instructions: 130000002 cycles: 57004680 heartbeat IPC: 1.429 cumulative IPC: 1.813 (Simulation time: 00 hr 12 min 33 sec)
Heartbeat CPU 0 instructions: 140000004 cycles: 64084031 heartbeat IPC: 1.413 cumulative IPC: 1.758 (Simulation time: 00 hr 13 min 47 sec)
Heartbeat CPU 0 instructions: 150000000 cycles: 71082164 heartbeat IPC: 1.429 cumulative IPC: 1.718 (Simulation time: 00 hr 15 min 06 sec)
Heartbeat CPU 0 instructions: 160000001 cycles: 78092380 heartbeat IPC: 1.426 cumulative IPC: 1.687 (Simulation time: 00 hr 16 min 22 sec)
Heartbeat CPU 0 instructions: 170000001 cycles: 85044686 heartbeat IPC: 1.438 cumulative IPC: 1.663 (Simulation time: 00 hr 17 min 36 sec)
Heartbeat CPU 0 instructions: 180000002 cycles: 92025864 heartbeat IPC: 1.432 cumulative IPC: 1.643 (Simulation time: 00 hr 18 min 50 sec)
Heartbeat CPU 0 instructions: 190000002 cycles: 98788794 heartbeat IPC: 1.479 cumulative IPC: 1.63 (Simulation time: 00 hr 20 min 02 sec)
Heartbeat CPU 0 instructions: 200000004 cycles: 104808349 heartbeat IPC: 1.661 cumulative IPC: 1.632 (Simulation time: 00 hr 21 min 10 sec)
Heartbeat CPU 0 instructions: 210000001 cycles: 110827614 heartbeat IPC: 1.661 cumulative IPC: 1.634 (Simulation time: 00 hr 22 min 20 sec)
Heartbeat CPU 0 instructions: 220000001 cycles: 116785909 heartbeat IPC: 1.678 cumulative IPC: 1.636 (Simulation time: 00 hr 23 min 30 sec)
Heartbeat CPU 0 instructions: 230000004 cycles: 122793806 heartbeat IPC: 1.664 cumulative IPC: 1.638 (Simulation time: 00 hr 24 min 39 sec)
Heartbeat CPU 0 instructions: 240000003 cycles: 128837169 heartbeat IPC: 1.655 cumulative IPC: 1.639 (Simulation time: 00 hr 25 min 49 sec)
Heartbeat CPU 0 instructions: 250000001 cycles: 134858357 heartbeat IPC: 1.661 cumulative IPC: 1.64 (Simulation time: 00 hr 26 min 56 sec)
Heartbeat CPU 0 instructions: 260000002 cycles: 140936009 heartbeat IPC: 1.645 cumulative IPC: 1.64 (Simulation time: 00 hr 28 min 04 sec)
Heartbeat CPU 0 instructions: 270000003 cycles: 147005458 heartbeat IPC: 1.648 cumulative IPC: 1.64 (Simulation time: 00 hr 29 min 14 sec)
Heartbeat CPU 0 instructions: 280000000 cycles: 153136526 heartbeat IPC: 1.631 cumulative IPC: 1.64 (Simulation time: 00 hr 30 min 24 sec)
Heartbeat CPU 0 instructions: 290000001 cycles: 203159905 heartbeat IPC: 0.1999 cumulative IPC: 1.261 (Simulation time: 00 hr 36 min 02 sec)
Heartbeat CPU 0 instructions: 300000002 cycles: 205660402 heartbeat IPC: 3.999 cumulative IPC: 1.297 (Simulation time: 00 hr 36 min 43 sec)
Heartbeat CPU 0 instructions: 310000001 cycles: 208160497 heartbeat IPC: 4 cumulative IPC: 1.331 (Simulation time: 00 hr 37 min 24 sec)
Heartbeat CPU 0 instructions: 320000001 cycles: 210662330 heartbeat IPC: 3.997 cumulative IPC: 1.365 (Simulation time: 00 hr 38 min 06 sec)
Heartbeat CPU 0 instructions: 330000003 cycles: 213162903 heartbeat IPC: 3.999 cumulative IPC: 1.398 (Simulation time: 00 hr 38 min 48 sec)
Heartbeat CPU 0 instructions: 340000000 cycles: 215663735 heartbeat IPC: 3.999 cumulative IPC: 1.43 (Simulation time: 00 hr 39 min 31 sec)
Heartbeat CPU 0 instructions: 350000004 cycles: 218163966 heartbeat IPC: 4 cumulative IPC: 1.461 (Simulation time: 00 hr 40 min 12 sec)
Heartbeat CPU 0 instructions: 360000004 cycles: 220664634 heartbeat IPC: 3.999 cumulative IPC: 1.492 (Simulation time: 00 hr 40 min 54 sec)
Heartbeat CPU 0 instructions: 370000000 cycles: 223166529 heartbeat IPC: 3.997 cumulative IPC: 1.522 (Simulation time: 00 hr 41 min 36 sec)
Heartbeat CPU 0 instructions: 380000004 cycles: 225668157 heartbeat IPC: 3.997 cumulative IPC: 1.551 (Simulation time: 00 hr 42 min 19 sec)
Heartbeat CPU 0 instructions: 390000001 cycles: 228168578 heartbeat IPC: 3.999 cumulative IPC: 1.579 (Simulation time: 00 hr 43 min 04 sec)
Heartbeat CPU 0 instructions: 400000003 cycles: 230668664 heartbeat IPC: 4 cumulative IPC: 1.607 (Simulation time: 00 hr 43 min 46 sec)
Heartbeat CPU 0 instructions: 410000003 cycles: 233169632 heartbeat IPC: 3.998 cumulative IPC: 1.634 (Simulation time: 00 hr 44 min 28 sec)
Heartbeat CPU 0 instructions: 420000002 cycles: 235670839 heartbeat IPC: 3.998 cumulative IPC: 1.661 (Simulation time: 00 hr 45 min 10 sec)
Heartbeat CPU 0 instructions: 430000000 cycles: 238171725 heartbeat IPC: 3.999 cumulative IPC: 1.687 (Simulation time: 00 hr 45 min 51 sec)
Heartbeat CPU 0 instructions: 440000001 cycles: 240673905 heartbeat IPC: 3.997 cumulative IPC: 1.712 (Simulation time: 00 hr 46 min 32 sec)
Heartbeat CPU 0 instructions: 450000000 cycles: 243174187 heartbeat IPC: 4 cumulative IPC: 1.737 (Simulation time: 00 hr 47 min 13 sec)
Heartbeat CPU 0 instructions: 460000003 cycles: 245674706 heartbeat IPC: 3.999 cumulative IPC: 1.761 (Simulation time: 00 hr 47 min 56 sec)
Heartbeat CPU 0 instructions: 470000001 cycles: 248175608 heartbeat IPC: 3.999 cumulative IPC: 1.785 (Simulation time: 00 hr 48 min 38 sec)
Heartbeat CPU 0 instructions: 480000003 cycles: 250676389 heartbeat IPC: 3.999 cumulative IPC: 1.808 (Simulation time: 00 hr 49 min 20 sec)
Heartbeat CPU 0 instructions: 490000003 cycles: 253176527 heartbeat IPC: 4 cumulative IPC: 1.831 (Simulation time: 00 hr 50 min 02 sec)
Heartbeat CPU 0 instructions: 500000002 cycles: 255677682 heartbeat IPC: 3.998 cumulative IPC: 1.853 (Simulation time: 00 hr 50 min 44 sec)
Heartbeat CPU 0 instructions: 510000003 cycles: 263394072 heartbeat IPC: 1.296 cumulative IPC: 1.836 (Simulation time: 00 hr 52 min 02 sec)
Heartbeat CPU 0 instructions: 520000000 cycles: 355766443 heartbeat IPC: 0.1083 cumulative IPC: 1.371 (Simulation time: 01 hr 04 min 12 sec)
Heartbeat CPU 0 instructions: 530000000 cycles: 433441416 heartbeat IPC: 0.1287 cumulative IPC: 1.141 (Simulation time: 01 hr 14 min 22 sec)
Heartbeat CPU 0 instructions: 540000000 cycles: 472503811 heartbeat IPC: 0.256 cumulative IPC: 1.066 (Simulation time: 01 hr 20 min 10 sec)
Heartbeat CPU 0 instructions: 550000002 cycles: 511634634 heartbeat IPC: 0.2556 cumulative IPC: 1.002 (Simulation time: 01 hr 25 min 44 sec)
Heartbeat CPU 0 instructions: 560000004 cycles: 550200925 heartbeat IPC: 0.2593 cumulative IPC: 0.9492 (Simulation time: 01 hr 31 min 43 sec)
Heartbeat CPU 0 instructions: 570000000 cycles: 588336274 heartbeat IPC: 0.2622 cumulative IPC: 0.9036 (Simulation time: 01 hr 37 min 26 sec)
Heartbeat CPU 0 instructions: 580000001 cycles: 627991244 heartbeat IPC: 0.2522 cumulative IPC: 0.8616 (Simulation time: 01 hr 43 min 39 sec)
Heartbeat CPU 0 instructions: 590000004 cycles: 668650900 heartbeat IPC: 0.2459 cumulative IPC: 0.8235 (Simulation time: 01 hr 49 min 39 sec)
*** Reached end of trace: (0, "traces/sp.A.champsimtrace")
Heartbeat CPU 0 instructions: 600000002 cycles: 708257773 heartbeat IPC: 0.2525 cumulative IPC: 0.7909 (Simulation time: 01 hr 55 min 14 sec)
Heartbeat CPU 0 instructions: 610000000 cycles: 732985671 heartbeat IPC: 0.4044 cumulative IPC: 0.7777 (Simulation time: 01 hr 58 min 22 sec)
Heartbeat CPU 0 instructions: 620000001 cycles: 736640620 heartbeat IPC: 2.736 cumulative IPC: 0.7876 (Simulation time: 01 hr 59 min 28 sec)
Heartbeat CPU 0 instructions: 630000003 cycles: 742467713 heartbeat IPC: 1.716 cumulative IPC: 0.795 (Simulation time: 02 hr 00 min 50 sec)
Heartbeat CPU 0 instructions: 640000004 cycles: 748397079 heartbeat IPC: 1.687 cumulative IPC: 0.8022 (Simulation time: 02 hr 02 min 09 sec)
Heartbeat CPU 0 instructions: 650000001 cycles: 754285917 heartbeat IPC: 1.698 cumulative IPC: 0.8093 (Simulation time: 02 hr 03 min 29 sec)
Simulation finished CPU 0 instructions: 600000003 cycles: 741404861 cumulative IPC: 0.8093 (Simulation time: 02 hr 03 min 29 sec)
Simulation complete CPU 0 instructions: 600000003 cycles: 741404861 cumulative IPC: 0.8093 (Simulation time: 02 hr 03 min 29 sec)

ChampSim completed all CPUs

=== Simulation ===
CPU 0 runs traces/sp.A.champsimtrace
Region of Interest Statistics

CPU 0 cumulative IPC: 0.8093 instructions: 600000003 cycles: 741404861
CPU 0 Branch Prediction Accuracy: 99.98% MPKI: 0.003913 Average ROB Occupancy at Mispredict: 106.8
Branch type MPKI
BRANCH_DIRECT_JUMP: 5e-06
BRANCH_INDIRECT: 7.5e-05
BRANCH_CONDITIONAL: 0.00374
BRANCH_DIRECT_CALL: 2e-05
BRANCH_INDIRECT_CALL: 3.17e-05
BRANCH_RETURN: 3.67e-05

LLC TOTAL        ACCESS:    5274113 HIT:     435546 MISS:    4838567
LLC LOAD         ACCESS:    2303728 HIT:     238661 MISS:    2065067
LLC RFO          ACCESS:     922635 HIT:      28489 MISS:     894146
LLC PREFETCH     ACCESS:          0 HIT:          0 MISS:          0
LLC WRITE        ACCESS:    2044276 HIT:     168263 MISS:    1876013
LLC TRANSLATION  ACCESS:       3474 HIT:        133 MISS:       3341
LLC PREFETCH REQUESTED:          0 ISSUED:          0 USEFUL:          0 USELESS:          0
LLC AVERAGE MISS LATENCY: 741.4 cycles
cpu0_DTLB TOTAL        ACCESS:  127144642 HIT:  126165305 MISS:     979337
cpu0_DTLB LOAD         ACCESS:  127144642 HIT:  126165305 MISS:     979337
cpu0_DTLB RFO          ACCESS:          0 HIT:          0 MISS:          0
cpu0_DTLB PREFETCH     ACCESS:          0 HIT:          0 MISS:          0
cpu0_DTLB WRITE        ACCESS:          0 HIT:          0 MISS:          0
cpu0_DTLB TRANSLATION  ACCESS:          0 HIT:          0 MISS:          0
cpu0_DTLB PREFETCH REQUESTED:          0 ISSUED:          0 USEFUL:          0 USELESS:          0
cpu0_DTLB AVERAGE MISS LATENCY: 19.05 cycles
cpu0_ITLB TOTAL        ACCESS:     235622 HIT:     235369 MISS:        253
cpu0_ITLB LOAD         ACCESS:     235622 HIT:     235369 MISS:        253
cpu0_ITLB RFO          ACCESS:          0 HIT:          0 MISS:          0
cpu0_ITLB PREFETCH     ACCESS:          0 HIT:          0 MISS:          0
cpu0_ITLB WRITE        ACCESS:          0 HIT:          0 MISS:          0
cpu0_ITLB TRANSLATION  ACCESS:          0 HIT:          0 MISS:          0
cpu0_ITLB PREFETCH REQUESTED:          0 ISSUED:          0 USEFUL:          0 USELESS:          0
cpu0_ITLB AVERAGE MISS LATENCY: 296.9 cycles
cpu0_L1D TOTAL        ACCESS:  192878893 HIT:  178236814 MISS:   14642079
cpu0_L1D LOAD         ACCESS:  157636787 HIT:  147122582 MISS:   10514205
cpu0_L1D RFO          ACCESS:          0 HIT:          0 MISS:          0
cpu0_L1D PREFETCH     ACCESS:          0 HIT:          0 MISS:          0
cpu0_L1D WRITE        ACCESS:   35194227 HIT:   31084637 MISS:    4109590
cpu0_L1D TRANSLATION  ACCESS:      47879 HIT:      29595 MISS:      18284
cpu0_L1D PREFETCH REQUESTED:          0 ISSUED:          0 USEFUL:          0 USELESS:          0
cpu0_L1D AVERAGE MISS LATENCY: 177.4 cycles
cpu0_L1I TOTAL        ACCESS:     246834 HIT:     243823 MISS:       3011
cpu0_L1I LOAD         ACCESS:     246834 HIT:     243823 MISS:       3011
cpu0_L1I RFO          ACCESS:          0 HIT:          0 MISS:          0
cpu0_L1I PREFETCH     ACCESS:          0 HIT:          0 MISS:          0
cpu0_L1I WRITE        ACCESS:          0 HIT:          0 MISS:          0
cpu0_L1I TRANSLATION  ACCESS:          0 HIT:          0 MISS:          0
cpu0_L1I PREFETCH REQUESTED:          0 ISSUED:          0 USEFUL:          0 USELESS:          0
cpu0_L1I AVERAGE MISS LATENCY: 522.3 cycles
cpu0_L2C TOTAL        ACCESS:    5443689 HIT:    2213470 MISS:    3230219
cpu0_L2C LOAD         ACCESS:    2445423 HIT:     141682 MISS:    2303741
cpu0_L2C RFO          ACCESS:     923518 HIT:        883 MISS:     922635
cpu0_L2C PREFETCH     ACCESS:          0 HIT:          0 MISS:          0
cpu0_L2C WRITE        ACCESS:    2056467 HIT:    2056098 MISS:        369
cpu0_L2C TRANSLATION  ACCESS:      18281 HIT:      14807 MISS:       3474
cpu0_L2C PREFETCH REQUESTED:          0 ISSUED:          0 USEFUL:          0 USELESS:          0
cpu0_L2C AVERAGE MISS LATENCY: 1131 cycles
cpu0_STLB TOTAL        ACCESS:     735374 HIT:     687525 MISS:      47849
cpu0_STLB LOAD         ACCESS:     735374 HIT:     687525 MISS:      47849
cpu0_STLB RFO          ACCESS:          0 HIT:          0 MISS:          0
cpu0_STLB PREFETCH     ACCESS:          0 HIT:          0 MISS:          0
cpu0_STLB WRITE        ACCESS:          0 HIT:          0 MISS:          0
cpu0_STLB TRANSLATION  ACCESS:          0 HIT:          0 MISS:          0
cpu0_STLB PREFETCH REQUESTED:          0 ISSUED:          0 USEFUL:          0 USELESS:          0
cpu0_STLB AVERAGE MISS LATENCY: 383.5 cycles

DRAM Statistics

Channel 0 RQ ROW_BUFFER_HIT:     742198
  ROW_BUFFER_MISS:    2162987
 AVG DBUS CONGESTED CYCLE: 3.969
WQ ROW_BUFFER_HIT: Channel 0 
  ROW_BUFFER_MISS:     663484
  FULL:    1242525
