WARNING: physical memory size is smaller than virtual memory size.

*** ChampSim Multicore Out-of-Order Simulator ***
Warmup Instructions: 50000000
Simulation Instructions: 600000000
Number of CPUs: 1
Page size: 4096

Off-chip DRAM Size: 4 GiB Channels: 1 Width: 64-bit Data Race: 3200 MT/s
Heartbeat CPU 0 instructions: 10000000 cycles: 2881055 heartbeat IPC: 3.471 cumulative IPC: 3.471 (Simulation time: 00 hr 00 min 37 sec)
Heartbeat CPU 0 instructions: 20000000 cycles: 5381055 heartbeat IPC: 4 cumulative IPC: 3.717 (Simulation time: 00 hr 01 min 18 sec)
Heartbeat CPU 0 instructions: 30000000 cycles: 7881055 heartbeat IPC: 4 cumulative IPC: 3.807 (Simulation time: 00 hr 01 min 55 sec)
Heartbeat CPU 0 instructions: 40000000 cycles: 10381055 heartbeat IPC: 4 cumulative IPC: 3.853 (Simulation time: 00 hr 02 min 36 sec)
Heartbeat CPU 0 instructions: 50000000 cycles: 12881055 heartbeat IPC: 4 cumulative IPC: 3.882 (Simulation time: 00 hr 03 min 14 sec)
Warmup finished CPU 0 instructions: 50000000 cycles: 12881056 cumulative IPC: 3.882 (Simulation time: 00 hr 03 min 14 sec)
Warmup complete CPU 0 instructions: 50000000 cycles: 12881056 cumulative IPC: 3.882 (Simulation time: 00 hr 03 min 14 sec)
Heartbeat CPU 0 instructions: 60000000 cycles: 17309665 heartbeat IPC: 2.258 cumulative IPC: 2.258 (Simulation time: 00 hr 04 min 19 sec)
Heartbeat CPU 0 instructions: 70000000 cycles: 21741461 heartbeat IPC: 2.256 cumulative IPC: 2.257 (Simulation time: 00 hr 05 min 23 sec)
Heartbeat CPU 0 instructions: 80000001 cycles: 26103748 heartbeat IPC: 2.292 cumulative IPC: 2.269 (Simulation time: 00 hr 06 min 26 sec)
Heartbeat CPU 0 instructions: 90000003 cycles: 30459934 heartbeat IPC: 2.296 cumulative IPC: 2.275 (Simulation time: 00 hr 07 min 31 sec)
Heartbeat CPU 0 instructions: 100000000 cycles: 34601108 heartbeat IPC: 2.415 cumulative IPC: 2.302 (Simulation time: 00 hr 08 min 29 sec)
Heartbeat CPU 0 instructions: 110000001 cycles: 38110175 heartbeat IPC: 2.85 cumulative IPC: 2.378 (Simulation time: 00 hr 09 min 23 sec)
Heartbeat CPU 0 instructions: 120000001 cycles: 41768133 heartbeat IPC: 2.734 cumulative IPC: 2.423 (Simulation time: 00 hr 10 min 14 sec)
Heartbeat CPU 0 instructions: 130000000 cycles: 45396170 heartbeat IPC: 2.756 cumulative IPC: 2.46 (Simulation time: 00 hr 11 min 06 sec)
Heartbeat CPU 0 instructions: 140000004 cycles: 48863714 heartbeat IPC: 2.884 cumulative IPC: 2.501 (Simulation time: 00 hr 11 min 56 sec)
Heartbeat CPU 0 instructions: 150000000 cycles: 52491936 heartbeat IPC: 2.756 cumulative IPC: 2.525 (Simulation time: 00 hr 12 min 45 sec)
Heartbeat CPU 0 instructions: 160000000 cycles: 56084531 heartbeat IPC: 2.784 cumulative IPC: 2.546 (Simulation time: 00 hr 13 min 33 sec)
Heartbeat CPU 0 instructions: 170000000 cycles: 59789231 heartbeat IPC: 2.699 cumulative IPC: 2.558 (Simulation time: 00 hr 14 min 21 sec)
Heartbeat CPU 0 instructions: 180000002 cycles: 63478670 heartbeat IPC: 2.71 cumulative IPC: 2.569 (Simulation time: 00 hr 15 min 10 sec)
Heartbeat CPU 0 instructions: 190000002 cycles: 66981026 heartbeat IPC: 2.855 cumulative IPC: 2.588 (Simulation time: 00 hr 15 min 59 sec)
Heartbeat CPU 0 instructions: 200000000 cycles: 70068431 heartbeat IPC: 3.239 cumulative IPC: 2.623 (Simulation time: 00 hr 16 min 46 sec)
Heartbeat CPU 0 instructions: 210000004 cycles: 73533806 heartbeat IPC: 2.886 cumulative IPC: 2.638 (Simulation time: 00 hr 17 min 34 sec)
Heartbeat CPU 0 instructions: 220000001 cycles: 77330118 heartbeat IPC: 2.634 cumulative IPC: 2.638 (Simulation time: 00 hr 18 min 26 sec)
Heartbeat CPU 0 instructions: 230000004 cycles: 81128668 heartbeat IPC: 2.633 cumulative IPC: 2.637 (Simulation time: 00 hr 19 min 19 sec)
Heartbeat CPU 0 instructions: 240000002 cycles: 84809142 heartbeat IPC: 2.717 cumulative IPC: 2.642 (Simulation time: 00 hr 20 min 14 sec)
Heartbeat CPU 0 instructions: 250000002 cycles: 88516145 heartbeat IPC: 2.698 cumulative IPC: 2.644 (Simulation time: 00 hr 21 min 11 sec)
Heartbeat CPU 0 instructions: 260000002 cycles: 92271277 heartbeat IPC: 2.663 cumulative IPC: 2.645 (Simulation time: 00 hr 22 min 08 sec)
Heartbeat CPU 0 instructions: 270000003 cycles: 96002822 heartbeat IPC: 2.68 cumulative IPC: 2.647 (Simulation time: 00 hr 23 min 02 sec)
Heartbeat CPU 0 instructions: 280000003 cycles: 99714607 heartbeat IPC: 2.694 cumulative IPC: 2.649 (Simulation time: 00 hr 23 min 54 sec)
Heartbeat CPU 0 instructions: 290000001 cycles: 158460548 heartbeat IPC: 0.1702 cumulative IPC: 1.649 (Simulation time: 00 hr 30 min 32 sec)
Heartbeat CPU 0 instructions: 300000002 cycles: 160965651 heartbeat IPC: 3.992 cumulative IPC: 1.688 (Simulation time: 00 hr 31 min 08 sec)
Heartbeat CPU 0 instructions: 310000001 cycles: 163470695 heartbeat IPC: 3.992 cumulative IPC: 1.727 (Simulation time: 00 hr 31 min 44 sec)
Heartbeat CPU 0 instructions: 320000000 cycles: 165975871 heartbeat IPC: 3.992 cumulative IPC: 1.764 (Simulation time: 00 hr 32 min 20 sec)
Heartbeat CPU 0 instructions: 330000003 cycles: 168480909 heartbeat IPC: 3.992 cumulative IPC: 1.799 (Simulation time: 00 hr 32 min 55 sec)
Heartbeat CPU 0 instructions: 340000000 cycles: 170985981 heartbeat IPC: 3.992 cumulative IPC: 1.834 (Simulation time: 00 hr 33 min 31 sec)
Heartbeat CPU 0 instructions: 350000004 cycles: 173491250 heartbeat IPC: 3.992 cumulative IPC: 1.868 (Simulation time: 00 hr 34 min 07 sec)
Heartbeat CPU 0 instructions: 360000004 cycles: 175996430 heartbeat IPC: 3.992 cumulative IPC: 1.9 (Simulation time: 00 hr 34 min 43 sec)
Heartbeat CPU 0 instructions: 370000000 cycles: 178501504 heartbeat IPC: 3.992 cumulative IPC: 1.932 (Simulation time: 00 hr 35 min 20 sec)
Heartbeat CPU 0 instructions: 380000004 cycles: 181006550 heartbeat IPC: 3.992 cumulative IPC: 1.963 (Simulation time: 00 hr 35 min 56 sec)
Heartbeat CPU 0 instructions: 390000001 cycles: 183512039 heartbeat IPC: 3.991 cumulative IPC: 1.993 (Simulation time: 00 hr 36 min 33 sec)
Heartbeat CPU 0 instructions: 400000003 cycles: 186017237 heartbeat IPC: 3.992 cumulative IPC: 2.022 (Simulation time: 00 hr 37 min 09 sec)
Heartbeat CPU 0 instructions: 410000003 cycles: 188523017 heartbeat IPC: 3.991 cumulative IPC: 2.05 (Simulation time: 00 hr 37 min 47 sec)
Heartbeat CPU 0 instructions: 420000002 cycles: 191028090 heartbeat IPC: 3.992 cumulative IPC: 2.077 (Simulation time: 00 hr 38 min 25 sec)
Heartbeat CPU 0 instructions: 430000000 cycles: 193533162 heartbeat IPC: 3.992 cumulative IPC: 2.103 (Simulation time: 00 hr 39 min 03 sec)
Heartbeat CPU 0 instructions: 440000001 cycles: 196038236 heartbeat IPC: 3.992 cumulative IPC: 2.129 (Simulation time: 00 hr 39 min 42 sec)
Heartbeat CPU 0 instructions: 450000000 cycles: 198544226 heartbeat IPC: 3.99 cumulative IPC: 2.154 (Simulation time: 00 hr 40 min 22 sec)
Heartbeat CPU 0 instructions: 460000003 cycles: 201049263 heartbeat IPC: 3.992 cumulative IPC: 2.179 (Simulation time: 00 hr 41 min 12 sec)
Heartbeat CPU 0 instructions: 470000001 cycles: 203554337 heartbeat IPC: 3.992 cumulative IPC: 2.203 (Simulation time: 00 hr 41 min 59 sec)
Heartbeat CPU 0 instructions: 480000003 cycles: 206059409 heartbeat IPC: 3.992 cumulative IPC: 2.226 (Simulation time: 00 hr 42 min 42 sec)
Heartbeat CPU 0 instructions: 490000003 cycles: 208564483 heartbeat IPC: 3.992 cumulative IPC: 2.249 (Simulation time: 00 hr 43 min 23 sec)
Heartbeat CPU 0 instructions: 500000002 cycles: 211070273 heartbeat IPC: 3.991 cumulative IPC: 2.271 (Simulation time: 00 hr 44 min 06 sec)
Heartbeat CPU 0 instructions: 510000003 cycles: 217248645 heartbeat IPC: 1.619 cumulative IPC: 2.251 (Simulation time: 00 hr 45 min 20 sec)
Heartbeat CPU 0 instructions: 520000001 cycles: 327138076 heartbeat IPC: 0.091 cumulative IPC: 1.496 (Simulation time: 01 hr 01 min 21 sec)
Heartbeat CPU 0 instructions: 530000004 cycles: 412622306 heartbeat IPC: 0.117 cumulative IPC: 1.201 (Simulation time: 01 hr 13 min 53 sec)
Heartbeat CPU 0 instructions: 540000000 cycles: 441822159 heartbeat IPC: 0.3425 cumulative IPC: 1.142 (Simulation time: 01 hr 18 min 53 sec)
Heartbeat CPU 0 instructions: 550000004 cycles: 471317030 heartbeat IPC: 0.339 cumulative IPC: 1.091 (Simulation time: 01 hr 23 min 51 sec)
Heartbeat CPU 0 instructions: 560000004 cycles: 500768823 heartbeat IPC: 0.3395 cumulative IPC: 1.045 (Simulation time: 01 hr 28 min 37 sec)
Heartbeat CPU 0 instructions: 570000002 cycles: 530786513 heartbeat IPC: 0.3331 cumulative IPC: 1.004 (Simulation time: 01 hr 33 min 56 sec)
Heartbeat CPU 0 instructions: 580000001 cycles: 561264925 heartbeat IPC: 0.3281 cumulative IPC: 0.9665 (Simulation time: 01 hr 38 min 59 sec)
Heartbeat CPU 0 instructions: 590000004 cycles: 592208587 heartbeat IPC: 0.3232 cumulative IPC: 0.9321 (Simulation time: 01 hr 43 min 51 sec)
*** Reached end of trace: (0, "traces/sp.A.champsimtrace")
Heartbeat CPU 0 instructions: 600000001 cycles: 623182264 heartbeat IPC: 0.3229 cumulative IPC: 0.9012 (Simulation time: 01 hr 48 min 31 sec)
Heartbeat CPU 0 instructions: 610000000 cycles: 653317639 heartbeat IPC: 0.3318 cumulative IPC: 0.8744 (Simulation time: 01 hr 51 min 45 sec)
Heartbeat CPU 0 instructions: 620000003 cycles: 657744839 heartbeat IPC: 2.259 cumulative IPC: 0.8839 (Simulation time: 01 hr 52 min 45 sec)
Heartbeat CPU 0 instructions: 630000003 cycles: 662200556 heartbeat IPC: 2.244 cumulative IPC: 0.8932 (Simulation time: 01 hr 53 min 42 sec)
Heartbeat CPU 0 instructions: 640000004 cycles: 666662471 heartbeat IPC: 2.241 cumulative IPC: 0.9024 (Simulation time: 01 hr 54 min 45 sec)
Heartbeat CPU 0 instructions: 650000001 cycles: 671107740 heartbeat IPC: 2.25 cumulative IPC: 0.9115 (Simulation time: 01 hr 55 min 41 sec)
Simulation finished CPU 0 instructions: 600000001 cycles: 658226685 cumulative IPC: 0.9115 (Simulation time: 01 hr 55 min 41 sec)
Simulation complete CPU 0 instructions: 600000001 cycles: 658226685 cumulative IPC: 0.9115 (Simulation time: 01 hr 55 min 41 sec)

ChampSim completed all CPUs

=== Simulation ===
CPU 0 runs traces/sp.A.champsimtrace
Region of Interest Statistics

CPU 0 cumulative IPC: 0.9115 instructions: 600000001 cycles: 658226685
CPU 0 Branch Prediction Accuracy: 98.84% MPKI: 0.2406 Average ROB Occupancy at Mispredict: 220.8
Branch type MPKI
BRANCH_DIRECT_JUMP: 5e-06
BRANCH_INDIRECT: 7.5e-05
BRANCH_CONDITIONAL: 0.24
BRANCH_DIRECT_CALL: 2e-05
BRANCH_INDIRECT_CALL: 3.17e-05
BRANCH_RETURN: 3.67e-05

LLC TOTAL        ACCESS:    7579654 HIT:    3678356 MISS:    3901298
LLC LOAD         ACCESS:    2304283 HIT:    1153932 MISS:    1150351
LLC RFO          ACCESS:     922634 HIT:       6831 MISS:     915803
LLC PREFETCH     ACCESS:    2304283 HIT:     492025 MISS:    1812258
LLC WRITE        ACCESS:    2044982 HIT:    2024083 MISS:      20899
LLC TRANSLATION  ACCESS:       3472 HIT:       1485 MISS:       1987
LLC PREFETCH REQUESTED:    2304283 ISSUED:    2304283 USEFUL:    1513806 USELESS:      27551
LLC AVERAGE MISS LATENCY: 1221 cycles
cpu0_DTLB TOTAL        ACCESS:  127287051 HIT:  126469843 MISS:     817208
cpu0_DTLB LOAD         ACCESS:  127287051 HIT:  126469843 MISS:     817208
cpu0_DTLB RFO          ACCESS:          0 HIT:          0 MISS:          0
cpu0_DTLB PREFETCH     ACCESS:          0 HIT:          0 MISS:          0
cpu0_DTLB WRITE        ACCESS:          0 HIT:          0 MISS:          0
cpu0_DTLB TRANSLATION  ACCESS:          0 HIT:          0 MISS:          0
cpu0_DTLB PREFETCH REQUESTED:          0 ISSUED:          0 USEFUL:          0 USELESS:          0
cpu0_DTLB AVERAGE MISS LATENCY: 18.04 cycles
cpu0_ITLB TOTAL        ACCESS:     216903 HIT:     216684 MISS:        219
cpu0_ITLB LOAD         ACCESS:     216903 HIT:     216684 MISS:        219
cpu0_ITLB RFO          ACCESS:          0 HIT:          0 MISS:          0
cpu0_ITLB PREFETCH     ACCESS:          0 HIT:          0 MISS:          0
cpu0_ITLB WRITE        ACCESS:          0 HIT:          0 MISS:          0
cpu0_ITLB TRANSLATION  ACCESS:          0 HIT:          0 MISS:          0
cpu0_ITLB PREFETCH REQUESTED:          0 ISSUED:          0 USEFUL:          0 USELESS:          0
cpu0_ITLB AVERAGE MISS LATENCY: 386.1 cycles
cpu0_L1D TOTAL        ACCESS:  193382940 HIT:  179431040 MISS:   13951900
cpu0_L1D LOAD         ACCESS:  158140736 HIT:  148400186 MISS:    9740550
cpu0_L1D RFO          ACCESS:          0 HIT:          0 MISS:          0
cpu0_L1D PREFETCH     ACCESS:          0 HIT:          0 MISS:          0
cpu0_L1D WRITE        ACCESS:   35194325 HIT:   31001303 MISS:    4193022
cpu0_L1D TRANSLATION  ACCESS:      47879 HIT:      29551 MISS:      18328
cpu0_L1D PREFETCH REQUESTED:          0 ISSUED:          0 USEFUL:          0 USELESS:          0
cpu0_L1D AVERAGE MISS LATENCY: 164.7 cycles
cpu0_L1I TOTAL        ACCESS:     224456 HIT:     221679 MISS:       2777
cpu0_L1I LOAD         ACCESS:     224456 HIT:     221679 MISS:       2777
cpu0_L1I RFO          ACCESS:          0 HIT:          0 MISS:          0
cpu0_L1I PREFETCH     ACCESS:          0 HIT:          0 MISS:          0
cpu0_L1I WRITE        ACCESS:          0 HIT:          0 MISS:          0
cpu0_L1I TRANSLATION  ACCESS:          0 HIT:          0 MISS:          0
cpu0_L1I PREFETCH REQUESTED:          0 ISSUED:          0 USEFUL:          0 USELESS:          0
cpu0_L1I AVERAGE MISS LATENCY: 473.9 cycles
cpu0_L2C TOTAL        ACCESS:    5428854 HIT:    2197990 MISS:    3230864
cpu0_L2C LOAD         ACCESS:    2431281 HIT:     126896 MISS:    2304385
cpu0_L2C RFO          ACCESS:     923193 HIT:        559 MISS:     922634
cpu0_L2C PREFETCH     ACCESS:          0 HIT:          0 MISS:          0
cpu0_L2C WRITE        ACCESS:    2056055 HIT:    2055682 MISS:        373
cpu0_L2C TRANSLATION  ACCESS:      18325 HIT:      14853 MISS:       3472
cpu0_L2C PREFETCH REQUESTED:          0 ISSUED:          0 USEFUL:          0 USELESS:          0
cpu0_L2C AVERAGE MISS LATENCY: 957.1 cycles
cpu0_STLB TOTAL        ACCESS:     564584 HIT:     516735 MISS:      47849
cpu0_STLB LOAD         ACCESS:     564584 HIT:     516735 MISS:      47849
cpu0_STLB RFO          ACCESS:          0 HIT:          0 MISS:          0
cpu0_STLB PREFETCH     ACCESS:          0 HIT:          0 MISS:          0
cpu0_STLB WRITE        ACCESS:          0 HIT:          0 MISS:          0
cpu0_STLB TRANSLATION  ACCESS:          0 HIT:          0 MISS:          0
cpu0_STLB PREFETCH REQUESTED:          0 ISSUED:          0 USEFUL:          0 USELESS:          0
cpu0_STLB AVERAGE MISS LATENCY: 326.2 cycles

DRAM Statistics

Channel 0 RQ ROW_BUFFER_HIT:     760275
  ROW_BUFFER_MISS:    2003040
 AVG DBUS CONGESTED CYCLE: 3.981
WQ ROW_BUFFER_HIT: Channel 0 
  ROW_BUFFER_MISS:     298586
  FULL:    1488962
