WARNING: physical memory size is smaller than virtual memory size.

*** ChampSim Multicore Out-of-Order Simulator ***
Warmup Instructions: 50000000
Simulation Instructions: 600000000
Number of CPUs: 1
Page size: 4096

CPU 0 Tage branch predictor
Off-chip DRAM Size: 4 GiB Channels: 1 Width: 64-bit Data Race: 3200 MT/s
Heartbeat CPU 0 instructions: 10000003 cycles: 2881057 heartbeat IPC: 3.471 cumulative IPC: 3.471 (Simulation time: 00 hr 00 min 56 sec)
Heartbeat CPU 0 instructions: 20000003 cycles: 5381057 heartbeat IPC: 4 cumulative IPC: 3.717 (Simulation time: 00 hr 01 min 50 sec)
Heartbeat CPU 0 instructions: 30000003 cycles: 7881057 heartbeat IPC: 4 cumulative IPC: 3.807 (Simulation time: 00 hr 02 min 43 sec)
Heartbeat CPU 0 instructions: 40000003 cycles: 10381057 heartbeat IPC: 4 cumulative IPC: 3.853 (Simulation time: 00 hr 03 min 35 sec)
Heartbeat CPU 0 instructions: 50000003 cycles: 12881057 heartbeat IPC: 4 cumulative IPC: 3.882 (Simulation time: 00 hr 04 min 28 sec)
Warmup finished CPU 0 instructions: 50000003 cycles: 12881058 cumulative IPC: 3.882 (Simulation time: 00 hr 04 min 28 sec)
Warmup complete CPU 0 instructions: 50000003 cycles: 12881058 cumulative IPC: 3.882 (Simulation time: 00 hr 04 min 28 sec)
Heartbeat CPU 0 instructions: 60000000 cycles: 17224809 heartbeat IPC: 2.302 cumulative IPC: 2.302 (Simulation time: 00 hr 05 min 51 sec)
Heartbeat CPU 0 instructions: 70000002 cycles: 21635731 heartbeat IPC: 2.267 cumulative IPC: 2.284 (Simulation time: 00 hr 07 min 15 sec)
Heartbeat CPU 0 instructions: 80000001 cycles: 26124758 heartbeat IPC: 2.228 cumulative IPC: 2.265 (Simulation time: 00 hr 08 min 40 sec)
Heartbeat CPU 0 instructions: 90000003 cycles: 30594543 heartbeat IPC: 2.237 cumulative IPC: 2.258 (Simulation time: 00 hr 10 min 04 sec)
Heartbeat CPU 0 instructions: 100000000 cycles: 34034379 heartbeat IPC: 2.907 cumulative IPC: 2.364 (Simulation time: 00 hr 11 min 15 sec)
Heartbeat CPU 0 instructions: 110000004 cycles: 36548683 heartbeat IPC: 3.977 cumulative IPC: 2.535 (Simulation time: 00 hr 12 min 15 sec)
Heartbeat CPU 0 instructions: 120000000 cycles: 39062903 heartbeat IPC: 3.977 cumulative IPC: 2.674 (Simulation time: 00 hr 13 min 15 sec)
Heartbeat CPU 0 instructions: 130000000 cycles: 41731253 heartbeat IPC: 3.748 cumulative IPC: 2.773 (Simulation time: 00 hr 14 min 16 sec)
Heartbeat CPU 0 instructions: 140000004 cycles: 45043800 heartbeat IPC: 3.019 cumulative IPC: 2.798 (Simulation time: 00 hr 15 min 24 sec)
Heartbeat CPU 0 instructions: 150000001 cycles: 48541216 heartbeat IPC: 2.859 cumulative IPC: 2.804 (Simulation time: 00 hr 16 min 35 sec)
Heartbeat CPU 0 instructions: 160000004 cycles: 52096350 heartbeat IPC: 2.813 cumulative IPC: 2.805 (Simulation time: 00 hr 17 min 47 sec)
Heartbeat CPU 0 instructions: 170000000 cycles: 55841608 heartbeat IPC: 2.67 cumulative IPC: 2.793 (Simulation time: 00 hr 19 min 01 sec)
Heartbeat CPU 0 instructions: 180000000 cycles: 59543867 heartbeat IPC: 2.701 cumulative IPC: 2.786 (Simulation time: 00 hr 20 min 16 sec)
Heartbeat CPU 0 instructions: 190000000 cycles: 62893155 heartbeat IPC: 2.986 cumulative IPC: 2.799 (Simulation time: 00 hr 21 min 25 sec)
Heartbeat CPU 0 instructions: 200000004 cycles: 65752778 heartbeat IPC: 3.497 cumulative IPC: 2.837 (Simulation time: 00 hr 22 min 30 sec)
Heartbeat CPU 0 instructions: 210000001 cycles: 68488375 heartbeat IPC: 3.656 cumulative IPC: 2.877 (Simulation time: 00 hr 23 min 34 sec)
Heartbeat CPU 0 instructions: 220000004 cycles: 71286005 heartbeat IPC: 3.574 cumulative IPC: 2.911 (Simulation time: 00 hr 24 min 38 sec)
Heartbeat CPU 0 instructions: 230000000 cycles: 74020713 heartbeat IPC: 3.657 cumulative IPC: 2.944 (Simulation time: 00 hr 25 min 40 sec)
Heartbeat CPU 0 instructions: 240000001 cycles: 76749422 heartbeat IPC: 3.665 cumulative IPC: 2.975 (Simulation time: 00 hr 26 min 43 sec)
Heartbeat CPU 0 instructions: 250000002 cycles: 79597070 heartbeat IPC: 3.512 cumulative IPC: 2.998 (Simulation time: 00 hr 27 min 46 sec)
Heartbeat CPU 0 instructions: 260000000 cycles: 82405589 heartbeat IPC: 3.561 cumulative IPC: 3.021 (Simulation time: 00 hr 28 min 50 sec)
Heartbeat CPU 0 instructions: 270000002 cycles: 85215070 heartbeat IPC: 3.559 cumulative IPC: 3.041 (Simulation time: 00 hr 29 min 53 sec)
Heartbeat CPU 0 instructions: 280000003 cycles: 88049431 heartbeat IPC: 3.528 cumulative IPC: 3.06 (Simulation time: 00 hr 30 min 57 sec)
Heartbeat CPU 0 instructions: 290000000 cycles: 134124427 heartbeat IPC: 0.217 cumulative IPC: 1.979 (Simulation time: 00 hr 38 min 42 sec)
Heartbeat CPU 0 instructions: 300000001 cycles: 136624586 heartbeat IPC: 4 cumulative IPC: 2.02 (Simulation time: 00 hr 39 min 41 sec)
Heartbeat CPU 0 instructions: 310000000 cycles: 139124708 heartbeat IPC: 4 cumulative IPC: 2.06 (Simulation time: 00 hr 40 min 40 sec)
Heartbeat CPU 0 instructions: 320000002 cycles: 141626801 heartbeat IPC: 3.997 cumulative IPC: 2.097 (Simulation time: 00 hr 41 min 38 sec)
Heartbeat CPU 0 instructions: 330000004 cycles: 144127175 heartbeat IPC: 3.999 cumulative IPC: 2.133 (Simulation time: 00 hr 42 min 36 sec)
Heartbeat CPU 0 instructions: 340000004 cycles: 146627986 heartbeat IPC: 3.999 cumulative IPC: 2.168 (Simulation time: 00 hr 43 min 34 sec)
Heartbeat CPU 0 instructions: 350000003 cycles: 149128496 heartbeat IPC: 3.999 cumulative IPC: 2.202 (Simulation time: 00 hr 44 min 33 sec)
Heartbeat CPU 0 instructions: 360000002 cycles: 151629236 heartbeat IPC: 3.999 cumulative IPC: 2.234 (Simulation time: 00 hr 45 min 30 sec)
Heartbeat CPU 0 instructions: 370000004 cycles: 154129941 heartbeat IPC: 3.999 cumulative IPC: 2.266 (Simulation time: 00 hr 46 min 26 sec)
Heartbeat CPU 0 instructions: 380000003 cycles: 156632035 heartbeat IPC: 3.997 cumulative IPC: 2.296 (Simulation time: 00 hr 47 min 23 sec)
Heartbeat CPU 0 instructions: 390000000 cycles: 159133211 heartbeat IPC: 3.998 cumulative IPC: 2.325 (Simulation time: 00 hr 48 min 20 sec)
Heartbeat CPU 0 instructions: 400000002 cycles: 161634169 heartbeat IPC: 3.998 cumulative IPC: 2.353 (Simulation time: 00 hr 49 min 16 sec)
Heartbeat CPU 0 instructions: 410000002 cycles: 164134371 heartbeat IPC: 4 cumulative IPC: 2.38 (Simulation time: 00 hr 50 min 13 sec)
Heartbeat CPU 0 instructions: 420000000 cycles: 166634533 heartbeat IPC: 4 cumulative IPC: 2.406 (Simulation time: 00 hr 51 min 15 sec)
Heartbeat CPU 0 instructions: 430000001 cycles: 169134647 heartbeat IPC: 4 cumulative IPC: 2.432 (Simulation time: 00 hr 52 min 17 sec)
Heartbeat CPU 0 instructions: 440000002 cycles: 171635840 heartbeat IPC: 3.998 cumulative IPC: 2.457 (Simulation time: 00 hr 53 min 14 sec)
Heartbeat CPU 0 instructions: 450000001 cycles: 174137723 heartbeat IPC: 3.997 cumulative IPC: 2.481 (Simulation time: 00 hr 54 min 11 sec)
Heartbeat CPU 0 instructions: 460000002 cycles: 176639459 heartbeat IPC: 3.997 cumulative IPC: 2.504 (Simulation time: 00 hr 55 min 09 sec)
Heartbeat CPU 0 instructions: 470000001 cycles: 179139574 heartbeat IPC: 4 cumulative IPC: 2.526 (Simulation time: 00 hr 56 min 06 sec)
Heartbeat CPU 0 instructions: 480000000 cycles: 181639688 heartbeat IPC: 4 cumulative IPC: 2.548 (Simulation time: 00 hr 57 min 04 sec)
Heartbeat CPU 0 instructions: 490000001 cycles: 184139942 heartbeat IPC: 4 cumulative IPC: 2.569 (Simulation time: 00 hr 58 min 02 sec)
Heartbeat CPU 0 instructions: 500000004 cycles: 186640338 heartbeat IPC: 3.999 cumulative IPC: 2.59 (Simulation time: 00 hr 58 min 59 sec)
Heartbeat CPU 0 instructions: 510000000 cycles: 194686693 heartbeat IPC: 1.243 cumulative IPC: 2.53 (Simulation time: 01 hr 00 min 54 sec)
Heartbeat CPU 0 instructions: 520000002 cycles: 292944395 heartbeat IPC: 0.1018 cumulative IPC: 1.678 (Simulation time: 01 hr 18 min 43 sec)
Heartbeat CPU 0 instructions: 530000001 cycles: 372933060 heartbeat IPC: 0.125 cumulative IPC: 1.333 (Simulation time: 01 hr 33 min 20 sec)
Heartbeat CPU 0 instructions: 540000000 cycles: 406194059 heartbeat IPC: 0.3007 cumulative IPC: 1.246 (Simulation time: 01 hr 39 min 51 sec)
Heartbeat CPU 0 instructions: 550000001 cycles: 442935729 heartbeat IPC: 0.2722 cumulative IPC: 1.163 (Simulation time: 01 hr 47 min 01 sec)
Heartbeat CPU 0 instructions: 560000000 cycles: 479077026 heartbeat IPC: 0.2767 cumulative IPC: 1.094 (Simulation time: 01 hr 54 min 14 sec)
Heartbeat CPU 0 instructions: 570000003 cycles: 511295177 heartbeat IPC: 0.3104 cumulative IPC: 1.043 (Simulation time: 02 hr 00 min 46 sec)
Heartbeat CPU 0 instructions: 580000002 cycles: 538361314 heartbeat IPC: 0.3695 cumulative IPC: 1.009 (Simulation time: 02 hr 06 min 29 sec)
Heartbeat CPU 0 instructions: 590000001 cycles: 575469919 heartbeat IPC: 0.2695 cumulative IPC: 0.9598 (Simulation time: 02 hr 14 min 18 sec)
*** Reached end of trace: (0, "traces/sp.A.champsimtrace")
Heartbeat CPU 0 instructions: 600000004 cycles: 612158381 heartbeat IPC: 0.2726 cumulative IPC: 0.9178 (Simulation time: 02 hr 21 min 51 sec)
Heartbeat CPU 0 instructions: 610000004 cycles: 642848300 heartbeat IPC: 0.3258 cumulative IPC: 0.8889 (Simulation time: 02 hr 27 min 05 sec)
Heartbeat CPU 0 instructions: 620000003 cycles: 647294757 heartbeat IPC: 2.249 cumulative IPC: 0.8985 (Simulation time: 02 hr 28 min 32 sec)
Heartbeat CPU 0 instructions: 630000001 cycles: 651696398 heartbeat IPC: 2.272 cumulative IPC: 0.9079 (Simulation time: 02 hr 29 min 57 sec)
Heartbeat CPU 0 instructions: 640000000 cycles: 656169128 heartbeat IPC: 2.236 cumulative IPC: 0.9172 (Simulation time: 02 hr 31 min 23 sec)
Heartbeat CPU 0 instructions: 650000004 cycles: 660574249 heartbeat IPC: 2.27 cumulative IPC: 0.9264 (Simulation time: 02 hr 32 min 49 sec)
Simulation finished CPU 0 instructions: 600000001 cycles: 647693192 cumulative IPC: 0.9264 (Simulation time: 02 hr 32 min 49 sec)
Simulation complete CPU 0 instructions: 600000001 cycles: 647693192 cumulative IPC: 0.9264 (Simulation time: 02 hr 32 min 49 sec)

ChampSim completed all CPUs

=== Simulation ===
CPU 0 runs traces/sp.A.champsimtrace
Region of Interest Statistics

CPU 0 cumulative IPC: 0.9264 instructions: 600000001 cycles: 647693192
CPU 0 Branch Prediction Accuracy: 99.98% MPKI: 0.004213 Average ROB Occupancy at Mispredict: 118.8
Branch type MPKI
BRANCH_DIRECT_JUMP: 5e-06
BRANCH_INDIRECT: 7.67e-05
BRANCH_CONDITIONAL: 0.00404
BRANCH_DIRECT_CALL: 2e-05
BRANCH_INDIRECT_CALL: 3.33e-05
BRANCH_RETURN: 3.67e-05

LLC TOTAL        ACCESS:    7588643 HIT:    2087964 MISS:    5500679
LLC LOAD         ACCESS:    2308151 HIT:    1057822 MISS:    1250329
LLC RFO          ACCESS:     922675 HIT:        658 MISS:     922017
LLC PREFETCH     ACCESS:    2308184 HIT:     510913 MISS:    1797271
LLC WRITE        ACCESS:    2046168 HIT:     518400 MISS:    1527768
LLC TRANSLATION  ACCESS:       3465 HIT:        171 MISS:       3294
LLC PREFETCH REQUESTED:    2320993 ISSUED:    2308184 USEFUL:    1393115 USELESS:      37962
LLC AVERAGE MISS LATENCY: 751.8 cycles
cpu0_DTLB TOTAL        ACCESS:  128845993 HIT:  127771198 MISS:    1074795
cpu0_DTLB LOAD         ACCESS:  128845993 HIT:  127771198 MISS:    1074795
cpu0_DTLB RFO          ACCESS:          0 HIT:          0 MISS:          0
cpu0_DTLB PREFETCH     ACCESS:          0 HIT:          0 MISS:          0
cpu0_DTLB WRITE        ACCESS:          0 HIT:          0 MISS:          0
cpu0_DTLB TRANSLATION  ACCESS:          0 HIT:          0 MISS:          0
cpu0_DTLB PREFETCH REQUESTED:          0 ISSUED:          0 USEFUL:          0 USELESS:          0
cpu0_DTLB AVERAGE MISS LATENCY: 16.82 cycles
cpu0_ITLB TOTAL        ACCESS:     237038 HIT:     236777 MISS:        261
cpu0_ITLB LOAD         ACCESS:     237038 HIT:     236777 MISS:        261
cpu0_ITLB RFO          ACCESS:          0 HIT:          0 MISS:          0
cpu0_ITLB PREFETCH     ACCESS:          0 HIT:          0 MISS:          0
cpu0_ITLB WRITE        ACCESS:          0 HIT:          0 MISS:          0
cpu0_ITLB TRANSLATION  ACCESS:          0 HIT:          0 MISS:          0
cpu0_ITLB PREFETCH REQUESTED:          0 ISSUED:          0 USEFUL:          0 USELESS:          0
cpu0_ITLB AVERAGE MISS LATENCY: 296.4 cycles
cpu0_L1D TOTAL        ACCESS:  195300960 HIT:  181082431 MISS:   14218529
cpu0_L1D LOAD         ACCESS:  160058846 HIT:  150070136 MISS:    9988710
cpu0_L1D RFO          ACCESS:          0 HIT:          0 MISS:          0
cpu0_L1D PREFETCH     ACCESS:          0 HIT:          0 MISS:          0
cpu0_L1D WRITE        ACCESS:   35194239 HIT:   30982693 MISS:    4211546
cpu0_L1D TRANSLATION  ACCESS:      47875 HIT:      29602 MISS:      18273
cpu0_L1D PREFETCH REQUESTED:          0 ISSUED:          0 USEFUL:          0 USELESS:          0
cpu0_L1D AVERAGE MISS LATENCY: 156 cycles
cpu0_L1I TOTAL        ACCESS:     245735 HIT:     242737 MISS:       2998
cpu0_L1I LOAD         ACCESS:     245735 HIT:     242737 MISS:       2998
cpu0_L1I RFO          ACCESS:          0 HIT:          0 MISS:          0
cpu0_L1I PREFETCH     ACCESS:          0 HIT:          0 MISS:          0
cpu0_L1I WRITE        ACCESS:          0 HIT:          0 MISS:          0
cpu0_L1I TRANSLATION  ACCESS:          0 HIT:          0 MISS:          0
cpu0_L1I PREFETCH REQUESTED:          0 ISSUED:          0 USEFUL:          0 USELESS:          0
cpu0_L1I AVERAGE MISS LATENCY: 529.3 cycles
cpu0_L2C TOTAL        ACCESS:    5431547 HIT:    2196912 MISS:    3234635
cpu0_L2C LOAD         ACCESS:    2430571 HIT:     122419 MISS:    2308152
cpu0_L2C RFO          ACCESS:     924379 HIT:       1704 MISS:     922675
cpu0_L2C PREFETCH     ACCESS:          0 HIT:          0 MISS:          0
cpu0_L2C WRITE        ACCESS:    2058329 HIT:    2057986 MISS:        343
cpu0_L2C TRANSLATION  ACCESS:      18268 HIT:      14803 MISS:       3465
cpu0_L2C PREFETCH REQUESTED:          0 ISSUED:          0 USEFUL:          0 USELESS:          0
cpu0_L2C AVERAGE MISS LATENCY: 927 cycles
cpu0_STLB TOTAL        ACCESS:     822064 HIT:     774217 MISS:      47847
cpu0_STLB LOAD         ACCESS:     822064 HIT:     774217 MISS:      47847
cpu0_STLB RFO          ACCESS:          0 HIT:          0 MISS:          0
cpu0_STLB PREFETCH     ACCESS:          0 HIT:          0 MISS:          0
cpu0_STLB WRITE        ACCESS:          0 HIT:          0 MISS:          0
cpu0_STLB TRANSLATION  ACCESS:          0 HIT:          0 MISS:          0
cpu0_STLB PREFETCH REQUESTED:          0 ISSUED:          0 USEFUL:          0 USELESS:          0
cpu0_STLB AVERAGE MISS LATENCY: 388.5 cycles

DRAM Statistics

Channel 0 RQ ROW_BUFFER_HIT:     791680
  ROW_BUFFER_MISS:    1970837
 AVG DBUS CONGESTED CYCLE: 3.972
WQ ROW_BUFFER_HIT: Channel 0 
  ROW_BUFFER_MISS:     688950
  FULL:    1196934
