WARNING: physical memory size is smaller than virtual memory size.

*** ChampSim Multicore Out-of-Order Simulator ***
Warmup Instructions: 50000000
Simulation Instructions: 600000000
Number of CPUs: 1
Page size: 4096

Off-chip DRAM Size: 4 GiB Channels: 1 Width: 64-bit Data Race: 3200 MT/s
Heartbeat CPU 0 instructions: 10000000 cycles: 2881055 heartbeat IPC: 3.471 cumulative IPC: 3.471 (Simulation time: 00 hr 00 min 16 sec)
Heartbeat CPU 0 instructions: 20000000 cycles: 5381055 heartbeat IPC: 4 cumulative IPC: 3.717 (Simulation time: 00 hr 00 min 39 sec)
Heartbeat CPU 0 instructions: 30000000 cycles: 7881055 heartbeat IPC: 4 cumulative IPC: 3.807 (Simulation time: 00 hr 01 min 08 sec)
Heartbeat CPU 0 instructions: 40000000 cycles: 10381055 heartbeat IPC: 4 cumulative IPC: 3.853 (Simulation time: 00 hr 01 min 41 sec)
Heartbeat CPU 0 instructions: 50000000 cycles: 12881055 heartbeat IPC: 4 cumulative IPC: 3.882 (Simulation time: 00 hr 02 min 12 sec)
Warmup finished CPU 0 instructions: 50000000 cycles: 12881056 cumulative IPC: 3.882 (Simulation time: 00 hr 02 min 12 sec)
Warmup complete CPU 0 instructions: 50000000 cycles: 12881056 cumulative IPC: 3.882 (Simulation time: 00 hr 02 min 12 sec)
Heartbeat CPU 0 instructions: 60000000 cycles: 17384232 heartbeat IPC: 2.221 cumulative IPC: 2.221 (Simulation time: 00 hr 03 min 06 sec)
Heartbeat CPU 0 instructions: 70000002 cycles: 21899972 heartbeat IPC: 2.214 cumulative IPC: 2.218 (Simulation time: 00 hr 04 min 02 sec)
Heartbeat CPU 0 instructions: 80000001 cycles: 26391669 heartbeat IPC: 2.226 cumulative IPC: 2.22 (Simulation time: 00 hr 04 min 59 sec)
Heartbeat CPU 0 instructions: 90000003 cycles: 30855302 heartbeat IPC: 2.24 cumulative IPC: 2.225 (Simulation time: 00 hr 05 min 53 sec)
Heartbeat CPU 0 instructions: 100000000 cycles: 34941880 heartbeat IPC: 2.447 cumulative IPC: 2.266 (Simulation time: 00 hr 06 min 43 sec)
Heartbeat CPU 0 instructions: 110000001 cycles: 38386851 heartbeat IPC: 2.903 cumulative IPC: 2.352 (Simulation time: 00 hr 07 min 26 sec)
Heartbeat CPU 0 instructions: 120000001 cycles: 42020510 heartbeat IPC: 2.752 cumulative IPC: 2.402 (Simulation time: 00 hr 08 min 11 sec)
Heartbeat CPU 0 instructions: 130000000 cycles: 45411687 heartbeat IPC: 2.949 cumulative IPC: 2.459 (Simulation time: 00 hr 08 min 54 sec)
Heartbeat CPU 0 instructions: 140000004 cycles: 48809599 heartbeat IPC: 2.943 cumulative IPC: 2.505 (Simulation time: 00 hr 09 min 36 sec)
Heartbeat CPU 0 instructions: 150000000 cycles: 52298543 heartbeat IPC: 2.866 cumulative IPC: 2.537 (Simulation time: 00 hr 10 min 20 sec)
Heartbeat CPU 0 instructions: 160000000 cycles: 55711422 heartbeat IPC: 2.93 cumulative IPC: 2.568 (Simulation time: 00 hr 11 min 02 sec)
Heartbeat CPU 0 instructions: 170000000 cycles: 59287435 heartbeat IPC: 2.796 cumulative IPC: 2.586 (Simulation time: 00 hr 11 min 46 sec)
Heartbeat CPU 0 instructions: 180000002 cycles: 62937127 heartbeat IPC: 2.74 cumulative IPC: 2.597 (Simulation time: 00 hr 12 min 31 sec)
Heartbeat CPU 0 instructions: 190000002 cycles: 66231185 heartbeat IPC: 3.036 cumulative IPC: 2.624 (Simulation time: 00 hr 13 min 12 sec)
Heartbeat CPU 0 instructions: 200000000 cycles: 69330754 heartbeat IPC: 3.226 cumulative IPC: 2.657 (Simulation time: 00 hr 13 min 54 sec)
Heartbeat CPU 0 instructions: 210000000 cycles: 72752047 heartbeat IPC: 2.923 cumulative IPC: 2.672 (Simulation time: 00 hr 14 min 37 sec)
Heartbeat CPU 0 instructions: 220000001 cycles: 76494677 heartbeat IPC: 2.672 cumulative IPC: 2.672 (Simulation time: 00 hr 15 min 23 sec)
Heartbeat CPU 0 instructions: 230000004 cycles: 80176835 heartbeat IPC: 2.716 cumulative IPC: 2.675 (Simulation time: 00 hr 16 min 09 sec)
Heartbeat CPU 0 instructions: 240000002 cycles: 83853179 heartbeat IPC: 2.72 cumulative IPC: 2.677 (Simulation time: 00 hr 16 min 54 sec)
Heartbeat CPU 0 instructions: 250000002 cycles: 87618641 heartbeat IPC: 2.656 cumulative IPC: 2.676 (Simulation time: 00 hr 17 min 40 sec)
Heartbeat CPU 0 instructions: 260000002 cycles: 91117348 heartbeat IPC: 2.858 cumulative IPC: 2.684 (Simulation time: 00 hr 18 min 24 sec)
Heartbeat CPU 0 instructions: 270000003 cycles: 94891871 heartbeat IPC: 2.649 cumulative IPC: 2.683 (Simulation time: 00 hr 19 min 10 sec)
Heartbeat CPU 0 instructions: 280000003 cycles: 98528993 heartbeat IPC: 2.749 cumulative IPC: 2.685 (Simulation time: 00 hr 19 min 56 sec)
Heartbeat CPU 0 instructions: 290000001 cycles: 155752248 heartbeat IPC: 0.1748 cumulative IPC: 1.68 (Simulation time: 00 hr 26 min 03 sec)
Heartbeat CPU 0 instructions: 300000002 cycles: 158254637 heartbeat IPC: 3.996 cumulative IPC: 1.72 (Simulation time: 00 hr 26 min 40 sec)
Heartbeat CPU 0 instructions: 310000001 cycles: 160757014 heartbeat IPC: 3.996 cumulative IPC: 1.758 (Simulation time: 00 hr 27 min 16 sec)
Heartbeat CPU 0 instructions: 320000001 cycles: 163259444 heartbeat IPC: 3.996 cumulative IPC: 1.795 (Simulation time: 00 hr 27 min 52 sec)
Heartbeat CPU 0 instructions: 330000003 cycles: 165761781 heartbeat IPC: 3.996 cumulative IPC: 1.831 (Simulation time: 00 hr 28 min 29 sec)
Heartbeat CPU 0 instructions: 340000000 cycles: 168264167 heartbeat IPC: 3.996 cumulative IPC: 1.866 (Simulation time: 00 hr 29 min 05 sec)
Heartbeat CPU 0 instructions: 350000004 cycles: 170766555 heartbeat IPC: 3.996 cumulative IPC: 1.9 (Simulation time: 00 hr 29 min 40 sec)
Heartbeat CPU 0 instructions: 360000004 cycles: 173268945 heartbeat IPC: 3.996 cumulative IPC: 1.933 (Simulation time: 00 hr 30 min 16 sec)
Heartbeat CPU 0 instructions: 370000000 cycles: 175771333 heartbeat IPC: 3.996 cumulative IPC: 1.965 (Simulation time: 00 hr 30 min 52 sec)
Heartbeat CPU 0 instructions: 380000004 cycles: 178274687 heartbeat IPC: 3.995 cumulative IPC: 1.995 (Simulation time: 00 hr 31 min 28 sec)
Heartbeat CPU 0 instructions: 390000001 cycles: 180777076 heartbeat IPC: 3.996 cumulative IPC: 2.025 (Simulation time: 00 hr 32 min 04 sec)
Heartbeat CPU 0 instructions: 400000003 cycles: 183279454 heartbeat IPC: 3.996 cumulative IPC: 2.054 (Simulation time: 00 hr 32 min 39 sec)
Heartbeat CPU 0 instructions: 410000003 cycles: 185781883 heartbeat IPC: 3.996 cumulative IPC: 2.082 (Simulation time: 00 hr 33 min 15 sec)
Heartbeat CPU 0 instructions: 420000002 cycles: 188284273 heartbeat IPC: 3.996 cumulative IPC: 2.109 (Simulation time: 00 hr 33 min 50 sec)
Heartbeat CPU 0 instructions: 430000000 cycles: 190786661 heartbeat IPC: 3.996 cumulative IPC: 2.136 (Simulation time: 00 hr 34 min 26 sec)
Heartbeat CPU 0 instructions: 440000001 cycles: 193289050 heartbeat IPC: 3.996 cumulative IPC: 2.162 (Simulation time: 00 hr 35 min 02 sec)
Heartbeat CPU 0 instructions: 450000000 cycles: 195791425 heartbeat IPC: 3.996 cumulative IPC: 2.187 (Simulation time: 00 hr 35 min 37 sec)
Heartbeat CPU 0 instructions: 460000003 cycles: 198293761 heartbeat IPC: 3.996 cumulative IPC: 2.211 (Simulation time: 00 hr 36 min 13 sec)
Heartbeat CPU 0 instructions: 470000001 cycles: 200796151 heartbeat IPC: 3.996 cumulative IPC: 2.235 (Simulation time: 00 hr 36 min 50 sec)
Heartbeat CPU 0 instructions: 480000003 cycles: 203298538 heartbeat IPC: 3.996 cumulative IPC: 2.258 (Simulation time: 00 hr 37 min 25 sec)
Heartbeat CPU 0 instructions: 490000003 cycles: 205800926 heartbeat IPC: 3.996 cumulative IPC: 2.281 (Simulation time: 00 hr 38 min 01 sec)
Heartbeat CPU 0 instructions: 500000002 cycles: 208303314 heartbeat IPC: 3.996 cumulative IPC: 2.303 (Simulation time: 00 hr 38 min 37 sec)
Heartbeat CPU 0 instructions: 510000003 cycles: 214518524 heartbeat IPC: 1.609 cumulative IPC: 2.281 (Simulation time: 00 hr 39 min 39 sec)
Heartbeat CPU 0 instructions: 520000001 cycles: 315184484 heartbeat IPC: 0.09934 cumulative IPC: 1.555 (Simulation time: 00 hr 51 min 40 sec)
Heartbeat CPU 0 instructions: 530000004 cycles: 393729226 heartbeat IPC: 0.1273 cumulative IPC: 1.26 (Simulation time: 01 hr 01 min 31 sec)
Heartbeat CPU 0 instructions: 540000000 cycles: 421731069 heartbeat IPC: 0.3571 cumulative IPC: 1.198 (Simulation time: 01 hr 05 min 21 sec)
Heartbeat CPU 0 instructions: 550000004 cycles: 449744986 heartbeat IPC: 0.357 cumulative IPC: 1.145 (Simulation time: 01 hr 09 min 04 sec)
Heartbeat CPU 0 instructions: 560000004 cycles: 477857538 heartbeat IPC: 0.3557 cumulative IPC: 1.097 (Simulation time: 01 hr 12 min 50 sec)
Heartbeat CPU 0 instructions: 570000002 cycles: 506496571 heartbeat IPC: 0.3492 cumulative IPC: 1.053 (Simulation time: 01 hr 16 min 45 sec)
Heartbeat CPU 0 instructions: 580000001 cycles: 536152834 heartbeat IPC: 0.3372 cumulative IPC: 1.013 (Simulation time: 01 hr 20 min 52 sec)
Heartbeat CPU 0 instructions: 590000004 cycles: 566260834 heartbeat IPC: 0.3321 cumulative IPC: 0.9758 (Simulation time: 01 hr 25 min 03 sec)
*** Reached end of trace: (0, "traces/sp.A.champsimtrace")
Heartbeat CPU 0 instructions: 600000001 cycles: 596491391 heartbeat IPC: 0.3308 cumulative IPC: 0.9424 (Simulation time: 01 hr 29 min 13 sec)
Heartbeat CPU 0 instructions: 610000000 cycles: 625710824 heartbeat IPC: 0.3422 cumulative IPC: 0.9138 (Simulation time: 01 hr 32 min 18 sec)
Heartbeat CPU 0 instructions: 620000003 cycles: 630132894 heartbeat IPC: 2.261 cumulative IPC: 0.9234 (Simulation time: 01 hr 33 min 18 sec)
Heartbeat CPU 0 instructions: 630000003 cycles: 634636593 heartbeat IPC: 2.22 cumulative IPC: 0.9328 (Simulation time: 01 hr 34 min 16 sec)
Heartbeat CPU 0 instructions: 640000004 cycles: 639143681 heartbeat IPC: 2.219 cumulative IPC: 0.9421 (Simulation time: 01 hr 35 min 19 sec)
Heartbeat CPU 0 instructions: 650000001 cycles: 643667887 heartbeat IPC: 2.21 cumulative IPC: 0.9512 (Simulation time: 01 hr 36 min 23 sec)
Simulation finished CPU 0 instructions: 600000001 cycles: 630786832 cumulative IPC: 0.9512 (Simulation time: 01 hr 36 min 23 sec)
Simulation complete CPU 0 instructions: 600000001 cycles: 630786832 cumulative IPC: 0.9512 (Simulation time: 01 hr 36 min 23 sec)

ChampSim completed all CPUs

=== Simulation ===
CPU 0 runs traces/sp.A.champsimtrace
Region of Interest Statistics

CPU 0 cumulative IPC: 0.9512 instructions: 600000001 cycles: 630786832
CPU 0 Branch Prediction Accuracy: 98.91% MPKI: 0.226 Average ROB Occupancy at Mispredict: 231.6
Branch type MPKI
BRANCH_DIRECT_JUMP: 5e-06
BRANCH_INDIRECT: 7.5e-05
BRANCH_CONDITIONAL: 0.226
BRANCH_DIRECT_CALL: 2e-05
BRANCH_INDIRECT_CALL: 3.17e-05
BRANCH_RETURN: 3.67e-05

LLC TOTAL        ACCESS:    7580691 HIT:    3761587 MISS:    3819104
LLC LOAD         ACCESS:    2304625 HIT:    1185570 MISS:    1119055
LLC RFO          ACCESS:     922633 HIT:       6833 MISS:     915800
LLC PREFETCH     ACCESS:    2304625 HIT:     522316 MISS:    1782309
LLC WRITE        ACCESS:    2045335 HIT:    2045206 MISS:        129
LLC TRANSLATION  ACCESS:       3473 HIT:       1662 MISS:       1811
LLC PREFETCH REQUESTED:    2304625 ISSUED:    2304625 USEFUL:    1503465 USELESS:      26510
LLC AVERAGE MISS LATENCY: 1177 cycles
cpu0_DTLB TOTAL        ACCESS:  127528529 HIT:  126711959 MISS:     816570
cpu0_DTLB LOAD         ACCESS:  127528529 HIT:  126711959 MISS:     816570
cpu0_DTLB RFO          ACCESS:          0 HIT:          0 MISS:          0
cpu0_DTLB PREFETCH     ACCESS:          0 HIT:          0 MISS:          0
cpu0_DTLB WRITE        ACCESS:          0 HIT:          0 MISS:          0
cpu0_DTLB TRANSLATION  ACCESS:          0 HIT:          0 MISS:          0
cpu0_DTLB PREFETCH REQUESTED:          0 ISSUED:          0 USEFUL:          0 USELESS:          0
cpu0_DTLB AVERAGE MISS LATENCY: 16.96 cycles
cpu0_ITLB TOTAL        ACCESS:     216492 HIT:     216257 MISS:        235
cpu0_ITLB LOAD         ACCESS:     216492 HIT:     216257 MISS:        235
cpu0_ITLB RFO          ACCESS:          0 HIT:          0 MISS:          0
cpu0_ITLB PREFETCH     ACCESS:          0 HIT:          0 MISS:          0
cpu0_ITLB WRITE        ACCESS:          0 HIT:          0 MISS:          0
cpu0_ITLB TRANSLATION  ACCESS:          0 HIT:          0 MISS:          0
cpu0_ITLB PREFETCH REQUESTED:          0 ISSUED:          0 USEFUL:          0 USELESS:          0
cpu0_ITLB AVERAGE MISS LATENCY: 327.9 cycles
cpu0_L1D TOTAL        ACCESS:  193632724 HIT:  179659349 MISS:   13973375
cpu0_L1D LOAD         ACCESS:  158390496 HIT:  148625878 MISS:    9764618
cpu0_L1D RFO          ACCESS:          0 HIT:          0 MISS:          0
cpu0_L1D PREFETCH     ACCESS:          0 HIT:          0 MISS:          0
cpu0_L1D WRITE        ACCESS:   35194349 HIT:   31003916 MISS:    4190433
cpu0_L1D TRANSLATION  ACCESS:      47879 HIT:      29555 MISS:      18324
cpu0_L1D PREFETCH REQUESTED:          0 ISSUED:          0 USEFUL:          0 USELESS:          0
cpu0_L1D AVERAGE MISS LATENCY: 155.1 cycles
cpu0_L1I TOTAL        ACCESS:     223973 HIT:     221199 MISS:       2774
cpu0_L1I LOAD         ACCESS:     223973 HIT:     221199 MISS:       2774
cpu0_L1I RFO          ACCESS:          0 HIT:          0 MISS:          0
cpu0_L1I PREFETCH     ACCESS:          0 HIT:          0 MISS:          0
cpu0_L1I WRITE        ACCESS:          0 HIT:          0 MISS:          0
cpu0_L1I TRANSLATION  ACCESS:          0 HIT:          0 MISS:          0
cpu0_L1I PREFETCH REQUESTED:          0 ISSUED:          0 USEFUL:          0 USELESS:          0
cpu0_L1I AVERAGE MISS LATENCY: 439.4 cycles
cpu0_L2C TOTAL        ACCESS:    5428830 HIT:    2197621 MISS:    3231209
cpu0_L2C LOAD         ACCESS:    2431267 HIT:     126537 MISS:    2304730
cpu0_L2C RFO          ACCESS:     923194 HIT:        561 MISS:     922633
cpu0_L2C PREFETCH     ACCESS:          0 HIT:          0 MISS:          0
cpu0_L2C WRITE        ACCESS:    2056047 HIT:    2055674 MISS:        373
cpu0_L2C TRANSLATION  ACCESS:      18322 HIT:      14849 MISS:       3473
cpu0_L2C PREFETCH REQUESTED:          0 ISSUED:          0 USEFUL:          0 USELESS:          0
cpu0_L2C AVERAGE MISS LATENCY: 906.4 cycles
cpu0_STLB TOTAL        ACCESS:     564397 HIT:     516548 MISS:      47849
cpu0_STLB LOAD         ACCESS:     564397 HIT:     516548 MISS:      47849
cpu0_STLB RFO          ACCESS:          0 HIT:          0 MISS:          0
cpu0_STLB PREFETCH     ACCESS:          0 HIT:          0 MISS:          0
cpu0_STLB WRITE        ACCESS:          0 HIT:          0 MISS:          0
cpu0_STLB TRANSLATION  ACCESS:          0 HIT:          0 MISS:          0
cpu0_STLB PREFETCH REQUESTED:          0 ISSUED:          0 USEFUL:          0 USELESS:          0
cpu0_STLB AVERAGE MISS LATENCY: 302 cycles

DRAM Statistics

Channel 0 RQ ROW_BUFFER_HIT:     746144
  ROW_BUFFER_MISS:    1986421
 AVG DBUS CONGESTED CYCLE: 3.979
WQ ROW_BUFFER_HIT: Channel 0 
  ROW_BUFFER_MISS:     467472
  FULL:    1310157
