WARNING: physical memory size is smaller than virtual memory size.

*** ChampSim Multicore Out-of-Order Simulator ***
Warmup Instructions: 50000000
Simulation Instructions: 600000000
Number of CPUs: 1
Page size: 4096

CPU 0 Tage branch predictor
Off-chip DRAM Size: 4 GiB Channels: 1 Width: 64-bit Data Race: 3200 MT/s
Heartbeat CPU 0 instructions: 10000000 cycles: 2881055 heartbeat IPC: 3.471 cumulative IPC: 3.471 (Simulation time: 00 hr 00 min 40 sec)
Heartbeat CPU 0 instructions: 20000000 cycles: 5381055 heartbeat IPC: 4 cumulative IPC: 3.717 (Simulation time: 00 hr 01 min 18 sec)
Heartbeat CPU 0 instructions: 30000000 cycles: 7881055 heartbeat IPC: 4 cumulative IPC: 3.807 (Simulation time: 00 hr 01 min 55 sec)
Heartbeat CPU 0 instructions: 40000000 cycles: 10381055 heartbeat IPC: 4 cumulative IPC: 3.853 (Simulation time: 00 hr 02 min 38 sec)
Heartbeat CPU 0 instructions: 50000000 cycles: 12881055 heartbeat IPC: 4 cumulative IPC: 3.882 (Simulation time: 00 hr 03 min 14 sec)
Warmup finished CPU 0 instructions: 50000000 cycles: 12881056 cumulative IPC: 3.882 (Simulation time: 00 hr 03 min 14 sec)
Warmup complete CPU 0 instructions: 50000000 cycles: 12881056 cumulative IPC: 3.882 (Simulation time: 00 hr 03 min 14 sec)
Heartbeat CPU 0 instructions: 60000000 cycles: 17604585 heartbeat IPC: 2.117 cumulative IPC: 2.117 (Simulation time: 00 hr 04 min 15 sec)
Heartbeat CPU 0 instructions: 70000000 cycles: 22298766 heartbeat IPC: 2.13 cumulative IPC: 2.124 (Simulation time: 00 hr 05 min 16 sec)
Heartbeat CPU 0 instructions: 80000000 cycles: 27021422 heartbeat IPC: 2.117 cumulative IPC: 2.122 (Simulation time: 00 hr 06 min 17 sec)
Heartbeat CPU 0 instructions: 90000003 cycles: 31740860 heartbeat IPC: 2.119 cumulative IPC: 2.121 (Simulation time: 00 hr 07 min 16 sec)
Heartbeat CPU 0 instructions: 100000000 cycles: 36007079 heartbeat IPC: 2.344 cumulative IPC: 2.162 (Simulation time: 00 hr 08 min 12 sec)
Heartbeat CPU 0 instructions: 110000001 cycles: 39827158 heartbeat IPC: 2.618 cumulative IPC: 2.227 (Simulation time: 00 hr 09 min 05 sec)
Heartbeat CPU 0 instructions: 120000001 cycles: 43681815 heartbeat IPC: 2.594 cumulative IPC: 2.273 (Simulation time: 00 hr 09 min 57 sec)
Heartbeat CPU 0 instructions: 130000000 cycles: 47429184 heartbeat IPC: 2.669 cumulative IPC: 2.316 (Simulation time: 00 hr 10 min 50 sec)
Heartbeat CPU 0 instructions: 140000004 cycles: 51308564 heartbeat IPC: 2.578 cumulative IPC: 2.342 (Simulation time: 00 hr 11 min 43 sec)
Heartbeat CPU 0 instructions: 150000000 cycles: 55148605 heartbeat IPC: 2.604 cumulative IPC: 2.366 (Simulation time: 00 hr 12 min 35 sec)
Heartbeat CPU 0 instructions: 160000000 cycles: 58976743 heartbeat IPC: 2.612 cumulative IPC: 2.386 (Simulation time: 00 hr 13 min 28 sec)
Heartbeat CPU 0 instructions: 170000003 cycles: 62776855 heartbeat IPC: 2.632 cumulative IPC: 2.405 (Simulation time: 00 hr 14 min 20 sec)
Heartbeat CPU 0 instructions: 180000002 cycles: 66663545 heartbeat IPC: 2.573 cumulative IPC: 2.417 (Simulation time: 00 hr 15 min 14 sec)
Heartbeat CPU 0 instructions: 190000002 cycles: 70372371 heartbeat IPC: 2.696 cumulative IPC: 2.435 (Simulation time: 00 hr 16 min 05 sec)
Heartbeat CPU 0 instructions: 200000000 cycles: 73891889 heartbeat IPC: 2.841 cumulative IPC: 2.459 (Simulation time: 00 hr 16 min 56 sec)
Heartbeat CPU 0 instructions: 210000000 cycles: 77587445 heartbeat IPC: 2.706 cumulative IPC: 2.473 (Simulation time: 00 hr 17 min 47 sec)
Heartbeat CPU 0 instructions: 220000001 cycles: 81421759 heartbeat IPC: 2.608 cumulative IPC: 2.48 (Simulation time: 00 hr 18 min 41 sec)
Heartbeat CPU 0 instructions: 230000004 cycles: 85350156 heartbeat IPC: 2.546 cumulative IPC: 2.484 (Simulation time: 00 hr 19 min 34 sec)
Heartbeat CPU 0 instructions: 240000002 cycles: 89251548 heartbeat IPC: 2.563 cumulative IPC: 2.488 (Simulation time: 00 hr 20 min 28 sec)
Heartbeat CPU 0 instructions: 250000001 cycles: 93221519 heartbeat IPC: 2.519 cumulative IPC: 2.489 (Simulation time: 00 hr 21 min 21 sec)
Heartbeat CPU 0 instructions: 260000002 cycles: 97215467 heartbeat IPC: 2.504 cumulative IPC: 2.49 (Simulation time: 00 hr 22 min 15 sec)
Heartbeat CPU 0 instructions: 270000003 cycles: 101149684 heartbeat IPC: 2.542 cumulative IPC: 2.492 (Simulation time: 00 hr 23 min 07 sec)
Heartbeat CPU 0 instructions: 280000003 cycles: 105133877 heartbeat IPC: 2.51 cumulative IPC: 2.493 (Simulation time: 00 hr 24 min 01 sec)
Heartbeat CPU 0 instructions: 290000001 cycles: 169277004 heartbeat IPC: 0.1559 cumulative IPC: 1.535 (Simulation time: 00 hr 31 min 12 sec)
Heartbeat CPU 0 instructions: 300000002 cycles: 171777133 heartbeat IPC: 4 cumulative IPC: 1.573 (Simulation time: 00 hr 31 min 53 sec)
Heartbeat CPU 0 instructions: 310000001 cycles: 174278163 heartbeat IPC: 3.998 cumulative IPC: 1.611 (Simulation time: 00 hr 32 min 34 sec)
Heartbeat CPU 0 instructions: 320000001 cycles: 176778291 heartbeat IPC: 4 cumulative IPC: 1.647 (Simulation time: 00 hr 33 min 15 sec)
Heartbeat CPU 0 instructions: 330000003 cycles: 179279686 heartbeat IPC: 3.998 cumulative IPC: 1.683 (Simulation time: 00 hr 33 min 57 sec)
Heartbeat CPU 0 instructions: 340000000 cycles: 181781027 heartbeat IPC: 3.998 cumulative IPC: 1.717 (Simulation time: 00 hr 34 min 38 sec)
Heartbeat CPU 0 instructions: 350000004 cycles: 184281163 heartbeat IPC: 4 cumulative IPC: 1.75 (Simulation time: 00 hr 35 min 21 sec)
Heartbeat CPU 0 instructions: 360000004 cycles: 186781883 heartbeat IPC: 3.999 cumulative IPC: 1.783 (Simulation time: 00 hr 36 min 02 sec)
Heartbeat CPU 0 instructions: 370000000 cycles: 189282248 heartbeat IPC: 3.999 cumulative IPC: 1.814 (Simulation time: 00 hr 36 min 43 sec)
Heartbeat CPU 0 instructions: 380000004 cycles: 191784119 heartbeat IPC: 3.997 cumulative IPC: 1.845 (Simulation time: 00 hr 37 min 27 sec)
Heartbeat CPU 0 instructions: 390000001 cycles: 194286670 heartbeat IPC: 3.996 cumulative IPC: 1.874 (Simulation time: 00 hr 38 min 09 sec)
Heartbeat CPU 0 instructions: 400000003 cycles: 196787719 heartbeat IPC: 3.998 cumulative IPC: 1.903 (Simulation time: 00 hr 38 min 49 sec)
Heartbeat CPU 0 instructions: 410000003 cycles: 199289841 heartbeat IPC: 3.997 cumulative IPC: 1.931 (Simulation time: 00 hr 39 min 30 sec)
Heartbeat CPU 0 instructions: 420000002 cycles: 201791295 heartbeat IPC: 3.998 cumulative IPC: 1.959 (Simulation time: 00 hr 40 min 12 sec)
Heartbeat CPU 0 instructions: 430000000 cycles: 204292081 heartbeat IPC: 3.999 cumulative IPC: 1.985 (Simulation time: 00 hr 40 min 53 sec)
Heartbeat CPU 0 instructions: 440000001 cycles: 206792166 heartbeat IPC: 4 cumulative IPC: 2.011 (Simulation time: 00 hr 41 min 36 sec)
Heartbeat CPU 0 instructions: 450000000 cycles: 209293207 heartbeat IPC: 3.998 cumulative IPC: 2.037 (Simulation time: 00 hr 42 min 19 sec)
Heartbeat CPU 0 instructions: 460000003 cycles: 211793702 heartbeat IPC: 3.999 cumulative IPC: 2.061 (Simulation time: 00 hr 43 min 00 sec)
Heartbeat CPU 0 instructions: 470000001 cycles: 214294799 heartbeat IPC: 3.998 cumulative IPC: 2.085 (Simulation time: 00 hr 43 min 42 sec)
Heartbeat CPU 0 instructions: 480000003 cycles: 216794892 heartbeat IPC: 4 cumulative IPC: 2.109 (Simulation time: 00 hr 44 min 24 sec)
Heartbeat CPU 0 instructions: 490000003 cycles: 219295832 heartbeat IPC: 3.998 cumulative IPC: 2.132 (Simulation time: 00 hr 45 min 06 sec)
Heartbeat CPU 0 instructions: 500000002 cycles: 221796401 heartbeat IPC: 3.999 cumulative IPC: 2.154 (Simulation time: 00 hr 45 min 52 sec)
Heartbeat CPU 0 instructions: 510000003 cycles: 228126463 heartbeat IPC: 1.58 cumulative IPC: 2.137 (Simulation time: 00 hr 47 min 06 sec)
Heartbeat CPU 0 instructions: 520000004 cycles: 343100086 heartbeat IPC: 0.08698 cumulative IPC: 1.423 (Simulation time: 01 hr 01 min 37 sec)
Heartbeat CPU 0 instructions: 530000004 cycles: 433250456 heartbeat IPC: 0.1109 cumulative IPC: 1.142 (Simulation time: 01 hr 12 min 37 sec)
Heartbeat CPU 0 instructions: 540000000 cycles: 464446668 heartbeat IPC: 0.3206 cumulative IPC: 1.085 (Simulation time: 01 hr 16 min 46 sec)
Heartbeat CPU 0 instructions: 550000002 cycles: 495570366 heartbeat IPC: 0.3213 cumulative IPC: 1.036 (Simulation time: 01 hr 20 min 55 sec)
Heartbeat CPU 0 instructions: 560000004 cycles: 526576350 heartbeat IPC: 0.3225 cumulative IPC: 0.9928 (Simulation time: 01 hr 25 min 02 sec)
Heartbeat CPU 0 instructions: 570000000 cycles: 557794453 heartbeat IPC: 0.3203 cumulative IPC: 0.9543 (Simulation time: 01 hr 29 min 15 sec)
Heartbeat CPU 0 instructions: 580000002 cycles: 589697020 heartbeat IPC: 0.3135 cumulative IPC: 0.9188 (Simulation time: 01 hr 33 min 33 sec)
Heartbeat CPU 0 instructions: 590000000 cycles: 622218352 heartbeat IPC: 0.3075 cumulative IPC: 0.8862 (Simulation time: 01 hr 37 min 57 sec)
*** Reached end of trace: (0, "traces/sp.A.champsimtrace")
Heartbeat CPU 0 instructions: 600000002 cycles: 654772667 heartbeat IPC: 0.3072 cumulative IPC: 0.8568 (Simulation time: 01 hr 42 min 26 sec)
Heartbeat CPU 0 instructions: 610000000 cycles: 687808100 heartbeat IPC: 0.3027 cumulative IPC: 0.8297 (Simulation time: 01 hr 45 min 58 sec)
Heartbeat CPU 0 instructions: 620000001 cycles: 692564886 heartbeat IPC: 2.102 cumulative IPC: 0.8386 (Simulation time: 01 hr 47 min 00 sec)
Heartbeat CPU 0 instructions: 630000002 cycles: 697312755 heartbeat IPC: 2.106 cumulative IPC: 0.8474 (Simulation time: 01 hr 48 min 01 sec)
Heartbeat CPU 0 instructions: 640000004 cycles: 702026201 heartbeat IPC: 2.122 cumulative IPC: 0.8561 (Simulation time: 01 hr 49 min 03 sec)
Heartbeat CPU 0 instructions: 650000001 cycles: 706699507 heartbeat IPC: 2.14 cumulative IPC: 0.8648 (Simulation time: 01 hr 50 min 04 sec)
Simulation finished CPU 0 instructions: 600000001 cycles: 693818452 cumulative IPC: 0.8648 (Simulation time: 01 hr 50 min 04 sec)
Simulation complete CPU 0 instructions: 600000001 cycles: 693818452 cumulative IPC: 0.8648 (Simulation time: 01 hr 50 min 04 sec)

ChampSim completed all CPUs

=== Simulation ===
CPU 0 runs traces/sp.A.champsimtrace
Region of Interest Statistics

CPU 0 cumulative IPC: 0.8648 instructions: 600000001 cycles: 693818452
CPU 0 Branch Prediction Accuracy: 99.98% MPKI: 0.003913 Average ROB Occupancy at Mispredict: 102.9
Branch type MPKI
BRANCH_DIRECT_JUMP: 5e-06
BRANCH_INDIRECT: 7.5e-05
BRANCH_CONDITIONAL: 0.00374
BRANCH_DIRECT_CALL: 2e-05
BRANCH_INDIRECT_CALL: 3.17e-05
BRANCH_RETURN: 3.67e-05

LLC TOTAL        ACCESS:    7579112 HIT:    3455154 MISS:    4123958
LLC LOAD         ACCESS:    2304109 HIT:    1152216 MISS:    1151893
LLC RFO          ACCESS:     922632 HIT:       6329 MISS:     916303
LLC PREFETCH     ACCESS:    2304109 HIT:     492637 MISS:    1811472
LLC WRITE        ACCESS:    2044789 HIT:    1802696 MISS:     242093
LLC TRANSLATION  ACCESS:       3473 HIT:       1276 MISS:       2197
LLC PREFETCH REQUESTED:    2304109 ISSUED:    2304109 USEFUL:    1512698 USELESS:      27999
LLC AVERAGE MISS LATENCY: 1271 cycles
cpu0_DTLB TOTAL        ACCESS:  128812115 HIT:  127816792 MISS:     995323
cpu0_DTLB LOAD         ACCESS:  128812115 HIT:  127816792 MISS:     995323
cpu0_DTLB RFO          ACCESS:          0 HIT:          0 MISS:          0
cpu0_DTLB PREFETCH     ACCESS:          0 HIT:          0 MISS:          0
cpu0_DTLB WRITE        ACCESS:          0 HIT:          0 MISS:          0
cpu0_DTLB TRANSLATION  ACCESS:          0 HIT:          0 MISS:          0
cpu0_DTLB PREFETCH REQUESTED:          0 ISSUED:          0 USEFUL:          0 USELESS:          0
cpu0_DTLB AVERAGE MISS LATENCY: 17.29 cycles
cpu0_ITLB TOTAL        ACCESS:     235639 HIT:     235381 MISS:        258
cpu0_ITLB LOAD         ACCESS:     235639 HIT:     235381 MISS:        258
cpu0_ITLB RFO          ACCESS:          0 HIT:          0 MISS:          0
cpu0_ITLB PREFETCH     ACCESS:          0 HIT:          0 MISS:          0
cpu0_ITLB WRITE        ACCESS:          0 HIT:          0 MISS:          0
cpu0_ITLB TRANSLATION  ACCESS:          0 HIT:          0 MISS:          0
cpu0_ITLB PREFETCH REQUESTED:          0 ISSUED:          0 USEFUL:          0 USELESS:          0
cpu0_ITLB AVERAGE MISS LATENCY: 264 cycles
cpu0_L1D TOTAL        ACCESS:  195644304 HIT:  181786332 MISS:   13857972
cpu0_L1D LOAD         ACCESS:  160402109 HIT:  150765702 MISS:    9636407
cpu0_L1D RFO          ACCESS:          0 HIT:          0 MISS:          0
cpu0_L1D PREFETCH     ACCESS:          0 HIT:          0 MISS:          0
cpu0_L1D WRITE        ACCESS:   35194316 HIT:   30991050 MISS:    4203266
cpu0_L1D TRANSLATION  ACCESS:      47879 HIT:      29580 MISS:      18299
cpu0_L1D PREFETCH REQUESTED:          0 ISSUED:          0 USEFUL:          0 USELESS:          0
cpu0_L1D AVERAGE MISS LATENCY: 179.1 cycles
cpu0_L1I TOTAL        ACCESS:     245430 HIT:     242456 MISS:       2974
cpu0_L1I LOAD         ACCESS:     245430 HIT:     242456 MISS:       2974
cpu0_L1I RFO          ACCESS:          0 HIT:          0 MISS:          0
cpu0_L1I PREFETCH     ACCESS:          0 HIT:          0 MISS:          0
cpu0_L1I WRITE        ACCESS:          0 HIT:          0 MISS:          0
cpu0_L1I TRANSLATION  ACCESS:          0 HIT:          0 MISS:          0
cpu0_L1I PREFETCH REQUESTED:          0 ISSUED:          0 USEFUL:          0 USELESS:          0
cpu0_L1I AVERAGE MISS LATENCY: 375.9 cycles
cpu0_L2C TOTAL        ACCESS:    5429755 HIT:    2199091 MISS:    3230664
cpu0_L2C LOAD         ACCESS:    2431550 HIT:     127361 MISS:    2304189
cpu0_L2C RFO          ACCESS:     923519 HIT:        887 MISS:     922632
cpu0_L2C PREFETCH     ACCESS:          0 HIT:          0 MISS:          0
cpu0_L2C WRITE        ACCESS:    2056391 HIT:    2056021 MISS:        370
cpu0_L2C TRANSLATION  ACCESS:      18295 HIT:      14822 MISS:       3473
cpu0_L2C PREFETCH REQUESTED:          0 ISSUED:          0 USEFUL:          0 USELESS:          0
cpu0_L2C AVERAGE MISS LATENCY: 1023 cycles
cpu0_STLB TOTAL        ACCESS:     748088 HIT:     700241 MISS:      47847
cpu0_STLB LOAD         ACCESS:     748088 HIT:     700241 MISS:      47847
cpu0_STLB RFO          ACCESS:          0 HIT:          0 MISS:          0
cpu0_STLB PREFETCH     ACCESS:          0 HIT:          0 MISS:          0
cpu0_STLB WRITE        ACCESS:          0 HIT:          0 MISS:          0
cpu0_STLB TRANSLATION  ACCESS:          0 HIT:          0 MISS:          0
cpu0_STLB PREFETCH REQUESTED:          0 ISSUED:          0 USEFUL:          0 USELESS:          0
cpu0_STLB AVERAGE MISS LATENCY: 359.4 cycles

DRAM Statistics

Channel 0 RQ ROW_BUFFER_HIT:     777355
  ROW_BUFFER_MISS:    1985720
 AVG DBUS CONGESTED CYCLE: 3.99
WQ ROW_BUFFER_HIT: Channel 0 
  ROW_BUFFER_MISS:      40139
  FULL:    1758039
