WARNING: physical memory size is smaller than virtual memory size.

*** ChampSim Multicore Out-of-Order Simulator ***
Warmup Instructions: 50000000
Simulation Instructions: 600000000
Number of CPUs: 1
Page size: 4096

CPU 0 Tage branch predictor
Off-chip DRAM Size: 4 GiB Channels: 1 Width: 64-bit Data Race: 3200 MT/s
Heartbeat CPU 0 instructions: 10000003 cycles: 2881057 heartbeat IPC: 3.471 cumulative IPC: 3.471 (Simulation time: 00 hr 00 min 19 sec)
Heartbeat CPU 0 instructions: 20000003 cycles: 5381057 heartbeat IPC: 4 cumulative IPC: 3.717 (Simulation time: 00 hr 00 min 46 sec)
Heartbeat CPU 0 instructions: 30000003 cycles: 7881057 heartbeat IPC: 4 cumulative IPC: 3.807 (Simulation time: 00 hr 01 min 24 sec)
Heartbeat CPU 0 instructions: 40000003 cycles: 10381057 heartbeat IPC: 4 cumulative IPC: 3.853 (Simulation time: 00 hr 02 min 08 sec)
Heartbeat CPU 0 instructions: 50000003 cycles: 12881057 heartbeat IPC: 4 cumulative IPC: 3.882 (Simulation time: 00 hr 02 min 50 sec)
Warmup finished CPU 0 instructions: 50000003 cycles: 12881058 cumulative IPC: 3.882 (Simulation time: 00 hr 02 min 50 sec)
Warmup complete CPU 0 instructions: 50000003 cycles: 12881058 cumulative IPC: 3.882 (Simulation time: 00 hr 02 min 50 sec)
Heartbeat CPU 0 instructions: 60000000 cycles: 16225023 heartbeat IPC: 2.99 cumulative IPC: 2.99 (Simulation time: 00 hr 03 min 50 sec)
Heartbeat CPU 0 instructions: 70000004 cycles: 19637765 heartbeat IPC: 2.93 cumulative IPC: 2.96 (Simulation time: 00 hr 04 min 49 sec)
Heartbeat CPU 0 instructions: 80000000 cycles: 23055778 heartbeat IPC: 2.926 cumulative IPC: 2.948 (Simulation time: 00 hr 05 min 50 sec)
Heartbeat CPU 0 instructions: 90000003 cycles: 26488755 heartbeat IPC: 2.913 cumulative IPC: 2.94 (Simulation time: 00 hr 06 min 54 sec)
Heartbeat CPU 0 instructions: 100000000 cycles: 29762186 heartbeat IPC: 3.055 cumulative IPC: 2.962 (Simulation time: 00 hr 07 min 54 sec)
Heartbeat CPU 0 instructions: 110000001 cycles: 32695711 heartbeat IPC: 3.409 cumulative IPC: 3.028 (Simulation time: 00 hr 08 min 48 sec)
Heartbeat CPU 0 instructions: 120000001 cycles: 39150112 heartbeat IPC: 1.549 cumulative IPC: 2.665 (Simulation time: 00 hr 10 min 13 sec)
Heartbeat CPU 0 instructions: 130000002 cycles: 46117262 heartbeat IPC: 1.435 cumulative IPC: 2.407 (Simulation time: 00 hr 11 min 39 sec)
Heartbeat CPU 0 instructions: 140000004 cycles: 53189498 heartbeat IPC: 1.414 cumulative IPC: 2.233 (Simulation time: 00 hr 13 min 03 sec)
Heartbeat CPU 0 instructions: 150000000 cycles: 60124322 heartbeat IPC: 1.442 cumulative IPC: 2.117 (Simulation time: 00 hr 14 min 23 sec)
Heartbeat CPU 0 instructions: 160000003 cycles: 67080585 heartbeat IPC: 1.438 cumulative IPC: 2.03 (Simulation time: 00 hr 15 min 45 sec)
Heartbeat CPU 0 instructions: 170000001 cycles: 74041125 heartbeat IPC: 1.437 cumulative IPC: 1.962 (Simulation time: 00 hr 17 min 08 sec)
Heartbeat CPU 0 instructions: 180000001 cycles: 80960849 heartbeat IPC: 1.445 cumulative IPC: 1.91 (Simulation time: 00 hr 18 min 29 sec)
Heartbeat CPU 0 instructions: 190000002 cycles: 86822252 heartbeat IPC: 1.706 cumulative IPC: 1.893 (Simulation time: 00 hr 19 min 44 sec)
Heartbeat CPU 0 instructions: 200000000 cycles: 92817567 heartbeat IPC: 1.668 cumulative IPC: 1.876 (Simulation time: 00 hr 21 min 06 sec)
Heartbeat CPU 0 instructions: 210000001 cycles: 98821574 heartbeat IPC: 1.666 cumulative IPC: 1.862 (Simulation time: 00 hr 22 min 29 sec)
Heartbeat CPU 0 instructions: 220000001 cycles: 104722994 heartbeat IPC: 1.695 cumulative IPC: 1.851 (Simulation time: 00 hr 23 min 50 sec)
Heartbeat CPU 0 instructions: 230000004 cycles: 110612615 heartbeat IPC: 1.698 cumulative IPC: 1.842 (Simulation time: 00 hr 25 min 08 sec)
Heartbeat CPU 0 instructions: 240000003 cycles: 116635157 heartbeat IPC: 1.66 cumulative IPC: 1.831 (Simulation time: 00 hr 26 min 24 sec)
Heartbeat CPU 0 instructions: 250000001 cycles: 122488201 heartbeat IPC: 1.709 cumulative IPC: 1.825 (Simulation time: 00 hr 27 min 36 sec)
Heartbeat CPU 0 instructions: 260000002 cycles: 128304045 heartbeat IPC: 1.719 cumulative IPC: 1.819 (Simulation time: 00 hr 28 min 46 sec)
Heartbeat CPU 0 instructions: 270000003 cycles: 134185625 heartbeat IPC: 1.7 cumulative IPC: 1.814 (Simulation time: 00 hr 29 min 55 sec)
Heartbeat CPU 0 instructions: 280000000 cycles: 140073269 heartbeat IPC: 1.698 cumulative IPC: 1.808 (Simulation time: 00 hr 31 min 03 sec)
Heartbeat CPU 0 instructions: 290000001 cycles: 198711803 heartbeat IPC: 0.1705 cumulative IPC: 1.291 (Simulation time: 00 hr 37 min 36 sec)
Heartbeat CPU 0 instructions: 300000002 cycles: 201212651 heartbeat IPC: 3.999 cumulative IPC: 1.327 (Simulation time: 00 hr 38 min 21 sec)
Heartbeat CPU 0 instructions: 310000001 cycles: 203712958 heartbeat IPC: 4 cumulative IPC: 1.362 (Simulation time: 00 hr 39 min 08 sec)
Heartbeat CPU 0 instructions: 320000001 cycles: 206214816 heartbeat IPC: 3.997 cumulative IPC: 1.397 (Simulation time: 00 hr 39 min 53 sec)
Heartbeat CPU 0 instructions: 330000003 cycles: 208714859 heartbeat IPC: 4 cumulative IPC: 1.43 (Simulation time: 00 hr 40 min 42 sec)
Heartbeat CPU 0 instructions: 340000000 cycles: 211215301 heartbeat IPC: 3.999 cumulative IPC: 1.462 (Simulation time: 00 hr 41 min 31 sec)
Heartbeat CPU 0 instructions: 350000004 cycles: 213715770 heartbeat IPC: 3.999 cumulative IPC: 1.494 (Simulation time: 00 hr 42 min 26 sec)
Heartbeat CPU 0 instructions: 360000004 cycles: 216216802 heartbeat IPC: 3.998 cumulative IPC: 1.525 (Simulation time: 00 hr 43 min 16 sec)
Heartbeat CPU 0 instructions: 370000000 cycles: 218717823 heartbeat IPC: 3.998 cumulative IPC: 1.555 (Simulation time: 00 hr 44 min 05 sec)
Heartbeat CPU 0 instructions: 380000004 cycles: 221219105 heartbeat IPC: 3.998 cumulative IPC: 1.584 (Simulation time: 00 hr 44 min 53 sec)
Heartbeat CPU 0 instructions: 390000001 cycles: 223719816 heartbeat IPC: 3.999 cumulative IPC: 1.613 (Simulation time: 00 hr 45 min 43 sec)
Heartbeat CPU 0 instructions: 400000003 cycles: 226220814 heartbeat IPC: 3.998 cumulative IPC: 1.641 (Simulation time: 00 hr 46 min 36 sec)
Heartbeat CPU 0 instructions: 410000003 cycles: 228722279 heartbeat IPC: 3.998 cumulative IPC: 1.668 (Simulation time: 00 hr 47 min 26 sec)
Heartbeat CPU 0 instructions: 420000002 cycles: 231223836 heartbeat IPC: 3.998 cumulative IPC: 1.695 (Simulation time: 00 hr 48 min 20 sec)
Heartbeat CPU 0 instructions: 430000000 cycles: 233724720 heartbeat IPC: 3.999 cumulative IPC: 1.721 (Simulation time: 00 hr 49 min 11 sec)
Heartbeat CPU 0 instructions: 440000001 cycles: 236226940 heartbeat IPC: 3.996 cumulative IPC: 1.746 (Simulation time: 00 hr 50 min 02 sec)
Heartbeat CPU 0 instructions: 450000000 cycles: 238727921 heartbeat IPC: 3.998 cumulative IPC: 1.771 (Simulation time: 00 hr 50 min 54 sec)
Heartbeat CPU 0 instructions: 460000003 cycles: 241228346 heartbeat IPC: 3.999 cumulative IPC: 1.796 (Simulation time: 00 hr 51 min 43 sec)
Heartbeat CPU 0 instructions: 470000001 cycles: 243729488 heartbeat IPC: 3.998 cumulative IPC: 1.819 (Simulation time: 00 hr 52 min 33 sec)
Heartbeat CPU 0 instructions: 480000003 cycles: 246229675 heartbeat IPC: 4 cumulative IPC: 1.843 (Simulation time: 00 hr 53 min 24 sec)
Heartbeat CPU 0 instructions: 490000003 cycles: 248730127 heartbeat IPC: 3.999 cumulative IPC: 1.866 (Simulation time: 00 hr 54 min 13 sec)
Heartbeat CPU 0 instructions: 500000002 cycles: 251230527 heartbeat IPC: 3.999 cumulative IPC: 1.888 (Simulation time: 00 hr 55 min 04 sec)
Heartbeat CPU 0 instructions: 510000003 cycles: 258976917 heartbeat IPC: 1.291 cumulative IPC: 1.869 (Simulation time: 00 hr 56 min 40 sec)
Heartbeat CPU 0 instructions: 520000001 cycles: 360465827 heartbeat IPC: 0.09853 cumulative IPC: 1.352 (Simulation time: 01 hr 12 min 13 sec)
Heartbeat CPU 0 instructions: 530000002 cycles: 445888913 heartbeat IPC: 0.1171 cumulative IPC: 1.109 (Simulation time: 01 hr 25 min 27 sec)
Heartbeat CPU 0 instructions: 540000000 cycles: 479117632 heartbeat IPC: 0.3009 cumulative IPC: 1.051 (Simulation time: 01 hr 31 min 03 sec)
Heartbeat CPU 0 instructions: 550000002 cycles: 512749514 heartbeat IPC: 0.2973 cumulative IPC: 1 (Simulation time: 01 hr 36 min 53 sec)
Heartbeat CPU 0 instructions: 560000002 cycles: 545978130 heartbeat IPC: 0.3009 cumulative IPC: 0.9567 (Simulation time: 01 hr 42 min 34 sec)
Heartbeat CPU 0 instructions: 570000003 cycles: 577976877 heartbeat IPC: 0.3125 cumulative IPC: 0.9202 (Simulation time: 01 hr 47 min 26 sec)
Heartbeat CPU 0 instructions: 580000001 cycles: 609254761 heartbeat IPC: 0.3197 cumulative IPC: 0.8887 (Simulation time: 01 hr 52 min 02 sec)
Heartbeat CPU 0 instructions: 590000004 cycles: 641648508 heartbeat IPC: 0.3087 cumulative IPC: 0.8588 (Simulation time: 01 hr 56 min 35 sec)
*** Reached end of trace: (0, "traces/sp.A.champsimtrace")
Heartbeat CPU 0 instructions: 600000002 cycles: 673264991 heartbeat IPC: 0.3163 cumulative IPC: 0.8328 (Simulation time: 02 hr 00 min 59 sec)
Heartbeat CPU 0 instructions: 610000000 cycles: 699373778 heartbeat IPC: 0.383 cumulative IPC: 0.8157 (Simulation time: 02 hr 03 min 51 sec)
Heartbeat CPU 0 instructions: 620000003 cycles: 702201358 heartbeat IPC: 3.537 cumulative IPC: 0.8269 (Simulation time: 02 hr 04 min 37 sec)
Heartbeat CPU 0 instructions: 630000003 cycles: 705589205 heartbeat IPC: 2.952 cumulative IPC: 0.8373 (Simulation time: 02 hr 05 min 29 sec)
Heartbeat CPU 0 instructions: 640000004 cycles: 709025368 heartbeat IPC: 2.91 cumulative IPC: 0.8475 (Simulation time: 02 hr 06 min 23 sec)
Heartbeat CPU 0 instructions: 650000000 cycles: 712472591 heartbeat IPC: 2.901 cumulative IPC: 0.8576 (Simulation time: 02 hr 07 min 16 sec)
Simulation finished CPU 0 instructions: 600000002 cycles: 699591535 cumulative IPC: 0.8576 (Simulation time: 02 hr 07 min 16 sec)
Simulation complete CPU 0 instructions: 600000002 cycles: 699591535 cumulative IPC: 0.8576 (Simulation time: 02 hr 07 min 16 sec)

ChampSim completed all CPUs

=== Simulation ===
CPU 0 runs traces/sp.A.champsimtrace
Region of Interest Statistics

CPU 0 cumulative IPC: 0.8576 instructions: 600000002 cycles: 699591535
CPU 0 Branch Prediction Accuracy: 99.98% MPKI: 0.003913 Average ROB Occupancy at Mispredict: 106.9
Branch type MPKI
BRANCH_DIRECT_JUMP: 5e-06
BRANCH_INDIRECT: 7.5e-05
BRANCH_CONDITIONAL: 0.00374
BRANCH_DIRECT_CALL: 2e-05
BRANCH_INDIRECT_CALL: 3.17e-05
BRANCH_RETURN: 3.67e-05

LLC TOTAL        ACCESS:    8169537 HIT:    2986747 MISS:    5182790
LLC LOAD         ACCESS:    2303669 HIT:    1262204 MISS:    1041465
LLC RFO          ACCESS:     922635 HIT:      24008 MISS:     898627
LLC PREFETCH     ACCESS:    2894807 HIT:    1423597 MISS:    1471210
LLC WRITE        ACCESS:    2044953 HIT:     276812 MISS:    1768141
LLC TRANSLATION  ACCESS:       3473 HIT:        126 MISS:       3347
LLC PREFETCH REQUESTED:    2894807 ISSUED:    2894807 USEFUL:    1115447 USELESS:      66353
LLC AVERAGE MISS LATENCY: 920.9 cycles
cpu0_DTLB TOTAL        ACCESS:  127131051 HIT:  126149410 MISS:     981641
cpu0_DTLB LOAD         ACCESS:  127131051 HIT:  126149410 MISS:     981641
cpu0_DTLB RFO          ACCESS:          0 HIT:          0 MISS:          0
cpu0_DTLB PREFETCH     ACCESS:          0 HIT:          0 MISS:          0
cpu0_DTLB WRITE        ACCESS:          0 HIT:          0 MISS:          0
cpu0_DTLB TRANSLATION  ACCESS:          0 HIT:          0 MISS:          0
cpu0_DTLB PREFETCH REQUESTED:          0 ISSUED:          0 USEFUL:          0 USELESS:          0
cpu0_DTLB AVERAGE MISS LATENCY: 18.13 cycles
cpu0_ITLB TOTAL        ACCESS:     239938 HIT:     239689 MISS:        249
cpu0_ITLB LOAD         ACCESS:     239938 HIT:     239689 MISS:        249
cpu0_ITLB RFO          ACCESS:          0 HIT:          0 MISS:          0
cpu0_ITLB PREFETCH     ACCESS:          0 HIT:          0 MISS:          0
cpu0_ITLB WRITE        ACCESS:          0 HIT:          0 MISS:          0
cpu0_ITLB TRANSLATION  ACCESS:          0 HIT:          0 MISS:          0
cpu0_ITLB PREFETCH REQUESTED:          0 ISSUED:          0 USEFUL:          0 USELESS:          0
cpu0_ITLB AVERAGE MISS LATENCY: 321.7 cycles
cpu0_L1D TOTAL        ACCESS:  193777162 HIT:  180455521 MISS:   13321641
cpu0_L1D LOAD         ACCESS:  158535065 HIT:  149671445 MISS:    8863620
cpu0_L1D RFO          ACCESS:          0 HIT:          0 MISS:          0
cpu0_L1D PREFETCH     ACCESS:          0 HIT:          0 MISS:          0
cpu0_L1D WRITE        ACCESS:   35194218 HIT:   30754477 MISS:    4439741
cpu0_L1D TRANSLATION  ACCESS:      47879 HIT:      29599 MISS:      18280
cpu0_L1D PREFETCH REQUESTED:          0 ISSUED:          0 USEFUL:          0 USELESS:          0
cpu0_L1D AVERAGE MISS LATENCY: 167.3 cycles
cpu0_L1I TOTAL        ACCESS:     250416 HIT:     247404 MISS:       3012
cpu0_L1I LOAD         ACCESS:     250416 HIT:     247404 MISS:       3012
cpu0_L1I RFO          ACCESS:          0 HIT:          0 MISS:          0
cpu0_L1I PREFETCH     ACCESS:          0 HIT:          0 MISS:          0
cpu0_L1I WRITE        ACCESS:          0 HIT:          0 MISS:          0
cpu0_L1I TRANSLATION  ACCESS:          0 HIT:          0 MISS:          0
cpu0_L1I PREFETCH REQUESTED:          0 ISSUED:          0 USEFUL:          0 USELESS:          0
cpu0_L1I AVERAGE MISS LATENCY: 534.6 cycles
cpu0_L2C TOTAL        ACCESS:    5424855 HIT:    2194701 MISS:    3230154
cpu0_L2C LOAD         ACCESS:    2426611 HIT:     122935 MISS:    2303676
cpu0_L2C RFO          ACCESS:     923514 HIT:        879 MISS:     922635
cpu0_L2C PREFETCH     ACCESS:          0 HIT:          0 MISS:          0
cpu0_L2C WRITE        ACCESS:    2056453 HIT:    2056083 MISS:        370
cpu0_L2C TRANSLATION  ACCESS:      18277 HIT:      14804 MISS:       3473
cpu0_L2C PREFETCH REQUESTED:          0 ISSUED:          0 USEFUL:          0 USELESS:          0
cpu0_L2C AVERAGE MISS LATENCY: 893.4 cycles
cpu0_STLB TOTAL        ACCESS:     736695 HIT:     688848 MISS:      47847
cpu0_STLB LOAD         ACCESS:     736695 HIT:     688848 MISS:      47847
cpu0_STLB RFO          ACCESS:          0 HIT:          0 MISS:          0
cpu0_STLB PREFETCH     ACCESS:          0 HIT:          0 MISS:          0
cpu0_STLB WRITE        ACCESS:          0 HIT:          0 MISS:          0
cpu0_STLB TRANSLATION  ACCESS:          0 HIT:          0 MISS:          0
cpu0_STLB PREFETCH REQUESTED:          0 ISSUED:          0 USEFUL:          0 USELESS:          0
cpu0_STLB AVERAGE MISS LATENCY: 367.5 cycles

DRAM Statistics

Channel 0 RQ ROW_BUFFER_HIT:     986893
  ROW_BUFFER_MISS:    2004705
 AVG DBUS CONGESTED CYCLE: 3.958
WQ ROW_BUFFER_HIT: Channel 0 
  ROW_BUFFER_MISS:     591931
  FULL:    1315521
