WARNING: physical memory size is smaller than virtual memory size.

*** ChampSim Multicore Out-of-Order Simulator ***
Warmup Instructions: 50000000
Simulation Instructions: 600000000
Number of CPUs: 1
Page size: 4096

CPU 0 Tage branch predictor
Off-chip DRAM Size: 4 GiB Channels: 1 Width: 64-bit Data Race: 3200 MT/s
Heartbeat CPU 0 instructions: 10000000 cycles: 2881055 heartbeat IPC: 3.471 cumulative IPC: 3.471 (Simulation time: 00 hr 00 min 40 sec)
Heartbeat CPU 0 instructions: 20000000 cycles: 5381055 heartbeat IPC: 4 cumulative IPC: 3.717 (Simulation time: 00 hr 01 min 16 sec)
Heartbeat CPU 0 instructions: 30000000 cycles: 7881055 heartbeat IPC: 4 cumulative IPC: 3.807 (Simulation time: 00 hr 01 min 54 sec)
Heartbeat CPU 0 instructions: 40000000 cycles: 10381055 heartbeat IPC: 4 cumulative IPC: 3.853 (Simulation time: 00 hr 02 min 31 sec)
Heartbeat CPU 0 instructions: 50000000 cycles: 12881055 heartbeat IPC: 4 cumulative IPC: 3.882 (Simulation time: 00 hr 03 min 09 sec)
Warmup finished CPU 0 instructions: 50000000 cycles: 12881056 cumulative IPC: 3.882 (Simulation time: 00 hr 03 min 09 sec)
Warmup complete CPU 0 instructions: 50000000 cycles: 12881056 cumulative IPC: 3.882 (Simulation time: 00 hr 03 min 09 sec)
Heartbeat CPU 0 instructions: 60000000 cycles: 16216163 heartbeat IPC: 2.998 cumulative IPC: 2.998 (Simulation time: 00 hr 03 min 59 sec)
Heartbeat CPU 0 instructions: 70000004 cycles: 19559562 heartbeat IPC: 2.991 cumulative IPC: 2.995 (Simulation time: 00 hr 04 min 49 sec)
Heartbeat CPU 0 instructions: 80000000 cycles: 22906064 heartbeat IPC: 2.988 cumulative IPC: 2.993 (Simulation time: 00 hr 05 min 38 sec)
Heartbeat CPU 0 instructions: 90000003 cycles: 26241356 heartbeat IPC: 2.998 cumulative IPC: 2.994 (Simulation time: 00 hr 06 min 27 sec)
Heartbeat CPU 0 instructions: 100000000 cycles: 31479255 heartbeat IPC: 1.909 cumulative IPC: 2.688 (Simulation time: 00 hr 07 min 28 sec)
Heartbeat CPU 0 instructions: 110000001 cycles: 38130821 heartbeat IPC: 1.503 cumulative IPC: 2.376 (Simulation time: 00 hr 08 min 39 sec)
Heartbeat CPU 0 instructions: 120000001 cycles: 44773802 heartbeat IPC: 1.505 cumulative IPC: 2.195 (Simulation time: 00 hr 09 min 50 sec)
Heartbeat CPU 0 instructions: 130000002 cycles: 51389842 heartbeat IPC: 1.511 cumulative IPC: 2.077 (Simulation time: 00 hr 11 min 00 sec)
Heartbeat CPU 0 instructions: 140000004 cycles: 58035111 heartbeat IPC: 1.505 cumulative IPC: 1.993 (Simulation time: 00 hr 12 min 11 sec)
Heartbeat CPU 0 instructions: 150000000 cycles: 64685398 heartbeat IPC: 1.504 cumulative IPC: 1.93 (Simulation time: 00 hr 13 min 22 sec)
Heartbeat CPU 0 instructions: 160000003 cycles: 71308804 heartbeat IPC: 1.51 cumulative IPC: 1.883 (Simulation time: 00 hr 14 min 34 sec)
Heartbeat CPU 0 instructions: 170000001 cycles: 78011070 heartbeat IPC: 1.492 cumulative IPC: 1.842 (Simulation time: 00 hr 15 min 46 sec)
Heartbeat CPU 0 instructions: 180000001 cycles: 84701321 heartbeat IPC: 1.495 cumulative IPC: 1.81 (Simulation time: 00 hr 16 min 59 sec)
Heartbeat CPU 0 instructions: 190000002 cycles: 91125978 heartbeat IPC: 1.557 cumulative IPC: 1.789 (Simulation time: 00 hr 18 min 11 sec)
Heartbeat CPU 0 instructions: 200000000 cycles: 96892425 heartbeat IPC: 1.734 cumulative IPC: 1.785 (Simulation time: 00 hr 19 min 17 sec)
Heartbeat CPU 0 instructions: 210000001 cycles: 103261712 heartbeat IPC: 1.57 cumulative IPC: 1.77 (Simulation time: 00 hr 20 min 29 sec)
Heartbeat CPU 0 instructions: 220000001 cycles: 109982311 heartbeat IPC: 1.488 cumulative IPC: 1.751 (Simulation time: 00 hr 21 min 42 sec)
Heartbeat CPU 0 instructions: 230000004 cycles: 116763007 heartbeat IPC: 1.475 cumulative IPC: 1.733 (Simulation time: 00 hr 22 min 55 sec)
Heartbeat CPU 0 instructions: 240000003 cycles: 123496515 heartbeat IPC: 1.485 cumulative IPC: 1.718 (Simulation time: 00 hr 24 min 08 sec)
Heartbeat CPU 0 instructions: 250000002 cycles: 130236147 heartbeat IPC: 1.484 cumulative IPC: 1.704 (Simulation time: 00 hr 25 min 21 sec)
Heartbeat CPU 0 instructions: 260000002 cycles: 136918740 heartbeat IPC: 1.496 cumulative IPC: 1.693 (Simulation time: 00 hr 26 min 34 sec)
Heartbeat CPU 0 instructions: 270000003 cycles: 143588374 heartbeat IPC: 1.499 cumulative IPC: 1.683 (Simulation time: 00 hr 27 min 46 sec)
Heartbeat CPU 0 instructions: 280000000 cycles: 150331166 heartbeat IPC: 1.483 cumulative IPC: 1.673 (Simulation time: 00 hr 28 min 59 sec)
Heartbeat CPU 0 instructions: 290000001 cycles: 215583455 heartbeat IPC: 0.1533 cumulative IPC: 1.184 (Simulation time: 00 hr 36 min 08 sec)
Heartbeat CPU 0 instructions: 300000002 cycles: 218083583 heartbeat IPC: 4 cumulative IPC: 1.218 (Simulation time: 00 hr 36 min 50 sec)
Heartbeat CPU 0 instructions: 310000001 cycles: 220583678 heartbeat IPC: 4 cumulative IPC: 1.252 (Simulation time: 00 hr 37 min 31 sec)
Heartbeat CPU 0 instructions: 320000001 cycles: 223083806 heartbeat IPC: 4 cumulative IPC: 1.284 (Simulation time: 00 hr 38 min 12 sec)
Heartbeat CPU 0 instructions: 330000003 cycles: 225583849 heartbeat IPC: 4 cumulative IPC: 1.316 (Simulation time: 00 hr 38 min 52 sec)
Heartbeat CPU 0 instructions: 340000000 cycles: 228083934 heartbeat IPC: 4 cumulative IPC: 1.348 (Simulation time: 00 hr 39 min 33 sec)
Heartbeat CPU 0 instructions: 350000004 cycles: 230584021 heartbeat IPC: 4 cumulative IPC: 1.378 (Simulation time: 00 hr 40 min 14 sec)
Heartbeat CPU 0 instructions: 360000004 cycles: 233084108 heartbeat IPC: 4 cumulative IPC: 1.408 (Simulation time: 00 hr 40 min 55 sec)
Heartbeat CPU 0 instructions: 370000000 cycles: 235584191 heartbeat IPC: 4 cumulative IPC: 1.437 (Simulation time: 00 hr 41 min 36 sec)
Heartbeat CPU 0 instructions: 380000004 cycles: 238084278 heartbeat IPC: 4 cumulative IPC: 1.465 (Simulation time: 00 hr 42 min 17 sec)
Heartbeat CPU 0 instructions: 390000001 cycles: 240584363 heartbeat IPC: 4 cumulative IPC: 1.493 (Simulation time: 00 hr 42 min 58 sec)
Heartbeat CPU 0 instructions: 400000003 cycles: 243084449 heartbeat IPC: 4 cumulative IPC: 1.52 (Simulation time: 00 hr 43 min 39 sec)
Heartbeat CPU 0 instructions: 410000003 cycles: 245584577 heartbeat IPC: 4 cumulative IPC: 1.547 (Simulation time: 00 hr 44 min 21 sec)
Heartbeat CPU 0 instructions: 420000002 cycles: 248084664 heartbeat IPC: 4 cumulative IPC: 1.573 (Simulation time: 00 hr 45 min 03 sec)
Heartbeat CPU 0 instructions: 430000000 cycles: 250584750 heartbeat IPC: 4 cumulative IPC: 1.599 (Simulation time: 00 hr 45 min 44 sec)
Heartbeat CPU 0 instructions: 440000001 cycles: 253084836 heartbeat IPC: 4 cumulative IPC: 1.624 (Simulation time: 00 hr 46 min 24 sec)
Heartbeat CPU 0 instructions: 450000000 cycles: 255584921 heartbeat IPC: 4 cumulative IPC: 1.648 (Simulation time: 00 hr 47 min 06 sec)
Heartbeat CPU 0 instructions: 460000003 cycles: 258084965 heartbeat IPC: 4 cumulative IPC: 1.672 (Simulation time: 00 hr 47 min 47 sec)
Heartbeat CPU 0 instructions: 470000001 cycles: 260585052 heartbeat IPC: 4 cumulative IPC: 1.696 (Simulation time: 00 hr 48 min 30 sec)
Heartbeat CPU 0 instructions: 480000003 cycles: 263085136 heartbeat IPC: 4 cumulative IPC: 1.719 (Simulation time: 00 hr 49 min 14 sec)
Heartbeat CPU 0 instructions: 490000003 cycles: 265585223 heartbeat IPC: 4 cumulative IPC: 1.741 (Simulation time: 00 hr 49 min 58 sec)
Heartbeat CPU 0 instructions: 500000002 cycles: 268085427 heartbeat IPC: 4 cumulative IPC: 1.763 (Simulation time: 00 hr 50 min 44 sec)
Heartbeat CPU 0 instructions: 510000003 cycles: 274263776 heartbeat IPC: 1.619 cumulative IPC: 1.76 (Simulation time: 00 hr 51 min 56 sec)
Heartbeat CPU 0 instructions: 520000003 cycles: 376544818 heartbeat IPC: 0.09777 cumulative IPC: 1.292 (Simulation time: 01 hr 04 min 58 sec)
Heartbeat CPU 0 instructions: 530000000 cycles: 456232158 heartbeat IPC: 0.1255 cumulative IPC: 1.083 (Simulation time: 01 hr 15 min 19 sec)
Heartbeat CPU 0 instructions: 540000000 cycles: 478832371 heartbeat IPC: 0.4425 cumulative IPC: 1.052 (Simulation time: 01 hr 18 min 45 sec)
Heartbeat CPU 0 instructions: 550000002 cycles: 501442680 heartbeat IPC: 0.4423 cumulative IPC: 1.023 (Simulation time: 01 hr 22 min 05 sec)
Heartbeat CPU 0 instructions: 560000002 cycles: 524254678 heartbeat IPC: 0.4384 cumulative IPC: 0.9973 (Simulation time: 01 hr 25 min 29 sec)
Heartbeat CPU 0 instructions: 570000002 cycles: 546853189 heartbeat IPC: 0.4425 cumulative IPC: 0.9738 (Simulation time: 01 hr 28 min 51 sec)
Heartbeat CPU 0 instructions: 580000003 cycles: 569094720 heartbeat IPC: 0.4496 cumulative IPC: 0.9529 (Simulation time: 01 hr 32 min 12 sec)
Heartbeat CPU 0 instructions: 590000004 cycles: 591633914 heartbeat IPC: 0.4437 cumulative IPC: 0.933 (Simulation time: 01 hr 35 min 49 sec)
*** Reached end of trace: (0, "traces/sp.A.champsimtrace")
Heartbeat CPU 0 instructions: 600000002 cycles: 614415786 heartbeat IPC: 0.4389 cumulative IPC: 0.9143 (Simulation time: 01 hr 39 min 27 sec)
Heartbeat CPU 0 instructions: 610000000 cycles: 642775964 heartbeat IPC: 0.3526 cumulative IPC: 0.889 (Simulation time: 01 hr 43 min 03 sec)
Heartbeat CPU 0 instructions: 620000003 cycles: 646126707 heartbeat IPC: 2.984 cumulative IPC: 0.9001 (Simulation time: 01 hr 43 min 57 sec)
Heartbeat CPU 0 instructions: 630000003 cycles: 649477607 heartbeat IPC: 2.984 cumulative IPC: 0.9111 (Simulation time: 01 hr 44 min 53 sec)
Heartbeat CPU 0 instructions: 640000004 cycles: 652824111 heartbeat IPC: 2.988 cumulative IPC: 0.922 (Simulation time: 01 hr 45 min 47 sec)
Heartbeat CPU 0 instructions: 650000000 cycles: 656166575 heartbeat IPC: 2.992 cumulative IPC: 0.9327 (Simulation time: 01 hr 46 min 44 sec)
Simulation finished CPU 0 instructions: 600000000 cycles: 643285520 cumulative IPC: 0.9327 (Simulation time: 01 hr 46 min 44 sec)
Simulation complete CPU 0 instructions: 600000000 cycles: 643285520 cumulative IPC: 0.9327 (Simulation time: 01 hr 46 min 44 sec)

ChampSim completed all CPUs

=== Simulation ===
CPU 0 runs traces/sp.A.champsimtrace
Region of Interest Statistics

CPU 0 cumulative IPC: 0.9327 instructions: 600000000 cycles: 643285520
CPU 0 Branch Prediction Accuracy: 99.98% MPKI: 0.003913 Average ROB Occupancy at Mispredict: 105.8
Branch type MPKI
BRANCH_DIRECT_JUMP: 5e-06
BRANCH_INDIRECT: 7.5e-05
BRANCH_CONDITIONAL: 0.00375
BRANCH_DIRECT_CALL: 2e-05
BRANCH_INDIRECT_CALL: 3.17e-05
BRANCH_RETURN: 3.67e-05

LLC TOTAL        ACCESS:    8168864 HIT:    5119935 MISS:    3048929
LLC LOAD         ACCESS:    2304431 HIT:    1475843 MISS:     828588
LLC RFO          ACCESS:     922635 HIT:       6820 MISS:     915815
LLC PREFETCH     ACCESS:    2892533 HIT:    1589962 MISS:    1302571
LLC WRITE        ACCESS:    2045787 HIT:    2045644 MISS:        143
LLC TRANSLATION  ACCESS:       3478 HIT:       1666 MISS:       1812
LLC PREFETCH REQUESTED:    2892533 ISSUED:    2892533 USEFUL:    1035703 USELESS:      18258
LLC AVERAGE MISS LATENCY: 1399 cycles
cpu0_DTLB TOTAL        ACCESS:  127268547 HIT:  126285007 MISS:     983540
cpu0_DTLB LOAD         ACCESS:  127268547 HIT:  126285007 MISS:     983540
cpu0_DTLB RFO          ACCESS:          0 HIT:          0 MISS:          0
cpu0_DTLB PREFETCH     ACCESS:          0 HIT:          0 MISS:          0
cpu0_DTLB WRITE        ACCESS:          0 HIT:          0 MISS:          0
cpu0_DTLB TRANSLATION  ACCESS:          0 HIT:          0 MISS:          0
cpu0_DTLB PREFETCH REQUESTED:          0 ISSUED:          0 USEFUL:          0 USELESS:          0
cpu0_DTLB AVERAGE MISS LATENCY: 15.98 cycles
cpu0_ITLB TOTAL        ACCESS:     240094 HIT:     239845 MISS:        249
cpu0_ITLB LOAD         ACCESS:     240094 HIT:     239845 MISS:        249
cpu0_ITLB RFO          ACCESS:          0 HIT:          0 MISS:          0
cpu0_ITLB PREFETCH     ACCESS:          0 HIT:          0 MISS:          0
cpu0_ITLB WRITE        ACCESS:          0 HIT:          0 MISS:          0
cpu0_ITLB TRANSLATION  ACCESS:          0 HIT:          0 MISS:          0
cpu0_ITLB PREFETCH REQUESTED:          0 ISSUED:          0 USEFUL:          0 USELESS:          0
cpu0_ITLB AVERAGE MISS LATENCY: 310.4 cycles
cpu0_L1D TOTAL        ACCESS:  194175732 HIT:  180905843 MISS:   13269889
cpu0_L1D LOAD         ACCESS:  158933524 HIT:  150127981 MISS:    8805543
cpu0_L1D RFO          ACCESS:          0 HIT:          0 MISS:          0
cpu0_L1D PREFETCH     ACCESS:          0 HIT:          0 MISS:          0
cpu0_L1D WRITE        ACCESS:   35194330 HIT:   30748291 MISS:    4446039
cpu0_L1D TRANSLATION  ACCESS:      47878 HIT:      29571 MISS:      18307
cpu0_L1D PREFETCH REQUESTED:          0 ISSUED:          0 USEFUL:          0 USELESS:          0
cpu0_L1D AVERAGE MISS LATENCY: 154.3 cycles
cpu0_L1I TOTAL        ACCESS:     250205 HIT:     247192 MISS:       3013
cpu0_L1I LOAD         ACCESS:     250205 HIT:     247192 MISS:       3013
cpu0_L1I RFO          ACCESS:          0 HIT:          0 MISS:          0
cpu0_L1I PREFETCH     ACCESS:          0 HIT:          0 MISS:          0
cpu0_L1I WRITE        ACCESS:          0 HIT:          0 MISS:          0
cpu0_L1I TRANSLATION  ACCESS:          0 HIT:          0 MISS:          0
cpu0_L1I PREFETCH REQUESTED:          0 ISSUED:          0 USEFUL:          0 USELESS:          0
cpu0_L1I AVERAGE MISS LATENCY: 460.2 cycles
cpu0_L2C TOTAL        ACCESS:    5424799 HIT:    2193776 MISS:    3231023
cpu0_L2C LOAD         ACCESS:    2426569 HIT:     122029 MISS:    2304540
cpu0_L2C RFO          ACCESS:     923513 HIT:        878 MISS:     922635
cpu0_L2C PREFETCH     ACCESS:          0 HIT:          0 MISS:          0
cpu0_L2C WRITE        ACCESS:    2056413 HIT:    2056043 MISS:        370
cpu0_L2C TRANSLATION  ACCESS:      18304 HIT:      14826 MISS:       3478
cpu0_L2C PREFETCH REQUESTED:          0 ISSUED:          0 USEFUL:          0 USELESS:          0
cpu0_L2C AVERAGE MISS LATENCY: 815.2 cycles
cpu0_STLB TOTAL        ACCESS:     737571 HIT:     689724 MISS:      47847
cpu0_STLB LOAD         ACCESS:     737571 HIT:     689724 MISS:      47847
cpu0_STLB RFO          ACCESS:          0 HIT:          0 MISS:          0
cpu0_STLB PREFETCH     ACCESS:          0 HIT:          0 MISS:          0
cpu0_STLB WRITE        ACCESS:          0 HIT:          0 MISS:          0
cpu0_STLB TRANSLATION  ACCESS:          0 HIT:          0 MISS:          0
cpu0_STLB PREFETCH REQUESTED:          0 ISSUED:          0 USEFUL:          0 USELESS:          0
cpu0_STLB AVERAGE MISS LATENCY: 294.4 cycles

DRAM Statistics

Channel 0 RQ ROW_BUFFER_HIT:     896262
  ROW_BUFFER_MISS:    1856777
 AVG DBUS CONGESTED CYCLE: 3.966
WQ ROW_BUFFER_HIT: Channel 0 
  ROW_BUFFER_MISS:     456188
  FULL:    1320990
