WARNING: physical memory size is smaller than virtual memory size.

*** ChampSim Multicore Out-of-Order Simulator ***
Warmup Instructions: 50000000
Simulation Instructions: 600000000
Number of CPUs: 1
Page size: 4096

Off-chip DRAM Size: 4 GiB Channels: 1 Width: 64-bit Data Race: 3200 MT/s
Heartbeat CPU 0 instructions: 10000003 cycles: 2881057 heartbeat IPC: 3.471 cumulative IPC: 3.471 (Simulation time: 00 hr 00 min 50 sec)
Heartbeat CPU 0 instructions: 20000003 cycles: 5381057 heartbeat IPC: 4 cumulative IPC: 3.717 (Simulation time: 00 hr 01 min 36 sec)
Heartbeat CPU 0 instructions: 30000003 cycles: 7881057 heartbeat IPC: 4 cumulative IPC: 3.807 (Simulation time: 00 hr 02 min 22 sec)
Heartbeat CPU 0 instructions: 40000003 cycles: 10381057 heartbeat IPC: 4 cumulative IPC: 3.853 (Simulation time: 00 hr 03 min 08 sec)
Heartbeat CPU 0 instructions: 50000003 cycles: 12881057 heartbeat IPC: 4 cumulative IPC: 3.882 (Simulation time: 00 hr 03 min 52 sec)
Warmup finished CPU 0 instructions: 50000003 cycles: 12881058 cumulative IPC: 3.882 (Simulation time: 00 hr 03 min 52 sec)
Warmup complete CPU 0 instructions: 50000003 cycles: 12881058 cumulative IPC: 3.882 (Simulation time: 00 hr 03 min 52 sec)
Heartbeat CPU 0 instructions: 60000000 cycles: 17297449 heartbeat IPC: 2.264 cumulative IPC: 2.264 (Simulation time: 00 hr 05 min 07 sec)
Heartbeat CPU 0 instructions: 70000002 cycles: 21773951 heartbeat IPC: 2.234 cumulative IPC: 2.249 (Simulation time: 00 hr 06 min 22 sec)
Heartbeat CPU 0 instructions: 80000001 cycles: 26271660 heartbeat IPC: 2.223 cumulative IPC: 2.24 (Simulation time: 00 hr 07 min 38 sec)
Heartbeat CPU 0 instructions: 90000004 cycles: 30768426 heartbeat IPC: 2.224 cumulative IPC: 2.236 (Simulation time: 00 hr 08 min 53 sec)
Heartbeat CPU 0 instructions: 100000000 cycles: 34241254 heartbeat IPC: 2.879 cumulative IPC: 2.341 (Simulation time: 00 hr 09 min 55 sec)
Heartbeat CPU 0 instructions: 110000004 cycles: 36796989 heartbeat IPC: 3.913 cumulative IPC: 2.509 (Simulation time: 00 hr 10 min 47 sec)
Heartbeat CPU 0 instructions: 120000000 cycles: 39352256 heartbeat IPC: 3.913 cumulative IPC: 2.644 (Simulation time: 00 hr 11 min 39 sec)
Heartbeat CPU 0 instructions: 130000002 cycles: 42058638 heartbeat IPC: 3.695 cumulative IPC: 2.742 (Simulation time: 00 hr 12 min 32 sec)
Heartbeat CPU 0 instructions: 140000004 cycles: 45406245 heartbeat IPC: 2.987 cumulative IPC: 2.767 (Simulation time: 00 hr 13 min 32 sec)
Heartbeat CPU 0 instructions: 150000001 cycles: 48871336 heartbeat IPC: 2.886 cumulative IPC: 2.779 (Simulation time: 00 hr 14 min 35 sec)
Heartbeat CPU 0 instructions: 160000003 cycles: 52419896 heartbeat IPC: 2.818 cumulative IPC: 2.782 (Simulation time: 00 hr 15 min 38 sec)
Heartbeat CPU 0 instructions: 170000000 cycles: 56182620 heartbeat IPC: 2.658 cumulative IPC: 2.771 (Simulation time: 00 hr 16 min 47 sec)
Heartbeat CPU 0 instructions: 180000000 cycles: 59885451 heartbeat IPC: 2.701 cumulative IPC: 2.766 (Simulation time: 00 hr 17 min 52 sec)
Heartbeat CPU 0 instructions: 190000000 cycles: 63235206 heartbeat IPC: 2.985 cumulative IPC: 2.78 (Simulation time: 00 hr 18 min 54 sec)
Heartbeat CPU 0 instructions: 200000004 cycles: 66064299 heartbeat IPC: 3.535 cumulative IPC: 2.82 (Simulation time: 00 hr 19 min 50 sec)
Heartbeat CPU 0 instructions: 210000001 cycles: 68831259 heartbeat IPC: 3.614 cumulative IPC: 2.86 (Simulation time: 00 hr 20 min 45 sec)
Heartbeat CPU 0 instructions: 220000004 cycles: 71667044 heartbeat IPC: 3.526 cumulative IPC: 2.892 (Simulation time: 00 hr 21 min 42 sec)
Heartbeat CPU 0 instructions: 230000000 cycles: 74446272 heartbeat IPC: 3.598 cumulative IPC: 2.924 (Simulation time: 00 hr 22 min 37 sec)
Heartbeat CPU 0 instructions: 240000001 cycles: 77212077 heartbeat IPC: 3.616 cumulative IPC: 2.953 (Simulation time: 00 hr 23 min 33 sec)
Heartbeat CPU 0 instructions: 250000002 cycles: 80027586 heartbeat IPC: 3.552 cumulative IPC: 2.979 (Simulation time: 00 hr 24 min 28 sec)
Heartbeat CPU 0 instructions: 260000000 cycles: 82931288 heartbeat IPC: 3.444 cumulative IPC: 2.998 (Simulation time: 00 hr 25 min 26 sec)
Heartbeat CPU 0 instructions: 270000002 cycles: 85764874 heartbeat IPC: 3.529 cumulative IPC: 3.019 (Simulation time: 00 hr 26 min 22 sec)
Heartbeat CPU 0 instructions: 280000003 cycles: 88623269 heartbeat IPC: 3.498 cumulative IPC: 3.037 (Simulation time: 00 hr 27 min 17 sec)
Heartbeat CPU 0 instructions: 290000000 cycles: 134674556 heartbeat IPC: 0.2171 cumulative IPC: 1.971 (Simulation time: 00 hr 34 min 56 sec)
Heartbeat CPU 0 instructions: 300000001 cycles: 137177371 heartbeat IPC: 3.996 cumulative IPC: 2.011 (Simulation time: 00 hr 35 min 47 sec)
Heartbeat CPU 0 instructions: 310000000 cycles: 139680183 heartbeat IPC: 3.996 cumulative IPC: 2.05 (Simulation time: 00 hr 36 min 38 sec)
Heartbeat CPU 0 instructions: 320000002 cycles: 142183877 heartbeat IPC: 3.994 cumulative IPC: 2.088 (Simulation time: 00 hr 37 min 30 sec)
Heartbeat CPU 0 instructions: 330000004 cycles: 144686679 heartbeat IPC: 3.996 cumulative IPC: 2.124 (Simulation time: 00 hr 38 min 21 sec)
Heartbeat CPU 0 instructions: 340000004 cycles: 147189628 heartbeat IPC: 3.995 cumulative IPC: 2.159 (Simulation time: 00 hr 39 min 12 sec)
Heartbeat CPU 0 instructions: 350000003 cycles: 149692020 heartbeat IPC: 3.996 cumulative IPC: 2.193 (Simulation time: 00 hr 40 min 04 sec)
Heartbeat CPU 0 instructions: 360000002 cycles: 152194924 heartbeat IPC: 3.995 cumulative IPC: 2.225 (Simulation time: 00 hr 40 min 55 sec)
Heartbeat CPU 0 instructions: 370000004 cycles: 154698782 heartbeat IPC: 3.994 cumulative IPC: 2.256 (Simulation time: 00 hr 41 min 45 sec)
Heartbeat CPU 0 instructions: 380000003 cycles: 157202621 heartbeat IPC: 3.994 cumulative IPC: 2.287 (Simulation time: 00 hr 42 min 36 sec)
Heartbeat CPU 0 instructions: 390000000 cycles: 159705114 heartbeat IPC: 3.996 cumulative IPC: 2.316 (Simulation time: 00 hr 43 min 27 sec)
Heartbeat CPU 0 instructions: 400000002 cycles: 162207531 heartbeat IPC: 3.996 cumulative IPC: 2.344 (Simulation time: 00 hr 44 min 18 sec)
Heartbeat CPU 0 instructions: 410000002 cycles: 164710120 heartbeat IPC: 3.996 cumulative IPC: 2.371 (Simulation time: 00 hr 45 min 09 sec)
Heartbeat CPU 0 instructions: 420000000 cycles: 167213496 heartbeat IPC: 3.995 cumulative IPC: 2.397 (Simulation time: 00 hr 45 min 59 sec)
Heartbeat CPU 0 instructions: 430000001 cycles: 169716048 heartbeat IPC: 3.996 cumulative IPC: 2.423 (Simulation time: 00 hr 46 min 50 sec)
Heartbeat CPU 0 instructions: 440000000 cycles: 172218438 heartbeat IPC: 3.996 cumulative IPC: 2.448 (Simulation time: 00 hr 47 min 40 sec)
Heartbeat CPU 0 instructions: 450000001 cycles: 174720846 heartbeat IPC: 3.996 cumulative IPC: 2.472 (Simulation time: 00 hr 48 min 30 sec)
Heartbeat CPU 0 instructions: 460000002 cycles: 177223490 heartbeat IPC: 3.996 cumulative IPC: 2.495 (Simulation time: 00 hr 49 min 21 sec)
Heartbeat CPU 0 instructions: 470000001 cycles: 179727126 heartbeat IPC: 3.994 cumulative IPC: 2.517 (Simulation time: 00 hr 50 min 11 sec)
Heartbeat CPU 0 instructions: 480000000 cycles: 182229513 heartbeat IPC: 3.996 cumulative IPC: 2.539 (Simulation time: 00 hr 51 min 02 sec)
Heartbeat CPU 0 instructions: 490000001 cycles: 184733045 heartbeat IPC: 3.994 cumulative IPC: 2.56 (Simulation time: 00 hr 51 min 54 sec)
Heartbeat CPU 0 instructions: 500000004 cycles: 187238354 heartbeat IPC: 3.992 cumulative IPC: 2.581 (Simulation time: 00 hr 52 min 44 sec)
Heartbeat CPU 0 instructions: 510000000 cycles: 195304262 heartbeat IPC: 1.24 cumulative IPC: 2.522 (Simulation time: 00 hr 54 min 41 sec)
Heartbeat CPU 0 instructions: 520000002 cycles: 294343333 heartbeat IPC: 0.101 cumulative IPC: 1.67 (Simulation time: 01 hr 12 min 28 sec)
Heartbeat CPU 0 instructions: 530000001 cycles: 374118025 heartbeat IPC: 0.1254 cumulative IPC: 1.329 (Simulation time: 01 hr 26 min 58 sec)
Heartbeat CPU 0 instructions: 540000000 cycles: 408458797 heartbeat IPC: 0.2912 cumulative IPC: 1.239 (Simulation time: 01 hr 33 min 36 sec)
Heartbeat CPU 0 instructions: 550000001 cycles: 445214601 heartbeat IPC: 0.2721 cumulative IPC: 1.157 (Simulation time: 01 hr 40 min 36 sec)
Heartbeat CPU 0 instructions: 560000000 cycles: 481477988 heartbeat IPC: 0.2758 cumulative IPC: 1.088 (Simulation time: 01 hr 47 min 34 sec)
Heartbeat CPU 0 instructions: 570000003 cycles: 513236326 heartbeat IPC: 0.3149 cumulative IPC: 1.039 (Simulation time: 01 hr 53 min 48 sec)
Heartbeat CPU 0 instructions: 580000002 cycles: 541108246 heartbeat IPC: 0.3588 cumulative IPC: 1.003 (Simulation time: 01 hr 59 min 20 sec)
Heartbeat CPU 0 instructions: 590000001 cycles: 578548209 heartbeat IPC: 0.2671 cumulative IPC: 0.9546 (Simulation time: 02 hr 06 min 48 sec)
*** Reached end of trace: (0, "traces/sp.A.champsimtrace")
Heartbeat CPU 0 instructions: 600000004 cycles: 615345042 heartbeat IPC: 0.2718 cumulative IPC: 0.9129 (Simulation time: 02 hr 14 min 01 sec)
Heartbeat CPU 0 instructions: 610000004 cycles: 646194088 heartbeat IPC: 0.3242 cumulative IPC: 0.8842 (Simulation time: 02 hr 18 min 56 sec)
Heartbeat CPU 0 instructions: 620000003 cycles: 650684977 heartbeat IPC: 2.227 cumulative IPC: 0.8937 (Simulation time: 02 hr 20 min 12 sec)
Heartbeat CPU 0 instructions: 630000001 cycles: 655141297 heartbeat IPC: 2.244 cumulative IPC: 0.9031 (Simulation time: 02 hr 21 min 28 sec)
Heartbeat CPU 0 instructions: 640000000 cycles: 659633896 heartbeat IPC: 2.226 cumulative IPC: 0.9122 (Simulation time: 02 hr 22 min 46 sec)
Heartbeat CPU 0 instructions: 650000004 cycles: 664127747 heartbeat IPC: 2.225 cumulative IPC: 0.9213 (Simulation time: 02 hr 24 min 02 sec)
Simulation finished CPU 0 instructions: 600000001 cycles: 651246690 cumulative IPC: 0.9213 (Simulation time: 02 hr 24 min 02 sec)
Simulation complete CPU 0 instructions: 600000001 cycles: 651246690 cumulative IPC: 0.9213 (Simulation time: 02 hr 24 min 02 sec)

ChampSim completed all CPUs

=== Simulation ===
CPU 0 runs traces/sp.A.champsimtrace
Region of Interest Statistics

CPU 0 cumulative IPC: 0.9213 instructions: 600000001 cycles: 651246690
CPU 0 Branch Prediction Accuracy: 98.91% MPKI: 0.226 Average ROB Occupancy at Mispredict: 231.3
Branch type MPKI
BRANCH_DIRECT_JUMP: 5e-06
BRANCH_INDIRECT: 7.67e-05
BRANCH_CONDITIONAL: 0.226
BRANCH_DIRECT_CALL: 2e-05
BRANCH_INDIRECT_CALL: 3.33e-05
BRANCH_RETURN: 3.67e-05

LLC TOTAL        ACCESS:    7588644 HIT:    2080504 MISS:    5508140
LLC LOAD         ACCESS:    2308139 HIT:    1057663 MISS:    1250476
LLC RFO          ACCESS:     922678 HIT:        652 MISS:     922026
LLC PREFETCH     ACCESS:    2308197 HIT:     508186 MISS:    1800011
LLC WRITE        ACCESS:    2046164 HIT:     513831 MISS:    1532333
LLC TRANSLATION  ACCESS:       3466 HIT:        172 MISS:       3294
LLC PREFETCH REQUESTED:    2321824 ISSUED:    2308197 USEFUL:    1386878 USELESS:      37943
LLC AVERAGE MISS LATENCY: 748 cycles
cpu0_DTLB TOTAL        ACCESS:  127207696 HIT:  126339967 MISS:     867729
cpu0_DTLB LOAD         ACCESS:  127207696 HIT:  126339967 MISS:     867729
cpu0_DTLB RFO          ACCESS:          0 HIT:          0 MISS:          0
cpu0_DTLB PREFETCH     ACCESS:          0 HIT:          0 MISS:          0
cpu0_DTLB WRITE        ACCESS:          0 HIT:          0 MISS:          0
cpu0_DTLB TRANSLATION  ACCESS:          0 HIT:          0 MISS:          0
cpu0_DTLB PREFETCH REQUESTED:          0 ISSUED:          0 USEFUL:          0 USELESS:          0
cpu0_DTLB AVERAGE MISS LATENCY: 18.95 cycles
cpu0_ITLB TOTAL        ACCESS:     216549 HIT:     216304 MISS:        245
cpu0_ITLB LOAD         ACCESS:     216549 HIT:     216304 MISS:        245
cpu0_ITLB RFO          ACCESS:          0 HIT:          0 MISS:          0
cpu0_ITLB PREFETCH     ACCESS:          0 HIT:          0 MISS:          0
cpu0_ITLB WRITE        ACCESS:          0 HIT:          0 MISS:          0
cpu0_ITLB TRANSLATION  ACCESS:          0 HIT:          0 MISS:          0
cpu0_ITLB PREFETCH REQUESTED:          0 ISSUED:          0 USEFUL:          0 USELESS:          0
cpu0_ITLB AVERAGE MISS LATENCY: 346.5 cycles
cpu0_L1D TOTAL        ACCESS:  192661234 HIT:  178396483 MISS:   14264751
cpu0_L1D LOAD         ACCESS:  157419133 HIT:  147372647 MISS:   10046486
cpu0_L1D RFO          ACCESS:          0 HIT:          0 MISS:          0
cpu0_L1D PREFETCH     ACCESS:          0 HIT:          0 MISS:          0
cpu0_L1D WRITE        ACCESS:   35194225 HIT:   30994237 MISS:    4199988
cpu0_L1D TRANSLATION  ACCESS:      47876 HIT:      29599 MISS:      18277
cpu0_L1D PREFETCH REQUESTED:          0 ISSUED:          0 USEFUL:          0 USELESS:          0
cpu0_L1D AVERAGE MISS LATENCY: 155.7 cycles
cpu0_L1I TOTAL        ACCESS:     223979 HIT:     221176 MISS:       2803
cpu0_L1I LOAD         ACCESS:     223979 HIT:     221176 MISS:       2803
cpu0_L1I RFO          ACCESS:          0 HIT:          0 MISS:          0
cpu0_L1I PREFETCH     ACCESS:          0 HIT:          0 MISS:          0
cpu0_L1I WRITE        ACCESS:          0 HIT:          0 MISS:          0
cpu0_L1I TRANSLATION  ACCESS:          0 HIT:          0 MISS:          0
cpu0_L1I PREFETCH REQUESTED:          0 ISSUED:          0 USEFUL:          0 USELESS:          0
cpu0_L1I AVERAGE MISS LATENCY: 547.2 cycles
cpu0_L2C TOTAL        ACCESS:    5430653 HIT:    2196027 MISS:    3234626
cpu0_L2C LOAD         ACCESS:    2430299 HIT:     122159 MISS:    2308140
cpu0_L2C RFO          ACCESS:     924063 HIT:       1385 MISS:     922678
cpu0_L2C PREFETCH     ACCESS:          0 HIT:          0 MISS:          0
cpu0_L2C WRITE        ACCESS:    2058016 HIT:    2057674 MISS:        342
cpu0_L2C TRANSLATION  ACCESS:      18275 HIT:      14809 MISS:       3466
cpu0_L2C PREFETCH REQUESTED:          0 ISSUED:          0 USEFUL:          0 USELESS:          0
cpu0_L2C AVERAGE MISS LATENCY: 926.5 cycles
cpu0_STLB TOTAL        ACCESS:     610695 HIT:     562847 MISS:      47848
cpu0_STLB LOAD         ACCESS:     610695 HIT:     562847 MISS:      47848
cpu0_STLB RFO          ACCESS:          0 HIT:          0 MISS:          0
cpu0_STLB PREFETCH     ACCESS:          0 HIT:          0 MISS:          0
cpu0_STLB WRITE        ACCESS:          0 HIT:          0 MISS:          0
cpu0_STLB TRANSLATION  ACCESS:          0 HIT:          0 MISS:          0
cpu0_STLB PREFETCH REQUESTED:          0 ISSUED:          0 USEFUL:          0 USELESS:          0
cpu0_STLB AVERAGE MISS LATENCY: 384.1 cycles

DRAM Statistics

Channel 0 RQ ROW_BUFFER_HIT:     788691
  ROW_BUFFER_MISS:    1976558
 AVG DBUS CONGESTED CYCLE: 3.973
WQ ROW_BUFFER_HIT: Channel 0 
  ROW_BUFFER_MISS:     689511
  FULL:    1198785
