WARNING: physical memory size is smaller than virtual memory size.

*** ChampSim Multicore Out-of-Order Simulator ***
Warmup Instructions: 50000000
Simulation Instructions: 600000000
Number of CPUs: 1
Page size: 4096

Off-chip DRAM Size: 4 GiB Channels: 1 Width: 64-bit Data Race: 3200 MT/s
Heartbeat CPU 0 instructions: 10000000 cycles: 2881055 heartbeat IPC: 3.471 cumulative IPC: 3.471 (Simulation time: 00 hr 00 min 39 sec)
Heartbeat CPU 0 instructions: 20000000 cycles: 5381055 heartbeat IPC: 4 cumulative IPC: 3.717 (Simulation time: 00 hr 01 min 13 sec)
Heartbeat CPU 0 instructions: 30000000 cycles: 7881055 heartbeat IPC: 4 cumulative IPC: 3.807 (Simulation time: 00 hr 01 min 46 sec)
Heartbeat CPU 0 instructions: 40000000 cycles: 10381055 heartbeat IPC: 4 cumulative IPC: 3.853 (Simulation time: 00 hr 02 min 20 sec)
Heartbeat CPU 0 instructions: 50000000 cycles: 12881055 heartbeat IPC: 4 cumulative IPC: 3.882 (Simulation time: 00 hr 02 min 54 sec)
Warmup finished CPU 0 instructions: 50000000 cycles: 12881056 cumulative IPC: 3.882 (Simulation time: 00 hr 02 min 54 sec)
Warmup complete CPU 0 instructions: 50000000 cycles: 12881056 cumulative IPC: 3.882 (Simulation time: 00 hr 02 min 54 sec)
Heartbeat CPU 0 instructions: 60000000 cycles: 19038745 heartbeat IPC: 1.624 cumulative IPC: 1.624 (Simulation time: 00 hr 04 min 03 sec)
Heartbeat CPU 0 instructions: 70000000 cycles: 25219098 heartbeat IPC: 1.618 cumulative IPC: 1.621 (Simulation time: 00 hr 05 min 12 sec)
Heartbeat CPU 0 instructions: 80000001 cycles: 31357398 heartbeat IPC: 1.629 cumulative IPC: 1.624 (Simulation time: 00 hr 06 min 19 sec)
Heartbeat CPU 0 instructions: 90000003 cycles: 37502640 heartbeat IPC: 1.627 cumulative IPC: 1.625 (Simulation time: 00 hr 07 min 27 sec)
Heartbeat CPU 0 instructions: 100000000 cycles: 44037091 heartbeat IPC: 1.53 cumulative IPC: 1.605 (Simulation time: 00 hr 08 min 34 sec)
Heartbeat CPU 0 instructions: 110000001 cycles: 50762944 heartbeat IPC: 1.487 cumulative IPC: 1.584 (Simulation time: 00 hr 09 min 44 sec)
Heartbeat CPU 0 instructions: 120000003 cycles: 57480077 heartbeat IPC: 1.489 cumulative IPC: 1.57 (Simulation time: 00 hr 10 min 53 sec)
Heartbeat CPU 0 instructions: 130000002 cycles: 64109316 heartbeat IPC: 1.508 cumulative IPC: 1.562 (Simulation time: 00 hr 12 min 01 sec)
Heartbeat CPU 0 instructions: 140000004 cycles: 70876780 heartbeat IPC: 1.478 cumulative IPC: 1.552 (Simulation time: 00 hr 13 min 09 sec)
Heartbeat CPU 0 instructions: 150000000 cycles: 77513794 heartbeat IPC: 1.507 cumulative IPC: 1.547 (Simulation time: 00 hr 14 min 20 sec)
Heartbeat CPU 0 instructions: 160000001 cycles: 84246653 heartbeat IPC: 1.485 cumulative IPC: 1.541 (Simulation time: 00 hr 15 min 30 sec)
Heartbeat CPU 0 instructions: 170000001 cycles: 90922002 heartbeat IPC: 1.498 cumulative IPC: 1.538 (Simulation time: 00 hr 16 min 39 sec)
Heartbeat CPU 0 instructions: 180000002 cycles: 97625382 heartbeat IPC: 1.492 cumulative IPC: 1.534 (Simulation time: 00 hr 17 min 50 sec)
Heartbeat CPU 0 instructions: 190000002 cycles: 104045777 heartbeat IPC: 1.558 cumulative IPC: 1.536 (Simulation time: 00 hr 18 min 56 sec)
Heartbeat CPU 0 instructions: 200000000 cycles: 109874965 heartbeat IPC: 1.716 cumulative IPC: 1.546 (Simulation time: 00 hr 20 min 00 sec)
Heartbeat CPU 0 instructions: 210000001 cycles: 116232734 heartbeat IPC: 1.573 cumulative IPC: 1.548 (Simulation time: 00 hr 21 min 07 sec)
Heartbeat CPU 0 instructions: 220000001 cycles: 123172493 heartbeat IPC: 1.441 cumulative IPC: 1.541 (Simulation time: 00 hr 22 min 19 sec)
Heartbeat CPU 0 instructions: 230000004 cycles: 130094769 heartbeat IPC: 1.445 cumulative IPC: 1.536 (Simulation time: 00 hr 23 min 31 sec)
Heartbeat CPU 0 instructions: 240000001 cycles: 136989788 heartbeat IPC: 1.45 cumulative IPC: 1.531 (Simulation time: 00 hr 24 min 42 sec)
Heartbeat CPU 0 instructions: 250000002 cycles: 143920955 heartbeat IPC: 1.443 cumulative IPC: 1.526 (Simulation time: 00 hr 25 min 54 sec)
Heartbeat CPU 0 instructions: 260000002 cycles: 150869627 heartbeat IPC: 1.439 cumulative IPC: 1.522 (Simulation time: 00 hr 27 min 05 sec)
Heartbeat CPU 0 instructions: 270000003 cycles: 157761784 heartbeat IPC: 1.451 cumulative IPC: 1.518 (Simulation time: 00 hr 28 min 14 sec)
Heartbeat CPU 0 instructions: 280000000 cycles: 164706639 heartbeat IPC: 1.44 cumulative IPC: 1.515 (Simulation time: 00 hr 29 min 25 sec)
Heartbeat CPU 0 instructions: 290000001 cycles: 221730152 heartbeat IPC: 0.1754 cumulative IPC: 1.149 (Simulation time: 00 hr 35 min 41 sec)
Heartbeat CPU 0 instructions: 300000002 cycles: 224235256 heartbeat IPC: 3.992 cumulative IPC: 1.183 (Simulation time: 00 hr 36 min 18 sec)
Heartbeat CPU 0 instructions: 310000001 cycles: 226740300 heartbeat IPC: 3.992 cumulative IPC: 1.216 (Simulation time: 00 hr 36 min 56 sec)
Heartbeat CPU 0 instructions: 320000000 cycles: 229245414 heartbeat IPC: 3.992 cumulative IPC: 1.248 (Simulation time: 00 hr 37 min 33 sec)
Heartbeat CPU 0 instructions: 330000003 cycles: 231750752 heartbeat IPC: 3.991 cumulative IPC: 1.279 (Simulation time: 00 hr 38 min 11 sec)
Heartbeat CPU 0 instructions: 340000000 cycles: 234255822 heartbeat IPC: 3.992 cumulative IPC: 1.31 (Simulation time: 00 hr 38 min 48 sec)
Heartbeat CPU 0 instructions: 350000004 cycles: 236760897 heartbeat IPC: 3.992 cumulative IPC: 1.34 (Simulation time: 00 hr 39 min 25 sec)
Heartbeat CPU 0 instructions: 360000004 cycles: 239265972 heartbeat IPC: 3.992 cumulative IPC: 1.369 (Simulation time: 00 hr 40 min 02 sec)
Heartbeat CPU 0 instructions: 370000000 cycles: 241771891 heartbeat IPC: 3.991 cumulative IPC: 1.398 (Simulation time: 00 hr 40 min 40 sec)
Heartbeat CPU 0 instructions: 380000004 cycles: 244276938 heartbeat IPC: 3.992 cumulative IPC: 1.426 (Simulation time: 00 hr 41 min 16 sec)
Heartbeat CPU 0 instructions: 390000001 cycles: 246782011 heartbeat IPC: 3.992 cumulative IPC: 1.454 (Simulation time: 00 hr 41 min 52 sec)
Heartbeat CPU 0 instructions: 400000003 cycles: 249287089 heartbeat IPC: 3.992 cumulative IPC: 1.481 (Simulation time: 00 hr 42 min 28 sec)
Heartbeat CPU 0 instructions: 410000003 cycles: 251792204 heartbeat IPC: 3.992 cumulative IPC: 1.507 (Simulation time: 00 hr 43 min 04 sec)
Heartbeat CPU 0 instructions: 420000002 cycles: 254297279 heartbeat IPC: 3.992 cumulative IPC: 1.533 (Simulation time: 00 hr 43 min 40 sec)
Heartbeat CPU 0 instructions: 430000000 cycles: 256802352 heartbeat IPC: 3.992 cumulative IPC: 1.558 (Simulation time: 00 hr 44 min 16 sec)
Heartbeat CPU 0 instructions: 440000001 cycles: 259307671 heartbeat IPC: 3.992 cumulative IPC: 1.583 (Simulation time: 00 hr 44 min 52 sec)
Heartbeat CPU 0 instructions: 450000000 cycles: 261812718 heartbeat IPC: 3.992 cumulative IPC: 1.607 (Simulation time: 00 hr 45 min 28 sec)
Heartbeat CPU 0 instructions: 460000003 cycles: 264317756 heartbeat IPC: 3.992 cumulative IPC: 1.631 (Simulation time: 00 hr 46 min 04 sec)
Heartbeat CPU 0 instructions: 470000001 cycles: 266822830 heartbeat IPC: 3.992 cumulative IPC: 1.654 (Simulation time: 00 hr 46 min 40 sec)
Heartbeat CPU 0 instructions: 480000003 cycles: 269327903 heartbeat IPC: 3.992 cumulative IPC: 1.677 (Simulation time: 00 hr 47 min 15 sec)
Heartbeat CPU 0 instructions: 490000003 cycles: 271832978 heartbeat IPC: 3.992 cumulative IPC: 1.699 (Simulation time: 00 hr 47 min 51 sec)
Heartbeat CPU 0 instructions: 500000002 cycles: 274338919 heartbeat IPC: 3.991 cumulative IPC: 1.721 (Simulation time: 00 hr 48 min 27 sec)
Heartbeat CPU 0 instructions: 510000003 cycles: 280510135 heartbeat IPC: 1.62 cumulative IPC: 1.719 (Simulation time: 00 hr 49 min 28 sec)
Heartbeat CPU 0 instructions: 520000001 cycles: 385046872 heartbeat IPC: 0.09566 cumulative IPC: 1.263 (Simulation time: 01 hr 02 min 00 sec)
Heartbeat CPU 0 instructions: 530000004 cycles: 463230706 heartbeat IPC: 0.1279 cumulative IPC: 1.066 (Simulation time: 01 hr 11 min 51 sec)
Heartbeat CPU 0 instructions: 540000000 cycles: 493346362 heartbeat IPC: 0.3321 cumulative IPC: 1.02 (Simulation time: 01 hr 15 min 59 sec)
Heartbeat CPU 0 instructions: 550000002 cycles: 523726560 heartbeat IPC: 0.3292 cumulative IPC: 0.9788 (Simulation time: 01 hr 20 min 04 sec)
Heartbeat CPU 0 instructions: 560000004 cycles: 554146795 heartbeat IPC: 0.3287 cumulative IPC: 0.9422 (Simulation time: 01 hr 24 min 04 sec)
Heartbeat CPU 0 instructions: 570000000 cycles: 584841287 heartbeat IPC: 0.3258 cumulative IPC: 0.9092 (Simulation time: 01 hr 28 min 07 sec)
Heartbeat CPU 0 instructions: 580000001 cycles: 615781613 heartbeat IPC: 0.3232 cumulative IPC: 0.8791 (Simulation time: 01 hr 32 min 13 sec)
Heartbeat CPU 0 instructions: 590000004 cycles: 647318941 heartbeat IPC: 0.3171 cumulative IPC: 0.8511 (Simulation time: 01 hr 36 min 22 sec)
*** Reached end of trace: (0, "traces/sp.A.champsimtrace")
Heartbeat CPU 0 instructions: 600000002 cycles: 678742296 heartbeat IPC: 0.3182 cumulative IPC: 0.826 (Simulation time: 01 hr 40 min 33 sec)
Heartbeat CPU 0 instructions: 610000000 cycles: 711157359 heartbeat IPC: 0.3085 cumulative IPC: 0.802 (Simulation time: 01 hr 43 min 48 sec)
Heartbeat CPU 0 instructions: 620000001 cycles: 717294013 heartbeat IPC: 1.63 cumulative IPC: 0.8092 (Simulation time: 01 hr 44 min 52 sec)
Heartbeat CPU 0 instructions: 630000003 cycles: 723423529 heartbeat IPC: 1.631 cumulative IPC: 0.8163 (Simulation time: 01 hr 45 min 57 sec)
Heartbeat CPU 0 instructions: 640000004 cycles: 729576235 heartbeat IPC: 1.625 cumulative IPC: 0.8232 (Simulation time: 01 hr 47 min 01 sec)
Heartbeat CPU 0 instructions: 650000001 cycles: 735720267 heartbeat IPC: 1.628 cumulative IPC: 0.8301 (Simulation time: 01 hr 48 min 10 sec)
Simulation finished CPU 0 instructions: 600000001 cycles: 722839212 cumulative IPC: 0.8301 (Simulation time: 01 hr 48 min 10 sec)
Simulation complete CPU 0 instructions: 600000001 cycles: 722839212 cumulative IPC: 0.8301 (Simulation time: 01 hr 48 min 10 sec)

ChampSim completed all CPUs

=== Simulation ===
CPU 0 runs traces/sp.A.champsimtrace
Region of Interest Statistics

CPU 0 cumulative IPC: 0.8301 instructions: 600000001 cycles: 722839212
CPU 0 Branch Prediction Accuracy: 98.84% MPKI: 0.2406 Average ROB Occupancy at Mispredict: 224.3
Branch type MPKI
BRANCH_DIRECT_JUMP: 5e-06
BRANCH_INDIRECT: 7.5e-05
BRANCH_CONDITIONAL: 0.24
BRANCH_DIRECT_CALL: 2e-05
BRANCH_INDIRECT_CALL: 3.17e-05
BRANCH_RETURN: 3.67e-05

LLC TOTAL        ACCESS:    5276123 HIT:    2561509 MISS:    2714614
LLC LOAD         ACCESS:    2304686 HIT:     513629 MISS:    1791057
LLC RFO          ACCESS:     922635 HIT:       6810 MISS:     915825
LLC PREFETCH     ACCESS:          0 HIT:          0 MISS:          0
LLC WRITE        ACCESS:    2045323 HIT:    2039421 MISS:       5902
LLC TRANSLATION  ACCESS:       3479 HIT:       1649 MISS:       1830
LLC PREFETCH REQUESTED:          0 ISSUED:          0 USEFUL:          0 USELESS:          0
LLC AVERAGE MISS LATENCY: 1265 cycles
cpu0_DTLB TOTAL        ACCESS:  126019206 HIT:  125191438 MISS:     827768
cpu0_DTLB LOAD         ACCESS:  126019206 HIT:  125191438 MISS:     827768
cpu0_DTLB RFO          ACCESS:          0 HIT:          0 MISS:          0
cpu0_DTLB PREFETCH     ACCESS:          0 HIT:          0 MISS:          0
cpu0_DTLB WRITE        ACCESS:          0 HIT:          0 MISS:          0
cpu0_DTLB TRANSLATION  ACCESS:          0 HIT:          0 MISS:          0
cpu0_DTLB PREFETCH REQUESTED:          0 ISSUED:          0 USEFUL:          0 USELESS:          0
cpu0_DTLB AVERAGE MISS LATENCY: 18.24 cycles
cpu0_ITLB TOTAL        ACCESS:     218892 HIT:     218671 MISS:        221
cpu0_ITLB LOAD         ACCESS:     218892 HIT:     218671 MISS:        221
cpu0_ITLB RFO          ACCESS:          0 HIT:          0 MISS:          0
cpu0_ITLB PREFETCH     ACCESS:          0 HIT:          0 MISS:          0
cpu0_ITLB WRITE        ACCESS:          0 HIT:          0 MISS:          0
cpu0_ITLB TRANSLATION  ACCESS:          0 HIT:          0 MISS:          0
cpu0_ITLB PREFETCH REQUESTED:          0 ISSUED:          0 USEFUL:          0 USELESS:          0
cpu0_ITLB AVERAGE MISS LATENCY: 324.1 cycles
cpu0_L1D TOTAL        ACCESS:  191483157 HIT:  176974014 MISS:   14509143
cpu0_L1D LOAD         ACCESS:  156240932 HIT:  145859585 MISS:   10381347
cpu0_L1D RFO          ACCESS:          0 HIT:          0 MISS:          0
cpu0_L1D PREFETCH     ACCESS:          0 HIT:          0 MISS:          0
cpu0_L1D WRITE        ACCESS:   35194345 HIT:   31084868 MISS:    4109477
cpu0_L1D TRANSLATION  ACCESS:      47880 HIT:      29561 MISS:      18319
cpu0_L1D PREFETCH REQUESTED:          0 ISSUED:          0 USEFUL:          0 USELESS:          0
cpu0_L1D AVERAGE MISS LATENCY: 174.4 cycles
cpu0_L1I TOTAL        ACCESS:     226538 HIT:     223750 MISS:       2788
cpu0_L1I LOAD         ACCESS:     226538 HIT:     223750 MISS:       2788
cpu0_L1I RFO          ACCESS:          0 HIT:          0 MISS:          0
cpu0_L1I PREFETCH     ACCESS:          0 HIT:          0 MISS:          0
cpu0_L1I WRITE        ACCESS:          0 HIT:          0 MISS:          0
cpu0_L1I TRANSLATION  ACCESS:          0 HIT:          0 MISS:          0
cpu0_L1I PREFETCH REQUESTED:          0 ISSUED:          0 USEFUL:          0 USELESS:          0
cpu0_L1I AVERAGE MISS LATENCY: 545.3 cycles
cpu0_L2C TOTAL        ACCESS:    5442757 HIT:    2211483 MISS:    3231274
cpu0_L2C LOAD         ACCESS:    2445191 HIT:     140403 MISS:    2304788
cpu0_L2C RFO          ACCESS:     923196 HIT:        561 MISS:     922635
cpu0_L2C PREFETCH     ACCESS:          0 HIT:          0 MISS:          0
cpu0_L2C WRITE        ACCESS:    2056053 HIT:    2055681 MISS:        372
cpu0_L2C TRANSLATION  ACCESS:      18317 HIT:      14838 MISS:       3479
cpu0_L2C PREFETCH REQUESTED:          0 ISSUED:          0 USEFUL:          0 USELESS:          0
cpu0_L2C AVERAGE MISS LATENCY: 1084 cycles
cpu0_STLB TOTAL        ACCESS:     573572 HIT:     525722 MISS:      47850
cpu0_STLB LOAD         ACCESS:     573572 HIT:     525722 MISS:      47850
cpu0_STLB RFO          ACCESS:          0 HIT:          0 MISS:          0
cpu0_STLB PREFETCH     ACCESS:          0 HIT:          0 MISS:          0
cpu0_STLB WRITE        ACCESS:          0 HIT:          0 MISS:          0
cpu0_STLB TRANSLATION  ACCESS:          0 HIT:          0 MISS:          0
cpu0_STLB PREFETCH REQUESTED:          0 ISSUED:          0 USEFUL:          0 USELESS:          0
cpu0_STLB AVERAGE MISS LATENCY: 304.5 cycles

DRAM Statistics

Channel 0 RQ ROW_BUFFER_HIT:     702320
  ROW_BUFFER_MISS:    2006258
 AVG DBUS CONGESTED CYCLE: 3.975
WQ ROW_BUFFER_HIT: Channel 0 
  ROW_BUFFER_MISS:     349427
  FULL:    1429258
