WARNING: physical memory size is smaller than virtual memory size.

*** ChampSim Multicore Out-of-Order Simulator ***
Warmup Instructions: 50000000
Simulation Instructions: 600000000
Number of CPUs: 1
Page size: 4096

Off-chip DRAM Size: 4 GiB Channels: 1 Width: 64-bit Data Race: 3200 MT/s
Heartbeat CPU 0 instructions: 10000003 cycles: 2881057 heartbeat IPC: 3.471 cumulative IPC: 3.471 (Simulation time: 00 hr 00 min 50 sec)
Heartbeat CPU 0 instructions: 20000003 cycles: 5381057 heartbeat IPC: 4 cumulative IPC: 3.717 (Simulation time: 00 hr 01 min 36 sec)
Heartbeat CPU 0 instructions: 30000003 cycles: 7881057 heartbeat IPC: 4 cumulative IPC: 3.807 (Simulation time: 00 hr 02 min 21 sec)
Heartbeat CPU 0 instructions: 40000003 cycles: 10381057 heartbeat IPC: 4 cumulative IPC: 3.853 (Simulation time: 00 hr 03 min 07 sec)
Heartbeat CPU 0 instructions: 50000003 cycles: 12881057 heartbeat IPC: 4 cumulative IPC: 3.882 (Simulation time: 00 hr 03 min 54 sec)
Warmup finished CPU 0 instructions: 50000003 cycles: 12881058 cumulative IPC: 3.882 (Simulation time: 00 hr 03 min 54 sec)
Warmup complete CPU 0 instructions: 50000003 cycles: 12881058 cumulative IPC: 3.882 (Simulation time: 00 hr 03 min 54 sec)
Heartbeat CPU 0 instructions: 60000000 cycles: 17295814 heartbeat IPC: 2.265 cumulative IPC: 2.265 (Simulation time: 00 hr 05 min 08 sec)
Heartbeat CPU 0 instructions: 70000002 cycles: 21772316 heartbeat IPC: 2.234 cumulative IPC: 2.249 (Simulation time: 00 hr 06 min 24 sec)
Heartbeat CPU 0 instructions: 80000001 cycles: 26270025 heartbeat IPC: 2.223 cumulative IPC: 2.241 (Simulation time: 00 hr 07 min 42 sec)
Heartbeat CPU 0 instructions: 90000004 cycles: 30766791 heartbeat IPC: 2.224 cumulative IPC: 2.236 (Simulation time: 00 hr 08 min 57 sec)
Heartbeat CPU 0 instructions: 100000000 cycles: 34242150 heartbeat IPC: 2.877 cumulative IPC: 2.341 (Simulation time: 00 hr 10 min 00 sec)
Heartbeat CPU 0 instructions: 110000004 cycles: 36797889 heartbeat IPC: 3.913 cumulative IPC: 2.509 (Simulation time: 00 hr 10 min 54 sec)
Heartbeat CPU 0 instructions: 120000000 cycles: 39353156 heartbeat IPC: 3.913 cumulative IPC: 2.644 (Simulation time: 00 hr 11 min 46 sec)
Heartbeat CPU 0 instructions: 130000002 cycles: 42059876 heartbeat IPC: 3.695 cumulative IPC: 2.742 (Simulation time: 00 hr 12 min 40 sec)
Heartbeat CPU 0 instructions: 140000004 cycles: 45416066 heartbeat IPC: 2.98 cumulative IPC: 2.766 (Simulation time: 00 hr 13 min 43 sec)
Heartbeat CPU 0 instructions: 150000001 cycles: 48927420 heartbeat IPC: 2.848 cumulative IPC: 2.774 (Simulation time: 00 hr 14 min 46 sec)
Heartbeat CPU 0 instructions: 160000003 cycles: 52464029 heartbeat IPC: 2.828 cumulative IPC: 2.779 (Simulation time: 00 hr 15 min 51 sec)
Heartbeat CPU 0 instructions: 170000000 cycles: 56191621 heartbeat IPC: 2.683 cumulative IPC: 2.771 (Simulation time: 00 hr 16 min 57 sec)
Heartbeat CPU 0 instructions: 180000000 cycles: 59885384 heartbeat IPC: 2.707 cumulative IPC: 2.766 (Simulation time: 00 hr 18 min 02 sec)
Heartbeat CPU 0 instructions: 190000000 cycles: 63245777 heartbeat IPC: 2.976 cumulative IPC: 2.78 (Simulation time: 00 hr 19 min 04 sec)
Heartbeat CPU 0 instructions: 200000004 cycles: 66093277 heartbeat IPC: 3.512 cumulative IPC: 2.819 (Simulation time: 00 hr 20 min 01 sec)
Heartbeat CPU 0 instructions: 210000001 cycles: 68865348 heartbeat IPC: 3.607 cumulative IPC: 2.858 (Simulation time: 00 hr 20 min 56 sec)
Heartbeat CPU 0 instructions: 220000004 cycles: 71693339 heartbeat IPC: 3.536 cumulative IPC: 2.891 (Simulation time: 00 hr 21 min 52 sec)
Heartbeat CPU 0 instructions: 230000000 cycles: 74471132 heartbeat IPC: 3.6 cumulative IPC: 2.923 (Simulation time: 00 hr 22 min 49 sec)
Heartbeat CPU 0 instructions: 240000001 cycles: 77236910 heartbeat IPC: 3.616 cumulative IPC: 2.952 (Simulation time: 00 hr 23 min 44 sec)
Heartbeat CPU 0 instructions: 250000002 cycles: 80049866 heartbeat IPC: 3.555 cumulative IPC: 2.978 (Simulation time: 00 hr 24 min 40 sec)
Heartbeat CPU 0 instructions: 260000000 cycles: 82932380 heartbeat IPC: 3.469 cumulative IPC: 2.998 (Simulation time: 00 hr 25 min 37 sec)
Heartbeat CPU 0 instructions: 270000002 cycles: 85750630 heartbeat IPC: 3.548 cumulative IPC: 3.019 (Simulation time: 00 hr 26 min 34 sec)
Heartbeat CPU 0 instructions: 280000003 cycles: 88600399 heartbeat IPC: 3.509 cumulative IPC: 3.038 (Simulation time: 00 hr 27 min 30 sec)
Heartbeat CPU 0 instructions: 290000000 cycles: 134638899 heartbeat IPC: 0.2172 cumulative IPC: 1.971 (Simulation time: 00 hr 35 min 01 sec)
Heartbeat CPU 0 instructions: 300000001 cycles: 137141875 heartbeat IPC: 3.995 cumulative IPC: 2.012 (Simulation time: 00 hr 35 min 54 sec)
Heartbeat CPU 0 instructions: 310000000 cycles: 139644981 heartbeat IPC: 3.995 cumulative IPC: 2.051 (Simulation time: 00 hr 36 min 44 sec)
Heartbeat CPU 0 instructions: 320000002 cycles: 142150067 heartbeat IPC: 3.992 cumulative IPC: 2.089 (Simulation time: 00 hr 37 min 35 sec)
Heartbeat CPU 0 instructions: 330000004 cycles: 144652924 heartbeat IPC: 3.995 cumulative IPC: 2.125 (Simulation time: 00 hr 38 min 27 sec)
Heartbeat CPU 0 instructions: 340000004 cycles: 147157415 heartbeat IPC: 3.993 cumulative IPC: 2.16 (Simulation time: 00 hr 39 min 17 sec)
Heartbeat CPU 0 instructions: 350000003 cycles: 149660315 heartbeat IPC: 3.995 cumulative IPC: 2.193 (Simulation time: 00 hr 40 min 08 sec)
Heartbeat CPU 0 instructions: 360000002 cycles: 152162705 heartbeat IPC: 3.996 cumulative IPC: 2.226 (Simulation time: 00 hr 40 min 59 sec)
Heartbeat CPU 0 instructions: 370000004 cycles: 154665444 heartbeat IPC: 3.996 cumulative IPC: 2.257 (Simulation time: 00 hr 41 min 50 sec)
Heartbeat CPU 0 instructions: 380000003 cycles: 157168494 heartbeat IPC: 3.995 cumulative IPC: 2.287 (Simulation time: 00 hr 42 min 41 sec)
Heartbeat CPU 0 instructions: 390000000 cycles: 159672011 heartbeat IPC: 3.994 cumulative IPC: 2.316 (Simulation time: 00 hr 43 min 33 sec)
Heartbeat CPU 0 instructions: 400000002 cycles: 162174974 heartbeat IPC: 3.995 cumulative IPC: 2.344 (Simulation time: 00 hr 44 min 24 sec)
Heartbeat CPU 0 instructions: 410000002 cycles: 164678172 heartbeat IPC: 3.995 cumulative IPC: 2.372 (Simulation time: 00 hr 45 min 16 sec)
Heartbeat CPU 0 instructions: 420000000 cycles: 167180680 heartbeat IPC: 3.996 cumulative IPC: 2.398 (Simulation time: 00 hr 46 min 08 sec)
Heartbeat CPU 0 instructions: 430000001 cycles: 169683466 heartbeat IPC: 3.996 cumulative IPC: 2.423 (Simulation time: 00 hr 46 min 59 sec)
Heartbeat CPU 0 instructions: 440000000 cycles: 172186220 heartbeat IPC: 3.996 cumulative IPC: 2.448 (Simulation time: 00 hr 47 min 50 sec)
Heartbeat CPU 0 instructions: 450000001 cycles: 174689113 heartbeat IPC: 3.995 cumulative IPC: 2.472 (Simulation time: 00 hr 48 min 41 sec)
Heartbeat CPU 0 instructions: 460000002 cycles: 177191585 heartbeat IPC: 3.996 cumulative IPC: 2.495 (Simulation time: 00 hr 49 min 32 sec)
Heartbeat CPU 0 instructions: 470000001 cycles: 179694116 heartbeat IPC: 3.996 cumulative IPC: 2.518 (Simulation time: 00 hr 50 min 22 sec)
Heartbeat CPU 0 instructions: 480000000 cycles: 182197285 heartbeat IPC: 3.995 cumulative IPC: 2.54 (Simulation time: 00 hr 51 min 14 sec)
Heartbeat CPU 0 instructions: 490000001 cycles: 184699675 heartbeat IPC: 3.996 cumulative IPC: 2.561 (Simulation time: 00 hr 52 min 05 sec)
Heartbeat CPU 0 instructions: 500000004 cycles: 187203323 heartbeat IPC: 3.994 cumulative IPC: 2.581 (Simulation time: 00 hr 52 min 56 sec)
Heartbeat CPU 0 instructions: 510000000 cycles: 195236464 heartbeat IPC: 1.245 cumulative IPC: 2.523 (Simulation time: 00 hr 54 min 45 sec)
Heartbeat CPU 0 instructions: 520000002 cycles: 294263582 heartbeat IPC: 0.101 cumulative IPC: 1.67 (Simulation time: 01 hr 12 min 26 sec)
Heartbeat CPU 0 instructions: 530000001 cycles: 374155849 heartbeat IPC: 0.1252 cumulative IPC: 1.329 (Simulation time: 01 hr 26 min 48 sec)
Heartbeat CPU 0 instructions: 540000000 cycles: 408455369 heartbeat IPC: 0.2915 cumulative IPC: 1.239 (Simulation time: 01 hr 33 min 22 sec)
Heartbeat CPU 0 instructions: 550000001 cycles: 445210395 heartbeat IPC: 0.2721 cumulative IPC: 1.157 (Simulation time: 01 hr 40 min 25 sec)
Heartbeat CPU 0 instructions: 560000000 cycles: 481450698 heartbeat IPC: 0.2759 cumulative IPC: 1.088 (Simulation time: 01 hr 47 min 23 sec)
Heartbeat CPU 0 instructions: 570000003 cycles: 513235312 heartbeat IPC: 0.3146 cumulative IPC: 1.039 (Simulation time: 01 hr 53 min 33 sec)
Heartbeat CPU 0 instructions: 580000002 cycles: 541045543 heartbeat IPC: 0.3596 cumulative IPC: 1.003 (Simulation time: 01 hr 59 min 08 sec)
Heartbeat CPU 0 instructions: 590000001 cycles: 578502892 heartbeat IPC: 0.267 cumulative IPC: 0.9547 (Simulation time: 02 hr 06 min 14 sec)
*** Reached end of trace: (0, "traces/sp.A.champsimtrace")
Heartbeat CPU 0 instructions: 600000004 cycles: 615274783 heartbeat IPC: 0.2719 cumulative IPC: 0.913 (Simulation time: 02 hr 13 min 08 sec)
Heartbeat CPU 0 instructions: 610000004 cycles: 646112553 heartbeat IPC: 0.3243 cumulative IPC: 0.8844 (Simulation time: 02 hr 17 min 58 sec)
Heartbeat CPU 0 instructions: 620000003 cycles: 650614392 heartbeat IPC: 2.221 cumulative IPC: 0.8938 (Simulation time: 02 hr 19 min 14 sec)
Heartbeat CPU 0 instructions: 630000001 cycles: 655075767 heartbeat IPC: 2.241 cumulative IPC: 0.9032 (Simulation time: 02 hr 20 min 28 sec)
Heartbeat CPU 0 instructions: 640000000 cycles: 659569371 heartbeat IPC: 2.225 cumulative IPC: 0.9123 (Simulation time: 02 hr 21 min 43 sec)
Heartbeat CPU 0 instructions: 650000004 cycles: 664064552 heartbeat IPC: 2.225 cumulative IPC: 0.9214 (Simulation time: 02 hr 22 min 58 sec)
Simulation finished CPU 0 instructions: 600000001 cycles: 651183495 cumulative IPC: 0.9214 (Simulation time: 02 hr 22 min 58 sec)
Simulation complete CPU 0 instructions: 600000001 cycles: 651183495 cumulative IPC: 0.9214 (Simulation time: 02 hr 22 min 58 sec)

ChampSim completed all CPUs

=== Simulation ===
CPU 0 runs traces/sp.A.champsimtrace
Region of Interest Statistics

CPU 0 cumulative IPC: 0.9214 instructions: 600000001 cycles: 651183495
CPU 0 Branch Prediction Accuracy: 98.84% MPKI: 0.2407 Average ROB Occupancy at Mispredict: 218.1
Branch type MPKI
BRANCH_DIRECT_JUMP: 5e-06
BRANCH_INDIRECT: 7.67e-05
BRANCH_CONDITIONAL: 0.241
BRANCH_DIRECT_CALL: 2e-05
BRANCH_INDIRECT_CALL: 3.33e-05
BRANCH_RETURN: 3.67e-05

LLC TOTAL        ACCESS:    7588587 HIT:    2080561 MISS:    5508026
LLC LOAD         ACCESS:    2308132 HIT:    1057682 MISS:    1250450
LLC RFO          ACCESS:     922675 HIT:        641 MISS:     922034
LLC PREFETCH     ACCESS:    2308158 HIT:     508043 MISS:    1800115
LLC WRITE        ACCESS:    2046157 HIT:     514024 MISS:    1532133
LLC TRANSLATION  ACCESS:       3465 HIT:        171 MISS:       3294
LLC PREFETCH REQUESTED:    2321444 ISSUED:    2308158 USEFUL:    1386957 USELESS:      38043
LLC AVERAGE MISS LATENCY: 746.8 cycles
cpu0_DTLB TOTAL        ACCESS:  127212883 HIT:  126345175 MISS:     867708
cpu0_DTLB LOAD         ACCESS:  127212883 HIT:  126345175 MISS:     867708
cpu0_DTLB RFO          ACCESS:          0 HIT:          0 MISS:          0
cpu0_DTLB PREFETCH     ACCESS:          0 HIT:          0 MISS:          0
cpu0_DTLB WRITE        ACCESS:          0 HIT:          0 MISS:          0
cpu0_DTLB TRANSLATION  ACCESS:          0 HIT:          0 MISS:          0
cpu0_DTLB PREFETCH REQUESTED:          0 ISSUED:          0 USEFUL:          0 USELESS:          0
cpu0_DTLB AVERAGE MISS LATENCY: 19.09 cycles
cpu0_ITLB TOTAL        ACCESS:     216507 HIT:     216278 MISS:        229
cpu0_ITLB LOAD         ACCESS:     216507 HIT:     216278 MISS:        229
cpu0_ITLB RFO          ACCESS:          0 HIT:          0 MISS:          0
cpu0_ITLB PREFETCH     ACCESS:          0 HIT:          0 MISS:          0
cpu0_ITLB WRITE        ACCESS:          0 HIT:          0 MISS:          0
cpu0_ITLB TRANSLATION  ACCESS:          0 HIT:          0 MISS:          0
cpu0_ITLB PREFETCH REQUESTED:          0 ISSUED:          0 USEFUL:          0 USELESS:          0
cpu0_ITLB AVERAGE MISS LATENCY: 383.7 cycles
cpu0_L1D TOTAL        ACCESS:  192665558 HIT:  178397915 MISS:   14267643
cpu0_L1D LOAD         ACCESS:  157423442 HIT:  147374598 MISS:   10048844
cpu0_L1D RFO          ACCESS:          0 HIT:          0 MISS:          0
cpu0_L1D PREFETCH     ACCESS:          0 HIT:          0 MISS:          0
cpu0_L1D WRITE        ACCESS:   35194240 HIT:   30993718 MISS:    4200522
cpu0_L1D TRANSLATION  ACCESS:      47876 HIT:      29599 MISS:      18277
cpu0_L1D PREFETCH REQUESTED:          0 ISSUED:          0 USEFUL:          0 USELESS:          0
cpu0_L1D AVERAGE MISS LATENCY: 155.6 cycles
cpu0_L1I TOTAL        ACCESS:     223934 HIT:     221185 MISS:       2749
cpu0_L1I LOAD         ACCESS:     223934 HIT:     221185 MISS:       2749
cpu0_L1I RFO          ACCESS:          0 HIT:          0 MISS:          0
cpu0_L1I PREFETCH     ACCESS:          0 HIT:          0 MISS:          0
cpu0_L1I WRITE        ACCESS:          0 HIT:          0 MISS:          0
cpu0_L1I TRANSLATION  ACCESS:          0 HIT:          0 MISS:          0
cpu0_L1I PREFETCH REQUESTED:          0 ISSUED:          0 USEFUL:          0 USELESS:          0
cpu0_L1I AVERAGE MISS LATENCY: 536.3 cycles
cpu0_L2C TOTAL        ACCESS:    5430650 HIT:    2196035 MISS:    3234615
cpu0_L2C LOAD         ACCESS:    2430325 HIT:     122192 MISS:    2308133
cpu0_L2C RFO          ACCESS:     924059 HIT:       1384 MISS:     922675
cpu0_L2C PREFETCH     ACCESS:          0 HIT:          0 MISS:          0
cpu0_L2C WRITE        ACCESS:    2057993 HIT:    2057651 MISS:        342
cpu0_L2C TRANSLATION  ACCESS:      18273 HIT:      14808 MISS:       3465
cpu0_L2C PREFETCH REQUESTED:          0 ISSUED:          0 USEFUL:          0 USELESS:          0
cpu0_L2C AVERAGE MISS LATENCY: 926.4 cycles
cpu0_STLB TOTAL        ACCESS:     610715 HIT:     562867 MISS:      47848
cpu0_STLB LOAD         ACCESS:     610715 HIT:     562867 MISS:      47848
cpu0_STLB RFO          ACCESS:          0 HIT:          0 MISS:          0
cpu0_STLB PREFETCH     ACCESS:          0 HIT:          0 MISS:          0
cpu0_STLB WRITE        ACCESS:          0 HIT:          0 MISS:          0
cpu0_STLB TRANSLATION  ACCESS:          0 HIT:          0 MISS:          0
cpu0_STLB PREFETCH REQUESTED:          0 ISSUED:          0 USEFUL:          0 USELESS:          0
cpu0_STLB AVERAGE MISS LATENCY: 392 cycles

DRAM Statistics

Channel 0 RQ ROW_BUFFER_HIT:     788257
  ROW_BUFFER_MISS:    1977070
 AVG DBUS CONGESTED CYCLE: 3.973
WQ ROW_BUFFER_HIT: Channel 0 
  ROW_BUFFER_MISS:     689061
  FULL:    1199103
