WARNING: physical memory size is smaller than virtual memory size.

*** ChampSim Multicore Out-of-Order Simulator ***
Warmup Instructions: 50000000
Simulation Instructions: 600000000
Number of CPUs: 1
Page size: 4096

Off-chip DRAM Size: 4 GiB Channels: 1 Width: 64-bit Data Race: 3200 MT/s
Heartbeat CPU 0 instructions: 10000003 cycles: 2881057 heartbeat IPC: 3.471 cumulative IPC: 3.471 (Simulation time: 00 hr 00 min 34 sec)
Heartbeat CPU 0 instructions: 20000003 cycles: 5381057 heartbeat IPC: 4 cumulative IPC: 3.717 (Simulation time: 00 hr 01 min 07 sec)
Heartbeat CPU 0 instructions: 30000003 cycles: 7881057 heartbeat IPC: 4 cumulative IPC: 3.807 (Simulation time: 00 hr 01 min 39 sec)
Heartbeat CPU 0 instructions: 40000003 cycles: 10381057 heartbeat IPC: 4 cumulative IPC: 3.853 (Simulation time: 00 hr 02 min 11 sec)
Heartbeat CPU 0 instructions: 50000003 cycles: 12881057 heartbeat IPC: 4 cumulative IPC: 3.882 (Simulation time: 00 hr 02 min 45 sec)
Warmup finished CPU 0 instructions: 50000003 cycles: 12881058 cumulative IPC: 3.882 (Simulation time: 00 hr 02 min 45 sec)
Warmup complete CPU 0 instructions: 50000003 cycles: 12881058 cumulative IPC: 3.882 (Simulation time: 00 hr 02 min 45 sec)
Heartbeat CPU 0 instructions: 60000000 cycles: 17047127 heartbeat IPC: 2.4 cumulative IPC: 2.4 (Simulation time: 00 hr 03 min 36 sec)
Heartbeat CPU 0 instructions: 70000000 cycles: 21398066 heartbeat IPC: 2.298 cumulative IPC: 2.348 (Simulation time: 00 hr 04 min 29 sec)
Heartbeat CPU 0 instructions: 80000001 cycles: 25644205 heartbeat IPC: 2.355 cumulative IPC: 2.351 (Simulation time: 00 hr 05 min 20 sec)
Heartbeat CPU 0 instructions: 90000003 cycles: 29911814 heartbeat IPC: 2.343 cumulative IPC: 2.349 (Simulation time: 00 hr 06 min 13 sec)
Heartbeat CPU 0 instructions: 100000000 cycles: 33342804 heartbeat IPC: 2.915 cumulative IPC: 2.444 (Simulation time: 00 hr 07 min 01 sec)
Heartbeat CPU 0 instructions: 110000001 cycles: 35923601 heartbeat IPC: 3.875 cumulative IPC: 2.604 (Simulation time: 00 hr 07 min 39 sec)
Heartbeat CPU 0 instructions: 120000001 cycles: 39365623 heartbeat IPC: 2.905 cumulative IPC: 2.643 (Simulation time: 00 hr 08 min 26 sec)
Heartbeat CPU 0 instructions: 130000000 cycles: 42953953 heartbeat IPC: 2.787 cumulative IPC: 2.66 (Simulation time: 00 hr 09 min 16 sec)
Heartbeat CPU 0 instructions: 140000004 cycles: 46596035 heartbeat IPC: 2.746 cumulative IPC: 2.669 (Simulation time: 00 hr 10 min 06 sec)
Heartbeat CPU 0 instructions: 150000000 cycles: 50212873 heartbeat IPC: 2.765 cumulative IPC: 2.679 (Simulation time: 00 hr 10 min 55 sec)
Heartbeat CPU 0 instructions: 160000000 cycles: 53863514 heartbeat IPC: 2.739 cumulative IPC: 2.684 (Simulation time: 00 hr 11 min 44 sec)
Heartbeat CPU 0 instructions: 170000000 cycles: 57513535 heartbeat IPC: 2.74 cumulative IPC: 2.689 (Simulation time: 00 hr 12 min 34 sec)
Heartbeat CPU 0 instructions: 180000002 cycles: 61134950 heartbeat IPC: 2.761 cumulative IPC: 2.694 (Simulation time: 00 hr 13 min 22 sec)
Heartbeat CPU 0 instructions: 190000002 cycles: 64573794 heartbeat IPC: 2.908 cumulative IPC: 2.708 (Simulation time: 00 hr 14 min 09 sec)
Heartbeat CPU 0 instructions: 200000000 cycles: 67830445 heartbeat IPC: 3.071 cumulative IPC: 2.73 (Simulation time: 00 hr 14 min 55 sec)
Heartbeat CPU 0 instructions: 210000000 cycles: 71123616 heartbeat IPC: 3.037 cumulative IPC: 2.747 (Simulation time: 00 hr 15 min 41 sec)
Heartbeat CPU 0 instructions: 220000001 cycles: 74510262 heartbeat IPC: 2.953 cumulative IPC: 2.758 (Simulation time: 00 hr 16 min 24 sec)
Heartbeat CPU 0 instructions: 230000004 cycles: 77801670 heartbeat IPC: 3.038 cumulative IPC: 2.773 (Simulation time: 00 hr 17 min 09 sec)
Heartbeat CPU 0 instructions: 240000003 cycles: 81145173 heartbeat IPC: 2.991 cumulative IPC: 2.783 (Simulation time: 00 hr 17 min 52 sec)
Heartbeat CPU 0 instructions: 250000002 cycles: 84481078 heartbeat IPC: 2.998 cumulative IPC: 2.793 (Simulation time: 00 hr 18 min 36 sec)
Heartbeat CPU 0 instructions: 260000002 cycles: 87572610 heartbeat IPC: 3.235 cumulative IPC: 2.812 (Simulation time: 00 hr 19 min 17 sec)
Heartbeat CPU 0 instructions: 270000003 cycles: 90722599 heartbeat IPC: 3.175 cumulative IPC: 2.826 (Simulation time: 00 hr 20 min 01 sec)
Heartbeat CPU 0 instructions: 280000003 cycles: 94074733 heartbeat IPC: 2.983 cumulative IPC: 2.833 (Simulation time: 00 hr 20 min 44 sec)
Heartbeat CPU 0 instructions: 290000001 cycles: 143994192 heartbeat IPC: 0.2003 cumulative IPC: 1.83 (Simulation time: 00 hr 26 min 19 sec)
Heartbeat CPU 0 instructions: 300000002 cycles: 146499296 heartbeat IPC: 3.992 cumulative IPC: 1.871 (Simulation time: 00 hr 27 min 02 sec)
Heartbeat CPU 0 instructions: 310000001 cycles: 149004340 heartbeat IPC: 3.992 cumulative IPC: 1.91 (Simulation time: 00 hr 27 min 46 sec)
Heartbeat CPU 0 instructions: 320000000 cycles: 151510492 heartbeat IPC: 3.99 cumulative IPC: 1.948 (Simulation time: 00 hr 28 min 30 sec)
Heartbeat CPU 0 instructions: 330000003 cycles: 154015895 heartbeat IPC: 3.991 cumulative IPC: 1.984 (Simulation time: 00 hr 29 min 12 sec)
Heartbeat CPU 0 instructions: 340000000 cycles: 156520967 heartbeat IPC: 3.992 cumulative IPC: 2.019 (Simulation time: 00 hr 29 min 53 sec)
Heartbeat CPU 0 instructions: 350000004 cycles: 159027122 heartbeat IPC: 3.99 cumulative IPC: 2.053 (Simulation time: 00 hr 30 min 35 sec)
Heartbeat CPU 0 instructions: 360000004 cycles: 161533033 heartbeat IPC: 3.991 cumulative IPC: 2.085 (Simulation time: 00 hr 31 min 16 sec)
Heartbeat CPU 0 instructions: 370000000 cycles: 164039771 heartbeat IPC: 3.989 cumulative IPC: 2.117 (Simulation time: 00 hr 31 min 57 sec)
Heartbeat CPU 0 instructions: 380000004 cycles: 166545757 heartbeat IPC: 3.99 cumulative IPC: 2.148 (Simulation time: 00 hr 32 min 40 sec)
Heartbeat CPU 0 instructions: 390000001 cycles: 169050830 heartbeat IPC: 3.992 cumulative IPC: 2.177 (Simulation time: 00 hr 33 min 20 sec)
Heartbeat CPU 0 instructions: 400000003 cycles: 171556240 heartbeat IPC: 3.991 cumulative IPC: 2.206 (Simulation time: 00 hr 34 min 01 sec)
Heartbeat CPU 0 instructions: 410000003 cycles: 174061897 heartbeat IPC: 3.991 cumulative IPC: 2.234 (Simulation time: 00 hr 34 min 41 sec)
Heartbeat CPU 0 instructions: 420000002 cycles: 176567597 heartbeat IPC: 3.991 cumulative IPC: 2.26 (Simulation time: 00 hr 35 min 22 sec)
Heartbeat CPU 0 instructions: 430000000 cycles: 179072670 heartbeat IPC: 3.992 cumulative IPC: 2.287 (Simulation time: 00 hr 36 min 03 sec)
Heartbeat CPU 0 instructions: 440000001 cycles: 181577841 heartbeat IPC: 3.992 cumulative IPC: 2.312 (Simulation time: 00 hr 36 min 40 sec)
Heartbeat CPU 0 instructions: 450000000 cycles: 184083023 heartbeat IPC: 3.992 cumulative IPC: 2.336 (Simulation time: 00 hr 37 min 18 sec)
Heartbeat CPU 0 instructions: 460000003 cycles: 186588061 heartbeat IPC: 3.992 cumulative IPC: 2.36 (Simulation time: 00 hr 37 min 56 sec)
Heartbeat CPU 0 instructions: 470000001 cycles: 189094931 heartbeat IPC: 3.989 cumulative IPC: 2.383 (Simulation time: 00 hr 38 min 34 sec)
Heartbeat CPU 0 instructions: 480000003 cycles: 191600053 heartbeat IPC: 3.992 cumulative IPC: 2.406 (Simulation time: 00 hr 39 min 13 sec)
Heartbeat CPU 0 instructions: 490000003 cycles: 194105128 heartbeat IPC: 3.992 cumulative IPC: 2.428 (Simulation time: 00 hr 39 min 53 sec)
Heartbeat CPU 0 instructions: 500000002 cycles: 196612244 heartbeat IPC: 3.989 cumulative IPC: 2.449 (Simulation time: 00 hr 40 min 32 sec)
Heartbeat CPU 0 instructions: 510000003 cycles: 204374201 heartbeat IPC: 1.288 cumulative IPC: 2.402 (Simulation time: 00 hr 42 min 02 sec)
Heartbeat CPU 0 instructions: 520000001 cycles: 298987199 heartbeat IPC: 0.1057 cumulative IPC: 1.643 (Simulation time: 00 hr 55 min 08 sec)
Heartbeat CPU 0 instructions: 530000004 cycles: 380990394 heartbeat IPC: 0.1219 cumulative IPC: 1.304 (Simulation time: 01 hr 05 min 47 sec)
Heartbeat CPU 0 instructions: 540000000 cycles: 418385184 heartbeat IPC: 0.2674 cumulative IPC: 1.208 (Simulation time: 01 hr 11 min 13 sec)
Heartbeat CPU 0 instructions: 550000004 cycles: 455699303 heartbeat IPC: 0.268 cumulative IPC: 1.129 (Simulation time: 01 hr 16 min 56 sec)
Heartbeat CPU 0 instructions: 560000004 cycles: 492698566 heartbeat IPC: 0.2703 cumulative IPC: 1.063 (Simulation time: 01 hr 22 min 26 sec)
Heartbeat CPU 0 instructions: 570000000 cycles: 529509087 heartbeat IPC: 0.2717 cumulative IPC: 1.007 (Simulation time: 01 hr 27 min 58 sec)
Heartbeat CPU 0 instructions: 580000001 cycles: 567861050 heartbeat IPC: 0.2607 cumulative IPC: 0.955 (Simulation time: 01 hr 33 min 44 sec)
Heartbeat CPU 0 instructions: 590000004 cycles: 607090837 heartbeat IPC: 0.2549 cumulative IPC: 0.9088 (Simulation time: 01 hr 39 min 38 sec)
*** Reached end of trace: (0, "traces/sp.A.champsimtrace")
Heartbeat CPU 0 instructions: 600000001 cycles: 645533876 heartbeat IPC: 0.2601 cumulative IPC: 0.8694 (Simulation time: 01 hr 44 min 59 sec)
Heartbeat CPU 0 instructions: 610000000 cycles: 670919700 heartbeat IPC: 0.3939 cumulative IPC: 0.851 (Simulation time: 01 hr 47 min 46 sec)
Heartbeat CPU 0 instructions: 620000001 cycles: 674195333 heartbeat IPC: 3.053 cumulative IPC: 0.8619 (Simulation time: 01 hr 48 min 32 sec)
Heartbeat CPU 0 instructions: 630000003 cycles: 678500767 heartbeat IPC: 2.323 cumulative IPC: 0.8714 (Simulation time: 01 hr 49 min 27 sec)
Heartbeat CPU 0 instructions: 640000004 cycles: 682866138 heartbeat IPC: 2.291 cumulative IPC: 0.8806 (Simulation time: 01 hr 50 min 19 sec)
Heartbeat CPU 0 instructions: 650000001 cycles: 687234647 heartbeat IPC: 2.289 cumulative IPC: 0.8897 (Simulation time: 01 hr 51 min 10 sec)
Simulation finished CPU 0 instructions: 600000003 cycles: 674353591 cumulative IPC: 0.8897 (Simulation time: 01 hr 51 min 10 sec)
Simulation complete CPU 0 instructions: 600000003 cycles: 674353591 cumulative IPC: 0.8897 (Simulation time: 01 hr 51 min 10 sec)

ChampSim completed all CPUs

=== Simulation ===
CPU 0 runs traces/sp.A.champsimtrace
Region of Interest Statistics

CPU 0 cumulative IPC: 0.8897 instructions: 600000003 cycles: 674353591
CPU 0 Branch Prediction Accuracy: 98.84% MPKI: 0.2406 Average ROB Occupancy at Mispredict: 221.1
Branch type MPKI
BRANCH_DIRECT_JUMP: 5e-06
BRANCH_INDIRECT: 7.5e-05
BRANCH_CONDITIONAL: 0.24
BRANCH_DIRECT_CALL: 2e-05
BRANCH_INDIRECT_CALL: 3.17e-05
BRANCH_RETURN: 3.67e-05

LLC TOTAL        ACCESS:    7577682 HIT:    1585909 MISS:    5991773
LLC LOAD         ACCESS:    2303655 HIT:     881652 MISS:    1422003
LLC RFO          ACCESS:     922634 HIT:      27839 MISS:     894795
LLC PREFETCH     ACCESS:    2303655 HIT:     276422 MISS:    2027233
LLC WRITE        ACCESS:    2044262 HIT:     399811 MISS:    1644451
LLC TRANSLATION  ACCESS:       3476 HIT:        185 MISS:       3291
LLC PREFETCH REQUESTED:    2303655 ISSUED:    2303655 USEFUL:    1603751 USELESS:      49341
LLC AVERAGE MISS LATENCY: 789.3 cycles
cpu0_DTLB TOTAL        ACCESS:  127247066 HIT:  126433360 MISS:     813706
cpu0_DTLB LOAD         ACCESS:  127247066 HIT:  126433360 MISS:     813706
cpu0_DTLB RFO          ACCESS:          0 HIT:          0 MISS:          0
cpu0_DTLB PREFETCH     ACCESS:          0 HIT:          0 MISS:          0
cpu0_DTLB WRITE        ACCESS:          0 HIT:          0 MISS:          0
cpu0_DTLB TRANSLATION  ACCESS:          0 HIT:          0 MISS:          0
cpu0_DTLB PREFETCH REQUESTED:          0 ISSUED:          0 USEFUL:          0 USELESS:          0
cpu0_DTLB AVERAGE MISS LATENCY: 19.84 cycles
cpu0_ITLB TOTAL        ACCESS:     217386 HIT:     217166 MISS:        220
cpu0_ITLB LOAD         ACCESS:     217386 HIT:     217166 MISS:        220
cpu0_ITLB RFO          ACCESS:          0 HIT:          0 MISS:          0
cpu0_ITLB PREFETCH     ACCESS:          0 HIT:          0 MISS:          0
cpu0_ITLB WRITE        ACCESS:          0 HIT:          0 MISS:          0
cpu0_ITLB TRANSLATION  ACCESS:          0 HIT:          0 MISS:          0
cpu0_ITLB PREFETCH REQUESTED:          0 ISSUED:          0 USEFUL:          0 USELESS:          0
cpu0_ITLB AVERAGE MISS LATENCY: 383.9 cycles
cpu0_L1D TOTAL        ACCESS:  193158118 HIT:  178989033 MISS:   14169085
cpu0_L1D LOAD         ACCESS:  157916006 HIT:  147954205 MISS:    9961801
cpu0_L1D RFO          ACCESS:          0 HIT:          0 MISS:          0
cpu0_L1D PREFETCH     ACCESS:          0 HIT:          0 MISS:          0
cpu0_L1D WRITE        ACCESS:   35194233 HIT:   31005208 MISS:    4189025
cpu0_L1D TRANSLATION  ACCESS:      47879 HIT:      29620 MISS:      18259
cpu0_L1D PREFETCH REQUESTED:          0 ISSUED:          0 USEFUL:          0 USELESS:          0
cpu0_L1D AVERAGE MISS LATENCY: 162.8 cycles
cpu0_L1I TOTAL        ACCESS:     224871 HIT:     222092 MISS:       2779
cpu0_L1I LOAD         ACCESS:     224871 HIT:     222092 MISS:       2779
cpu0_L1I RFO          ACCESS:          0 HIT:          0 MISS:          0
cpu0_L1I PREFETCH     ACCESS:          0 HIT:          0 MISS:          0
cpu0_L1I WRITE        ACCESS:          0 HIT:          0 MISS:          0
cpu0_L1I TRANSLATION  ACCESS:          0 HIT:          0 MISS:          0
cpu0_L1I PREFETCH REQUESTED:          0 ISSUED:          0 USEFUL:          0 USELESS:          0
cpu0_L1I AVERAGE MISS LATENCY: 518.8 cycles
cpu0_L2C TOTAL        ACCESS:    5428782 HIT:    2198611 MISS:    3230171
cpu0_L2C LOAD         ACCESS:    2431201 HIT:     127510 MISS:    2303691
cpu0_L2C RFO          ACCESS:     923193 HIT:        559 MISS:     922634
cpu0_L2C PREFETCH     ACCESS:          0 HIT:          0 MISS:          0
cpu0_L2C WRITE        ACCESS:    2056131 HIT:    2055761 MISS:        370
cpu0_L2C TRANSLATION  ACCESS:      18257 HIT:      14781 MISS:       3476
cpu0_L2C PREFETCH REQUESTED:          0 ISSUED:          0 USEFUL:          0 USELESS:          0
cpu0_L2C AVERAGE MISS LATENCY: 979.9 cycles
cpu0_STLB TOTAL        ACCESS:     564723 HIT:     516874 MISS:      47849
cpu0_STLB LOAD         ACCESS:     564723 HIT:     516874 MISS:      47849
cpu0_STLB RFO          ACCESS:          0 HIT:          0 MISS:          0
cpu0_STLB PREFETCH     ACCESS:          0 HIT:          0 MISS:          0
cpu0_STLB WRITE        ACCESS:          0 HIT:          0 MISS:          0
cpu0_STLB TRANSLATION  ACCESS:          0 HIT:          0 MISS:          0
cpu0_STLB PREFETCH REQUESTED:          0 ISSUED:          0 USEFUL:          0 USELESS:          0
cpu0_STLB AVERAGE MISS LATENCY: 387.7 cycles

DRAM Statistics

Channel 0 RQ ROW_BUFFER_HIT:     798699
  ROW_BUFFER_MISS:    2156249
 AVG DBUS CONGESTED CYCLE: 3.975
WQ ROW_BUFFER_HIT: Channel 0 
  ROW_BUFFER_MISS:     602119
  FULL:    1307525
