WARNING: physical memory size is smaller than virtual memory size.

*** ChampSim Multicore Out-of-Order Simulator ***
Warmup Instructions: 50000000
Simulation Instructions: 600000000
Number of CPUs: 1
Page size: 4096

Off-chip DRAM Size: 4 GiB Channels: 1 Width: 64-bit Data Race: 3200 MT/s
Heartbeat CPU 0 instructions: 10000003 cycles: 2881057 heartbeat IPC: 3.471 cumulative IPC: 3.471 (Simulation time: 00 hr 00 min 23 sec)
Heartbeat CPU 0 instructions: 20000003 cycles: 5381057 heartbeat IPC: 4 cumulative IPC: 3.717 (Simulation time: 00 hr 00 min 53 sec)
Heartbeat CPU 0 instructions: 30000003 cycles: 7881057 heartbeat IPC: 4 cumulative IPC: 3.807 (Simulation time: 00 hr 01 min 30 sec)
Heartbeat CPU 0 instructions: 40000003 cycles: 10381057 heartbeat IPC: 4 cumulative IPC: 3.853 (Simulation time: 00 hr 02 min 10 sec)
Heartbeat CPU 0 instructions: 50000003 cycles: 12881057 heartbeat IPC: 4 cumulative IPC: 3.882 (Simulation time: 00 hr 02 min 50 sec)
Warmup finished CPU 0 instructions: 50000003 cycles: 12881058 cumulative IPC: 3.882 (Simulation time: 00 hr 02 min 50 sec)
Warmup complete CPU 0 instructions: 50000003 cycles: 12881058 cumulative IPC: 3.882 (Simulation time: 00 hr 02 min 50 sec)
Heartbeat CPU 0 instructions: 60000000 cycles: 19029985 heartbeat IPC: 1.626 cumulative IPC: 1.626 (Simulation time: 00 hr 04 min 07 sec)
Heartbeat CPU 0 instructions: 70000000 cycles: 25184182 heartbeat IPC: 1.625 cumulative IPC: 1.626 (Simulation time: 00 hr 05 min 24 sec)
Heartbeat CPU 0 instructions: 80000001 cycles: 31328670 heartbeat IPC: 1.627 cumulative IPC: 1.626 (Simulation time: 00 hr 06 min 45 sec)
Heartbeat CPU 0 instructions: 90000003 cycles: 37468117 heartbeat IPC: 1.629 cumulative IPC: 1.627 (Simulation time: 00 hr 08 min 05 sec)
Heartbeat CPU 0 instructions: 100000000 cycles: 41689014 heartbeat IPC: 2.369 cumulative IPC: 1.736 (Simulation time: 00 hr 09 min 05 sec)
Heartbeat CPU 0 instructions: 110000001 cycles: 44666946 heartbeat IPC: 3.358 cumulative IPC: 1.888 (Simulation time: 00 hr 09 min 53 sec)
Heartbeat CPU 0 instructions: 120000001 cycles: 51229169 heartbeat IPC: 1.524 cumulative IPC: 1.825 (Simulation time: 00 hr 11 min 09 sec)
Heartbeat CPU 0 instructions: 130000002 cycles: 58248682 heartbeat IPC: 1.425 cumulative IPC: 1.763 (Simulation time: 00 hr 12 min 29 sec)
Heartbeat CPU 0 instructions: 140000004 cycles: 65366185 heartbeat IPC: 1.405 cumulative IPC: 1.715 (Simulation time: 00 hr 13 min 46 sec)
Heartbeat CPU 0 instructions: 150000000 cycles: 72326008 heartbeat IPC: 1.437 cumulative IPC: 1.682 (Simulation time: 00 hr 15 min 00 sec)
Heartbeat CPU 0 instructions: 160000003 cycles: 79323344 heartbeat IPC: 1.429 cumulative IPC: 1.656 (Simulation time: 00 hr 16 min 16 sec)
Heartbeat CPU 0 instructions: 170000001 cycles: 86324015 heartbeat IPC: 1.428 cumulative IPC: 1.634 (Simulation time: 00 hr 17 min 34 sec)
Heartbeat CPU 0 instructions: 180000002 cycles: 93275747 heartbeat IPC: 1.438 cumulative IPC: 1.617 (Simulation time: 00 hr 18 min 52 sec)
Heartbeat CPU 0 instructions: 190000002 cycles: 100004157 heartbeat IPC: 1.486 cumulative IPC: 1.607 (Simulation time: 00 hr 20 min 09 sec)
Heartbeat CPU 0 instructions: 200000000 cycles: 106015015 heartbeat IPC: 1.664 cumulative IPC: 1.611 (Simulation time: 00 hr 21 min 26 sec)
Heartbeat CPU 0 instructions: 210000001 cycles: 112083074 heartbeat IPC: 1.648 cumulative IPC: 1.613 (Simulation time: 00 hr 22 min 41 sec)
Heartbeat CPU 0 instructions: 220000001 cycles: 118073713 heartbeat IPC: 1.669 cumulative IPC: 1.616 (Simulation time: 00 hr 23 min 54 sec)
Heartbeat CPU 0 instructions: 230000004 cycles: 124158235 heartbeat IPC: 1.644 cumulative IPC: 1.618 (Simulation time: 00 hr 25 min 06 sec)
Heartbeat CPU 0 instructions: 240000003 cycles: 130191369 heartbeat IPC: 1.658 cumulative IPC: 1.62 (Simulation time: 00 hr 26 min 16 sec)
Heartbeat CPU 0 instructions: 250000002 cycles: 136219300 heartbeat IPC: 1.659 cumulative IPC: 1.622 (Simulation time: 00 hr 27 min 24 sec)
Heartbeat CPU 0 instructions: 260000002 cycles: 142262846 heartbeat IPC: 1.655 cumulative IPC: 1.623 (Simulation time: 00 hr 28 min 29 sec)
Heartbeat CPU 0 instructions: 270000003 cycles: 148312106 heartbeat IPC: 1.653 cumulative IPC: 1.624 (Simulation time: 00 hr 29 min 33 sec)
Heartbeat CPU 0 instructions: 280000000 cycles: 154380759 heartbeat IPC: 1.648 cumulative IPC: 1.625 (Simulation time: 00 hr 30 min 38 sec)
Heartbeat CPU 0 instructions: 290000001 cycles: 204391736 heartbeat IPC: 0.2 cumulative IPC: 1.253 (Simulation time: 00 hr 36 min 03 sec)
Heartbeat CPU 0 instructions: 300000002 cycles: 206896840 heartbeat IPC: 3.992 cumulative IPC: 1.289 (Simulation time: 00 hr 36 min 39 sec)
Heartbeat CPU 0 instructions: 310000001 cycles: 209401885 heartbeat IPC: 3.992 cumulative IPC: 1.323 (Simulation time: 00 hr 37 min 16 sec)
Heartbeat CPU 0 instructions: 320000000 cycles: 211906999 heartbeat IPC: 3.992 cumulative IPC: 1.357 (Simulation time: 00 hr 37 min 53 sec)
Heartbeat CPU 0 instructions: 330000003 cycles: 214412084 heartbeat IPC: 3.992 cumulative IPC: 1.389 (Simulation time: 00 hr 38 min 30 sec)
Heartbeat CPU 0 instructions: 340000000 cycles: 216917752 heartbeat IPC: 3.991 cumulative IPC: 1.421 (Simulation time: 00 hr 39 min 09 sec)
Heartbeat CPU 0 instructions: 350000004 cycles: 219422845 heartbeat IPC: 3.992 cumulative IPC: 1.452 (Simulation time: 00 hr 39 min 49 sec)
Heartbeat CPU 0 instructions: 360000004 cycles: 221928841 heartbeat IPC: 3.99 cumulative IPC: 1.483 (Simulation time: 00 hr 40 min 30 sec)
Heartbeat CPU 0 instructions: 370000000 cycles: 224435046 heartbeat IPC: 3.99 cumulative IPC: 1.513 (Simulation time: 00 hr 41 min 11 sec)
Heartbeat CPU 0 instructions: 380000004 cycles: 226942575 heartbeat IPC: 3.988 cumulative IPC: 1.542 (Simulation time: 00 hr 41 min 59 sec)
Heartbeat CPU 0 instructions: 390000001 cycles: 229447831 heartbeat IPC: 3.992 cumulative IPC: 1.57 (Simulation time: 00 hr 42 min 46 sec)
Heartbeat CPU 0 instructions: 400000003 cycles: 231953899 heartbeat IPC: 3.99 cumulative IPC: 1.598 (Simulation time: 00 hr 43 min 29 sec)
Heartbeat CPU 0 instructions: 410000003 cycles: 234459858 heartbeat IPC: 3.99 cumulative IPC: 1.625 (Simulation time: 00 hr 44 min 13 sec)
Heartbeat CPU 0 instructions: 420000002 cycles: 236965588 heartbeat IPC: 3.991 cumulative IPC: 1.651 (Simulation time: 00 hr 44 min 58 sec)
Heartbeat CPU 0 instructions: 430000000 cycles: 239471572 heartbeat IPC: 3.99 cumulative IPC: 1.677 (Simulation time: 00 hr 45 min 45 sec)
Heartbeat CPU 0 instructions: 440000001 cycles: 241977931 heartbeat IPC: 3.99 cumulative IPC: 1.702 (Simulation time: 00 hr 46 min 35 sec)
Heartbeat CPU 0 instructions: 450000000 cycles: 244483136 heartbeat IPC: 3.992 cumulative IPC: 1.727 (Simulation time: 00 hr 47 min 20 sec)
Heartbeat CPU 0 instructions: 460000003 cycles: 246989059 heartbeat IPC: 3.991 cumulative IPC: 1.751 (Simulation time: 00 hr 48 min 09 sec)
Heartbeat CPU 0 instructions: 470000001 cycles: 249495124 heartbeat IPC: 3.99 cumulative IPC: 1.775 (Simulation time: 00 hr 48 min 53 sec)
Heartbeat CPU 0 instructions: 480000003 cycles: 252000197 heartbeat IPC: 3.992 cumulative IPC: 1.798 (Simulation time: 00 hr 49 min 36 sec)
Heartbeat CPU 0 instructions: 490000003 cycles: 254506163 heartbeat IPC: 3.99 cumulative IPC: 1.821 (Simulation time: 00 hr 50 min 21 sec)
Heartbeat CPU 0 instructions: 500000002 cycles: 257011792 heartbeat IPC: 3.991 cumulative IPC: 1.843 (Simulation time: 00 hr 51 min 03 sec)
Heartbeat CPU 0 instructions: 510000003 cycles: 264710901 heartbeat IPC: 1.299 cumulative IPC: 1.827 (Simulation time: 00 hr 52 min 29 sec)
Heartbeat CPU 0 instructions: 520000001 cycles: 357761581 heartbeat IPC: 0.1075 cumulative IPC: 1.363 (Simulation time: 01 hr 06 min 15 sec)
Heartbeat CPU 0 instructions: 530000004 cycles: 434225471 heartbeat IPC: 0.1308 cumulative IPC: 1.139 (Simulation time: 01 hr 17 min 59 sec)
Heartbeat CPU 0 instructions: 540000000 cycles: 471023342 heartbeat IPC: 0.2718 cumulative IPC: 1.07 (Simulation time: 01 hr 24 min 11 sec)
Heartbeat CPU 0 instructions: 550000002 cycles: 507724968 heartbeat IPC: 0.2725 cumulative IPC: 1.01 (Simulation time: 01 hr 29 min 59 sec)
Heartbeat CPU 0 instructions: 560000004 cycles: 544365120 heartbeat IPC: 0.2729 cumulative IPC: 0.9596 (Simulation time: 01 hr 36 min 23 sec)
Heartbeat CPU 0 instructions: 570000000 cycles: 581894344 heartbeat IPC: 0.2665 cumulative IPC: 0.9139 (Simulation time: 01 hr 42 min 37 sec)
Heartbeat CPU 0 instructions: 580000001 cycles: 621486454 heartbeat IPC: 0.2526 cumulative IPC: 0.8708 (Simulation time: 01 hr 48 min 33 sec)
Heartbeat CPU 0 instructions: 590000004 cycles: 661991046 heartbeat IPC: 0.2469 cumulative IPC: 0.8319 (Simulation time: 01 hr 54 min 15 sec)
*** Reached end of trace: (0, "traces/sp.A.champsimtrace")
Heartbeat CPU 0 instructions: 600000002 cycles: 701419712 heartbeat IPC: 0.2536 cumulative IPC: 0.7988 (Simulation time: 01 hr 59 min 39 sec)
Heartbeat CPU 0 instructions: 610000000 cycles: 726403592 heartbeat IPC: 0.4003 cumulative IPC: 0.7848 (Simulation time: 02 hr 02 min 15 sec)
Heartbeat CPU 0 instructions: 620000001 cycles: 730130335 heartbeat IPC: 2.683 cumulative IPC: 0.7947 (Simulation time: 02 hr 03 min 04 sec)
Heartbeat CPU 0 instructions: 630000003 cycles: 736217509 heartbeat IPC: 1.643 cumulative IPC: 0.8018 (Simulation time: 02 hr 04 min 11 sec)
Heartbeat CPU 0 instructions: 640000004 cycles: 742369720 heartbeat IPC: 1.625 cumulative IPC: 0.8088 (Simulation time: 02 hr 05 min 23 sec)
Heartbeat CPU 0 instructions: 650000001 cycles: 748489202 heartbeat IPC: 1.634 cumulative IPC: 0.8157 (Simulation time: 02 hr 06 min 29 sec)
Simulation finished CPU 0 instructions: 600000003 cycles: 735608146 cumulative IPC: 0.8157 (Simulation time: 02 hr 06 min 29 sec)
Simulation complete CPU 0 instructions: 600000003 cycles: 735608146 cumulative IPC: 0.8157 (Simulation time: 02 hr 06 min 29 sec)

ChampSim completed all CPUs

=== Simulation ===
CPU 0 runs traces/sp.A.champsimtrace
Region of Interest Statistics

CPU 0 cumulative IPC: 0.8157 instructions: 600000003 cycles: 735608146
CPU 0 Branch Prediction Accuracy: 98.84% MPKI: 0.2406 Average ROB Occupancy at Mispredict: 224.2
Branch type MPKI
BRANCH_DIRECT_JUMP: 5e-06
BRANCH_INDIRECT: 7.5e-05
BRANCH_CONDITIONAL: 0.24
BRANCH_DIRECT_CALL: 2e-05
BRANCH_INDIRECT_CALL: 3.17e-05
BRANCH_RETURN: 3.67e-05

LLC TOTAL        ACCESS:    5274088 HIT:     496206 MISS:    4777882
LLC LOAD         ACCESS:    2303715 HIT:     247491 MISS:    2056224
LLC RFO          ACCESS:     922635 HIT:      28574 MISS:     894061
LLC PREFETCH     ACCESS:          0 HIT:          0 MISS:          0
LLC WRITE        ACCESS:    2044263 HIT:     220012 MISS:    1824251
LLC TRANSLATION  ACCESS:       3475 HIT:        129 MISS:       3346
LLC PREFETCH REQUESTED:          0 ISSUED:          0 USEFUL:          0 USELESS:          0
LLC AVERAGE MISS LATENCY: 736.8 cycles
cpu0_DTLB TOTAL        ACCESS:  125996383 HIT:  125167520 MISS:     828863
cpu0_DTLB LOAD         ACCESS:  125996383 HIT:  125167520 MISS:     828863
cpu0_DTLB RFO          ACCESS:          0 HIT:          0 MISS:          0
cpu0_DTLB PREFETCH     ACCESS:          0 HIT:          0 MISS:          0
cpu0_DTLB WRITE        ACCESS:          0 HIT:          0 MISS:          0
cpu0_DTLB TRANSLATION  ACCESS:          0 HIT:          0 MISS:          0
cpu0_DTLB PREFETCH REQUESTED:          0 ISSUED:          0 USEFUL:          0 USELESS:          0
cpu0_DTLB AVERAGE MISS LATENCY: 20.52 cycles
cpu0_ITLB TOTAL        ACCESS:     224832 HIT:     224613 MISS:        219
cpu0_ITLB LOAD         ACCESS:     224832 HIT:     224613 MISS:        219
cpu0_ITLB RFO          ACCESS:          0 HIT:          0 MISS:          0
cpu0_ITLB PREFETCH     ACCESS:          0 HIT:          0 MISS:          0
cpu0_ITLB WRITE        ACCESS:          0 HIT:          0 MISS:          0
cpu0_ITLB TRANSLATION  ACCESS:          0 HIT:          0 MISS:          0
cpu0_ITLB PREFETCH REQUESTED:          0 ISSUED:          0 USEFUL:          0 USELESS:          0
cpu0_ITLB AVERAGE MISS LATENCY: 294.7 cycles
cpu0_L1D TOTAL        ACCESS:  191231982 HIT:  176437537 MISS:   14794445
cpu0_L1D LOAD         ACCESS:  155989879 HIT:  145315228 MISS:   10674651
cpu0_L1D RFO          ACCESS:          0 HIT:          0 MISS:          0
cpu0_L1D PREFETCH     ACCESS:          0 HIT:          0 MISS:          0
cpu0_L1D WRITE        ACCESS:   35194223 HIT:   31092710 MISS:    4101513
cpu0_L1D TRANSLATION  ACCESS:      47880 HIT:      29599 MISS:      18281
cpu0_L1D PREFETCH REQUESTED:          0 ISSUED:          0 USEFUL:          0 USELESS:          0
cpu0_L1D AVERAGE MISS LATENCY: 174 cycles
cpu0_L1I TOTAL        ACCESS:     233191 HIT:     230391 MISS:       2800
cpu0_L1I LOAD         ACCESS:     233191 HIT:     230391 MISS:       2800
cpu0_L1I RFO          ACCESS:          0 HIT:          0 MISS:          0
cpu0_L1I PREFETCH     ACCESS:          0 HIT:          0 MISS:          0
cpu0_L1I WRITE        ACCESS:          0 HIT:          0 MISS:          0
cpu0_L1I TRANSLATION  ACCESS:          0 HIT:          0 MISS:          0
cpu0_L1I PREFETCH REQUESTED:          0 ISSUED:          0 USEFUL:          0 USELESS:          0
cpu0_L1I AVERAGE MISS LATENCY: 513.6 cycles
cpu0_L2C TOTAL        ACCESS:    5442611 HIT:    2212409 MISS:    3230202
cpu0_L2C LOAD         ACCESS:    2444991 HIT:     141269 MISS:    2303722
cpu0_L2C RFO          ACCESS:     923203 HIT:        568 MISS:     922635
cpu0_L2C PREFETCH     ACCESS:          0 HIT:          0 MISS:          0
cpu0_L2C WRITE        ACCESS:    2056137 HIT:    2055767 MISS:        370
cpu0_L2C TRANSLATION  ACCESS:      18280 HIT:      14805 MISS:       3475
cpu0_L2C PREFETCH REQUESTED:          0 ISSUED:          0 USEFUL:          0 USELESS:          0
cpu0_L2C AVERAGE MISS LATENCY: 1111 cycles
cpu0_STLB TOTAL        ACCESS:     576202 HIT:     528351 MISS:      47851
cpu0_STLB LOAD         ACCESS:     576202 HIT:     528351 MISS:      47851
cpu0_STLB RFO          ACCESS:          0 HIT:          0 MISS:          0
cpu0_STLB PREFETCH     ACCESS:          0 HIT:          0 MISS:          0
cpu0_STLB WRITE        ACCESS:          0 HIT:          0 MISS:          0
cpu0_STLB TRANSLATION  ACCESS:          0 HIT:          0 MISS:          0
cpu0_STLB PREFETCH REQUESTED:          0 ISSUED:          0 USEFUL:          0 USELESS:          0
cpu0_STLB AVERAGE MISS LATENCY: 370.8 cycles

DRAM Statistics

Channel 0 RQ ROW_BUFFER_HIT:     736428
  ROW_BUFFER_MISS:    2160335
 AVG DBUS CONGESTED CYCLE: 3.97
WQ ROW_BUFFER_HIT: Channel 0 
  ROW_BUFFER_MISS:     627330
  FULL:    1228109
