WARNING: physical memory size is smaller than virtual memory size.

*** ChampSim Multicore Out-of-Order Simulator ***
Warmup Instructions: 50000000
Simulation Instructions: 600000000
Number of CPUs: 1
Page size: 4096

Off-chip DRAM Size: 4 GiB Channels: 1 Width: 64-bit Data Race: 3200 MT/s
Heartbeat CPU 0 instructions: 10000000 cycles: 2881055 heartbeat IPC: 3.471 cumulative IPC: 3.471 (Simulation time: 00 hr 00 min 35 sec)
Heartbeat CPU 0 instructions: 20000000 cycles: 5381055 heartbeat IPC: 4 cumulative IPC: 3.717 (Simulation time: 00 hr 01 min 08 sec)
Heartbeat CPU 0 instructions: 30000000 cycles: 7881055 heartbeat IPC: 4 cumulative IPC: 3.807 (Simulation time: 00 hr 01 min 41 sec)
Heartbeat CPU 0 instructions: 40000000 cycles: 10381055 heartbeat IPC: 4 cumulative IPC: 3.853 (Simulation time: 00 hr 02 min 16 sec)
Heartbeat CPU 0 instructions: 50000000 cycles: 12881055 heartbeat IPC: 4 cumulative IPC: 3.882 (Simulation time: 00 hr 02 min 50 sec)
Warmup finished CPU 0 instructions: 50000000 cycles: 12881056 cumulative IPC: 3.882 (Simulation time: 00 hr 02 min 50 sec)
Warmup complete CPU 0 instructions: 50000000 cycles: 12881056 cumulative IPC: 3.882 (Simulation time: 00 hr 02 min 50 sec)
Heartbeat CPU 0 instructions: 60000000 cycles: 19822615 heartbeat IPC: 1.441 cumulative IPC: 1.441 (Simulation time: 00 hr 04 min 06 sec)
Heartbeat CPU 0 instructions: 70000000 cycles: 26793193 heartbeat IPC: 1.435 cumulative IPC: 1.438 (Simulation time: 00 hr 05 min 22 sec)
Heartbeat CPU 0 instructions: 80000001 cycles: 33691613 heartbeat IPC: 1.45 cumulative IPC: 1.442 (Simulation time: 00 hr 06 min 36 sec)
Heartbeat CPU 0 instructions: 90000003 cycles: 40661679 heartbeat IPC: 1.435 cumulative IPC: 1.44 (Simulation time: 00 hr 07 min 49 sec)
Heartbeat CPU 0 instructions: 100000000 cycles: 47789785 heartbeat IPC: 1.403 cumulative IPC: 1.432 (Simulation time: 00 hr 09 min 01 sec)
Heartbeat CPU 0 instructions: 110000001 cycles: 54942468 heartbeat IPC: 1.398 cumulative IPC: 1.426 (Simulation time: 00 hr 10 min 13 sec)
Heartbeat CPU 0 instructions: 120000001 cycles: 62113499 heartbeat IPC: 1.394 cumulative IPC: 1.422 (Simulation time: 00 hr 11 min 24 sec)
Heartbeat CPU 0 instructions: 130000002 cycles: 69226481 heartbeat IPC: 1.406 cumulative IPC: 1.42 (Simulation time: 00 hr 12 min 36 sec)
Heartbeat CPU 0 instructions: 140000004 cycles: 76421345 heartbeat IPC: 1.39 cumulative IPC: 1.416 (Simulation time: 00 hr 13 min 48 sec)
Heartbeat CPU 0 instructions: 150000000 cycles: 83569249 heartbeat IPC: 1.399 cumulative IPC: 1.415 (Simulation time: 00 hr 15 min 00 sec)
Heartbeat CPU 0 instructions: 160000001 cycles: 90754018 heartbeat IPC: 1.392 cumulative IPC: 1.413 (Simulation time: 00 hr 16 min 14 sec)
Heartbeat CPU 0 instructions: 170000001 cycles: 97907539 heartbeat IPC: 1.398 cumulative IPC: 1.411 (Simulation time: 00 hr 17 min 28 sec)
Heartbeat CPU 0 instructions: 180000002 cycles: 105088797 heartbeat IPC: 1.393 cumulative IPC: 1.41 (Simulation time: 00 hr 18 min 42 sec)
Heartbeat CPU 0 instructions: 190000002 cycles: 111924908 heartbeat IPC: 1.463 cumulative IPC: 1.414 (Simulation time: 00 hr 19 min 53 sec)
Heartbeat CPU 0 instructions: 200000000 cycles: 118124349 heartbeat IPC: 1.613 cumulative IPC: 1.425 (Simulation time: 00 hr 21 min 01 sec)
Heartbeat CPU 0 instructions: 210000003 cycles: 124821415 heartbeat IPC: 1.493 cumulative IPC: 1.429 (Simulation time: 00 hr 22 min 12 sec)
Heartbeat CPU 0 instructions: 220000001 cycles: 131802040 heartbeat IPC: 1.433 cumulative IPC: 1.43 (Simulation time: 00 hr 23 min 25 sec)
Heartbeat CPU 0 instructions: 230000004 cycles: 138942064 heartbeat IPC: 1.401 cumulative IPC: 1.428 (Simulation time: 00 hr 24 min 37 sec)
Heartbeat CPU 0 instructions: 240000001 cycles: 146120378 heartbeat IPC: 1.393 cumulative IPC: 1.426 (Simulation time: 00 hr 25 min 50 sec)
Heartbeat CPU 0 instructions: 250000002 cycles: 153353355 heartbeat IPC: 1.383 cumulative IPC: 1.424 (Simulation time: 00 hr 27 min 03 sec)
Heartbeat CPU 0 instructions: 260000002 cycles: 160569024 heartbeat IPC: 1.386 cumulative IPC: 1.422 (Simulation time: 00 hr 28 min 17 sec)
Heartbeat CPU 0 instructions: 270000003 cycles: 167807939 heartbeat IPC: 1.381 cumulative IPC: 1.42 (Simulation time: 00 hr 29 min 30 sec)
Heartbeat CPU 0 instructions: 280000000 cycles: 175048136 heartbeat IPC: 1.381 cumulative IPC: 1.418 (Simulation time: 00 hr 30 min 42 sec)
Heartbeat CPU 0 instructions: 290000001 cycles: 238632346 heartbeat IPC: 0.1573 cumulative IPC: 1.063 (Simulation time: 00 hr 37 min 44 sec)
Heartbeat CPU 0 instructions: 300000002 cycles: 241135707 heartbeat IPC: 3.995 cumulative IPC: 1.095 (Simulation time: 00 hr 38 min 21 sec)
Heartbeat CPU 0 instructions: 310000001 cycles: 243638930 heartbeat IPC: 3.995 cumulative IPC: 1.127 (Simulation time: 00 hr 38 min 58 sec)
Heartbeat CPU 0 instructions: 320000001 cycles: 246141568 heartbeat IPC: 3.996 cumulative IPC: 1.158 (Simulation time: 00 hr 39 min 35 sec)
Heartbeat CPU 0 instructions: 330000003 cycles: 248643905 heartbeat IPC: 3.996 cumulative IPC: 1.188 (Simulation time: 00 hr 40 min 12 sec)
Heartbeat CPU 0 instructions: 340000000 cycles: 251146651 heartbeat IPC: 3.996 cumulative IPC: 1.217 (Simulation time: 00 hr 40 min 50 sec)
Heartbeat CPU 0 instructions: 350000004 cycles: 253649993 heartbeat IPC: 3.995 cumulative IPC: 1.246 (Simulation time: 00 hr 41 min 27 sec)
Heartbeat CPU 0 instructions: 360000004 cycles: 256153526 heartbeat IPC: 3.994 cumulative IPC: 1.274 (Simulation time: 00 hr 42 min 04 sec)
Heartbeat CPU 0 instructions: 370000000 cycles: 258655913 heartbeat IPC: 3.996 cumulative IPC: 1.302 (Simulation time: 00 hr 42 min 40 sec)
Heartbeat CPU 0 instructions: 380000004 cycles: 261158654 heartbeat IPC: 3.996 cumulative IPC: 1.329 (Simulation time: 00 hr 43 min 17 sec)
Heartbeat CPU 0 instructions: 390000001 cycles: 263661041 heartbeat IPC: 3.996 cumulative IPC: 1.356 (Simulation time: 00 hr 43 min 54 sec)
Heartbeat CPU 0 instructions: 400000003 cycles: 266164404 heartbeat IPC: 3.995 cumulative IPC: 1.382 (Simulation time: 00 hr 44 min 31 sec)
Heartbeat CPU 0 instructions: 410000003 cycles: 268666833 heartbeat IPC: 3.996 cumulative IPC: 1.407 (Simulation time: 00 hr 45 min 08 sec)
Heartbeat CPU 0 instructions: 420000002 cycles: 271170290 heartbeat IPC: 3.994 cumulative IPC: 1.433 (Simulation time: 00 hr 45 min 46 sec)
Heartbeat CPU 0 instructions: 430000000 cycles: 273672895 heartbeat IPC: 3.996 cumulative IPC: 1.457 (Simulation time: 00 hr 46 min 24 sec)
Heartbeat CPU 0 instructions: 440000001 cycles: 276175755 heartbeat IPC: 3.995 cumulative IPC: 1.481 (Simulation time: 00 hr 47 min 01 sec)
Heartbeat CPU 0 instructions: 450000000 cycles: 278679565 heartbeat IPC: 3.994 cumulative IPC: 1.505 (Simulation time: 00 hr 47 min 41 sec)
Heartbeat CPU 0 instructions: 460000003 cycles: 281182206 heartbeat IPC: 3.996 cumulative IPC: 1.528 (Simulation time: 00 hr 48 min 19 sec)
Heartbeat CPU 0 instructions: 470000001 cycles: 283684596 heartbeat IPC: 3.996 cumulative IPC: 1.551 (Simulation time: 00 hr 48 min 59 sec)
Heartbeat CPU 0 instructions: 480000003 cycles: 286187857 heartbeat IPC: 3.995 cumulative IPC: 1.573 (Simulation time: 00 hr 49 min 37 sec)
Heartbeat CPU 0 instructions: 490000003 cycles: 288691127 heartbeat IPC: 3.995 cumulative IPC: 1.595 (Simulation time: 00 hr 50 min 15 sec)
Heartbeat CPU 0 instructions: 500000002 cycles: 291194933 heartbeat IPC: 3.994 cumulative IPC: 1.617 (Simulation time: 00 hr 50 min 53 sec)
Heartbeat CPU 0 instructions: 510000003 cycles: 297600347 heartbeat IPC: 1.561 cumulative IPC: 1.616 (Simulation time: 00 hr 51 min 59 sec)
Heartbeat CPU 0 instructions: 520000001 cycles: 413945957 heartbeat IPC: 0.08595 cumulative IPC: 1.172 (Simulation time: 01 hr 06 min 03 sec)
Heartbeat CPU 0 instructions: 530000000 cycles: 502257408 heartbeat IPC: 0.1132 cumulative IPC: 0.9808 (Simulation time: 01 hr 17 min 39 sec)
Heartbeat CPU 0 instructions: 540000000 cycles: 534940779 heartbeat IPC: 0.306 cumulative IPC: 0.9386 (Simulation time: 01 hr 22 min 30 sec)
Heartbeat CPU 0 instructions: 550000002 cycles: 567461493 heartbeat IPC: 0.3075 cumulative IPC: 0.9016 (Simulation time: 01 hr 26 min 58 sec)
Heartbeat CPU 0 instructions: 560000004 cycles: 600000741 heartbeat IPC: 0.3073 cumulative IPC: 0.8686 (Simulation time: 01 hr 31 min 21 sec)
Heartbeat CPU 0 instructions: 570000000 cycles: 632423298 heartbeat IPC: 0.3084 cumulative IPC: 0.8393 (Simulation time: 01 hr 35 min 43 sec)
Heartbeat CPU 0 instructions: 580000001 cycles: 665466189 heartbeat IPC: 0.3026 cumulative IPC: 0.8122 (Simulation time: 01 hr 40 min 10 sec)
Heartbeat CPU 0 instructions: 590000004 cycles: 699036904 heartbeat IPC: 0.2979 cumulative IPC: 0.787 (Simulation time: 01 hr 44 min 40 sec)
*** Reached end of trace: (0, "traces/sp.A.champsimtrace")
Heartbeat CPU 0 instructions: 600000002 cycles: 732550171 heartbeat IPC: 0.2984 cumulative IPC: 0.7642 (Simulation time: 01 hr 49 min 07 sec)
Heartbeat CPU 0 instructions: 610000000 cycles: 767853573 heartbeat IPC: 0.2833 cumulative IPC: 0.7417 (Simulation time: 01 hr 52 min 40 sec)
Heartbeat CPU 0 instructions: 620000001 cycles: 774764447 heartbeat IPC: 1.447 cumulative IPC: 0.7481 (Simulation time: 01 hr 53 min 51 sec)
Heartbeat CPU 0 instructions: 630000003 cycles: 781701810 heartbeat IPC: 1.441 cumulative IPC: 0.7544 (Simulation time: 01 hr 55 min 02 sec)
Heartbeat CPU 0 instructions: 640000004 cycles: 788591568 heartbeat IPC: 1.451 cumulative IPC: 0.7606 (Simulation time: 01 hr 56 min 12 sec)
Heartbeat CPU 0 instructions: 650000001 cycles: 795488842 heartbeat IPC: 1.45 cumulative IPC: 0.7667 (Simulation time: 01 hr 57 min 24 sec)
Simulation finished CPU 0 instructions: 600000001 cycles: 782607787 cumulative IPC: 0.7667 (Simulation time: 01 hr 57 min 24 sec)
Simulation complete CPU 0 instructions: 600000001 cycles: 782607787 cumulative IPC: 0.7667 (Simulation time: 01 hr 57 min 24 sec)

ChampSim completed all CPUs

=== Simulation ===
CPU 0 runs traces/sp.A.champsimtrace
Region of Interest Statistics

CPU 0 cumulative IPC: 0.7667 instructions: 600000001 cycles: 782607787
CPU 0 Branch Prediction Accuracy: 98.91% MPKI: 0.226 Average ROB Occupancy at Mispredict: 235.3
Branch type MPKI
BRANCH_DIRECT_JUMP: 5e-06
BRANCH_INDIRECT: 7.5e-05
BRANCH_CONDITIONAL: 0.226
BRANCH_DIRECT_CALL: 2e-05
BRANCH_INDIRECT_CALL: 3.17e-05
BRANCH_RETURN: 3.67e-05

LLC TOTAL        ACCESS:    5274754 HIT:    2298859 MISS:    2975895
LLC LOAD         ACCESS:    2304008 HIT:     487354 MISS:    1816654
LLC RFO          ACCESS:     922632 HIT:       6260 MISS:     916372
LLC PREFETCH     ACCESS:          0 HIT:          0 MISS:          0
LLC WRITE        ACCESS:    2044637 HIT:    1803930 MISS:     240707
LLC TRANSLATION  ACCESS:       3477 HIT:       1315 MISS:       2162
LLC PREFETCH REQUESTED:          0 ISSUED:          0 USEFUL:          0 USELESS:          0
LLC AVERAGE MISS LATENCY: 1265 cycles
cpu0_DTLB TOTAL        ACCESS:  125763959 HIT:  124935708 MISS:     828251
cpu0_DTLB LOAD         ACCESS:  125763959 HIT:  124935708 MISS:     828251
cpu0_DTLB RFO          ACCESS:          0 HIT:          0 MISS:          0
cpu0_DTLB PREFETCH     ACCESS:          0 HIT:          0 MISS:          0
cpu0_DTLB WRITE        ACCESS:          0 HIT:          0 MISS:          0
cpu0_DTLB TRANSLATION  ACCESS:          0 HIT:          0 MISS:          0
cpu0_DTLB PREFETCH REQUESTED:          0 ISSUED:          0 USEFUL:          0 USELESS:          0
cpu0_DTLB AVERAGE MISS LATENCY: 20.18 cycles
cpu0_ITLB TOTAL        ACCESS:     220645 HIT:     220405 MISS:        240
cpu0_ITLB LOAD         ACCESS:     220645 HIT:     220405 MISS:        240
cpu0_ITLB RFO          ACCESS:          0 HIT:          0 MISS:          0
cpu0_ITLB PREFETCH     ACCESS:          0 HIT:          0 MISS:          0
cpu0_ITLB WRITE        ACCESS:          0 HIT:          0 MISS:          0
cpu0_ITLB TRANSLATION  ACCESS:          0 HIT:          0 MISS:          0
cpu0_ITLB PREFETCH REQUESTED:          0 ISSUED:          0 USEFUL:          0 USELESS:          0
cpu0_ITLB AVERAGE MISS LATENCY: 299.4 cycles
cpu0_L1D TOTAL        ACCESS:  191060727 HIT:  176667514 MISS:   14393213
cpu0_L1D LOAD         ACCESS:  155818522 HIT:  145554645 MISS:   10263877
cpu0_L1D RFO          ACCESS:          0 HIT:          0 MISS:          0
cpu0_L1D PREFETCH     ACCESS:          0 HIT:          0 MISS:          0
cpu0_L1D WRITE        ACCESS:   35194325 HIT:   31083304 MISS:    4111021
cpu0_L1D TRANSLATION  ACCESS:      47880 HIT:      29565 MISS:      18315
cpu0_L1D PREFETCH REQUESTED:          0 ISSUED:          0 USEFUL:          0 USELESS:          0
cpu0_L1D AVERAGE MISS LATENCY: 195.5 cycles
cpu0_L1I TOTAL        ACCESS:     228387 HIT:     225628 MISS:       2759
cpu0_L1I LOAD         ACCESS:     228387 HIT:     225628 MISS:       2759
cpu0_L1I RFO          ACCESS:          0 HIT:          0 MISS:          0
cpu0_L1I PREFETCH     ACCESS:          0 HIT:          0 MISS:          0
cpu0_L1I WRITE        ACCESS:          0 HIT:          0 MISS:          0
cpu0_L1I TRANSLATION  ACCESS:          0 HIT:          0 MISS:          0
cpu0_L1I PREFETCH REQUESTED:          0 ISSUED:          0 USEFUL:          0 USELESS:          0
cpu0_L1I AVERAGE MISS LATENCY: 425.4 cycles
cpu0_L2C TOTAL        ACCESS:    5442701 HIT:    2212135 MISS:    3230566
cpu0_L2C LOAD         ACCESS:    2445130 HIT:     141045 MISS:    2304085
cpu0_L2C RFO          ACCESS:     923194 HIT:        562 MISS:     922632
cpu0_L2C PREFETCH     ACCESS:          0 HIT:          0 MISS:          0
cpu0_L2C WRITE        ACCESS:    2056064 HIT:    2055692 MISS:        372
cpu0_L2C TRANSLATION  ACCESS:      18313 HIT:      14836 MISS:       3477
cpu0_L2C PREFETCH REQUESTED:          0 ISSUED:          0 USEFUL:          0 USELESS:          0
cpu0_L2C AVERAGE MISS LATENCY: 1186 cycles
cpu0_STLB TOTAL        ACCESS:     573946 HIT:     526095 MISS:      47851
cpu0_STLB LOAD         ACCESS:     573946 HIT:     526095 MISS:      47851
cpu0_STLB RFO          ACCESS:          0 HIT:          0 MISS:          0
cpu0_STLB PREFETCH     ACCESS:          0 HIT:          0 MISS:          0
cpu0_STLB WRITE        ACCESS:          0 HIT:          0 MISS:          0
cpu0_STLB TRANSLATION  ACCESS:          0 HIT:          0 MISS:          0
cpu0_STLB PREFETCH REQUESTED:          0 ISSUED:          0 USEFUL:          0 USELESS:          0
cpu0_STLB AVERAGE MISS LATENCY: 347.3 cycles

DRAM Statistics

Channel 0 RQ ROW_BUFFER_HIT:     719241
  ROW_BUFFER_MISS:    2015091
 AVG DBUS CONGESTED CYCLE: 3.987
WQ ROW_BUFFER_HIT: Channel 0 
  ROW_BUFFER_MISS:      41416
  FULL:    1756322
