WARNING: physical memory size is smaller than virtual memory size.

*** ChampSim Multicore Out-of-Order Simulator ***
Warmup Instructions: 50000000
Simulation Instructions: 600000000
Number of CPUs: 1
Page size: 4096

Off-chip DRAM Size: 4 GiB Channels: 1 Width: 64-bit Data Race: 3200 MT/s
Heartbeat CPU 0 instructions: 10000002 cycles: 2881056 heartbeat IPC: 3.471 cumulative IPC: 3.471 (Simulation time: 00 hr 00 min 28 sec)
Heartbeat CPU 0 instructions: 20000002 cycles: 5381056 heartbeat IPC: 4 cumulative IPC: 3.717 (Simulation time: 00 hr 00 min 59 sec)
Heartbeat CPU 0 instructions: 30000002 cycles: 7881056 heartbeat IPC: 4 cumulative IPC: 3.807 (Simulation time: 00 hr 01 min 36 sec)
Heartbeat CPU 0 instructions: 40000002 cycles: 10381056 heartbeat IPC: 4 cumulative IPC: 3.853 (Simulation time: 00 hr 02 min 16 sec)
Heartbeat CPU 0 instructions: 50000002 cycles: 12881056 heartbeat IPC: 4 cumulative IPC: 3.882 (Simulation time: 00 hr 02 min 58 sec)
Warmup finished CPU 0 instructions: 50000002 cycles: 12881057 cumulative IPC: 3.882 (Simulation time: 00 hr 02 min 58 sec)
Warmup complete CPU 0 instructions: 50000002 cycles: 12881057 cumulative IPC: 3.882 (Simulation time: 00 hr 02 min 58 sec)
Heartbeat CPU 0 instructions: 60000000 cycles: 17291537 heartbeat IPC: 2.267 cumulative IPC: 2.267 (Simulation time: 00 hr 04 min 10 sec)
Heartbeat CPU 0 instructions: 70000000 cycles: 21713910 heartbeat IPC: 2.261 cumulative IPC: 2.264 (Simulation time: 00 hr 05 min 18 sec)
Heartbeat CPU 0 instructions: 80000001 cycles: 26117340 heartbeat IPC: 2.271 cumulative IPC: 2.266 (Simulation time: 00 hr 06 min 24 sec)
Heartbeat CPU 0 instructions: 90000003 cycles: 30542284 heartbeat IPC: 2.26 cumulative IPC: 2.265 (Simulation time: 00 hr 07 min 25 sec)
Heartbeat CPU 0 instructions: 100000000 cycles: 33966104 heartbeat IPC: 2.921 cumulative IPC: 2.371 (Simulation time: 00 hr 08 min 16 sec)
Heartbeat CPU 0 instructions: 110000001 cycles: 36515388 heartbeat IPC: 3.923 cumulative IPC: 2.539 (Simulation time: 00 hr 09 min 08 sec)
Heartbeat CPU 0 instructions: 120000001 cycles: 39084877 heartbeat IPC: 3.892 cumulative IPC: 2.671 (Simulation time: 00 hr 10 min 11 sec)
Heartbeat CPU 0 instructions: 130000000 cycles: 41776176 heartbeat IPC: 3.716 cumulative IPC: 2.769 (Simulation time: 00 hr 11 min 13 sec)
Heartbeat CPU 0 instructions: 140000004 cycles: 45097154 heartbeat IPC: 3.011 cumulative IPC: 2.794 (Simulation time: 00 hr 12 min 25 sec)
Heartbeat CPU 0 instructions: 150000000 cycles: 48329093 heartbeat IPC: 3.094 cumulative IPC: 2.821 (Simulation time: 00 hr 13 min 32 sec)
Heartbeat CPU 0 instructions: 160000000 cycles: 51574652 heartbeat IPC: 3.081 cumulative IPC: 2.843 (Simulation time: 00 hr 14 min 39 sec)
Heartbeat CPU 0 instructions: 170000000 cycles: 54876501 heartbeat IPC: 3.029 cumulative IPC: 2.857 (Simulation time: 00 hr 15 min 46 sec)
Heartbeat CPU 0 instructions: 180000002 cycles: 58028141 heartbeat IPC: 3.173 cumulative IPC: 2.879 (Simulation time: 00 hr 16 min 48 sec)
Heartbeat CPU 0 instructions: 190000002 cycles: 60827835 heartbeat IPC: 3.572 cumulative IPC: 2.92 (Simulation time: 00 hr 17 min 48 sec)
Heartbeat CPU 0 instructions: 200000000 cycles: 63587100 heartbeat IPC: 3.624 cumulative IPC: 2.958 (Simulation time: 00 hr 18 min 44 sec)
Heartbeat CPU 0 instructions: 210000000 cycles: 66329296 heartbeat IPC: 3.647 cumulative IPC: 2.994 (Simulation time: 00 hr 19 min 46 sec)
Heartbeat CPU 0 instructions: 220000001 cycles: 69251387 heartbeat IPC: 3.422 cumulative IPC: 3.016 (Simulation time: 00 hr 20 min 52 sec)
Heartbeat CPU 0 instructions: 230000004 cycles: 72380345 heartbeat IPC: 3.196 cumulative IPC: 3.025 (Simulation time: 00 hr 21 min 56 sec)
Heartbeat CPU 0 instructions: 240000003 cycles: 75781422 heartbeat IPC: 2.94 cumulative IPC: 3.021 (Simulation time: 00 hr 23 min 09 sec)
Heartbeat CPU 0 instructions: 250000002 cycles: 79039888 heartbeat IPC: 3.069 cumulative IPC: 3.023 (Simulation time: 00 hr 24 min 16 sec)
Heartbeat CPU 0 instructions: 260000002 cycles: 82293551 heartbeat IPC: 3.073 cumulative IPC: 3.025 (Simulation time: 00 hr 25 min 22 sec)
Heartbeat CPU 0 instructions: 270000003 cycles: 85308297 heartbeat IPC: 3.317 cumulative IPC: 3.038 (Simulation time: 00 hr 26 min 23 sec)
Heartbeat CPU 0 instructions: 280000003 cycles: 88558202 heartbeat IPC: 3.077 cumulative IPC: 3.039 (Simulation time: 00 hr 27 min 27 sec)
Heartbeat CPU 0 instructions: 290000001 cycles: 143653246 heartbeat IPC: 0.1815 cumulative IPC: 1.835 (Simulation time: 00 hr 35 min 40 sec)
Heartbeat CPU 0 instructions: 300000002 cycles: 146155635 heartbeat IPC: 3.996 cumulative IPC: 1.876 (Simulation time: 00 hr 36 min 35 sec)
Heartbeat CPU 0 instructions: 310000001 cycles: 148658010 heartbeat IPC: 3.996 cumulative IPC: 1.915 (Simulation time: 00 hr 37 min 28 sec)
Heartbeat CPU 0 instructions: 320000001 cycles: 151160439 heartbeat IPC: 3.996 cumulative IPC: 1.953 (Simulation time: 00 hr 38 min 20 sec)
Heartbeat CPU 0 instructions: 330000003 cycles: 153662776 heartbeat IPC: 3.996 cumulative IPC: 1.989 (Simulation time: 00 hr 39 min 11 sec)
Heartbeat CPU 0 instructions: 340000000 cycles: 156165162 heartbeat IPC: 3.996 cumulative IPC: 2.024 (Simulation time: 00 hr 40 min 03 sec)
Heartbeat CPU 0 instructions: 350000004 cycles: 158667550 heartbeat IPC: 3.996 cumulative IPC: 2.058 (Simulation time: 00 hr 40 min 59 sec)
Heartbeat CPU 0 instructions: 360000004 cycles: 161169940 heartbeat IPC: 3.996 cumulative IPC: 2.091 (Simulation time: 00 hr 41 min 52 sec)
Heartbeat CPU 0 instructions: 370000000 cycles: 163672328 heartbeat IPC: 3.996 cumulative IPC: 2.122 (Simulation time: 00 hr 42 min 43 sec)
Heartbeat CPU 0 instructions: 380000004 cycles: 166175207 heartbeat IPC: 3.995 cumulative IPC: 2.153 (Simulation time: 00 hr 43 min 34 sec)
Heartbeat CPU 0 instructions: 390000001 cycles: 168677650 heartbeat IPC: 3.996 cumulative IPC: 2.182 (Simulation time: 00 hr 44 min 28 sec)
Heartbeat CPU 0 instructions: 400000003 cycles: 171180029 heartbeat IPC: 3.996 cumulative IPC: 2.211 (Simulation time: 00 hr 45 min 22 sec)
Heartbeat CPU 0 instructions: 410000003 cycles: 173682458 heartbeat IPC: 3.996 cumulative IPC: 2.239 (Simulation time: 00 hr 46 min 13 sec)
Heartbeat CPU 0 instructions: 420000002 cycles: 176184848 heartbeat IPC: 3.996 cumulative IPC: 2.266 (Simulation time: 00 hr 47 min 03 sec)
Heartbeat CPU 0 instructions: 430000000 cycles: 178687236 heartbeat IPC: 3.996 cumulative IPC: 2.292 (Simulation time: 00 hr 47 min 56 sec)
Heartbeat CPU 0 instructions: 440000001 cycles: 181189625 heartbeat IPC: 3.996 cumulative IPC: 2.317 (Simulation time: 00 hr 48 min 52 sec)
Heartbeat CPU 0 instructions: 450000000 cycles: 183692000 heartbeat IPC: 3.996 cumulative IPC: 2.342 (Simulation time: 00 hr 49 min 47 sec)
Heartbeat CPU 0 instructions: 460000003 cycles: 186194336 heartbeat IPC: 3.996 cumulative IPC: 2.366 (Simulation time: 00 hr 50 min 42 sec)
Heartbeat CPU 0 instructions: 470000001 cycles: 188696726 heartbeat IPC: 3.996 cumulative IPC: 2.389 (Simulation time: 00 hr 51 min 33 sec)
Heartbeat CPU 0 instructions: 480000003 cycles: 191199113 heartbeat IPC: 3.996 cumulative IPC: 2.411 (Simulation time: 00 hr 52 min 26 sec)
Heartbeat CPU 0 instructions: 490000003 cycles: 193701501 heartbeat IPC: 3.996 cumulative IPC: 2.433 (Simulation time: 00 hr 53 min 19 sec)
Heartbeat CPU 0 instructions: 500000002 cycles: 196204458 heartbeat IPC: 3.995 cumulative IPC: 2.455 (Simulation time: 00 hr 54 min 10 sec)
Heartbeat CPU 0 instructions: 510000003 cycles: 203010648 heartbeat IPC: 1.469 cumulative IPC: 2.419 (Simulation time: 00 hr 55 min 43 sec)
Heartbeat CPU 0 instructions: 520000001 cycles: 314686913 heartbeat IPC: 0.08954 cumulative IPC: 1.557 (Simulation time: 01 hr 13 min 55 sec)
Heartbeat CPU 0 instructions: 530000004 cycles: 401350224 heartbeat IPC: 0.1154 cumulative IPC: 1.236 (Simulation time: 01 hr 28 min 20 sec)
Heartbeat CPU 0 instructions: 540000000 cycles: 431087425 heartbeat IPC: 0.3363 cumulative IPC: 1.172 (Simulation time: 01 hr 33 min 51 sec)
Heartbeat CPU 0 instructions: 550000004 cycles: 460164225 heartbeat IPC: 0.3439 cumulative IPC: 1.118 (Simulation time: 01 hr 39 min 22 sec)
Heartbeat CPU 0 instructions: 560000004 cycles: 488752035 heartbeat IPC: 0.3498 cumulative IPC: 1.072 (Simulation time: 01 hr 45 min 05 sec)
Heartbeat CPU 0 instructions: 570000002 cycles: 518218880 heartbeat IPC: 0.3394 cumulative IPC: 1.029 (Simulation time: 01 hr 50 min 53 sec)
Heartbeat CPU 0 instructions: 580000001 cycles: 546990647 heartbeat IPC: 0.3476 cumulative IPC: 0.9923 (Simulation time: 01 hr 56 min 34 sec)
Heartbeat CPU 0 instructions: 590000004 cycles: 576171001 heartbeat IPC: 0.3427 cumulative IPC: 0.9587 (Simulation time: 02 hr 02 min 31 sec)
*** Reached end of trace: (0, "traces/sp.A.champsimtrace")
Heartbeat CPU 0 instructions: 600000001 cycles: 605258863 heartbeat IPC: 0.3438 cumulative IPC: 0.9285 (Simulation time: 02 hr 08 min 13 sec)
Heartbeat CPU 0 instructions: 610000000 cycles: 635384339 heartbeat IPC: 0.3319 cumulative IPC: 0.8996 (Simulation time: 02 hr 12 min 42 sec)
Heartbeat CPU 0 instructions: 620000003 cycles: 639767494 heartbeat IPC: 2.281 cumulative IPC: 0.9093 (Simulation time: 02 hr 14 min 00 sec)
Heartbeat CPU 0 instructions: 630000003 cycles: 644163233 heartbeat IPC: 2.275 cumulative IPC: 0.9188 (Simulation time: 02 hr 15 min 13 sec)
Heartbeat CPU 0 instructions: 640000004 cycles: 648578451 heartbeat IPC: 2.265 cumulative IPC: 0.9281 (Simulation time: 02 hr 16 min 27 sec)
Heartbeat CPU 0 instructions: 650000001 cycles: 653003917 heartbeat IPC: 2.26 cumulative IPC: 0.9373 (Simulation time: 02 hr 17 min 41 sec)
Simulation finished CPU 0 instructions: 600000004 cycles: 640122862 cumulative IPC: 0.9373 (Simulation time: 02 hr 17 min 41 sec)
Simulation complete CPU 0 instructions: 600000004 cycles: 640122862 cumulative IPC: 0.9373 (Simulation time: 02 hr 17 min 41 sec)

ChampSim completed all CPUs

=== Simulation ===
CPU 0 runs traces/sp.A.champsimtrace
Region of Interest Statistics

CPU 0 cumulative IPC: 0.9373 instructions: 600000004 cycles: 640122862
CPU 0 Branch Prediction Accuracy: 98.91% MPKI: 0.226 Average ROB Occupancy at Mispredict: 231.5
Branch type MPKI
BRANCH_DIRECT_JUMP: 5e-06
BRANCH_INDIRECT: 7.5e-05
BRANCH_CONDITIONAL: 0.226
BRANCH_DIRECT_CALL: 2e-05
BRANCH_INDIRECT_CALL: 3.17e-05
BRANCH_RETURN: 3.67e-05

LLC TOTAL        ACCESS:    7580628 HIT:    3645202 MISS:    3935426
LLC LOAD         ACCESS:    2304619 HIT:    1211082 MISS:    1093537
LLC RFO          ACCESS:     922633 HIT:       3730 MISS:     918903
LLC PREFETCH     ACCESS:    2304619 HIT:     616024 MISS:    1688595
LLC WRITE        ACCESS:    2045284 HIT:    1813222 MISS:     232062
LLC TRANSLATION  ACCESS:       3473 HIT:       1144 MISS:       2329
LLC PREFETCH REQUESTED:    2304619 ISSUED:    2304619 USEFUL:    1421661 USELESS:      26690
LLC AVERAGE MISS LATENCY: 1054 cycles
cpu0_DTLB TOTAL        ACCESS:  127661439 HIT:  126845936 MISS:     815503
cpu0_DTLB LOAD         ACCESS:  127661439 HIT:  126845936 MISS:     815503
cpu0_DTLB RFO          ACCESS:          0 HIT:          0 MISS:          0
cpu0_DTLB PREFETCH     ACCESS:          0 HIT:          0 MISS:          0
cpu0_DTLB WRITE        ACCESS:          0 HIT:          0 MISS:          0
cpu0_DTLB TRANSLATION  ACCESS:          0 HIT:          0 MISS:          0
cpu0_DTLB PREFETCH REQUESTED:          0 ISSUED:          0 USEFUL:          0 USELESS:          0
cpu0_DTLB AVERAGE MISS LATENCY: 18.53 cycles
cpu0_ITLB TOTAL        ACCESS:     216092 HIT:     215858 MISS:        234
cpu0_ITLB LOAD         ACCESS:     216092 HIT:     215858 MISS:        234
cpu0_ITLB RFO          ACCESS:          0 HIT:          0 MISS:          0
cpu0_ITLB PREFETCH     ACCESS:          0 HIT:          0 MISS:          0
cpu0_ITLB WRITE        ACCESS:          0 HIT:          0 MISS:          0
cpu0_ITLB TRANSLATION  ACCESS:          0 HIT:          0 MISS:          0
cpu0_ITLB PREFETCH REQUESTED:          0 ISSUED:          0 USEFUL:          0 USELESS:          0
cpu0_ITLB AVERAGE MISS LATENCY: 369 cycles
cpu0_L1D TOTAL        ACCESS:  193741428 HIT:  179793161 MISS:   13948267
cpu0_L1D LOAD         ACCESS:  158499209 HIT:  148764346 MISS:    9734863
cpu0_L1D RFO          ACCESS:          0 HIT:          0 MISS:          0
cpu0_L1D PREFETCH     ACCESS:          0 HIT:          0 MISS:          0
cpu0_L1D WRITE        ACCESS:   35194341 HIT:   30999237 MISS:    4195104
cpu0_L1D TRANSLATION  ACCESS:      47878 HIT:      29578 MISS:      18300
cpu0_L1D PREFETCH REQUESTED:          0 ISSUED:          0 USEFUL:          0 USELESS:          0
cpu0_L1D AVERAGE MISS LATENCY: 160.2 cycles
cpu0_L1I TOTAL        ACCESS:     223557 HIT:     220773 MISS:       2784
cpu0_L1I LOAD         ACCESS:     223557 HIT:     220773 MISS:       2784
cpu0_L1I RFO          ACCESS:          0 HIT:          0 MISS:          0
cpu0_L1I PREFETCH     ACCESS:          0 HIT:          0 MISS:          0
cpu0_L1I WRITE        ACCESS:          0 HIT:          0 MISS:          0
cpu0_L1I TRANSLATION  ACCESS:          0 HIT:          0 MISS:          0
cpu0_L1I PREFETCH REQUESTED:          0 ISSUED:          0 USEFUL:          0 USELESS:          0
cpu0_L1I AVERAGE MISS LATENCY: 462.3 cycles
cpu0_L2C TOTAL        ACCESS:    5428681 HIT:    2197479 MISS:    3231202
cpu0_L2C LOAD         ACCESS:    2431146 HIT:     126423 MISS:    2304723
cpu0_L2C RFO          ACCESS:     923192 HIT:        559 MISS:     922633
cpu0_L2C PREFETCH     ACCESS:          0 HIT:          0 MISS:          0
cpu0_L2C WRITE        ACCESS:    2056045 HIT:    2055672 MISS:        373
cpu0_L2C TRANSLATION  ACCESS:      18298 HIT:      14825 MISS:       3473
cpu0_L2C PREFETCH REQUESTED:          0 ISSUED:          0 USEFUL:          0 USELESS:          0
cpu0_L2C AVERAGE MISS LATENCY: 937.3 cycles
cpu0_STLB TOTAL        ACCESS:     563853 HIT:     516005 MISS:      47848
cpu0_STLB LOAD         ACCESS:     563853 HIT:     516005 MISS:      47848
cpu0_STLB RFO          ACCESS:          0 HIT:          0 MISS:          0
cpu0_STLB PREFETCH     ACCESS:          0 HIT:          0 MISS:          0
cpu0_STLB WRITE        ACCESS:          0 HIT:          0 MISS:          0
cpu0_STLB TRANSLATION  ACCESS:          0 HIT:          0 MISS:          0
cpu0_STLB PREFETCH REQUESTED:          0 ISSUED:          0 USEFUL:          0 USELESS:          0
cpu0_STLB AVERAGE MISS LATENCY: 343.7 cycles

DRAM Statistics

Channel 0 RQ ROW_BUFFER_HIT:     744928
  ROW_BUFFER_MISS:    1895784
 AVG DBUS CONGESTED CYCLE: 3.976
WQ ROW_BUFFER_HIT: Channel 0 
  ROW_BUFFER_MISS:     442893
  FULL:    1296381
