WARNING: physical memory size is smaller than virtual memory size.

*** ChampSim Multicore Out-of-Order Simulator ***
Warmup Instructions: 50000000
Simulation Instructions: 600000000
Number of CPUs: 1
Page size: 4096

Off-chip DRAM Size: 4 GiB Channels: 1 Width: 64-bit Data Race: 3200 MT/s
Heartbeat CPU 0 instructions: 10000000 cycles: 2881055 heartbeat IPC: 3.471 cumulative IPC: 3.471 (Simulation time: 00 hr 00 min 42 sec)
Heartbeat CPU 0 instructions: 20000000 cycles: 5381055 heartbeat IPC: 4 cumulative IPC: 3.717 (Simulation time: 00 hr 01 min 16 sec)
Heartbeat CPU 0 instructions: 30000000 cycles: 7881055 heartbeat IPC: 4 cumulative IPC: 3.807 (Simulation time: 00 hr 01 min 50 sec)
Heartbeat CPU 0 instructions: 40000000 cycles: 10381055 heartbeat IPC: 4 cumulative IPC: 3.853 (Simulation time: 00 hr 02 min 24 sec)
Heartbeat CPU 0 instructions: 50000000 cycles: 12881055 heartbeat IPC: 4 cumulative IPC: 3.882 (Simulation time: 00 hr 02 min 58 sec)
Warmup finished CPU 0 instructions: 50000000 cycles: 12881056 cumulative IPC: 3.882 (Simulation time: 00 hr 02 min 58 sec)
Warmup complete CPU 0 instructions: 50000000 cycles: 12881056 cumulative IPC: 3.882 (Simulation time: 00 hr 02 min 58 sec)
Heartbeat CPU 0 instructions: 60000000 cycles: 17617094 heartbeat IPC: 2.111 cumulative IPC: 2.111 (Simulation time: 00 hr 03 min 52 sec)
Heartbeat CPU 0 instructions: 70000000 cycles: 22393400 heartbeat IPC: 2.094 cumulative IPC: 2.103 (Simulation time: 00 hr 04 min 47 sec)
Heartbeat CPU 0 instructions: 80000001 cycles: 27111017 heartbeat IPC: 2.12 cumulative IPC: 2.108 (Simulation time: 00 hr 05 min 45 sec)
Heartbeat CPU 0 instructions: 90000003 cycles: 31830868 heartbeat IPC: 2.119 cumulative IPC: 2.111 (Simulation time: 00 hr 06 min 40 sec)
Heartbeat CPU 0 instructions: 100000000 cycles: 36160064 heartbeat IPC: 2.31 cumulative IPC: 2.148 (Simulation time: 00 hr 07 min 31 sec)
Heartbeat CPU 0 instructions: 110000001 cycles: 39999033 heartbeat IPC: 2.605 cumulative IPC: 2.213 (Simulation time: 00 hr 08 min 20 sec)
Heartbeat CPU 0 instructions: 120000001 cycles: 43867543 heartbeat IPC: 2.585 cumulative IPC: 2.259 (Simulation time: 00 hr 09 min 09 sec)
Heartbeat CPU 0 instructions: 130000000 cycles: 47641891 heartbeat IPC: 2.649 cumulative IPC: 2.301 (Simulation time: 00 hr 09 min 56 sec)
Heartbeat CPU 0 instructions: 140000004 cycles: 51502298 heartbeat IPC: 2.59 cumulative IPC: 2.33 (Simulation time: 00 hr 10 min 44 sec)
Heartbeat CPU 0 instructions: 150000000 cycles: 55349233 heartbeat IPC: 2.599 cumulative IPC: 2.355 (Simulation time: 00 hr 11 min 36 sec)
Heartbeat CPU 0 instructions: 160000001 cycles: 59129169 heartbeat IPC: 2.646 cumulative IPC: 2.378 (Simulation time: 00 hr 12 min 24 sec)
Heartbeat CPU 0 instructions: 170000000 cycles: 62990846 heartbeat IPC: 2.59 cumulative IPC: 2.395 (Simulation time: 00 hr 13 min 11 sec)
Heartbeat CPU 0 instructions: 180000002 cycles: 66850411 heartbeat IPC: 2.591 cumulative IPC: 2.409 (Simulation time: 00 hr 13 min 57 sec)
Heartbeat CPU 0 instructions: 190000002 cycles: 70495428 heartbeat IPC: 2.743 cumulative IPC: 2.43 (Simulation time: 00 hr 14 min 43 sec)
Heartbeat CPU 0 instructions: 200000000 cycles: 74006598 heartbeat IPC: 2.848 cumulative IPC: 2.454 (Simulation time: 00 hr 15 min 29 sec)
Heartbeat CPU 0 instructions: 210000000 cycles: 77693818 heartbeat IPC: 2.712 cumulative IPC: 2.469 (Simulation time: 00 hr 16 min 15 sec)
Heartbeat CPU 0 instructions: 220000001 cycles: 81503450 heartbeat IPC: 2.625 cumulative IPC: 2.477 (Simulation time: 00 hr 17 min 03 sec)
Heartbeat CPU 0 instructions: 230000004 cycles: 85402368 heartbeat IPC: 2.565 cumulative IPC: 2.482 (Simulation time: 00 hr 17 min 52 sec)
Heartbeat CPU 0 instructions: 240000003 cycles: 89300405 heartbeat IPC: 2.565 cumulative IPC: 2.486 (Simulation time: 00 hr 18 min 41 sec)
Heartbeat CPU 0 instructions: 250000002 cycles: 93233354 heartbeat IPC: 2.543 cumulative IPC: 2.489 (Simulation time: 00 hr 19 min 29 sec)
Heartbeat CPU 0 instructions: 260000002 cycles: 97232037 heartbeat IPC: 2.501 cumulative IPC: 2.49 (Simulation time: 00 hr 20 min 18 sec)
Heartbeat CPU 0 instructions: 270000003 cycles: 101161756 heartbeat IPC: 2.545 cumulative IPC: 2.492 (Simulation time: 00 hr 21 min 07 sec)
Heartbeat CPU 0 instructions: 280000003 cycles: 105138033 heartbeat IPC: 2.515 cumulative IPC: 2.493 (Simulation time: 00 hr 21 min 56 sec)
Heartbeat CPU 0 instructions: 290000001 cycles: 169237136 heartbeat IPC: 0.156 cumulative IPC: 1.535 (Simulation time: 00 hr 28 min 49 sec)
Heartbeat CPU 0 instructions: 300000002 cycles: 171740137 heartbeat IPC: 3.995 cumulative IPC: 1.574 (Simulation time: 00 hr 29 min 26 sec)
Heartbeat CPU 0 instructions: 310000001 cycles: 174243697 heartbeat IPC: 3.994 cumulative IPC: 1.611 (Simulation time: 00 hr 30 min 05 sec)
Heartbeat CPU 0 instructions: 320000001 cycles: 176746643 heartbeat IPC: 3.995 cumulative IPC: 1.648 (Simulation time: 00 hr 30 min 43 sec)
Heartbeat CPU 0 instructions: 330000003 cycles: 179248980 heartbeat IPC: 3.996 cumulative IPC: 1.683 (Simulation time: 00 hr 31 min 19 sec)
Heartbeat CPU 0 instructions: 340000000 cycles: 181751663 heartbeat IPC: 3.996 cumulative IPC: 1.717 (Simulation time: 00 hr 31 min 57 sec)
Heartbeat CPU 0 instructions: 350000004 cycles: 184254497 heartbeat IPC: 3.995 cumulative IPC: 1.751 (Simulation time: 00 hr 32 min 33 sec)
Heartbeat CPU 0 instructions: 360000004 cycles: 186759235 heartbeat IPC: 3.992 cumulative IPC: 1.783 (Simulation time: 00 hr 33 min 11 sec)
Heartbeat CPU 0 instructions: 370000000 cycles: 189262071 heartbeat IPC: 3.995 cumulative IPC: 1.814 (Simulation time: 00 hr 33 min 50 sec)
Heartbeat CPU 0 instructions: 380000004 cycles: 191765381 heartbeat IPC: 3.995 cumulative IPC: 1.845 (Simulation time: 00 hr 34 min 30 sec)
Heartbeat CPU 0 instructions: 390000001 cycles: 194268206 heartbeat IPC: 3.995 cumulative IPC: 1.874 (Simulation time: 00 hr 35 min 08 sec)
Heartbeat CPU 0 instructions: 400000003 cycles: 196771938 heartbeat IPC: 3.994 cumulative IPC: 1.903 (Simulation time: 00 hr 35 min 47 sec)
Heartbeat CPU 0 instructions: 410000003 cycles: 199274875 heartbeat IPC: 3.995 cumulative IPC: 1.931 (Simulation time: 00 hr 36 min 26 sec)
Heartbeat CPU 0 instructions: 420000002 cycles: 201778194 heartbeat IPC: 3.995 cumulative IPC: 1.959 (Simulation time: 00 hr 37 min 05 sec)
Heartbeat CPU 0 instructions: 430000000 cycles: 204280581 heartbeat IPC: 3.996 cumulative IPC: 1.985 (Simulation time: 00 hr 37 min 43 sec)
Heartbeat CPU 0 instructions: 440000001 cycles: 206783030 heartbeat IPC: 3.996 cumulative IPC: 2.011 (Simulation time: 00 hr 38 min 22 sec)
Heartbeat CPU 0 instructions: 450000000 cycles: 209285802 heartbeat IPC: 3.996 cumulative IPC: 2.037 (Simulation time: 00 hr 39 min 01 sec)
Heartbeat CPU 0 instructions: 460000003 cycles: 211788139 heartbeat IPC: 3.996 cumulative IPC: 2.061 (Simulation time: 00 hr 39 min 39 sec)
Heartbeat CPU 0 instructions: 470000001 cycles: 214290645 heartbeat IPC: 3.996 cumulative IPC: 2.085 (Simulation time: 00 hr 40 min 18 sec)
Heartbeat CPU 0 instructions: 480000003 cycles: 216793331 heartbeat IPC: 3.996 cumulative IPC: 2.109 (Simulation time: 00 hr 40 min 55 sec)
Heartbeat CPU 0 instructions: 490000003 cycles: 219296776 heartbeat IPC: 3.994 cumulative IPC: 2.132 (Simulation time: 00 hr 41 min 32 sec)
Heartbeat CPU 0 instructions: 500000002 cycles: 221799804 heartbeat IPC: 3.995 cumulative IPC: 2.154 (Simulation time: 00 hr 42 min 08 sec)
Heartbeat CPU 0 instructions: 510000002 cycles: 228133445 heartbeat IPC: 1.579 cumulative IPC: 2.137 (Simulation time: 00 hr 43 min 12 sec)
Heartbeat CPU 0 instructions: 520000001 cycles: 343383290 heartbeat IPC: 0.08677 cumulative IPC: 1.422 (Simulation time: 00 hr 57 min 05 sec)
Heartbeat CPU 0 instructions: 530000004 cycles: 433616237 heartbeat IPC: 0.1108 cumulative IPC: 1.141 (Simulation time: 01 hr 08 min 11 sec)
Heartbeat CPU 0 instructions: 540000000 cycles: 464870264 heartbeat IPC: 0.32 cumulative IPC: 1.084 (Simulation time: 01 hr 12 min 18 sec)
Heartbeat CPU 0 instructions: 550000004 cycles: 496095178 heartbeat IPC: 0.3203 cumulative IPC: 1.035 (Simulation time: 01 hr 16 min 21 sec)
Heartbeat CPU 0 instructions: 560000004 cycles: 527264295 heartbeat IPC: 0.3208 cumulative IPC: 0.9915 (Simulation time: 01 hr 20 min 23 sec)
Heartbeat CPU 0 instructions: 570000000 cycles: 558677648 heartbeat IPC: 0.3183 cumulative IPC: 0.9527 (Simulation time: 01 hr 24 min 27 sec)
Heartbeat CPU 0 instructions: 580000001 cycles: 590904952 heartbeat IPC: 0.3103 cumulative IPC: 0.9169 (Simulation time: 01 hr 28 min 40 sec)
Heartbeat CPU 0 instructions: 590000004 cycles: 623519481 heartbeat IPC: 0.3066 cumulative IPC: 0.8843 (Simulation time: 01 hr 32 min 55 sec)
*** Reached end of trace: (0, "traces/sp.A.champsimtrace")
Heartbeat CPU 0 instructions: 600000002 cycles: 656206485 heartbeat IPC: 0.3059 cumulative IPC: 0.8549 (Simulation time: 01 hr 37 min 14 sec)
Heartbeat CPU 0 instructions: 610000000 cycles: 689338159 heartbeat IPC: 0.3018 cumulative IPC: 0.8278 (Simulation time: 01 hr 40 min 38 sec)
Heartbeat CPU 0 instructions: 620000002 cycles: 694099767 heartbeat IPC: 2.1 cumulative IPC: 0.8367 (Simulation time: 01 hr 41 min 33 sec)
Heartbeat CPU 0 instructions: 630000003 cycles: 698865803 heartbeat IPC: 2.098 cumulative IPC: 0.8455 (Simulation time: 01 hr 42 min 31 sec)
Heartbeat CPU 0 instructions: 640000004 cycles: 703657176 heartbeat IPC: 2.087 cumulative IPC: 0.8541 (Simulation time: 01 hr 43 min 26 sec)
Heartbeat CPU 0 instructions: 650000001 cycles: 708371000 heartbeat IPC: 2.121 cumulative IPC: 0.8627 (Simulation time: 01 hr 44 min 20 sec)
Simulation finished CPU 0 instructions: 600000001 cycles: 695489945 cumulative IPC: 0.8627 (Simulation time: 01 hr 44 min 20 sec)
Simulation complete CPU 0 instructions: 600000001 cycles: 695489945 cumulative IPC: 0.8627 (Simulation time: 01 hr 44 min 20 sec)

ChampSim completed all CPUs

=== Simulation ===
CPU 0 runs traces/sp.A.champsimtrace
Region of Interest Statistics

CPU 0 cumulative IPC: 0.8627 instructions: 600000001 cycles: 695489945
CPU 0 Branch Prediction Accuracy: 98.91% MPKI: 0.226 Average ROB Occupancy at Mispredict: 232.1
Branch type MPKI
BRANCH_DIRECT_JUMP: 5e-06
BRANCH_INDIRECT: 7.5e-05
BRANCH_CONDITIONAL: 0.226
BRANCH_DIRECT_CALL: 2e-05
BRANCH_INDIRECT_CALL: 3.17e-05
BRANCH_RETURN: 3.67e-05

LLC TOTAL        ACCESS:    7578697 HIT:    3457048 MISS:    4121649
LLC LOAD         ACCESS:    2303971 HIT:    1155270 MISS:    1148701
LLC RFO          ACCESS:     922633 HIT:       6291 MISS:     916342
LLC PREFETCH     ACCESS:    2303971 HIT:     492308 MISS:    1811663
LLC WRITE        ACCESS:    2044647 HIT:    1801925 MISS:     242722
LLC TRANSLATION  ACCESS:       3475 HIT:       1254 MISS:       2221
LLC PREFETCH REQUESTED:    2303971 ISSUED:    2303971 USEFUL:    1507616 USELESS:      28035
LLC AVERAGE MISS LATENCY: 1265 cycles
cpu0_DTLB TOTAL        ACCESS:  127130449 HIT:  126311878 MISS:     818571
cpu0_DTLB LOAD         ACCESS:  127130449 HIT:  126311878 MISS:     818571
cpu0_DTLB RFO          ACCESS:          0 HIT:          0 MISS:          0
cpu0_DTLB PREFETCH     ACCESS:          0 HIT:          0 MISS:          0
cpu0_DTLB WRITE        ACCESS:          0 HIT:          0 MISS:          0
cpu0_DTLB TRANSLATION  ACCESS:          0 HIT:          0 MISS:          0
cpu0_DTLB PREFETCH REQUESTED:          0 ISSUED:          0 USEFUL:          0 USELESS:          0
cpu0_DTLB AVERAGE MISS LATENCY: 19.23 cycles
cpu0_ITLB TOTAL        ACCESS:     216978 HIT:     216739 MISS:        239
cpu0_ITLB LOAD         ACCESS:     216978 HIT:     216739 MISS:        239
cpu0_ITLB RFO          ACCESS:          0 HIT:          0 MISS:          0
cpu0_ITLB PREFETCH     ACCESS:          0 HIT:          0 MISS:          0
cpu0_ITLB WRITE        ACCESS:          0 HIT:          0 MISS:          0
cpu0_ITLB TRANSLATION  ACCESS:          0 HIT:          0 MISS:          0
cpu0_ITLB PREFETCH REQUESTED:          0 ISSUED:          0 USEFUL:          0 USELESS:          0
cpu0_ITLB AVERAGE MISS LATENCY: 305.6 cycles
cpu0_L1D TOTAL        ACCESS:  193117507 HIT:  179224657 MISS:   13892850
cpu0_L1D LOAD         ACCESS:  157875293 HIT:  148193947 MISS:    9681346
cpu0_L1D RFO          ACCESS:          0 HIT:          0 MISS:          0
cpu0_L1D PREFETCH     ACCESS:          0 HIT:          0 MISS:          0
cpu0_L1D WRITE        ACCESS:   35194333 HIT:   31001136 MISS:    4193197
cpu0_L1D TRANSLATION  ACCESS:      47881 HIT:      29574 MISS:      18307
cpu0_L1D PREFETCH REQUESTED:          0 ISSUED:          0 USEFUL:          0 USELESS:          0
cpu0_L1D AVERAGE MISS LATENCY: 178.3 cycles
cpu0_L1I TOTAL        ACCESS:     224480 HIT:     221717 MISS:       2763
cpu0_L1I LOAD         ACCESS:     224480 HIT:     221717 MISS:       2763
cpu0_L1I RFO          ACCESS:          0 HIT:          0 MISS:          0
cpu0_L1I PREFETCH     ACCESS:          0 HIT:          0 MISS:          0
cpu0_L1I WRITE        ACCESS:          0 HIT:          0 MISS:          0
cpu0_L1I TRANSLATION  ACCESS:          0 HIT:          0 MISS:          0
cpu0_L1I PREFETCH REQUESTED:          0 ISSUED:          0 USEFUL:          0 USELESS:          0
cpu0_L1I AVERAGE MISS LATENCY: 405.6 cycles
cpu0_L2C TOTAL        ACCESS:    5428880 HIT:    2198356 MISS:    3230524
cpu0_L2C LOAD         ACCESS:    2431327 HIT:     127282 MISS:    2304045
cpu0_L2C RFO          ACCESS:     923196 HIT:        563 MISS:     922633
cpu0_L2C PREFETCH     ACCESS:          0 HIT:          0 MISS:          0
cpu0_L2C WRITE        ACCESS:    2056053 HIT:    2055682 MISS:        371
cpu0_L2C TRANSLATION  ACCESS:      18304 HIT:      14829 MISS:       3475
cpu0_L2C PREFETCH REQUESTED:          0 ISSUED:          0 USEFUL:          0 USELESS:          0
cpu0_L2C AVERAGE MISS LATENCY: 1020 cycles
cpu0_STLB TOTAL        ACCESS:     565100 HIT:     517250 MISS:      47850
cpu0_STLB LOAD         ACCESS:     565100 HIT:     517250 MISS:      47850
cpu0_STLB RFO          ACCESS:          0 HIT:          0 MISS:          0
cpu0_STLB PREFETCH     ACCESS:          0 HIT:          0 MISS:          0
cpu0_STLB WRITE        ACCESS:          0 HIT:          0 MISS:          0
cpu0_STLB TRANSLATION  ACCESS:          0 HIT:          0 MISS:          0
cpu0_STLB PREFETCH REQUESTED:          0 ISSUED:          0 USEFUL:          0 USELESS:          0
cpu0_STLB AVERAGE MISS LATENCY: 359.7 cycles

DRAM Statistics

Channel 0 RQ ROW_BUFFER_HIT:     777130
  ROW_BUFFER_MISS:    1986283
 AVG DBUS CONGESTED CYCLE: 3.99
WQ ROW_BUFFER_HIT: Channel 0 
  ROW_BUFFER_MISS:      40473
  FULL:    1758108
