WARNING: physical memory size is smaller than virtual memory size.

*** ChampSim Multicore Out-of-Order Simulator ***
Warmup Instructions: 50000000
Simulation Instructions: 600000000
Number of CPUs: 1
Page size: 4096

CPU 0 Tage branch predictor
Off-chip DRAM Size: 4 GiB Channels: 1 Width: 64-bit Data Race: 3200 MT/s
Heartbeat CPU 0 instructions: 10000000 cycles: 2881055 heartbeat IPC: 3.471 cumulative IPC: 3.471 (Simulation time: 00 hr 00 min 42 sec)
Heartbeat CPU 0 instructions: 20000000 cycles: 5381055 heartbeat IPC: 4 cumulative IPC: 3.717 (Simulation time: 00 hr 01 min 20 sec)
Heartbeat CPU 0 instructions: 30000000 cycles: 7881055 heartbeat IPC: 4 cumulative IPC: 3.807 (Simulation time: 00 hr 01 min 58 sec)
Heartbeat CPU 0 instructions: 40000000 cycles: 10381055 heartbeat IPC: 4 cumulative IPC: 3.853 (Simulation time: 00 hr 02 min 35 sec)
Heartbeat CPU 0 instructions: 50000000 cycles: 12881055 heartbeat IPC: 4 cumulative IPC: 3.882 (Simulation time: 00 hr 03 min 13 sec)
Warmup finished CPU 0 instructions: 50000000 cycles: 12881056 cumulative IPC: 3.882 (Simulation time: 00 hr 03 min 13 sec)
Warmup complete CPU 0 instructions: 50000000 cycles: 12881056 cumulative IPC: 3.882 (Simulation time: 00 hr 03 min 13 sec)
Heartbeat CPU 0 instructions: 60000000 cycles: 18853463 heartbeat IPC: 1.674 cumulative IPC: 1.674 (Simulation time: 00 hr 04 min 24 sec)
Heartbeat CPU 0 instructions: 70000000 cycles: 24864320 heartbeat IPC: 1.664 cumulative IPC: 1.669 (Simulation time: 00 hr 05 min 35 sec)
Heartbeat CPU 0 instructions: 80000000 cycles: 30799062 heartbeat IPC: 1.685 cumulative IPC: 1.674 (Simulation time: 00 hr 06 min 46 sec)
Heartbeat CPU 0 instructions: 90000003 cycles: 36854105 heartbeat IPC: 1.652 cumulative IPC: 1.669 (Simulation time: 00 hr 07 min 57 sec)
Heartbeat CPU 0 instructions: 100000000 cycles: 43258138 heartbeat IPC: 1.562 cumulative IPC: 1.646 (Simulation time: 00 hr 09 min 10 sec)
Heartbeat CPU 0 instructions: 110000001 cycles: 49967379 heartbeat IPC: 1.49 cumulative IPC: 1.618 (Simulation time: 00 hr 10 min 26 sec)
Heartbeat CPU 0 instructions: 120000001 cycles: 56737607 heartbeat IPC: 1.477 cumulative IPC: 1.596 (Simulation time: 00 hr 11 min 42 sec)
Heartbeat CPU 0 instructions: 130000002 cycles: 63380387 heartbeat IPC: 1.505 cumulative IPC: 1.584 (Simulation time: 00 hr 12 min 59 sec)
Heartbeat CPU 0 instructions: 140000004 cycles: 70171328 heartbeat IPC: 1.473 cumulative IPC: 1.571 (Simulation time: 00 hr 14 min 19 sec)
Heartbeat CPU 0 instructions: 150000000 cycles: 76889500 heartbeat IPC: 1.488 cumulative IPC: 1.562 (Simulation time: 00 hr 15 min 34 sec)
Heartbeat CPU 0 instructions: 160000001 cycles: 83579598 heartbeat IPC: 1.495 cumulative IPC: 1.556 (Simulation time: 00 hr 16 min 51 sec)
Heartbeat CPU 0 instructions: 170000001 cycles: 90239691 heartbeat IPC: 1.501 cumulative IPC: 1.551 (Simulation time: 00 hr 18 min 07 sec)
Heartbeat CPU 0 instructions: 180000002 cycles: 97010674 heartbeat IPC: 1.477 cumulative IPC: 1.545 (Simulation time: 00 hr 19 min 24 sec)
Heartbeat CPU 0 instructions: 190000002 cycles: 103439483 heartbeat IPC: 1.555 cumulative IPC: 1.546 (Simulation time: 00 hr 20 min 37 sec)
Heartbeat CPU 0 instructions: 200000000 cycles: 109208430 heartbeat IPC: 1.733 cumulative IPC: 1.557 (Simulation time: 00 hr 21 min 45 sec)
Heartbeat CPU 0 instructions: 210000001 cycles: 115525002 heartbeat IPC: 1.583 cumulative IPC: 1.559 (Simulation time: 00 hr 22 min 58 sec)
Heartbeat CPU 0 instructions: 220000001 cycles: 122216014 heartbeat IPC: 1.495 cumulative IPC: 1.555 (Simulation time: 00 hr 24 min 14 sec)
Heartbeat CPU 0 instructions: 230000004 cycles: 128997631 heartbeat IPC: 1.475 cumulative IPC: 1.55 (Simulation time: 00 hr 25 min 32 sec)
Heartbeat CPU 0 instructions: 240000001 cycles: 135707464 heartbeat IPC: 1.49 cumulative IPC: 1.547 (Simulation time: 00 hr 26 min 46 sec)
Heartbeat CPU 0 instructions: 250000002 cycles: 142423624 heartbeat IPC: 1.489 cumulative IPC: 1.544 (Simulation time: 00 hr 28 min 02 sec)
Heartbeat CPU 0 instructions: 260000002 cycles: 149095360 heartbeat IPC: 1.499 cumulative IPC: 1.542 (Simulation time: 00 hr 29 min 17 sec)
Heartbeat CPU 0 instructions: 270000003 cycles: 155752909 heartbeat IPC: 1.502 cumulative IPC: 1.54 (Simulation time: 00 hr 30 min 34 sec)
Heartbeat CPU 0 instructions: 280000000 cycles: 162495701 heartbeat IPC: 1.483 cumulative IPC: 1.537 (Simulation time: 00 hr 31 min 54 sec)
Heartbeat CPU 0 instructions: 290000001 cycles: 219583000 heartbeat IPC: 0.1752 cumulative IPC: 1.161 (Simulation time: 00 hr 38 min 26 sec)
Heartbeat CPU 0 instructions: 300000002 cycles: 222083128 heartbeat IPC: 4 cumulative IPC: 1.195 (Simulation time: 00 hr 39 min 09 sec)
Heartbeat CPU 0 instructions: 310000001 cycles: 224583223 heartbeat IPC: 4 cumulative IPC: 1.228 (Simulation time: 00 hr 39 min 53 sec)
Heartbeat CPU 0 instructions: 320000001 cycles: 227083351 heartbeat IPC: 4 cumulative IPC: 1.26 (Simulation time: 00 hr 40 min 36 sec)
Heartbeat CPU 0 instructions: 330000003 cycles: 229583394 heartbeat IPC: 4 cumulative IPC: 1.292 (Simulation time: 00 hr 41 min 19 sec)
Heartbeat CPU 0 instructions: 340000000 cycles: 232083479 heartbeat IPC: 4 cumulative IPC: 1.323 (Simulation time: 00 hr 42 min 02 sec)
Heartbeat CPU 0 instructions: 350000004 cycles: 234583566 heartbeat IPC: 4 cumulative IPC: 1.353 (Simulation time: 00 hr 42 min 43 sec)
Heartbeat CPU 0 instructions: 360000004 cycles: 237083653 heartbeat IPC: 4 cumulative IPC: 1.383 (Simulation time: 00 hr 43 min 24 sec)
Heartbeat CPU 0 instructions: 370000000 cycles: 239584140 heartbeat IPC: 3.999 cumulative IPC: 1.412 (Simulation time: 00 hr 44 min 06 sec)
Heartbeat CPU 0 instructions: 380000004 cycles: 242084225 heartbeat IPC: 4 cumulative IPC: 1.44 (Simulation time: 00 hr 44 min 48 sec)
Heartbeat CPU 0 instructions: 390000001 cycles: 244584310 heartbeat IPC: 4 cumulative IPC: 1.467 (Simulation time: 00 hr 45 min 30 sec)
Heartbeat CPU 0 instructions: 400000003 cycles: 247084396 heartbeat IPC: 4 cumulative IPC: 1.494 (Simulation time: 00 hr 46 min 12 sec)
Heartbeat CPU 0 instructions: 410000003 cycles: 249584525 heartbeat IPC: 4 cumulative IPC: 1.521 (Simulation time: 00 hr 46 min 53 sec)
Heartbeat CPU 0 instructions: 420000002 cycles: 252084612 heartbeat IPC: 4 cumulative IPC: 1.547 (Simulation time: 00 hr 47 min 35 sec)
Heartbeat CPU 0 instructions: 430000000 cycles: 254584697 heartbeat IPC: 4 cumulative IPC: 1.572 (Simulation time: 00 hr 48 min 15 sec)
Heartbeat CPU 0 instructions: 440000001 cycles: 257084783 heartbeat IPC: 4 cumulative IPC: 1.597 (Simulation time: 00 hr 48 min 58 sec)
Heartbeat CPU 0 instructions: 450000000 cycles: 259584867 heartbeat IPC: 4 cumulative IPC: 1.621 (Simulation time: 00 hr 49 min 40 sec)
Heartbeat CPU 0 instructions: 460000003 cycles: 262084910 heartbeat IPC: 4 cumulative IPC: 1.645 (Simulation time: 00 hr 50 min 23 sec)
Heartbeat CPU 0 instructions: 470000001 cycles: 264584997 heartbeat IPC: 4 cumulative IPC: 1.669 (Simulation time: 00 hr 51 min 06 sec)
Heartbeat CPU 0 instructions: 480000003 cycles: 267085081 heartbeat IPC: 4 cumulative IPC: 1.692 (Simulation time: 00 hr 51 min 48 sec)
Heartbeat CPU 0 instructions: 490000003 cycles: 269585168 heartbeat IPC: 4 cumulative IPC: 1.714 (Simulation time: 00 hr 52 min 30 sec)
Heartbeat CPU 0 instructions: 500000002 cycles: 272086157 heartbeat IPC: 3.998 cumulative IPC: 1.736 (Simulation time: 00 hr 53 min 11 sec)
Heartbeat CPU 0 instructions: 510000003 cycles: 278279715 heartbeat IPC: 1.615 cumulative IPC: 1.733 (Simulation time: 00 hr 54 min 21 sec)
Heartbeat CPU 0 instructions: 520000002 cycles: 382373179 heartbeat IPC: 0.09607 cumulative IPC: 1.272 (Simulation time: 01 hr 07 min 49 sec)
Heartbeat CPU 0 instructions: 530000004 cycles: 460438652 heartbeat IPC: 0.1281 cumulative IPC: 1.072 (Simulation time: 01 hr 17 min 43 sec)
Heartbeat CPU 0 instructions: 540000000 cycles: 490527644 heartbeat IPC: 0.3323 cumulative IPC: 1.026 (Simulation time: 01 hr 21 min 53 sec)
Heartbeat CPU 0 instructions: 550000002 cycles: 520840141 heartbeat IPC: 0.3299 cumulative IPC: 0.9843 (Simulation time: 01 hr 26 min 02 sec)
Heartbeat CPU 0 instructions: 560000004 cycles: 551139518 heartbeat IPC: 0.33 cumulative IPC: 0.9475 (Simulation time: 01 hr 30 min 11 sec)
Heartbeat CPU 0 instructions: 570000000 cycles: 581795298 heartbeat IPC: 0.3262 cumulative IPC: 0.914 (Simulation time: 01 hr 34 min 25 sec)
Heartbeat CPU 0 instructions: 580000003 cycles: 612695988 heartbeat IPC: 0.3236 cumulative IPC: 0.8836 (Simulation time: 01 hr 38 min 41 sec)
Heartbeat CPU 0 instructions: 590000004 cycles: 644278427 heartbeat IPC: 0.3166 cumulative IPC: 0.8552 (Simulation time: 01 hr 43 min 06 sec)
*** Reached end of trace: (0, "traces/sp.A.champsimtrace")
Heartbeat CPU 0 instructions: 600000002 cycles: 675642528 heartbeat IPC: 0.3188 cumulative IPC: 0.8299 (Simulation time: 01 hr 47 min 31 sec)
Heartbeat CPU 0 instructions: 610000000 cycles: 707581477 heartbeat IPC: 0.3131 cumulative IPC: 0.8061 (Simulation time: 01 hr 50 min 59 sec)
Heartbeat CPU 0 instructions: 620000001 cycles: 713504197 heartbeat IPC: 1.688 cumulative IPC: 0.8136 (Simulation time: 01 hr 52 min 10 sec)
Heartbeat CPU 0 instructions: 630000003 cycles: 719499408 heartbeat IPC: 1.668 cumulative IPC: 0.8208 (Simulation time: 01 hr 53 min 21 sec)
Heartbeat CPU 0 instructions: 640000004 cycles: 725542184 heartbeat IPC: 1.655 cumulative IPC: 0.8279 (Simulation time: 01 hr 54 min 37 sec)
Heartbeat CPU 0 instructions: 650000001 cycles: 731649327 heartbeat IPC: 1.637 cumulative IPC: 0.8348 (Simulation time: 01 hr 55 min 50 sec)
Simulation finished CPU 0 instructions: 600000001 cycles: 718768272 cumulative IPC: 0.8348 (Simulation time: 01 hr 55 min 50 sec)
Simulation complete CPU 0 instructions: 600000001 cycles: 718768272 cumulative IPC: 0.8348 (Simulation time: 01 hr 55 min 50 sec)

ChampSim completed all CPUs

=== Simulation ===
CPU 0 runs traces/sp.A.champsimtrace
Region of Interest Statistics

CPU 0 cumulative IPC: 0.8348 instructions: 600000001 cycles: 718768272
CPU 0 Branch Prediction Accuracy: 99.98% MPKI: 0.003913 Average ROB Occupancy at Mispredict: 106.2
Branch type MPKI
BRANCH_DIRECT_JUMP: 5e-06
BRANCH_INDIRECT: 7.5e-05
BRANCH_CONDITIONAL: 0.00374
BRANCH_DIRECT_CALL: 2e-05
BRANCH_INDIRECT_CALL: 3.17e-05
BRANCH_RETURN: 3.67e-05

LLC TOTAL        ACCESS:    5276787 HIT:    2560196 MISS:    2716591
LLC LOAD         ACCESS:    2304977 HIT:     513842 MISS:    1791135
LLC RFO          ACCESS:     922635 HIT:       6822 MISS:     915813
LLC PREFETCH     ACCESS:          0 HIT:          0 MISS:          0
LLC WRITE        ACCESS:    2045698 HIT:    2037892 MISS:       7806
LLC TRANSLATION  ACCESS:       3477 HIT:       1640 MISS:       1837
LLC PREFETCH REQUESTED:          0 ISSUED:          0 USEFUL:          0 USELESS:          0
LLC AVERAGE MISS LATENCY: 1268 cycles
cpu0_DTLB TOTAL        ACCESS:  127367856 HIT:  126382045 MISS:     985811
cpu0_DTLB LOAD         ACCESS:  127367856 HIT:  126382045 MISS:     985811
cpu0_DTLB RFO          ACCESS:          0 HIT:          0 MISS:          0
cpu0_DTLB PREFETCH     ACCESS:          0 HIT:          0 MISS:          0
cpu0_DTLB WRITE        ACCESS:          0 HIT:          0 MISS:          0
cpu0_DTLB TRANSLATION  ACCESS:          0 HIT:          0 MISS:          0
cpu0_DTLB PREFETCH REQUESTED:          0 ISSUED:          0 USEFUL:          0 USELESS:          0
cpu0_DTLB AVERAGE MISS LATENCY: 16.55 cycles
cpu0_ITLB TOTAL        ACCESS:     233579 HIT:     233328 MISS:        251
cpu0_ITLB LOAD         ACCESS:     233579 HIT:     233328 MISS:        251
cpu0_ITLB RFO          ACCESS:          0 HIT:          0 MISS:          0
cpu0_ITLB PREFETCH     ACCESS:          0 HIT:          0 MISS:          0
cpu0_ITLB WRITE        ACCESS:          0 HIT:          0 MISS:          0
cpu0_ITLB TRANSLATION  ACCESS:          0 HIT:          0 MISS:          0
cpu0_ITLB PREFETCH REQUESTED:          0 ISSUED:          0 USEFUL:          0 USELESS:          0
cpu0_ITLB AVERAGE MISS LATENCY: 326.9 cycles
cpu0_L1D TOTAL        ACCESS:  193485806 HIT:  179025204 MISS:   14460602
cpu0_L1D LOAD         ACCESS:  158243610 HIT:  147921740 MISS:   10321870
cpu0_L1D RFO          ACCESS:          0 HIT:          0 MISS:          0
cpu0_L1D PREFETCH     ACCESS:          0 HIT:          0 MISS:          0
cpu0_L1D WRITE        ACCESS:   35194319 HIT:   31073904 MISS:    4120415
cpu0_L1D TRANSLATION  ACCESS:      47877 HIT:      29560 MISS:      18317
cpu0_L1D PREFETCH REQUESTED:          0 ISSUED:          0 USEFUL:          0 USELESS:          0
cpu0_L1D AVERAGE MISS LATENCY: 174.4 cycles
cpu0_L1I TOTAL        ACCESS:     244349 HIT:     241351 MISS:       2998
cpu0_L1I LOAD         ACCESS:     244349 HIT:     241351 MISS:       2998
cpu0_L1I RFO          ACCESS:          0 HIT:          0 MISS:          0
cpu0_L1I PREFETCH     ACCESS:          0 HIT:          0 MISS:          0
cpu0_L1I WRITE        ACCESS:          0 HIT:          0 MISS:          0
cpu0_L1I TRANSLATION  ACCESS:          0 HIT:          0 MISS:          0
cpu0_L1I PREFETCH REQUESTED:          0 ISSUED:          0 USEFUL:          0 USELESS:          0
cpu0_L1I AVERAGE MISS LATENCY: 497.4 cycles
cpu0_L2C TOTAL        ACCESS:    5443765 HIT:    2212119 MISS:    3231646
cpu0_L2C LOAD         ACCESS:    2445549 HIT:     140385 MISS:    2305164
cpu0_L2C RFO          ACCESS:     923518 HIT:        883 MISS:     922635
cpu0_L2C PREFETCH     ACCESS:          0 HIT:          0 MISS:          0
cpu0_L2C WRITE        ACCESS:    2056384 HIT:    2056014 MISS:        370
cpu0_L2C TRANSLATION  ACCESS:      18314 HIT:      14837 MISS:       3477
cpu0_L2C PREFETCH REQUESTED:          0 ISSUED:          0 USEFUL:          0 USELESS:          0
cpu0_L2C AVERAGE MISS LATENCY: 1087 cycles
cpu0_STLB TOTAL        ACCESS:     737587 HIT:     689740 MISS:      47847
cpu0_STLB LOAD         ACCESS:     737587 HIT:     689740 MISS:      47847
cpu0_STLB RFO          ACCESS:          0 HIT:          0 MISS:          0
cpu0_STLB PREFETCH     ACCESS:          0 HIT:          0 MISS:          0
cpu0_STLB WRITE        ACCESS:          0 HIT:          0 MISS:          0
cpu0_STLB TRANSLATION  ACCESS:          0 HIT:          0 MISS:          0
cpu0_STLB PREFETCH REQUESTED:          0 ISSUED:          0 USEFUL:          0 USELESS:          0
cpu0_STLB AVERAGE MISS LATENCY: 307.8 cycles

DRAM Statistics

Channel 0 RQ ROW_BUFFER_HIT:     714089
  ROW_BUFFER_MISS:    1994556
 AVG DBUS CONGESTED CYCLE: 3.975
WQ ROW_BUFFER_HIT: Channel 0 
  ROW_BUFFER_MISS:     346210
  FULL:    1432466
