WARNING: physical memory size is smaller than virtual memory size.

*** ChampSim Multicore Out-of-Order Simulator ***
Warmup Instructions: 50000000
Simulation Instructions: 600000000
Number of CPUs: 1
Page size: 4096

CPU 0 Tage branch predictor
Off-chip DRAM Size: 4 GiB Channels: 1 Width: 64-bit Data Race: 3200 MT/s
Heartbeat CPU 0 instructions: 10000000 cycles: 2881055 heartbeat IPC: 3.471 cumulative IPC: 3.471 (Simulation time: 00 hr 00 min 40 sec)
Heartbeat CPU 0 instructions: 20000000 cycles: 5381055 heartbeat IPC: 4 cumulative IPC: 3.717 (Simulation time: 00 hr 01 min 16 sec)
Heartbeat CPU 0 instructions: 30000000 cycles: 7881055 heartbeat IPC: 4 cumulative IPC: 3.807 (Simulation time: 00 hr 01 min 52 sec)
Heartbeat CPU 0 instructions: 40000000 cycles: 10381055 heartbeat IPC: 4 cumulative IPC: 3.853 (Simulation time: 00 hr 02 min 28 sec)
Heartbeat CPU 0 instructions: 50000000 cycles: 12881055 heartbeat IPC: 4 cumulative IPC: 3.882 (Simulation time: 00 hr 03 min 04 sec)
Warmup finished CPU 0 instructions: 50000000 cycles: 12881056 cumulative IPC: 3.882 (Simulation time: 00 hr 03 min 04 sec)
Warmup complete CPU 0 instructions: 50000000 cycles: 12881056 cumulative IPC: 3.882 (Simulation time: 00 hr 03 min 04 sec)
Heartbeat CPU 0 instructions: 60000000 cycles: 18834938 heartbeat IPC: 1.68 cumulative IPC: 1.68 (Simulation time: 00 hr 04 min 13 sec)
Heartbeat CPU 0 instructions: 70000000 cycles: 24772155 heartbeat IPC: 1.684 cumulative IPC: 1.682 (Simulation time: 00 hr 05 min 23 sec)
Heartbeat CPU 0 instructions: 80000000 cycles: 30720237 heartbeat IPC: 1.681 cumulative IPC: 1.682 (Simulation time: 00 hr 06 min 33 sec)
Heartbeat CPU 0 instructions: 90000003 cycles: 36730915 heartbeat IPC: 1.664 cumulative IPC: 1.677 (Simulation time: 00 hr 07 min 44 sec)
Heartbeat CPU 0 instructions: 100000000 cycles: 43161205 heartbeat IPC: 1.555 cumulative IPC: 1.651 (Simulation time: 00 hr 08 min 58 sec)
Heartbeat CPU 0 instructions: 110000001 cycles: 49835145 heartbeat IPC: 1.498 cumulative IPC: 1.624 (Simulation time: 00 hr 10 min 13 sec)
Heartbeat CPU 0 instructions: 120000001 cycles: 56539009 heartbeat IPC: 1.492 cumulative IPC: 1.603 (Simulation time: 00 hr 11 min 28 sec)
Heartbeat CPU 0 instructions: 130000002 cycles: 63213912 heartbeat IPC: 1.498 cumulative IPC: 1.589 (Simulation time: 00 hr 12 min 42 sec)
Heartbeat CPU 0 instructions: 140000004 cycles: 70005076 heartbeat IPC: 1.473 cumulative IPC: 1.576 (Simulation time: 00 hr 13 min 58 sec)
Heartbeat CPU 0 instructions: 150000000 cycles: 76641506 heartbeat IPC: 1.507 cumulative IPC: 1.568 (Simulation time: 00 hr 15 min 10 sec)
Heartbeat CPU 0 instructions: 160000001 cycles: 83335478 heartbeat IPC: 1.494 cumulative IPC: 1.561 (Simulation time: 00 hr 16 min 25 sec)
Heartbeat CPU 0 instructions: 170000001 cycles: 90065541 heartbeat IPC: 1.486 cumulative IPC: 1.555 (Simulation time: 00 hr 17 min 39 sec)
Heartbeat CPU 0 instructions: 180000002 cycles: 96826991 heartbeat IPC: 1.479 cumulative IPC: 1.549 (Simulation time: 00 hr 18 min 53 sec)
Heartbeat CPU 0 instructions: 190000002 cycles: 103200668 heartbeat IPC: 1.569 cumulative IPC: 1.55 (Simulation time: 00 hr 20 min 04 sec)
Heartbeat CPU 0 instructions: 200000000 cycles: 108972715 heartbeat IPC: 1.732 cumulative IPC: 1.561 (Simulation time: 00 hr 21 min 12 sec)
Heartbeat CPU 0 instructions: 210000001 cycles: 115260382 heartbeat IPC: 1.59 cumulative IPC: 1.563 (Simulation time: 00 hr 22 min 25 sec)
Heartbeat CPU 0 instructions: 220000001 cycles: 121971186 heartbeat IPC: 1.49 cumulative IPC: 1.558 (Simulation time: 00 hr 23 min 39 sec)
Heartbeat CPU 0 instructions: 230000004 cycles: 128776122 heartbeat IPC: 1.47 cumulative IPC: 1.553 (Simulation time: 00 hr 24 min 53 sec)
Heartbeat CPU 0 instructions: 240000003 cycles: 135462995 heartbeat IPC: 1.495 cumulative IPC: 1.55 (Simulation time: 00 hr 26 min 10 sec)
Heartbeat CPU 0 instructions: 250000002 cycles: 142202627 heartbeat IPC: 1.484 cumulative IPC: 1.547 (Simulation time: 00 hr 27 min 28 sec)
Heartbeat CPU 0 instructions: 260000002 cycles: 148905650 heartbeat IPC: 1.492 cumulative IPC: 1.544 (Simulation time: 00 hr 28 min 42 sec)
Heartbeat CPU 0 instructions: 270000003 cycles: 155575284 heartbeat IPC: 1.499 cumulative IPC: 1.542 (Simulation time: 00 hr 29 min 57 sec)
Heartbeat CPU 0 instructions: 280000000 cycles: 162324254 heartbeat IPC: 1.482 cumulative IPC: 1.539 (Simulation time: 00 hr 31 min 13 sec)
Heartbeat CPU 0 instructions: 290000001 cycles: 219186035 heartbeat IPC: 0.1759 cumulative IPC: 1.163 (Simulation time: 00 hr 37 min 50 sec)
Heartbeat CPU 0 instructions: 300000002 cycles: 221686163 heartbeat IPC: 4 cumulative IPC: 1.197 (Simulation time: 00 hr 38 min 36 sec)
Heartbeat CPU 0 instructions: 310000001 cycles: 224186258 heartbeat IPC: 4 cumulative IPC: 1.23 (Simulation time: 00 hr 39 min 20 sec)
Heartbeat CPU 0 instructions: 320000001 cycles: 226686386 heartbeat IPC: 4 cumulative IPC: 1.263 (Simulation time: 00 hr 40 min 04 sec)
Heartbeat CPU 0 instructions: 330000003 cycles: 229186429 heartbeat IPC: 4 cumulative IPC: 1.294 (Simulation time: 00 hr 40 min 49 sec)
Heartbeat CPU 0 instructions: 340000000 cycles: 231686514 heartbeat IPC: 4 cumulative IPC: 1.325 (Simulation time: 00 hr 41 min 34 sec)
Heartbeat CPU 0 instructions: 350000004 cycles: 234186601 heartbeat IPC: 4 cumulative IPC: 1.356 (Simulation time: 00 hr 42 min 19 sec)
Heartbeat CPU 0 instructions: 360000004 cycles: 236686688 heartbeat IPC: 4 cumulative IPC: 1.385 (Simulation time: 00 hr 43 min 04 sec)
Heartbeat CPU 0 instructions: 370000000 cycles: 239186771 heartbeat IPC: 4 cumulative IPC: 1.414 (Simulation time: 00 hr 43 min 49 sec)
Heartbeat CPU 0 instructions: 380000004 cycles: 241686858 heartbeat IPC: 4 cumulative IPC: 1.442 (Simulation time: 00 hr 44 min 32 sec)
Heartbeat CPU 0 instructions: 390000001 cycles: 244186943 heartbeat IPC: 4 cumulative IPC: 1.47 (Simulation time: 00 hr 45 min 22 sec)
Heartbeat CPU 0 instructions: 400000003 cycles: 246687029 heartbeat IPC: 4 cumulative IPC: 1.497 (Simulation time: 00 hr 46 min 06 sec)
Heartbeat CPU 0 instructions: 410000003 cycles: 249187157 heartbeat IPC: 4 cumulative IPC: 1.523 (Simulation time: 00 hr 46 min 51 sec)
Heartbeat CPU 0 instructions: 420000002 cycles: 251687244 heartbeat IPC: 4 cumulative IPC: 1.549 (Simulation time: 00 hr 47 min 35 sec)
Heartbeat CPU 0 instructions: 430000000 cycles: 254187330 heartbeat IPC: 4 cumulative IPC: 1.575 (Simulation time: 00 hr 48 min 18 sec)
Heartbeat CPU 0 instructions: 440000001 cycles: 256687416 heartbeat IPC: 4 cumulative IPC: 1.6 (Simulation time: 00 hr 49 min 03 sec)
Heartbeat CPU 0 instructions: 450000000 cycles: 259187501 heartbeat IPC: 4 cumulative IPC: 1.624 (Simulation time: 00 hr 49 min 47 sec)
Heartbeat CPU 0 instructions: 460000003 cycles: 261687545 heartbeat IPC: 4 cumulative IPC: 1.648 (Simulation time: 00 hr 50 min 28 sec)
Heartbeat CPU 0 instructions: 470000001 cycles: 264187632 heartbeat IPC: 4 cumulative IPC: 1.671 (Simulation time: 00 hr 51 min 08 sec)
Heartbeat CPU 0 instructions: 480000003 cycles: 266687716 heartbeat IPC: 4 cumulative IPC: 1.694 (Simulation time: 00 hr 51 min 49 sec)
Heartbeat CPU 0 instructions: 490000003 cycles: 269187803 heartbeat IPC: 4 cumulative IPC: 1.717 (Simulation time: 00 hr 52 min 31 sec)
Heartbeat CPU 0 instructions: 500000002 cycles: 271688007 heartbeat IPC: 4 cumulative IPC: 1.739 (Simulation time: 00 hr 53 min 14 sec)
Heartbeat CPU 0 instructions: 510000004 cycles: 277871677 heartbeat IPC: 1.617 cumulative IPC: 1.736 (Simulation time: 00 hr 54 min 24 sec)
Heartbeat CPU 0 instructions: 520000004 cycles: 380090437 heartbeat IPC: 0.09783 cumulative IPC: 1.28 (Simulation time: 01 hr 08 min 17 sec)
Heartbeat CPU 0 instructions: 530000004 cycles: 457045220 heartbeat IPC: 0.1299 cumulative IPC: 1.081 (Simulation time: 01 hr 19 min 03 sec)
Heartbeat CPU 0 instructions: 540000000 cycles: 486978771 heartbeat IPC: 0.3341 cumulative IPC: 1.034 (Simulation time: 01 hr 23 min 50 sec)
Heartbeat CPU 0 instructions: 550000002 cycles: 516716038 heartbeat IPC: 0.3363 cumulative IPC: 0.9924 (Simulation time: 01 hr 28 min 23 sec)
Heartbeat CPU 0 instructions: 560000004 cycles: 546603435 heartbeat IPC: 0.3346 cumulative IPC: 0.9556 (Simulation time: 01 hr 32 min 44 sec)
Heartbeat CPU 0 instructions: 570000000 cycles: 576873087 heartbeat IPC: 0.3304 cumulative IPC: 0.922 (Simulation time: 01 hr 36 min 56 sec)
Heartbeat CPU 0 instructions: 580000003 cycles: 607522589 heartbeat IPC: 0.3263 cumulative IPC: 0.8913 (Simulation time: 01 hr 41 min 40 sec)
Heartbeat CPU 0 instructions: 590000004 cycles: 638441287 heartbeat IPC: 0.3234 cumulative IPC: 0.8632 (Simulation time: 01 hr 46 min 53 sec)
*** Reached end of trace: (0, "traces/sp.A.champsimtrace")
Heartbeat CPU 0 instructions: 600000002 cycles: 669349688 heartbeat IPC: 0.3235 cumulative IPC: 0.8378 (Simulation time: 01 hr 52 min 01 sec)
Heartbeat CPU 0 instructions: 610000000 cycles: 700287763 heartbeat IPC: 0.3232 cumulative IPC: 0.8147 (Simulation time: 01 hr 55 min 41 sec)
Heartbeat CPU 0 instructions: 620000001 cycles: 706216212 heartbeat IPC: 1.687 cumulative IPC: 0.8221 (Simulation time: 01 hr 57 min 11 sec)
Heartbeat CPU 0 instructions: 630000003 cycles: 712183353 heartbeat IPC: 1.676 cumulative IPC: 0.8294 (Simulation time: 01 hr 58 min 41 sec)
Heartbeat CPU 0 instructions: 640000004 cycles: 718156184 heartbeat IPC: 1.674 cumulative IPC: 0.8366 (Simulation time: 02 hr 00 min 06 sec)
Heartbeat CPU 0 instructions: 650000001 cycles: 724268057 heartbeat IPC: 1.636 cumulative IPC: 0.8434 (Simulation time: 02 hr 01 min 31 sec)
Simulation finished CPU 0 instructions: 600000001 cycles: 711387002 cumulative IPC: 0.8434 (Simulation time: 02 hr 01 min 31 sec)
Simulation complete CPU 0 instructions: 600000001 cycles: 711387002 cumulative IPC: 0.8434 (Simulation time: 02 hr 01 min 31 sec)

ChampSim completed all CPUs

=== Simulation ===
CPU 0 runs traces/sp.A.champsimtrace
Region of Interest Statistics

CPU 0 cumulative IPC: 0.8434 instructions: 600000001 cycles: 711387002
CPU 0 Branch Prediction Accuracy: 99.98% MPKI: 0.003913 Average ROB Occupancy at Mispredict: 106.1
Branch type MPKI
BRANCH_DIRECT_JUMP: 5e-06
BRANCH_INDIRECT: 7.5e-05
BRANCH_CONDITIONAL: 0.00374
BRANCH_DIRECT_CALL: 2e-05
BRANCH_INDIRECT_CALL: 3.17e-05
BRANCH_RETURN: 3.67e-05

LLC TOTAL        ACCESS:    5276809 HIT:    2571109 MISS:    2705700
LLC LOAD         ACCESS:    2304992 HIT:     517140 MISS:    1787852
LLC RFO          ACCESS:     922635 HIT:       6813 MISS:     915822
LLC PREFETCH     ACCESS:          0 HIT:          0 MISS:          0
LLC WRITE        ACCESS:    2045705 HIT:    2045517 MISS:        188
LLC TRANSLATION  ACCESS:       3477 HIT:       1639 MISS:       1838
LLC PREFETCH REQUESTED:          0 ISSUED:          0 USEFUL:          0 USELESS:          0
LLC AVERAGE MISS LATENCY: 1256 cycles
cpu0_DTLB TOTAL        ACCESS:  127414809 HIT:  126429124 MISS:     985685
cpu0_DTLB LOAD         ACCESS:  127414809 HIT:  126429124 MISS:     985685
cpu0_DTLB RFO          ACCESS:          0 HIT:          0 MISS:          0
cpu0_DTLB PREFETCH     ACCESS:          0 HIT:          0 MISS:          0
cpu0_DTLB WRITE        ACCESS:          0 HIT:          0 MISS:          0
cpu0_DTLB TRANSLATION  ACCESS:          0 HIT:          0 MISS:          0
cpu0_DTLB PREFETCH REQUESTED:          0 ISSUED:          0 USEFUL:          0 USELESS:          0
cpu0_DTLB AVERAGE MISS LATENCY: 16.59 cycles
cpu0_ITLB TOTAL        ACCESS:     233615 HIT:     233365 MISS:        250
cpu0_ITLB LOAD         ACCESS:     233615 HIT:     233365 MISS:        250
cpu0_ITLB RFO          ACCESS:          0 HIT:          0 MISS:          0
cpu0_ITLB PREFETCH     ACCESS:          0 HIT:          0 MISS:          0
cpu0_ITLB WRITE        ACCESS:          0 HIT:          0 MISS:          0
cpu0_ITLB TRANSLATION  ACCESS:          0 HIT:          0 MISS:          0
cpu0_ITLB PREFETCH REQUESTED:          0 ISSUED:          0 USEFUL:          0 USELESS:          0
cpu0_ITLB AVERAGE MISS LATENCY: 316.5 cycles
cpu0_L1D TOTAL        ACCESS:  193544030 HIT:  179081240 MISS:   14462790
cpu0_L1D LOAD         ACCESS:  158301829 HIT:  147975704 MISS:   10326125
cpu0_L1D RFO          ACCESS:          0 HIT:          0 MISS:          0
cpu0_L1D PREFETCH     ACCESS:          0 HIT:          0 MISS:          0
cpu0_L1D WRITE        ACCESS:   35194323 HIT:   31075978 MISS:    4118345
cpu0_L1D TRANSLATION  ACCESS:      47878 HIT:      29558 MISS:      18320
cpu0_L1D PREFETCH REQUESTED:          0 ISSUED:          0 USEFUL:          0 USELESS:          0
cpu0_L1D AVERAGE MISS LATENCY: 171.8 cycles
cpu0_L1I TOTAL        ACCESS:     244431 HIT:     241407 MISS:       3024
cpu0_L1I LOAD         ACCESS:     244431 HIT:     241407 MISS:       3024
cpu0_L1I RFO          ACCESS:          0 HIT:          0 MISS:          0
cpu0_L1I PREFETCH     ACCESS:          0 HIT:          0 MISS:          0
cpu0_L1I WRITE        ACCESS:          0 HIT:          0 MISS:          0
cpu0_L1I TRANSLATION  ACCESS:          0 HIT:          0 MISS:          0
cpu0_L1I PREFETCH REQUESTED:          0 ISSUED:          0 USEFUL:          0 USELESS:          0
cpu0_L1I AVERAGE MISS LATENCY: 472.4 cycles
cpu0_L2C TOTAL        ACCESS:    5443670 HIT:    2212011 MISS:    3231659
cpu0_L2C LOAD         ACCESS:    2445459 HIT:     140282 MISS:    2305177
cpu0_L2C RFO          ACCESS:     923515 HIT:        880 MISS:     922635
cpu0_L2C PREFETCH     ACCESS:          0 HIT:          0 MISS:          0
cpu0_L2C WRITE        ACCESS:    2056379 HIT:    2056009 MISS:        370
cpu0_L2C TRANSLATION  ACCESS:      18317 HIT:      14840 MISS:       3477
cpu0_L2C PREFETCH REQUESTED:          0 ISSUED:          0 USEFUL:          0 USELESS:          0
cpu0_L2C AVERAGE MISS LATENCY: 1073 cycles
cpu0_STLB TOTAL        ACCESS:     737701 HIT:     689852 MISS:      47849
cpu0_STLB LOAD         ACCESS:     737701 HIT:     689852 MISS:      47849
cpu0_STLB RFO          ACCESS:          0 HIT:          0 MISS:          0
cpu0_STLB PREFETCH     ACCESS:          0 HIT:          0 MISS:          0
cpu0_STLB WRITE        ACCESS:          0 HIT:          0 MISS:          0
cpu0_STLB TRANSLATION  ACCESS:          0 HIT:          0 MISS:          0
cpu0_STLB PREFETCH REQUESTED:          0 ISSUED:          0 USEFUL:          0 USELESS:          0
cpu0_STLB AVERAGE MISS LATENCY: 306.5 cycles

DRAM Statistics

Channel 0 RQ ROW_BUFFER_HIT:     714272
  ROW_BUFFER_MISS:    1991239
 AVG DBUS CONGESTED CYCLE: 3.974
WQ ROW_BUFFER_HIT: Channel 0 
  ROW_BUFFER_MISS:     380071
  FULL:    1397073
