WARNING: physical memory size is smaller than virtual memory size.

*** ChampSim Multicore Out-of-Order Simulator ***
Warmup Instructions: 50000000
Simulation Instructions: 600000000
Number of CPUs: 1
Page size: 4096

CPU 0 Tage branch predictor
Off-chip DRAM Size: 4 GiB Channels: 1 Width: 64-bit Data Race: 3200 MT/s
Heartbeat CPU 0 instructions: 10000003 cycles: 2881057 heartbeat IPC: 3.471 cumulative IPC: 3.471 (Simulation time: 00 hr 00 min 57 sec)
Heartbeat CPU 0 instructions: 20000003 cycles: 5381057 heartbeat IPC: 4 cumulative IPC: 3.717 (Simulation time: 00 hr 01 min 52 sec)
Heartbeat CPU 0 instructions: 30000003 cycles: 7881057 heartbeat IPC: 4 cumulative IPC: 3.807 (Simulation time: 00 hr 02 min 47 sec)
Heartbeat CPU 0 instructions: 40000003 cycles: 10381057 heartbeat IPC: 4 cumulative IPC: 3.853 (Simulation time: 00 hr 03 min 38 sec)
Heartbeat CPU 0 instructions: 50000003 cycles: 12881057 heartbeat IPC: 4 cumulative IPC: 3.882 (Simulation time: 00 hr 04 min 29 sec)
Warmup finished CPU 0 instructions: 50000003 cycles: 12881058 cumulative IPC: 3.882 (Simulation time: 00 hr 04 min 29 sec)
Warmup complete CPU 0 instructions: 50000003 cycles: 12881058 cumulative IPC: 3.882 (Simulation time: 00 hr 04 min 29 sec)
Heartbeat CPU 0 instructions: 60000000 cycles: 18794484 heartbeat IPC: 1.691 cumulative IPC: 1.691 (Simulation time: 00 hr 06 min 01 sec)
Heartbeat CPU 0 instructions: 70000002 cycles: 24712964 heartbeat IPC: 1.69 cumulative IPC: 1.69 (Simulation time: 00 hr 07 min 36 sec)
Heartbeat CPU 0 instructions: 80000001 cycles: 30620940 heartbeat IPC: 1.693 cumulative IPC: 1.691 (Simulation time: 00 hr 09 min 09 sec)
Heartbeat CPU 0 instructions: 90000003 cycles: 36534459 heartbeat IPC: 1.691 cumulative IPC: 1.691 (Simulation time: 00 hr 10 min 41 sec)
Heartbeat CPU 0 instructions: 100000000 cycles: 40603884 heartbeat IPC: 2.457 cumulative IPC: 1.804 (Simulation time: 00 hr 11 min 54 sec)
Heartbeat CPU 0 instructions: 110000004 cycles: 43118612 heartbeat IPC: 3.977 cumulative IPC: 1.984 (Simulation time: 00 hr 12 min 51 sec)
Heartbeat CPU 0 instructions: 120000000 cycles: 45643943 heartbeat IPC: 3.96 cumulative IPC: 2.137 (Simulation time: 00 hr 13 min 46 sec)
Heartbeat CPU 0 instructions: 130000000 cycles: 49069068 heartbeat IPC: 2.92 cumulative IPC: 2.211 (Simulation time: 00 hr 14 min 52 sec)
Heartbeat CPU 0 instructions: 140000004 cycles: 55800258 heartbeat IPC: 1.486 cumulative IPC: 2.097 (Simulation time: 00 hr 16 min 31 sec)
Heartbeat CPU 0 instructions: 150000001 cycles: 62963741 heartbeat IPC: 1.396 cumulative IPC: 1.997 (Simulation time: 00 hr 18 min 15 sec)
Heartbeat CPU 0 instructions: 160000002 cycles: 69804436 heartbeat IPC: 1.462 cumulative IPC: 1.932 (Simulation time: 00 hr 19 min 55 sec)
Heartbeat CPU 0 instructions: 170000000 cycles: 76931636 heartbeat IPC: 1.403 cumulative IPC: 1.874 (Simulation time: 00 hr 21 min 37 sec)
Heartbeat CPU 0 instructions: 180000000 cycles: 83951395 heartbeat IPC: 1.425 cumulative IPC: 1.829 (Simulation time: 00 hr 23 min 18 sec)
Heartbeat CPU 0 instructions: 190000000 cycles: 90251922 heartbeat IPC: 1.587 cumulative IPC: 1.809 (Simulation time: 00 hr 24 min 56 sec)
Heartbeat CPU 0 instructions: 200000003 cycles: 95057038 heartbeat IPC: 2.081 cumulative IPC: 1.825 (Simulation time: 00 hr 26 min 16 sec)
Heartbeat CPU 0 instructions: 210000001 cycles: 99897259 heartbeat IPC: 2.066 cumulative IPC: 1.839 (Simulation time: 00 hr 27 min 37 sec)
Heartbeat CPU 0 instructions: 220000004 cycles: 104812630 heartbeat IPC: 2.034 cumulative IPC: 1.849 (Simulation time: 00 hr 28 min 57 sec)
Heartbeat CPU 0 instructions: 230000000 cycles: 109669168 heartbeat IPC: 2.059 cumulative IPC: 1.86 (Simulation time: 00 hr 30 min 18 sec)
Heartbeat CPU 0 instructions: 240000003 cycles: 114496109 heartbeat IPC: 2.072 cumulative IPC: 1.87 (Simulation time: 00 hr 31 min 38 sec)
Heartbeat CPU 0 instructions: 250000002 cycles: 119402859 heartbeat IPC: 2.038 cumulative IPC: 1.878 (Simulation time: 00 hr 32 min 59 sec)
Heartbeat CPU 0 instructions: 260000000 cycles: 124344280 heartbeat IPC: 2.024 cumulative IPC: 1.884 (Simulation time: 00 hr 34 min 20 sec)
Heartbeat CPU 0 instructions: 270000003 cycles: 129281547 heartbeat IPC: 2.025 cumulative IPC: 1.89 (Simulation time: 00 hr 35 min 41 sec)
Heartbeat CPU 0 instructions: 280000003 cycles: 134222093 heartbeat IPC: 2.024 cumulative IPC: 1.895 (Simulation time: 00 hr 37 min 03 sec)
Heartbeat CPU 0 instructions: 290000000 cycles: 179344144 heartbeat IPC: 0.2216 cumulative IPC: 1.442 (Simulation time: 00 hr 44 min 00 sec)
Heartbeat CPU 0 instructions: 300000001 cycles: 181844272 heartbeat IPC: 4 cumulative IPC: 1.48 (Simulation time: 00 hr 44 min 54 sec)
Heartbeat CPU 0 instructions: 310000000 cycles: 184344471 heartbeat IPC: 4 cumulative IPC: 1.516 (Simulation time: 00 hr 45 min 49 sec)
Heartbeat CPU 0 instructions: 320000002 cycles: 186845432 heartbeat IPC: 3.998 cumulative IPC: 1.552 (Simulation time: 00 hr 46 min 43 sec)
Heartbeat CPU 0 instructions: 330000004 cycles: 189347147 heartbeat IPC: 3.997 cumulative IPC: 1.587 (Simulation time: 00 hr 47 min 38 sec)
Heartbeat CPU 0 instructions: 340000004 cycles: 191847389 heartbeat IPC: 4 cumulative IPC: 1.62 (Simulation time: 00 hr 48 min 32 sec)
Heartbeat CPU 0 instructions: 350000003 cycles: 194347569 heartbeat IPC: 4 cumulative IPC: 1.653 (Simulation time: 00 hr 49 min 26 sec)
Heartbeat CPU 0 instructions: 360000002 cycles: 196847955 heartbeat IPC: 3.999 cumulative IPC: 1.685 (Simulation time: 00 hr 50 min 21 sec)
Heartbeat CPU 0 instructions: 370000004 cycles: 199348232 heartbeat IPC: 4 cumulative IPC: 1.716 (Simulation time: 00 hr 51 min 16 sec)
Heartbeat CPU 0 instructions: 380000003 cycles: 201849108 heartbeat IPC: 3.999 cumulative IPC: 1.746 (Simulation time: 00 hr 52 min 13 sec)
Heartbeat CPU 0 instructions: 390000000 cycles: 204349491 heartbeat IPC: 3.999 cumulative IPC: 1.776 (Simulation time: 00 hr 53 min 08 sec)
Heartbeat CPU 0 instructions: 400000002 cycles: 206851085 heartbeat IPC: 3.997 cumulative IPC: 1.804 (Simulation time: 00 hr 54 min 04 sec)
Heartbeat CPU 0 instructions: 410000002 cycles: 209351456 heartbeat IPC: 3.999 cumulative IPC: 1.832 (Simulation time: 00 hr 54 min 58 sec)
Heartbeat CPU 0 instructions: 420000000 cycles: 211853195 heartbeat IPC: 3.997 cumulative IPC: 1.86 (Simulation time: 00 hr 55 min 53 sec)
Heartbeat CPU 0 instructions: 430000001 cycles: 214353309 heartbeat IPC: 4 cumulative IPC: 1.886 (Simulation time: 00 hr 56 min 47 sec)
Heartbeat CPU 0 instructions: 440000002 cycles: 216874608 heartbeat IPC: 3.966 cumulative IPC: 1.912 (Simulation time: 00 hr 57 min 43 sec)
Heartbeat CPU 0 instructions: 450000001 cycles: 219375184 heartbeat IPC: 3.999 cumulative IPC: 1.937 (Simulation time: 00 hr 58 min 37 sec)
Heartbeat CPU 0 instructions: 460000002 cycles: 221875291 heartbeat IPC: 4 cumulative IPC: 1.962 (Simulation time: 00 hr 59 min 31 sec)
Heartbeat CPU 0 instructions: 470000001 cycles: 224376353 heartbeat IPC: 3.998 cumulative IPC: 1.986 (Simulation time: 01 hr 00 min 25 sec)
Heartbeat CPU 0 instructions: 480000000 cycles: 226876466 heartbeat IPC: 4 cumulative IPC: 2.009 (Simulation time: 01 hr 01 min 19 sec)
Heartbeat CPU 0 instructions: 490000001 cycles: 229377266 heartbeat IPC: 3.999 cumulative IPC: 2.032 (Simulation time: 01 hr 02 min 13 sec)
Heartbeat CPU 0 instructions: 500000004 cycles: 231878185 heartbeat IPC: 3.999 cumulative IPC: 2.055 (Simulation time: 01 hr 03 min 07 sec)
Heartbeat CPU 0 instructions: 510000000 cycles: 239499392 heartbeat IPC: 1.312 cumulative IPC: 2.03 (Simulation time: 01 hr 04 min 50 sec)
Heartbeat CPU 0 instructions: 520000002 cycles: 338319420 heartbeat IPC: 0.1012 cumulative IPC: 1.444 (Simulation time: 01 hr 19 min 39 sec)
Heartbeat CPU 0 instructions: 530000001 cycles: 412982765 heartbeat IPC: 0.1339 cumulative IPC: 1.2 (Simulation time: 01 hr 29 min 56 sec)
Heartbeat CPU 0 instructions: 540000000 cycles: 444383490 heartbeat IPC: 0.3185 cumulative IPC: 1.136 (Simulation time: 01 hr 34 min 30 sec)
Heartbeat CPU 0 instructions: 550000001 cycles: 483120416 heartbeat IPC: 0.2582 cumulative IPC: 1.063 (Simulation time: 01 hr 40 min 02 sec)
Heartbeat CPU 0 instructions: 560000003 cycles: 519805768 heartbeat IPC: 0.2726 cumulative IPC: 1.006 (Simulation time: 01 hr 45 min 19 sec)
Heartbeat CPU 0 instructions: 570000004 cycles: 553446879 heartbeat IPC: 0.2973 cumulative IPC: 0.962 (Simulation time: 01 hr 50 min 09 sec)
Heartbeat CPU 0 instructions: 580000002 cycles: 581800499 heartbeat IPC: 0.3527 cumulative IPC: 0.9316 (Simulation time: 01 hr 54 min 41 sec)
Heartbeat CPU 0 instructions: 590000001 cycles: 618909964 heartbeat IPC: 0.2695 cumulative IPC: 0.891 (Simulation time: 01 hr 59 min 41 sec)
*** Reached end of trace: (0, "traces/sp.A.champsimtrace")
Heartbeat CPU 0 instructions: 600000002 cycles: 656063499 heartbeat IPC: 0.2692 cumulative IPC: 0.8551 (Simulation time: 02 hr 04 min 21 sec)
Heartbeat CPU 0 instructions: 610000004 cycles: 688243998 heartbeat IPC: 0.3107 cumulative IPC: 0.8292 (Simulation time: 02 hr 07 min 28 sec)
Heartbeat CPU 0 instructions: 620000003 cycles: 694183607 heartbeat IPC: 1.684 cumulative IPC: 0.8366 (Simulation time: 02 hr 08 min 14 sec)
Heartbeat CPU 0 instructions: 630000001 cycles: 700060897 heartbeat IPC: 1.701 cumulative IPC: 0.844 (Simulation time: 02 hr 09 min 00 sec)
Heartbeat CPU 0 instructions: 640000000 cycles: 705998466 heartbeat IPC: 1.684 cumulative IPC: 0.8512 (Simulation time: 02 hr 09 min 45 sec)
Heartbeat CPU 0 instructions: 650000003 cycles: 711960138 heartbeat IPC: 1.677 cumulative IPC: 0.8583 (Simulation time: 02 hr 10 min 28 sec)
Simulation finished CPU 0 instructions: 600000000 cycles: 699079081 cumulative IPC: 0.8583 (Simulation time: 02 hr 10 min 28 sec)
Simulation complete CPU 0 instructions: 600000000 cycles: 699079081 cumulative IPC: 0.8583 (Simulation time: 02 hr 10 min 28 sec)

ChampSim completed all CPUs

=== Simulation ===
CPU 0 runs traces/sp.A.champsimtrace
Region of Interest Statistics

CPU 0 cumulative IPC: 0.8583 instructions: 600000000 cycles: 699079081
CPU 0 Branch Prediction Accuracy: 99.98% MPKI: 0.004213 Average ROB Occupancy at Mispredict: 119
Branch type MPKI
BRANCH_DIRECT_JUMP: 5e-06
BRANCH_INDIRECT: 7.67e-05
BRANCH_CONDITIONAL: 0.00404
BRANCH_DIRECT_CALL: 2e-05
BRANCH_INDIRECT_CALL: 3.33e-05
BRANCH_RETURN: 3.67e-05

LLC TOTAL        ACCESS:    5280475 HIT:    1151369 MISS:    4129106
LLC LOAD         ACCESS:    2308160 HIT:     554809 MISS:    1753351
LLC RFO          ACCESS:     922676 HIT:       1404 MISS:     921272
LLC PREFETCH     ACCESS:          0 HIT:          0 MISS:          0
LLC WRITE        ACCESS:    2046169 HIT:     594856 MISS:    1451313
LLC TRANSLATION  ACCESS:       3470 HIT:        300 MISS:       3170
LLC PREFETCH REQUESTED:          0 ISSUED:          0 USEFUL:          0 USELESS:          0
LLC AVERAGE MISS LATENCY: 801.2 cycles
cpu0_DTLB TOTAL        ACCESS:  127338507 HIT:  126278787 MISS:    1059720
cpu0_DTLB LOAD         ACCESS:  127338507 HIT:  126278787 MISS:    1059720
cpu0_DTLB RFO          ACCESS:          0 HIT:          0 MISS:          0
cpu0_DTLB PREFETCH     ACCESS:          0 HIT:          0 MISS:          0
cpu0_DTLB WRITE        ACCESS:          0 HIT:          0 MISS:          0
cpu0_DTLB TRANSLATION  ACCESS:          0 HIT:          0 MISS:          0
cpu0_DTLB PREFETCH REQUESTED:          0 ISSUED:          0 USEFUL:          0 USELESS:          0
cpu0_DTLB AVERAGE MISS LATENCY: 16.74 cycles
cpu0_ITLB TOTAL        ACCESS:     234979 HIT:     234729 MISS:        250
cpu0_ITLB LOAD         ACCESS:     234979 HIT:     234729 MISS:        250
cpu0_ITLB RFO          ACCESS:          0 HIT:          0 MISS:          0
cpu0_ITLB PREFETCH     ACCESS:          0 HIT:          0 MISS:          0
cpu0_ITLB WRITE        ACCESS:          0 HIT:          0 MISS:          0
cpu0_ITLB TRANSLATION  ACCESS:          0 HIT:          0 MISS:          0
cpu0_ITLB PREFETCH REQUESTED:          0 ISSUED:          0 USEFUL:          0 USELESS:          0
cpu0_ITLB AVERAGE MISS LATENCY: 284 cycles
cpu0_L1D TOTAL        ACCESS:  192865901 HIT:  178331007 MISS:   14534894
cpu0_L1D LOAD         ACCESS:  157623890 HIT:  147259565 MISS:   10364325
cpu0_L1D RFO          ACCESS:          0 HIT:          0 MISS:          0
cpu0_L1D PREFETCH     ACCESS:          0 HIT:          0 MISS:          0
cpu0_L1D WRITE        ACCESS:   35194138 HIT:   31041842 MISS:    4152296
cpu0_L1D TRANSLATION  ACCESS:      47873 HIT:      29600 MISS:      18273
cpu0_L1D PREFETCH REQUESTED:          0 ISSUED:          0 USEFUL:          0 USELESS:          0
cpu0_L1D AVERAGE MISS LATENCY: 168 cycles
cpu0_L1I TOTAL        ACCESS:     245563 HIT:     242535 MISS:       3028
cpu0_L1I LOAD         ACCESS:     245563 HIT:     242535 MISS:       3028
cpu0_L1I RFO          ACCESS:          0 HIT:          0 MISS:          0
cpu0_L1I PREFETCH     ACCESS:          0 HIT:          0 MISS:          0
cpu0_L1I WRITE        ACCESS:          0 HIT:          0 MISS:          0
cpu0_L1I TRANSLATION  ACCESS:          0 HIT:          0 MISS:          0
cpu0_L1I PREFETCH REQUESTED:          0 ISSUED:          0 USEFUL:          0 USELESS:          0
cpu0_L1I AVERAGE MISS LATENCY: 537.2 cycles
cpu0_L2C TOTAL        ACCESS:    5441963 HIT:    2207314 MISS:    3234649
cpu0_L2C LOAD         ACCESS:    2440991 HIT:     132830 MISS:    2308161
cpu0_L2C RFO          ACCESS:     924384 HIT:       1708 MISS:     922676
cpu0_L2C PREFETCH     ACCESS:          0 HIT:          0 MISS:          0
cpu0_L2C WRITE        ACCESS:    2058319 HIT:    2057977 MISS:        342
cpu0_L2C TRANSLATION  ACCESS:      18269 HIT:      14799 MISS:       3470
cpu0_L2C PREFETCH REQUESTED:          0 ISSUED:          0 USEFUL:          0 USELESS:          0
cpu0_L2C AVERAGE MISS LATENCY: 1044 cycles
cpu0_STLB TOTAL        ACCESS:     804456 HIT:     756609 MISS:      47847
cpu0_STLB LOAD         ACCESS:     804456 HIT:     756609 MISS:      47847
cpu0_STLB RFO          ACCESS:          0 HIT:          0 MISS:          0
cpu0_STLB PREFETCH     ACCESS:          0 HIT:          0 MISS:          0
cpu0_STLB WRITE        ACCESS:          0 HIT:          0 MISS:          0
cpu0_STLB TRANSLATION  ACCESS:          0 HIT:          0 MISS:          0
cpu0_STLB PREFETCH REQUESTED:          0 ISSUED:          0 USEFUL:          0 USELESS:          0
cpu0_STLB AVERAGE MISS LATENCY: 347.6 cycles

DRAM Statistics

Channel 0 RQ ROW_BUFFER_HIT:     779440
  ROW_BUFFER_MISS:    1897911
 AVG DBUS CONGESTED CYCLE: 3.969
WQ ROW_BUFFER_HIT: Channel 0 
  ROW_BUFFER_MISS:     666172
  FULL:    1113202
