WARNING: physical memory size is smaller than virtual memory size.

*** ChampSim Multicore Out-of-Order Simulator ***
Warmup Instructions: 50000000
Simulation Instructions: 600000000
Number of CPUs: 1
Page size: 4096

Off-chip DRAM Size: 4 GiB Channels: 1 Width: 64-bit Data Race: 3200 MT/s
Heartbeat CPU 0 instructions: 10000003 cycles: 2881057 heartbeat IPC: 3.471 cumulative IPC: 3.471 (Simulation time: 00 hr 00 min 33 sec)
Heartbeat CPU 0 instructions: 20000003 cycles: 5381057 heartbeat IPC: 4 cumulative IPC: 3.717 (Simulation time: 00 hr 01 min 05 sec)
Heartbeat CPU 0 instructions: 30000003 cycles: 7881057 heartbeat IPC: 4 cumulative IPC: 3.807 (Simulation time: 00 hr 01 min 36 sec)
Heartbeat CPU 0 instructions: 40000003 cycles: 10381057 heartbeat IPC: 4 cumulative IPC: 3.853 (Simulation time: 00 hr 02 min 07 sec)
Heartbeat CPU 0 instructions: 50000003 cycles: 12881057 heartbeat IPC: 4 cumulative IPC: 3.882 (Simulation time: 00 hr 02 min 38 sec)
Warmup finished CPU 0 instructions: 50000003 cycles: 12881058 cumulative IPC: 3.882 (Simulation time: 00 hr 02 min 38 sec)
Warmup complete CPU 0 instructions: 50000003 cycles: 12881058 cumulative IPC: 3.882 (Simulation time: 00 hr 02 min 38 sec)
Heartbeat CPU 0 instructions: 60000000 cycles: 17055972 heartbeat IPC: 2.395 cumulative IPC: 2.395 (Simulation time: 00 hr 03 min 29 sec)
Heartbeat CPU 0 instructions: 70000000 cycles: 21351281 heartbeat IPC: 2.328 cumulative IPC: 2.361 (Simulation time: 00 hr 04 min 22 sec)
Heartbeat CPU 0 instructions: 80000001 cycles: 25629012 heartbeat IPC: 2.338 cumulative IPC: 2.353 (Simulation time: 00 hr 05 min 14 sec)
Heartbeat CPU 0 instructions: 90000003 cycles: 29888619 heartbeat IPC: 2.348 cumulative IPC: 2.352 (Simulation time: 00 hr 06 min 06 sec)
Heartbeat CPU 0 instructions: 100000000 cycles: 33322970 heartbeat IPC: 2.912 cumulative IPC: 2.446 (Simulation time: 00 hr 06 min 51 sec)
Heartbeat CPU 0 instructions: 110000001 cycles: 35904961 heartbeat IPC: 3.873 cumulative IPC: 2.606 (Simulation time: 00 hr 07 min 30 sec)
Heartbeat CPU 0 instructions: 120000001 cycles: 39371775 heartbeat IPC: 2.884 cumulative IPC: 2.642 (Simulation time: 00 hr 08 min 15 sec)
Heartbeat CPU 0 instructions: 130000000 cycles: 42991082 heartbeat IPC: 2.763 cumulative IPC: 2.657 (Simulation time: 00 hr 09 min 01 sec)
Heartbeat CPU 0 instructions: 140000004 cycles: 46625747 heartbeat IPC: 2.751 cumulative IPC: 2.667 (Simulation time: 00 hr 09 min 48 sec)
Heartbeat CPU 0 instructions: 150000000 cycles: 50289330 heartbeat IPC: 2.73 cumulative IPC: 2.673 (Simulation time: 00 hr 10 min 35 sec)
Heartbeat CPU 0 instructions: 160000000 cycles: 53916117 heartbeat IPC: 2.757 cumulative IPC: 2.681 (Simulation time: 00 hr 11 min 21 sec)
Heartbeat CPU 0 instructions: 170000000 cycles: 57566469 heartbeat IPC: 2.739 cumulative IPC: 2.685 (Simulation time: 00 hr 12 min 07 sec)
Heartbeat CPU 0 instructions: 180000002 cycles: 61207836 heartbeat IPC: 2.746 cumulative IPC: 2.69 (Simulation time: 00 hr 12 min 53 sec)
Heartbeat CPU 0 instructions: 190000002 cycles: 64727638 heartbeat IPC: 2.841 cumulative IPC: 2.7 (Simulation time: 00 hr 13 min 42 sec)
Heartbeat CPU 0 instructions: 200000000 cycles: 68007621 heartbeat IPC: 3.049 cumulative IPC: 2.721 (Simulation time: 00 hr 14 min 29 sec)
Heartbeat CPU 0 instructions: 210000000 cycles: 71375500 heartbeat IPC: 2.969 cumulative IPC: 2.735 (Simulation time: 00 hr 15 min 22 sec)
Heartbeat CPU 0 instructions: 220000001 cycles: 74688782 heartbeat IPC: 3.018 cumulative IPC: 2.75 (Simulation time: 00 hr 16 min 13 sec)
Heartbeat CPU 0 instructions: 230000004 cycles: 77942065 heartbeat IPC: 3.074 cumulative IPC: 2.767 (Simulation time: 00 hr 16 min 58 sec)
Heartbeat CPU 0 instructions: 240000002 cycles: 81148641 heartbeat IPC: 3.119 cumulative IPC: 2.783 (Simulation time: 00 hr 17 min 44 sec)
Heartbeat CPU 0 instructions: 250000002 cycles: 84448114 heartbeat IPC: 3.031 cumulative IPC: 2.795 (Simulation time: 00 hr 18 min 30 sec)
Heartbeat CPU 0 instructions: 260000002 cycles: 87526382 heartbeat IPC: 3.249 cumulative IPC: 2.813 (Simulation time: 00 hr 19 min 16 sec)
Heartbeat CPU 0 instructions: 270000003 cycles: 90716259 heartbeat IPC: 3.135 cumulative IPC: 2.826 (Simulation time: 00 hr 20 min 03 sec)
Heartbeat CPU 0 instructions: 280000003 cycles: 93819418 heartbeat IPC: 3.223 cumulative IPC: 2.842 (Simulation time: 00 hr 20 min 47 sec)
Heartbeat CPU 0 instructions: 290000001 cycles: 143836719 heartbeat IPC: 0.1999 cumulative IPC: 1.833 (Simulation time: 00 hr 26 min 14 sec)
Heartbeat CPU 0 instructions: 300000002 cycles: 146339108 heartbeat IPC: 3.996 cumulative IPC: 1.873 (Simulation time: 00 hr 26 min 52 sec)
Heartbeat CPU 0 instructions: 310000001 cycles: 148842102 heartbeat IPC: 3.995 cumulative IPC: 1.912 (Simulation time: 00 hr 27 min 28 sec)
Heartbeat CPU 0 instructions: 320000001 cycles: 151344837 heartbeat IPC: 3.996 cumulative IPC: 1.95 (Simulation time: 00 hr 28 min 04 sec)
Heartbeat CPU 0 instructions: 330000003 cycles: 153847174 heartbeat IPC: 3.996 cumulative IPC: 1.986 (Simulation time: 00 hr 28 min 41 sec)
Heartbeat CPU 0 instructions: 340000000 cycles: 156349562 heartbeat IPC: 3.996 cumulative IPC: 2.021 (Simulation time: 00 hr 29 min 17 sec)
Heartbeat CPU 0 instructions: 350000004 cycles: 158852170 heartbeat IPC: 3.996 cumulative IPC: 2.055 (Simulation time: 00 hr 29 min 56 sec)
Heartbeat CPU 0 instructions: 360000004 cycles: 161355406 heartbeat IPC: 3.995 cumulative IPC: 2.088 (Simulation time: 00 hr 30 min 32 sec)
Heartbeat CPU 0 instructions: 370000000 cycles: 163857793 heartbeat IPC: 3.996 cumulative IPC: 2.12 (Simulation time: 00 hr 31 min 08 sec)
Heartbeat CPU 0 instructions: 380000004 cycles: 166360829 heartbeat IPC: 3.995 cumulative IPC: 2.15 (Simulation time: 00 hr 31 min 48 sec)
Heartbeat CPU 0 instructions: 390000001 cycles: 168863511 heartbeat IPC: 3.996 cumulative IPC: 2.18 (Simulation time: 00 hr 32 min 27 sec)
Heartbeat CPU 0 instructions: 400000003 cycles: 171367755 heartbeat IPC: 3.993 cumulative IPC: 2.208 (Simulation time: 00 hr 33 min 06 sec)
Heartbeat CPU 0 instructions: 410000003 cycles: 173870983 heartbeat IPC: 3.995 cumulative IPC: 2.236 (Simulation time: 00 hr 33 min 48 sec)
Heartbeat CPU 0 instructions: 420000002 cycles: 176374716 heartbeat IPC: 3.994 cumulative IPC: 2.263 (Simulation time: 00 hr 34 min 32 sec)
Heartbeat CPU 0 instructions: 430000000 cycles: 178878081 heartbeat IPC: 3.995 cumulative IPC: 2.289 (Simulation time: 00 hr 35 min 17 sec)
Heartbeat CPU 0 instructions: 440000001 cycles: 181381755 heartbeat IPC: 3.994 cumulative IPC: 2.315 (Simulation time: 00 hr 35 min 58 sec)
Heartbeat CPU 0 instructions: 450000000 cycles: 183884290 heartbeat IPC: 3.996 cumulative IPC: 2.339 (Simulation time: 00 hr 36 min 39 sec)
Heartbeat CPU 0 instructions: 460000003 cycles: 186388143 heartbeat IPC: 3.994 cumulative IPC: 2.363 (Simulation time: 00 hr 37 min 20 sec)
Heartbeat CPU 0 instructions: 470000001 cycles: 188890731 heartbeat IPC: 3.996 cumulative IPC: 2.386 (Simulation time: 00 hr 38 min 00 sec)
Heartbeat CPU 0 instructions: 480000003 cycles: 191393561 heartbeat IPC: 3.995 cumulative IPC: 2.409 (Simulation time: 00 hr 38 min 39 sec)
Heartbeat CPU 0 instructions: 490000003 cycles: 193896455 heartbeat IPC: 3.995 cumulative IPC: 2.431 (Simulation time: 00 hr 39 min 18 sec)
Heartbeat CPU 0 instructions: 500000002 cycles: 196398983 heartbeat IPC: 3.996 cumulative IPC: 2.452 (Simulation time: 00 hr 39 min 59 sec)
Heartbeat CPU 0 instructions: 510000003 cycles: 204140505 heartbeat IPC: 1.292 cumulative IPC: 2.405 (Simulation time: 00 hr 41 min 20 sec)
Heartbeat CPU 0 instructions: 520000001 cycles: 298641574 heartbeat IPC: 0.1058 cumulative IPC: 1.645 (Simulation time: 00 hr 54 min 11 sec)
Heartbeat CPU 0 instructions: 530000004 cycles: 380701375 heartbeat IPC: 0.1219 cumulative IPC: 1.305 (Simulation time: 01 hr 05 min 34 sec)
Heartbeat CPU 0 instructions: 540000000 cycles: 418077120 heartbeat IPC: 0.2676 cumulative IPC: 1.209 (Simulation time: 01 hr 10 min 50 sec)
Heartbeat CPU 0 instructions: 550000004 cycles: 455429330 heartbeat IPC: 0.2677 cumulative IPC: 1.13 (Simulation time: 01 hr 15 min 52 sec)
Heartbeat CPU 0 instructions: 560000004 cycles: 492377373 heartbeat IPC: 0.2707 cumulative IPC: 1.064 (Simulation time: 01 hr 21 min 52 sec)
Heartbeat CPU 0 instructions: 570000000 cycles: 529206447 heartbeat IPC: 0.2715 cumulative IPC: 1.007 (Simulation time: 01 hr 27 min 48 sec)
Heartbeat CPU 0 instructions: 580000001 cycles: 567518694 heartbeat IPC: 0.261 cumulative IPC: 0.9556 (Simulation time: 01 hr 33 min 37 sec)
Heartbeat CPU 0 instructions: 590000004 cycles: 606767699 heartbeat IPC: 0.2548 cumulative IPC: 0.9093 (Simulation time: 01 hr 39 min 38 sec)
*** Reached end of trace: (0, "traces/sp.A.champsimtrace")
Heartbeat CPU 0 instructions: 600000001 cycles: 645233330 heartbeat IPC: 0.26 cumulative IPC: 0.8698 (Simulation time: 01 hr 45 min 34 sec)
Heartbeat CPU 0 instructions: 610000000 cycles: 670629387 heartbeat IPC: 0.3938 cumulative IPC: 0.8514 (Simulation time: 01 hr 48 min 30 sec)
Heartbeat CPU 0 instructions: 620000001 cycles: 673902863 heartbeat IPC: 3.055 cumulative IPC: 0.8623 (Simulation time: 01 hr 49 min 17 sec)
Heartbeat CPU 0 instructions: 630000003 cycles: 678170233 heartbeat IPC: 2.343 cumulative IPC: 0.8718 (Simulation time: 01 hr 50 min 16 sec)
Heartbeat CPU 0 instructions: 640000004 cycles: 682537147 heartbeat IPC: 2.29 cumulative IPC: 0.881 (Simulation time: 01 hr 51 min 11 sec)
Heartbeat CPU 0 instructions: 650000001 cycles: 686917437 heartbeat IPC: 2.283 cumulative IPC: 0.8902 (Simulation time: 01 hr 52 min 06 sec)
Simulation finished CPU 0 instructions: 600000003 cycles: 674036381 cumulative IPC: 0.8902 (Simulation time: 01 hr 52 min 06 sec)
Simulation complete CPU 0 instructions: 600000003 cycles: 674036381 cumulative IPC: 0.8902 (Simulation time: 01 hr 52 min 06 sec)

ChampSim completed all CPUs

=== Simulation ===
CPU 0 runs traces/sp.A.champsimtrace
Region of Interest Statistics

CPU 0 cumulative IPC: 0.8902 instructions: 600000003 cycles: 674036381
CPU 0 Branch Prediction Accuracy: 98.91% MPKI: 0.226 Average ROB Occupancy at Mispredict: 232.1
Branch type MPKI
BRANCH_DIRECT_JUMP: 5e-06
BRANCH_INDIRECT: 7.5e-05
BRANCH_CONDITIONAL: 0.226
BRANCH_DIRECT_CALL: 2e-05
BRANCH_INDIRECT_CALL: 3.17e-05
BRANCH_RETURN: 3.67e-05

LLC TOTAL        ACCESS:    7577722 HIT:    1586183 MISS:    5991539
LLC LOAD         ACCESS:    2303666 HIT:     881955 MISS:    1421711
LLC RFO          ACCESS:     922633 HIT:      27877 MISS:     894756
LLC PREFETCH     ACCESS:    2303666 HIT:     276426 MISS:    2027240
LLC WRITE        ACCESS:    2044287 HIT:     399809 MISS:    1644478
LLC TRANSLATION  ACCESS:       3470 HIT:        116 MISS:       3354
LLC PREFETCH REQUESTED:    2303666 ISSUED:    2303666 USEFUL:    1603784 USELESS:      49334
LLC AVERAGE MISS LATENCY: 786.9 cycles
cpu0_DTLB TOTAL        ACCESS:  127313814 HIT:  126500158 MISS:     813656
cpu0_DTLB LOAD         ACCESS:  127313814 HIT:  126500158 MISS:     813656
cpu0_DTLB RFO          ACCESS:          0 HIT:          0 MISS:          0
cpu0_DTLB PREFETCH     ACCESS:          0 HIT:          0 MISS:          0
cpu0_DTLB WRITE        ACCESS:          0 HIT:          0 MISS:          0
cpu0_DTLB TRANSLATION  ACCESS:          0 HIT:          0 MISS:          0
cpu0_DTLB PREFETCH REQUESTED:          0 ISSUED:          0 USEFUL:          0 USELESS:          0
cpu0_DTLB AVERAGE MISS LATENCY: 19.87 cycles
cpu0_ITLB TOTAL        ACCESS:     217094 HIT:     216858 MISS:        236
cpu0_ITLB LOAD         ACCESS:     217094 HIT:     216858 MISS:        236
cpu0_ITLB RFO          ACCESS:          0 HIT:          0 MISS:          0
cpu0_ITLB PREFETCH     ACCESS:          0 HIT:          0 MISS:          0
cpu0_ITLB WRITE        ACCESS:          0 HIT:          0 MISS:          0
cpu0_ITLB TRANSLATION  ACCESS:          0 HIT:          0 MISS:          0
cpu0_ITLB PREFETCH REQUESTED:          0 ISSUED:          0 USEFUL:          0 USELESS:          0
cpu0_ITLB AVERAGE MISS LATENCY: 401.8 cycles
cpu0_L1D TOTAL        ACCESS:  193177069 HIT:  179007892 MISS:   14169177
cpu0_L1D LOAD         ACCESS:  157934954 HIT:  147974665 MISS:    9960289
cpu0_L1D RFO          ACCESS:          0 HIT:          0 MISS:          0
cpu0_L1D PREFETCH     ACCESS:          0 HIT:          0 MISS:          0
cpu0_L1D WRITE        ACCESS:   35194235 HIT:   31003629 MISS:    4190606
cpu0_L1D TRANSLATION  ACCESS:      47880 HIT:      29598 MISS:      18282
cpu0_L1D PREFETCH REQUESTED:          0 ISSUED:          0 USEFUL:          0 USELESS:          0
cpu0_L1D AVERAGE MISS LATENCY: 162.9 cycles
cpu0_L1I TOTAL        ACCESS:     224513 HIT:     221756 MISS:       2757
cpu0_L1I LOAD         ACCESS:     224513 HIT:     221756 MISS:       2757
cpu0_L1I RFO          ACCESS:          0 HIT:          0 MISS:          0
cpu0_L1I PREFETCH     ACCESS:          0 HIT:          0 MISS:          0
cpu0_L1I WRITE        ACCESS:          0 HIT:          0 MISS:          0
cpu0_L1I TRANSLATION  ACCESS:          0 HIT:          0 MISS:          0
cpu0_L1I PREFETCH REQUESTED:          0 ISSUED:          0 USEFUL:          0 USELESS:          0
cpu0_L1I AVERAGE MISS LATENCY: 523 cycles
cpu0_L2C TOTAL        ACCESS:    5428814 HIT:    2198636 MISS:    3230178
cpu0_L2C LOAD         ACCESS:    2431210 HIT:     127505 MISS:    2303705
cpu0_L2C RFO          ACCESS:     923194 HIT:        561 MISS:     922633
cpu0_L2C PREFETCH     ACCESS:          0 HIT:          0 MISS:          0
cpu0_L2C WRITE        ACCESS:    2056129 HIT:    2055759 MISS:        370
cpu0_L2C TRANSLATION  ACCESS:      18281 HIT:      14811 MISS:       3470
cpu0_L2C PREFETCH REQUESTED:          0 ISSUED:          0 USEFUL:          0 USELESS:          0
cpu0_L2C AVERAGE MISS LATENCY: 980.2 cycles
cpu0_STLB TOTAL        ACCESS:     564667 HIT:     516817 MISS:      47850
cpu0_STLB LOAD         ACCESS:     564667 HIT:     516817 MISS:      47850
cpu0_STLB RFO          ACCESS:          0 HIT:          0 MISS:          0
cpu0_STLB PREFETCH     ACCESS:          0 HIT:          0 MISS:          0
cpu0_STLB WRITE        ACCESS:          0 HIT:          0 MISS:          0
cpu0_STLB TRANSLATION  ACCESS:          0 HIT:          0 MISS:          0
cpu0_STLB PREFETCH REQUESTED:          0 ISSUED:          0 USEFUL:          0 USELESS:          0
cpu0_STLB AVERAGE MISS LATENCY: 387.8 cycles

DRAM Statistics

Channel 0 RQ ROW_BUFFER_HIT:     797877
  ROW_BUFFER_MISS:    2157138
 AVG DBUS CONGESTED CYCLE: 3.975
WQ ROW_BUFFER_HIT: Channel 0 
  ROW_BUFFER_MISS:     602479
  FULL:    1307203
