WARNING: physical memory size is smaller than virtual memory size.

*** ChampSim Multicore Out-of-Order Simulator ***
Warmup Instructions: 50000000
Simulation Instructions: 600000000
Number of CPUs: 1
Page size: 4096

CPU 0 Tage branch predictor
Off-chip DRAM Size: 4 GiB Channels: 1 Width: 64-bit Data Race: 3200 MT/s
Heartbeat CPU 0 instructions: 10000003 cycles: 2881057 heartbeat IPC: 3.471 cumulative IPC: 3.471 (Simulation time: 00 hr 00 min 44 sec)
Heartbeat CPU 0 instructions: 20000003 cycles: 5381057 heartbeat IPC: 4 cumulative IPC: 3.717 (Simulation time: 00 hr 01 min 35 sec)
Heartbeat CPU 0 instructions: 30000003 cycles: 7881057 heartbeat IPC: 4 cumulative IPC: 3.807 (Simulation time: 00 hr 02 min 23 sec)
Heartbeat CPU 0 instructions: 40000003 cycles: 10381057 heartbeat IPC: 4 cumulative IPC: 3.853 (Simulation time: 00 hr 03 min 09 sec)
Heartbeat CPU 0 instructions: 50000003 cycles: 12881057 heartbeat IPC: 4 cumulative IPC: 3.882 (Simulation time: 00 hr 03 min 50 sec)
Warmup finished CPU 0 instructions: 50000003 cycles: 12881058 cumulative IPC: 3.882 (Simulation time: 00 hr 03 min 50 sec)
Warmup complete CPU 0 instructions: 50000003 cycles: 12881058 cumulative IPC: 3.882 (Simulation time: 00 hr 03 min 50 sec)
Heartbeat CPU 0 instructions: 60000000 cycles: 17375544 heartbeat IPC: 2.225 cumulative IPC: 2.225 (Simulation time: 00 hr 04 min 57 sec)
Heartbeat CPU 0 instructions: 70000002 cycles: 21817337 heartbeat IPC: 2.251 cumulative IPC: 2.238 (Simulation time: 00 hr 06 min 02 sec)
Heartbeat CPU 0 instructions: 80000000 cycles: 26320832 heartbeat IPC: 2.22 cumulative IPC: 2.232 (Simulation time: 00 hr 07 min 15 sec)
Heartbeat CPU 0 instructions: 90000003 cycles: 30836894 heartbeat IPC: 2.214 cumulative IPC: 2.228 (Simulation time: 00 hr 08 min 33 sec)
Heartbeat CPU 0 instructions: 100000000 cycles: 34295225 heartbeat IPC: 2.892 cumulative IPC: 2.335 (Simulation time: 00 hr 09 min 35 sec)
Heartbeat CPU 0 instructions: 110000001 cycles: 36818567 heartbeat IPC: 3.963 cumulative IPC: 2.507 (Simulation time: 00 hr 10 min 28 sec)
Heartbeat CPU 0 instructions: 120000001 cycles: 39780952 heartbeat IPC: 3.376 cumulative IPC: 2.602 (Simulation time: 00 hr 11 min 21 sec)
Heartbeat CPU 0 instructions: 130000000 cycles: 43354142 heartbeat IPC: 2.799 cumulative IPC: 2.625 (Simulation time: 00 hr 12 min 17 sec)
Heartbeat CPU 0 instructions: 140000004 cycles: 46913992 heartbeat IPC: 2.809 cumulative IPC: 2.644 (Simulation time: 00 hr 13 min 11 sec)
Heartbeat CPU 0 instructions: 150000000 cycles: 50462831 heartbeat IPC: 2.818 cumulative IPC: 2.661 (Simulation time: 00 hr 14 min 09 sec)
Heartbeat CPU 0 instructions: 160000003 cycles: 54019505 heartbeat IPC: 2.812 cumulative IPC: 2.674 (Simulation time: 00 hr 15 min 04 sec)
Heartbeat CPU 0 instructions: 170000003 cycles: 57584126 heartbeat IPC: 2.805 cumulative IPC: 2.684 (Simulation time: 00 hr 15 min 58 sec)
Heartbeat CPU 0 instructions: 180000001 cycles: 61170301 heartbeat IPC: 2.788 cumulative IPC: 2.692 (Simulation time: 00 hr 16 min 55 sec)
Heartbeat CPU 0 instructions: 190000002 cycles: 64604324 heartbeat IPC: 2.912 cumulative IPC: 2.707 (Simulation time: 00 hr 17 min 51 sec)
Heartbeat CPU 0 instructions: 200000000 cycles: 67722634 heartbeat IPC: 3.207 cumulative IPC: 2.735 (Simulation time: 00 hr 18 min 39 sec)
Heartbeat CPU 0 instructions: 210000000 cycles: 70792217 heartbeat IPC: 3.258 cumulative IPC: 2.763 (Simulation time: 00 hr 19 min 35 sec)
Heartbeat CPU 0 instructions: 220000001 cycles: 73906906 heartbeat IPC: 3.211 cumulative IPC: 2.786 (Simulation time: 00 hr 20 min 31 sec)
Heartbeat CPU 0 instructions: 230000004 cycles: 77056470 heartbeat IPC: 3.175 cumulative IPC: 2.805 (Simulation time: 00 hr 21 min 27 sec)
Heartbeat CPU 0 instructions: 240000002 cycles: 80142153 heartbeat IPC: 3.241 cumulative IPC: 2.825 (Simulation time: 00 hr 22 min 23 sec)
Heartbeat CPU 0 instructions: 250000001 cycles: 83285183 heartbeat IPC: 3.182 cumulative IPC: 2.841 (Simulation time: 00 hr 23 min 18 sec)
Heartbeat CPU 0 instructions: 260000002 cycles: 86478269 heartbeat IPC: 3.132 cumulative IPC: 2.853 (Simulation time: 00 hr 24 min 09 sec)
Heartbeat CPU 0 instructions: 270000003 cycles: 89620016 heartbeat IPC: 3.183 cumulative IPC: 2.867 (Simulation time: 00 hr 24 min 59 sec)
Heartbeat CPU 0 instructions: 280000003 cycles: 92835706 heartbeat IPC: 3.11 cumulative IPC: 2.877 (Simulation time: 00 hr 25 min 51 sec)
Heartbeat CPU 0 instructions: 290000001 cycles: 142793309 heartbeat IPC: 0.2002 cumulative IPC: 1.847 (Simulation time: 00 hr 31 min 58 sec)
Heartbeat CPU 0 instructions: 300000002 cycles: 145293515 heartbeat IPC: 4 cumulative IPC: 1.888 (Simulation time: 00 hr 32 min 42 sec)
Heartbeat CPU 0 instructions: 310000001 cycles: 147794995 heartbeat IPC: 3.998 cumulative IPC: 1.927 (Simulation time: 00 hr 33 min 26 sec)
Heartbeat CPU 0 instructions: 320000001 cycles: 150295569 heartbeat IPC: 3.999 cumulative IPC: 1.965 (Simulation time: 00 hr 34 min 11 sec)
Heartbeat CPU 0 instructions: 330000003 cycles: 152796132 heartbeat IPC: 3.999 cumulative IPC: 2.001 (Simulation time: 00 hr 34 min 56 sec)
Heartbeat CPU 0 instructions: 340000000 cycles: 155297785 heartbeat IPC: 3.997 cumulative IPC: 2.036 (Simulation time: 00 hr 35 min 39 sec)
Heartbeat CPU 0 instructions: 350000004 cycles: 157798016 heartbeat IPC: 4 cumulative IPC: 2.07 (Simulation time: 00 hr 36 min 22 sec)
Heartbeat CPU 0 instructions: 360000004 cycles: 160298684 heartbeat IPC: 3.999 cumulative IPC: 2.103 (Simulation time: 00 hr 37 min 04 sec)
Heartbeat CPU 0 instructions: 370000000 cycles: 162800579 heartbeat IPC: 3.997 cumulative IPC: 2.134 (Simulation time: 00 hr 37 min 46 sec)
Heartbeat CPU 0 instructions: 380000004 cycles: 165302207 heartbeat IPC: 3.997 cumulative IPC: 2.165 (Simulation time: 00 hr 38 min 29 sec)
Heartbeat CPU 0 instructions: 390000001 cycles: 167802628 heartbeat IPC: 3.999 cumulative IPC: 2.195 (Simulation time: 00 hr 39 min 11 sec)
Heartbeat CPU 0 instructions: 400000003 cycles: 170302714 heartbeat IPC: 4 cumulative IPC: 2.223 (Simulation time: 00 hr 39 min 54 sec)
Heartbeat CPU 0 instructions: 410000003 cycles: 172803682 heartbeat IPC: 3.998 cumulative IPC: 2.251 (Simulation time: 00 hr 40 min 38 sec)
Heartbeat CPU 0 instructions: 420000002 cycles: 175304889 heartbeat IPC: 3.998 cumulative IPC: 2.278 (Simulation time: 00 hr 41 min 23 sec)
Heartbeat CPU 0 instructions: 430000000 cycles: 177805775 heartbeat IPC: 3.999 cumulative IPC: 2.304 (Simulation time: 00 hr 42 min 07 sec)
Heartbeat CPU 0 instructions: 440000001 cycles: 180307955 heartbeat IPC: 3.997 cumulative IPC: 2.329 (Simulation time: 00 hr 42 min 51 sec)
Heartbeat CPU 0 instructions: 450000000 cycles: 182808237 heartbeat IPC: 4 cumulative IPC: 2.354 (Simulation time: 00 hr 43 min 35 sec)
Heartbeat CPU 0 instructions: 460000003 cycles: 185308756 heartbeat IPC: 3.999 cumulative IPC: 2.378 (Simulation time: 00 hr 44 min 19 sec)
Heartbeat CPU 0 instructions: 470000001 cycles: 187809658 heartbeat IPC: 3.999 cumulative IPC: 2.401 (Simulation time: 00 hr 45 min 02 sec)
Heartbeat CPU 0 instructions: 480000003 cycles: 190310439 heartbeat IPC: 3.999 cumulative IPC: 2.423 (Simulation time: 00 hr 45 min 45 sec)
Heartbeat CPU 0 instructions: 490000003 cycles: 192810577 heartbeat IPC: 4 cumulative IPC: 2.445 (Simulation time: 00 hr 46 min 28 sec)
Heartbeat CPU 0 instructions: 500000002 cycles: 195311732 heartbeat IPC: 3.998 cumulative IPC: 2.467 (Simulation time: 00 hr 47 min 12 sec)
Heartbeat CPU 0 instructions: 510000003 cycles: 203045873 heartbeat IPC: 1.293 cumulative IPC: 2.419 (Simulation time: 00 hr 48 min 43 sec)
Heartbeat CPU 0 instructions: 520000001 cycles: 293943618 heartbeat IPC: 0.11 cumulative IPC: 1.672 (Simulation time: 01 hr 01 min 33 sec)
Heartbeat CPU 0 instructions: 530000004 cycles: 373854866 heartbeat IPC: 0.1251 cumulative IPC: 1.33 (Simulation time: 01 hr 12 min 16 sec)
Heartbeat CPU 0 instructions: 540000000 cycles: 411141504 heartbeat IPC: 0.2682 cumulative IPC: 1.23 (Simulation time: 01 hr 17 min 28 sec)
Heartbeat CPU 0 instructions: 550000000 cycles: 448361407 heartbeat IPC: 0.2687 cumulative IPC: 1.148 (Simulation time: 01 hr 22 min 32 sec)
Heartbeat CPU 0 instructions: 560000004 cycles: 485253946 heartbeat IPC: 0.2711 cumulative IPC: 1.08 (Simulation time: 01 hr 27 min 34 sec)
Heartbeat CPU 0 instructions: 570000000 cycles: 521821341 heartbeat IPC: 0.2735 cumulative IPC: 1.022 (Simulation time: 01 hr 32 min 28 sec)
Heartbeat CPU 0 instructions: 580000001 cycles: 559994489 heartbeat IPC: 0.262 cumulative IPC: 0.9687 (Simulation time: 01 hr 37 min 47 sec)
Heartbeat CPU 0 instructions: 590000004 cycles: 599078064 heartbeat IPC: 0.2559 cumulative IPC: 0.9212 (Simulation time: 01 hr 43 min 08 sec)
*** Reached end of trace: (0, "traces/sp.A.champsimtrace")
Heartbeat CPU 0 instructions: 600000001 cycles: 637336465 heartbeat IPC: 0.2614 cumulative IPC: 0.8808 (Simulation time: 01 hr 48 min 26 sec)
Heartbeat CPU 0 instructions: 610000000 cycles: 661693936 heartbeat IPC: 0.4106 cumulative IPC: 0.8631 (Simulation time: 01 hr 51 min 05 sec)
Heartbeat CPU 0 instructions: 620000001 cycles: 664622943 heartbeat IPC: 3.414 cumulative IPC: 0.8746 (Simulation time: 01 hr 51 min 52 sec)
Heartbeat CPU 0 instructions: 630000002 cycles: 668873509 heartbeat IPC: 2.353 cumulative IPC: 0.8842 (Simulation time: 01 hr 52 min 49 sec)
Heartbeat CPU 0 instructions: 640000004 cycles: 673370689 heartbeat IPC: 2.224 cumulative IPC: 0.8933 (Simulation time: 01 hr 53 min 48 sec)
Heartbeat CPU 0 instructions: 650000001 cycles: 677860112 heartbeat IPC: 2.227 cumulative IPC: 0.9023 (Simulation time: 01 hr 54 min 48 sec)
Simulation finished CPU 0 instructions: 600000003 cycles: 664979056 cumulative IPC: 0.9023 (Simulation time: 01 hr 54 min 48 sec)
Simulation complete CPU 0 instructions: 600000003 cycles: 664979056 cumulative IPC: 0.9023 (Simulation time: 01 hr 54 min 48 sec)

ChampSim completed all CPUs

=== Simulation ===
CPU 0 runs traces/sp.A.champsimtrace
Region of Interest Statistics

CPU 0 cumulative IPC: 0.9023 instructions: 600000003 cycles: 664979056
CPU 0 Branch Prediction Accuracy: 99.98% MPKI: 0.003913 Average ROB Occupancy at Mispredict: 107.4
Branch type MPKI
BRANCH_DIRECT_JUMP: 5e-06
BRANCH_INDIRECT: 7.5e-05
BRANCH_CONDITIONAL: 0.00374
BRANCH_DIRECT_CALL: 2e-05
BRANCH_INDIRECT_CALL: 3.17e-05
BRANCH_RETURN: 3.67e-05

LLC TOTAL        ACCESS:    7577777 HIT:    1394411 MISS:    6183366
LLC LOAD         ACCESS:    2303691 HIT:     888926 MISS:    1414765
LLC RFO          ACCESS:     922633 HIT:      29544 MISS:     893089
LLC PREFETCH     ACCESS:    2303691 HIT:     291305 MISS:    2012386
LLC WRITE        ACCESS:    2044295 HIT:     184560 MISS:    1859735
LLC TRANSLATION  ACCESS:       3467 HIT:         76 MISS:       3391
LLC PREFETCH REQUESTED:    2303691 ISSUED:    2303691 USEFUL:    1597267 USELESS:      49298
LLC AVERAGE MISS LATENCY: 755.2 cycles
cpu0_DTLB TOTAL        ACCESS:  129094646 HIT:  128102123 MISS:     992523
cpu0_DTLB LOAD         ACCESS:  129094646 HIT:  128102123 MISS:     992523
cpu0_DTLB RFO          ACCESS:          0 HIT:          0 MISS:          0
cpu0_DTLB PREFETCH     ACCESS:          0 HIT:          0 MISS:          0
cpu0_DTLB WRITE        ACCESS:          0 HIT:          0 MISS:          0
cpu0_DTLB TRANSLATION  ACCESS:          0 HIT:          0 MISS:          0
cpu0_DTLB PREFETCH REQUESTED:          0 ISSUED:          0 USEFUL:          0 USELESS:          0
cpu0_DTLB AVERAGE MISS LATENCY: 17.98 cycles
cpu0_ITLB TOTAL        ACCESS:     238351 HIT:     238096 MISS:        255
cpu0_ITLB LOAD         ACCESS:     238351 HIT:     238096 MISS:        255
cpu0_ITLB RFO          ACCESS:          0 HIT:          0 MISS:          0
cpu0_ITLB PREFETCH     ACCESS:          0 HIT:          0 MISS:          0
cpu0_ITLB WRITE        ACCESS:          0 HIT:          0 MISS:          0
cpu0_ITLB TRANSLATION  ACCESS:          0 HIT:          0 MISS:          0
cpu0_ITLB PREFETCH REQUESTED:          0 ISSUED:          0 USEFUL:          0 USELESS:          0
cpu0_ITLB AVERAGE MISS LATENCY: 301.6 cycles
cpu0_L1D TOTAL        ACCESS:  195803175 HIT:  181713838 MISS:   14089337
cpu0_L1D LOAD         ACCESS:  160561087 HIT:  150673891 MISS:    9887196
cpu0_L1D RFO          ACCESS:          0 HIT:          0 MISS:          0
cpu0_L1D PREFETCH     ACCESS:          0 HIT:          0 MISS:          0
cpu0_L1D WRITE        ACCESS:   35194210 HIT:   31010345 MISS:    4183865
cpu0_L1D TRANSLATION  ACCESS:      47878 HIT:      29602 MISS:      18276
cpu0_L1D PREFETCH REQUESTED:          0 ISSUED:          0 USEFUL:          0 USELESS:          0
cpu0_L1D AVERAGE MISS LATENCY: 161.3 cycles
cpu0_L1I TOTAL        ACCESS:     247564 HIT:     244571 MISS:       2993
cpu0_L1I LOAD         ACCESS:     247564 HIT:     244571 MISS:       2993
cpu0_L1I RFO          ACCESS:          0 HIT:          0 MISS:          0
cpu0_L1I PREFETCH     ACCESS:          0 HIT:          0 MISS:          0
cpu0_L1I WRITE        ACCESS:          0 HIT:          0 MISS:          0
cpu0_L1I TRANSLATION  ACCESS:          0 HIT:          0 MISS:          0
cpu0_L1I PREFETCH REQUESTED:          0 ISSUED:          0 USEFUL:          0 USELESS:          0
cpu0_L1I AVERAGE MISS LATENCY: 489.5 cycles
cpu0_L2C TOTAL        ACCESS:    5429610 HIT:    2199417 MISS:    3230193
cpu0_L2C LOAD         ACCESS:    2431373 HIT:     127648 MISS:    2303725
cpu0_L2C RFO          ACCESS:     923511 HIT:        878 MISS:     922633
cpu0_L2C PREFETCH     ACCESS:          0 HIT:          0 MISS:          0
cpu0_L2C WRITE        ACCESS:    2056452 HIT:    2056084 MISS:        368
cpu0_L2C TRANSLATION  ACCESS:      18274 HIT:      14807 MISS:       3467
cpu0_L2C PREFETCH REQUESTED:          0 ISSUED:          0 USEFUL:          0 USELESS:          0
cpu0_L2C AVERAGE MISS LATENCY: 967.9 cycles
cpu0_STLB TOTAL        ACCESS:     750840 HIT:     702991 MISS:      47849
cpu0_STLB LOAD         ACCESS:     750840 HIT:     702991 MISS:      47849
cpu0_STLB RFO          ACCESS:          0 HIT:          0 MISS:          0
cpu0_STLB PREFETCH     ACCESS:          0 HIT:          0 MISS:          0
cpu0_STLB WRITE        ACCESS:          0 HIT:          0 MISS:          0
cpu0_STLB TRANSLATION  ACCESS:          0 HIT:          0 MISS:          0
cpu0_STLB PREFETCH REQUESTED:          0 ISSUED:          0 USEFUL:          0 USELESS:          0
cpu0_STLB AVERAGE MISS LATENCY: 393 cycles

DRAM Statistics

Channel 0 RQ ROW_BUFFER_HIT:     776249
  ROW_BUFFER_MISS:    2163139
 AVG DBUS CONGESTED CYCLE: 3.974
WQ ROW_BUFFER_HIT: Channel 0 
  ROW_BUFFER_MISS:     649321
  FULL:    1243644
