WARNING: physical memory size is smaller than virtual memory size.

*** ChampSim Multicore Out-of-Order Simulator ***
Warmup Instructions: 50000000
Simulation Instructions: 600000000
Number of CPUs: 1
Page size: 4096

Off-chip DRAM Size: 4 GiB Channels: 1 Width: 64-bit Data Race: 3200 MT/s
Heartbeat CPU 0 instructions: 10000000 cycles: 2881054 heartbeat IPC: 3.471 cumulative IPC: 3.471 (Simulation time: 00 hr 00 min 41 sec)
Heartbeat CPU 0 instructions: 20000000 cycles: 5381054 heartbeat IPC: 4 cumulative IPC: 3.717 (Simulation time: 00 hr 01 min 29 sec)
Heartbeat CPU 0 instructions: 30000000 cycles: 7881054 heartbeat IPC: 4 cumulative IPC: 3.807 (Simulation time: 00 hr 02 min 10 sec)
Heartbeat CPU 0 instructions: 40000000 cycles: 10381054 heartbeat IPC: 4 cumulative IPC: 3.853 (Simulation time: 00 hr 02 min 48 sec)
Heartbeat CPU 0 instructions: 50000000 cycles: 12881054 heartbeat IPC: 4 cumulative IPC: 3.882 (Simulation time: 00 hr 03 min 44 sec)
Warmup finished CPU 0 instructions: 50000000 cycles: 12881055 cumulative IPC: 3.882 (Simulation time: 00 hr 03 min 44 sec)
Warmup complete CPU 0 instructions: 50000000 cycles: 12881055 cumulative IPC: 3.882 (Simulation time: 00 hr 03 min 44 sec)
Heartbeat CPU 0 instructions: 60000000 cycles: 17351033 heartbeat IPC: 2.237 cumulative IPC: 2.237 (Simulation time: 00 hr 05 min 31 sec)
Heartbeat CPU 0 instructions: 70000000 cycles: 21780552 heartbeat IPC: 2.258 cumulative IPC: 2.247 (Simulation time: 00 hr 06 min 55 sec)
Heartbeat CPU 0 instructions: 80000000 cycles: 26183236 heartbeat IPC: 2.271 cumulative IPC: 2.255 (Simulation time: 00 hr 08 min 13 sec)
Heartbeat CPU 0 instructions: 90000003 cycles: 30621617 heartbeat IPC: 2.253 cumulative IPC: 2.255 (Simulation time: 00 hr 09 min 20 sec)
Heartbeat CPU 0 instructions: 100000002 cycles: 34633849 heartbeat IPC: 2.492 cumulative IPC: 2.299 (Simulation time: 00 hr 10 min 31 sec)
Heartbeat CPU 0 instructions: 110000000 cycles: 38252162 heartbeat IPC: 2.764 cumulative IPC: 2.365 (Simulation time: 00 hr 11 min 36 sec)
Heartbeat CPU 0 instructions: 120000002 cycles: 42020923 heartbeat IPC: 2.653 cumulative IPC: 2.402 (Simulation time: 00 hr 12 min 45 sec)
Heartbeat CPU 0 instructions: 130000000 cycles: 45651043 heartbeat IPC: 2.755 cumulative IPC: 2.441 (Simulation time: 00 hr 14 min 03 sec)
Heartbeat CPU 0 instructions: 140000001 cycles: 49291241 heartbeat IPC: 2.747 cumulative IPC: 2.472 (Simulation time: 00 hr 15 min 20 sec)
Heartbeat CPU 0 instructions: 150000001 cycles: 52832753 heartbeat IPC: 2.824 cumulative IPC: 2.503 (Simulation time: 00 hr 16 min 41 sec)
Heartbeat CPU 0 instructions: 160000000 cycles: 56491571 heartbeat IPC: 2.733 cumulative IPC: 2.522 (Simulation time: 00 hr 18 min 00 sec)
Heartbeat CPU 0 instructions: 170000004 cycles: 60290424 heartbeat IPC: 2.632 cumulative IPC: 2.531 (Simulation time: 00 hr 19 min 20 sec)
Heartbeat CPU 0 instructions: 180000003 cycles: 63913744 heartbeat IPC: 2.76 cumulative IPC: 2.547 (Simulation time: 00 hr 20 min 28 sec)
Heartbeat CPU 0 instructions: 190000001 cycles: 67089792 heartbeat IPC: 3.149 cumulative IPC: 2.583 (Simulation time: 00 hr 21 min 25 sec)
Heartbeat CPU 0 instructions: 200000001 cycles: 69884056 heartbeat IPC: 3.579 cumulative IPC: 2.631 (Simulation time: 00 hr 22 min 15 sec)
Heartbeat CPU 0 instructions: 210000000 cycles: 72679391 heartbeat IPC: 3.577 cumulative IPC: 2.676 (Simulation time: 00 hr 23 min 06 sec)
Heartbeat CPU 0 instructions: 220000004 cycles: 75662896 heartbeat IPC: 3.352 cumulative IPC: 2.708 (Simulation time: 00 hr 23 min 57 sec)
Heartbeat CPU 0 instructions: 230000002 cycles: 79178515 heartbeat IPC: 2.844 cumulative IPC: 2.715 (Simulation time: 00 hr 25 min 01 sec)
Heartbeat CPU 0 instructions: 240000002 cycles: 82860143 heartbeat IPC: 2.716 cumulative IPC: 2.715 (Simulation time: 00 hr 26 min 06 sec)
Heartbeat CPU 0 instructions: 250000000 cycles: 86531556 heartbeat IPC: 2.724 cumulative IPC: 2.716 (Simulation time: 00 hr 27 min 30 sec)
Heartbeat CPU 0 instructions: 260000001 cycles: 90414928 heartbeat IPC: 2.575 cumulative IPC: 2.708 (Simulation time: 00 hr 28 min 19 sec)
Heartbeat CPU 0 instructions: 270000002 cycles: 94183249 heartbeat IPC: 2.654 cumulative IPC: 2.706 (Simulation time: 00 hr 29 min 07 sec)
Heartbeat CPU 0 instructions: 280000001 cycles: 97951460 heartbeat IPC: 2.654 cumulative IPC: 2.704 (Simulation time: 00 hr 30 min 08 sec)
Heartbeat CPU 0 instructions: 290000002 cycles: 155752079 heartbeat IPC: 0.173 cumulative IPC: 1.68 (Simulation time: 00 hr 37 min 39 sec)
Heartbeat CPU 0 instructions: 300000000 cycles: 158257196 heartbeat IPC: 3.992 cumulative IPC: 1.72 (Simulation time: 00 hr 38 min 32 sec)
Heartbeat CPU 0 instructions: 310000003 cycles: 160762242 heartbeat IPC: 3.992 cumulative IPC: 1.758 (Simulation time: 00 hr 39 min 26 sec)
Heartbeat CPU 0 instructions: 320000001 cycles: 163267358 heartbeat IPC: 3.992 cumulative IPC: 1.795 (Simulation time: 00 hr 40 min 20 sec)
Heartbeat CPU 0 instructions: 330000001 cycles: 165772395 heartbeat IPC: 3.992 cumulative IPC: 1.831 (Simulation time: 00 hr 41 min 14 sec)
Heartbeat CPU 0 instructions: 340000004 cycles: 168277670 heartbeat IPC: 3.992 cumulative IPC: 1.866 (Simulation time: 00 hr 42 min 10 sec)
Heartbeat CPU 0 instructions: 350000004 cycles: 170782745 heartbeat IPC: 3.992 cumulative IPC: 1.9 (Simulation time: 00 hr 43 min 06 sec)
Heartbeat CPU 0 instructions: 360000000 cycles: 173287818 heartbeat IPC: 3.992 cumulative IPC: 1.933 (Simulation time: 00 hr 43 min 50 sec)
Heartbeat CPU 0 instructions: 370000003 cycles: 175792937 heartbeat IPC: 3.992 cumulative IPC: 1.964 (Simulation time: 00 hr 44 min 44 sec)
Heartbeat CPU 0 instructions: 380000001 cycles: 178297982 heartbeat IPC: 3.992 cumulative IPC: 1.995 (Simulation time: 00 hr 45 min 36 sec)
Heartbeat CPU 0 instructions: 390000004 cycles: 180803108 heartbeat IPC: 3.992 cumulative IPC: 2.025 (Simulation time: 00 hr 46 min 26 sec)
Heartbeat CPU 0 instructions: 400000000 cycles: 183308185 heartbeat IPC: 3.992 cumulative IPC: 2.054 (Simulation time: 00 hr 47 min 23 sec)
Heartbeat CPU 0 instructions: 410000002 cycles: 185813261 heartbeat IPC: 3.992 cumulative IPC: 2.082 (Simulation time: 00 hr 48 min 11 sec)
Heartbeat CPU 0 instructions: 420000002 cycles: 188318368 heartbeat IPC: 3.992 cumulative IPC: 2.109 (Simulation time: 00 hr 48 min 59 sec)
Heartbeat CPU 0 instructions: 430000003 cycles: 190824118 heartbeat IPC: 3.991 cumulative IPC: 2.136 (Simulation time: 00 hr 49 min 58 sec)
Heartbeat CPU 0 instructions: 440000003 cycles: 193329190 heartbeat IPC: 3.992 cumulative IPC: 2.161 (Simulation time: 00 hr 50 min 38 sec)
Heartbeat CPU 0 instructions: 450000004 cycles: 195834195 heartbeat IPC: 3.992 cumulative IPC: 2.186 (Simulation time: 00 hr 51 min 26 sec)
Heartbeat CPU 0 instructions: 460000001 cycles: 198339231 heartbeat IPC: 3.992 cumulative IPC: 2.211 (Simulation time: 00 hr 52 min 11 sec)
Heartbeat CPU 0 instructions: 470000003 cycles: 200844304 heartbeat IPC: 3.992 cumulative IPC: 2.234 (Simulation time: 00 hr 53 min 03 sec)
Heartbeat CPU 0 instructions: 480000000 cycles: 203349422 heartbeat IPC: 3.992 cumulative IPC: 2.258 (Simulation time: 00 hr 53 min 56 sec)
Heartbeat CPU 0 instructions: 490000002 cycles: 205854497 heartbeat IPC: 3.992 cumulative IPC: 2.28 (Simulation time: 00 hr 54 min 42 sec)
Heartbeat CPU 0 instructions: 500000003 cycles: 208359569 heartbeat IPC: 3.992 cumulative IPC: 2.302 (Simulation time: 00 hr 55 min 27 sec)
Heartbeat CPU 0 instructions: 510000000 cycles: 213797318 heartbeat IPC: 1.839 cumulative IPC: 2.29 (Simulation time: 00 hr 56 min 32 sec)
Heartbeat CPU 0 instructions: 520000004 cycles: 326720721 heartbeat IPC: 0.08856 cumulative IPC: 1.498 (Simulation time: 01 hr 12 min 04 sec)
Heartbeat CPU 0 instructions: 530000003 cycles: 414368772 heartbeat IPC: 0.1141 cumulative IPC: 1.196 (Simulation time: 01 hr 23 min 57 sec)
Heartbeat CPU 0 instructions: 540000003 cycles: 442440366 heartbeat IPC: 0.3562 cumulative IPC: 1.141 (Simulation time: 01 hr 28 min 37 sec)
Heartbeat CPU 0 instructions: 550000001 cycles: 471580688 heartbeat IPC: 0.3432 cumulative IPC: 1.09 (Simulation time: 01 hr 33 min 54 sec)
Heartbeat CPU 0 instructions: 560000003 cycles: 500665622 heartbeat IPC: 0.3438 cumulative IPC: 1.046 (Simulation time: 01 hr 38 min 27 sec)
Heartbeat CPU 0 instructions: 570000001 cycles: 531584890 heartbeat IPC: 0.3234 cumulative IPC: 1.002 (Simulation time: 01 hr 44 min 50 sec)
Heartbeat CPU 0 instructions: 580000004 cycles: 564755040 heartbeat IPC: 0.3015 cumulative IPC: 0.9604 (Simulation time: 01 hr 49 min 52 sec)
Heartbeat CPU 0 instructions: 590000004 cycles: 595783258 heartbeat IPC: 0.3223 cumulative IPC: 0.9264 (Simulation time: 01 hr 56 min 44 sec)
*** Reached end of trace: (0, "traces/sp.A.champsimtrace")
Heartbeat CPU 0 instructions: 600000001 cycles: 625833241 heartbeat IPC: 0.3328 cumulative IPC: 0.8973 (Simulation time: 02 hr 03 min 33 sec)
Heartbeat CPU 0 instructions: 610000004 cycles: 654381976 heartbeat IPC: 0.3503 cumulative IPC: 0.873 (Simulation time: 02 hr 07 min 47 sec)
Heartbeat CPU 0 instructions: 620000001 cycles: 658729428 heartbeat IPC: 2.3 cumulative IPC: 0.8826 (Simulation time: 02 hr 09 min 18 sec)
Heartbeat CPU 0 instructions: 630000001 cycles: 663109506 heartbeat IPC: 2.283 cumulative IPC: 0.892 (Simulation time: 02 hr 10 min 49 sec)
Heartbeat CPU 0 instructions: 640000000 cycles: 667522803 heartbeat IPC: 2.266 cumulative IPC: 0.9013 (Simulation time: 02 hr 12 min 51 sec)
Heartbeat CPU 0 instructions: 650000001 cycles: 671950582 heartbeat IPC: 2.258 cumulative IPC: 0.9104 (Simulation time: 02 hr 14 min 35 sec)
Simulation finished CPU 0 instructions: 600000001 cycles: 659069528 cumulative IPC: 0.9104 (Simulation time: 02 hr 14 min 35 sec)
Simulation complete CPU 0 instructions: 600000001 cycles: 659069528 cumulative IPC: 0.9104 (Simulation time: 02 hr 14 min 35 sec)

ChampSim completed all CPUs

=== Simulation ===
CPU 0 runs traces/sp.A.champsimtrace
Region of Interest Statistics

CPU 0 cumulative IPC: 0.9104 instructions: 600000001 cycles: 659069528
CPU 0 Branch Prediction Accuracy: 98.8% MPKI: 0.2474 Average ROB Occupancy at Mispredict: 214.8
Branch type MPKI
BRANCH_DIRECT_JUMP: 5e-06
BRANCH_INDIRECT: 8.67e-05
BRANCH_CONDITIONAL: 0.247
BRANCH_DIRECT_CALL: 2e-05
BRANCH_INDIRECT_CALL: 3.33e-05
BRANCH_RETURN: 3.5e-05

LLC TOTAL        ACCESS:    7573706 HIT:    3578684 MISS:    3995022
LLC LOAD         ACCESS:    2302635 HIT:    1212388 MISS:    1090247
LLC RFO          ACCESS:     922622 HIT:      10148 MISS:     912474
LLC PREFETCH     ACCESS:    2302672 HIT:     566117 MISS:    1736555
LLC WRITE        ACCESS:    2042317 HIT:    1789223 MISS:     253094
LLC TRANSLATION  ACCESS:       3460 HIT:        808 MISS:       2652
LLC PREFETCH REQUESTED:    2303752 ISSUED:    2302672 USEFUL:    1464742 USELESS:      23081
LLC AVERAGE MISS LATENCY: 1173 cycles
cpu0_DTLB TOTAL        ACCESS:  127411016 HIT:  126595526 MISS:     815490
cpu0_DTLB LOAD         ACCESS:  127411016 HIT:  126595526 MISS:     815490
cpu0_DTLB RFO          ACCESS:          0 HIT:          0 MISS:          0
cpu0_DTLB PREFETCH     ACCESS:          0 HIT:          0 MISS:          0
cpu0_DTLB WRITE        ACCESS:          0 HIT:          0 MISS:          0
cpu0_DTLB TRANSLATION  ACCESS:          0 HIT:          0 MISS:          0
cpu0_DTLB PREFETCH REQUESTED:          0 ISSUED:          0 USEFUL:          0 USELESS:          0
cpu0_DTLB AVERAGE MISS LATENCY: 18.72 cycles
cpu0_ITLB TOTAL        ACCESS:     216552 HIT:     216309 MISS:        243
cpu0_ITLB LOAD         ACCESS:     216552 HIT:     216309 MISS:        243
cpu0_ITLB RFO          ACCESS:          0 HIT:          0 MISS:          0
cpu0_ITLB PREFETCH     ACCESS:          0 HIT:          0 MISS:          0
cpu0_ITLB WRITE        ACCESS:          0 HIT:          0 MISS:          0
cpu0_ITLB TRANSLATION  ACCESS:          0 HIT:          0 MISS:          0
cpu0_ITLB PREFETCH REQUESTED:          0 ISSUED:          0 USEFUL:          0 USELESS:          0
cpu0_ITLB AVERAGE MISS LATENCY: 313.4 cycles
cpu0_L1D TOTAL        ACCESS:  193563401 HIT:  179667849 MISS:   13895552
cpu0_L1D LOAD         ACCESS:  158321257 HIT:  148633729 MISS:    9687528
cpu0_L1D RFO          ACCESS:          0 HIT:          0 MISS:          0
cpu0_L1D PREFETCH     ACCESS:          0 HIT:          0 MISS:          0
cpu0_L1D WRITE        ACCESS:   35194272 HIT:   31004590 MISS:    4189682
cpu0_L1D TRANSLATION  ACCESS:      47872 HIT:      29530 MISS:      18342
cpu0_L1D PREFETCH REQUESTED:          0 ISSUED:          0 USEFUL:          0 USELESS:          0
cpu0_L1D AVERAGE MISS LATENCY: 165.2 cycles
cpu0_L1I TOTAL        ACCESS:     224037 HIT:     221324 MISS:       2713
cpu0_L1I LOAD         ACCESS:     224037 HIT:     221324 MISS:       2713
cpu0_L1I RFO          ACCESS:          0 HIT:          0 MISS:          0
cpu0_L1I PREFETCH     ACCESS:          0 HIT:          0 MISS:          0
cpu0_L1I WRITE        ACCESS:          0 HIT:          0 MISS:          0
cpu0_L1I TRANSLATION  ACCESS:          0 HIT:          0 MISS:          0
cpu0_L1I PREFETCH REQUESTED:          0 ISSUED:          0 USEFUL:          0 USELESS:          0
cpu0_L1I AVERAGE MISS LATENCY: 452.4 cycles
cpu0_L2C TOTAL        ACCESS:    5427701 HIT:    2198406 MISS:    3229295
cpu0_L2C LOAD         ACCESS:    2430212 HIT:     127346 MISS:    2302866
cpu0_L2C RFO          ACCESS:     923164 HIT:        542 MISS:     922622
cpu0_L2C PREFETCH     ACCESS:          0 HIT:          0 MISS:          0
cpu0_L2C WRITE        ACCESS:    2055984 HIT:    2055637 MISS:        347
cpu0_L2C TRANSLATION  ACCESS:      18341 HIT:      14881 MISS:       3460
cpu0_L2C PREFETCH REQUESTED:          0 ISSUED:          0 USEFUL:          0 USELESS:          0
cpu0_L2C AVERAGE MISS LATENCY: 957.1 cycles
cpu0_STLB TOTAL        ACCESS:     563370 HIT:     515515 MISS:      47855
cpu0_STLB LOAD         ACCESS:     563370 HIT:     515515 MISS:      47855
cpu0_STLB RFO          ACCESS:          0 HIT:          0 MISS:          0
cpu0_STLB PREFETCH     ACCESS:          0 HIT:          0 MISS:          0
cpu0_STLB WRITE        ACCESS:          0 HIT:          0 MISS:          0
cpu0_STLB TRANSLATION  ACCESS:          0 HIT:          0 MISS:          0
cpu0_STLB PREFETCH REQUESTED:          0 ISSUED:          0 USEFUL:          0 USELESS:          0
cpu0_STLB AVERAGE MISS LATENCY: 345.5 cycles

DRAM Statistics

Channel 0 RQ ROW_BUFFER_HIT:     756370
  ROW_BUFFER_MISS:    1928555
 AVG DBUS CONGESTED CYCLE: 3.982
WQ ROW_BUFFER_HIT: Channel 0 
  ROW_BUFFER_MISS:     271516
  FULL:    1484457
