WARNING: physical memory size is smaller than virtual memory size.

*** ChampSim Multicore Out-of-Order Simulator ***
Warmup Instructions: 50000000
Simulation Instructions: 600000000
Number of CPUs: 1
Page size: 4096

Off-chip DRAM Size: 4 GiB Channels: 1 Width: 64-bit Data Race: 3200 MT/s
Heartbeat CPU 0 instructions: 10000000 cycles: 2881055 heartbeat IPC: 3.471 cumulative IPC: 3.471 (Simulation time: 00 hr 00 min 57 sec)
Heartbeat CPU 0 instructions: 20000000 cycles: 5381055 heartbeat IPC: 4 cumulative IPC: 3.717 (Simulation time: 00 hr 01 min 52 sec)
Heartbeat CPU 0 instructions: 30000000 cycles: 7881055 heartbeat IPC: 4 cumulative IPC: 3.807 (Simulation time: 00 hr 02 min 44 sec)
Heartbeat CPU 0 instructions: 40000000 cycles: 10381055 heartbeat IPC: 4 cumulative IPC: 3.853 (Simulation time: 00 hr 03 min 40 sec)
Heartbeat CPU 0 instructions: 50000000 cycles: 12881055 heartbeat IPC: 4 cumulative IPC: 3.882 (Simulation time: 00 hr 04 min 40 sec)
Warmup finished CPU 0 instructions: 50000000 cycles: 12881056 cumulative IPC: 3.882 (Simulation time: 00 hr 04 min 40 sec)
Warmup complete CPU 0 instructions: 50000000 cycles: 12881056 cumulative IPC: 3.882 (Simulation time: 00 hr 04 min 40 sec)
Heartbeat CPU 0 instructions: 60000000 cycles: 16392726 heartbeat IPC: 2.848 cumulative IPC: 2.848 (Simulation time: 00 hr 06 min 01 sec)
Heartbeat CPU 0 instructions: 70000004 cycles: 19924652 heartbeat IPC: 2.831 cumulative IPC: 2.839 (Simulation time: 00 hr 07 min 17 sec)
Heartbeat CPU 0 instructions: 80000001 cycles: 23487293 heartbeat IPC: 2.807 cumulative IPC: 2.829 (Simulation time: 00 hr 08 min 37 sec)
Heartbeat CPU 0 instructions: 90000003 cycles: 27055080 heartbeat IPC: 2.803 cumulative IPC: 2.822 (Simulation time: 00 hr 09 min 55 sec)
Heartbeat CPU 0 instructions: 100000000 cycles: 32338136 heartbeat IPC: 1.893 cumulative IPC: 2.57 (Simulation time: 00 hr 11 min 30 sec)
Heartbeat CPU 0 instructions: 110000001 cycles: 38973192 heartbeat IPC: 1.507 cumulative IPC: 2.3 (Simulation time: 00 hr 13 min 15 sec)
Heartbeat CPU 0 instructions: 120000001 cycles: 45651685 heartbeat IPC: 1.497 cumulative IPC: 2.136 (Simulation time: 00 hr 14 min 58 sec)
Heartbeat CPU 0 instructions: 130000002 cycles: 52297472 heartbeat IPC: 1.505 cumulative IPC: 2.03 (Simulation time: 00 hr 16 min 41 sec)
Heartbeat CPU 0 instructions: 140000004 cycles: 59014306 heartbeat IPC: 1.489 cumulative IPC: 1.951 (Simulation time: 00 hr 18 min 30 sec)
Heartbeat CPU 0 instructions: 150000000 cycles: 65662814 heartbeat IPC: 1.504 cumulative IPC: 1.895 (Simulation time: 00 hr 20 min 14 sec)
Heartbeat CPU 0 instructions: 160000001 cycles: 72334010 heartbeat IPC: 1.499 cumulative IPC: 1.85 (Simulation time: 00 hr 21 min 59 sec)
Heartbeat CPU 0 instructions: 170000001 cycles: 78993969 heartbeat IPC: 1.502 cumulative IPC: 1.815 (Simulation time: 00 hr 23 min 44 sec)
Heartbeat CPU 0 instructions: 180000002 cycles: 85681717 heartbeat IPC: 1.495 cumulative IPC: 1.786 (Simulation time: 00 hr 25 min 29 sec)
Heartbeat CPU 0 instructions: 190000002 cycles: 92100042 heartbeat IPC: 1.558 cumulative IPC: 1.767 (Simulation time: 00 hr 27 min 11 sec)
Heartbeat CPU 0 instructions: 200000000 cycles: 97926870 heartbeat IPC: 1.716 cumulative IPC: 1.764 (Simulation time: 00 hr 28 min 47 sec)
Heartbeat CPU 0 instructions: 210000001 cycles: 104243393 heartbeat IPC: 1.583 cumulative IPC: 1.751 (Simulation time: 00 hr 30 min 29 sec)
Heartbeat CPU 0 instructions: 220000001 cycles: 111195203 heartbeat IPC: 1.438 cumulative IPC: 1.729 (Simulation time: 00 hr 32 min 17 sec)
Heartbeat CPU 0 instructions: 230000004 cycles: 118166848 heartbeat IPC: 1.434 cumulative IPC: 1.71 (Simulation time: 00 hr 34 min 06 sec)
Heartbeat CPU 0 instructions: 240000003 cycles: 125020690 heartbeat IPC: 1.459 cumulative IPC: 1.694 (Simulation time: 00 hr 35 min 54 sec)
Heartbeat CPU 0 instructions: 250000002 cycles: 131959300 heartbeat IPC: 1.441 cumulative IPC: 1.68 (Simulation time: 00 hr 37 min 43 sec)
Heartbeat CPU 0 instructions: 260000002 cycles: 138885955 heartbeat IPC: 1.444 cumulative IPC: 1.667 (Simulation time: 00 hr 39 min 31 sec)
Heartbeat CPU 0 instructions: 270000003 cycles: 145778481 heartbeat IPC: 1.451 cumulative IPC: 1.655 (Simulation time: 00 hr 41 min 19 sec)
Heartbeat CPU 0 instructions: 280000000 cycles: 152667269 heartbeat IPC: 1.452 cumulative IPC: 1.645 (Simulation time: 00 hr 43 min 11 sec)
Heartbeat CPU 0 instructions: 290000001 cycles: 218892022 heartbeat IPC: 0.151 cumulative IPC: 1.165 (Simulation time: 00 hr 54 min 21 sec)
Heartbeat CPU 0 instructions: 300000002 cycles: 221397126 heartbeat IPC: 3.992 cumulative IPC: 1.199 (Simulation time: 00 hr 55 min 17 sec)
Heartbeat CPU 0 instructions: 310000001 cycles: 223902170 heartbeat IPC: 3.992 cumulative IPC: 1.232 (Simulation time: 00 hr 56 min 12 sec)
Heartbeat CPU 0 instructions: 320000000 cycles: 226407349 heartbeat IPC: 3.992 cumulative IPC: 1.264 (Simulation time: 00 hr 57 min 08 sec)
Heartbeat CPU 0 instructions: 330000003 cycles: 228913020 heartbeat IPC: 3.991 cumulative IPC: 1.296 (Simulation time: 00 hr 58 min 05 sec)
Heartbeat CPU 0 instructions: 340000000 cycles: 231418092 heartbeat IPC: 3.992 cumulative IPC: 1.327 (Simulation time: 00 hr 59 min 01 sec)
Heartbeat CPU 0 instructions: 350000004 cycles: 233923371 heartbeat IPC: 3.992 cumulative IPC: 1.357 (Simulation time: 00 hr 59 min 58 sec)
Heartbeat CPU 0 instructions: 360000004 cycles: 236428446 heartbeat IPC: 3.992 cumulative IPC: 1.387 (Simulation time: 01 hr 00 min 53 sec)
Heartbeat CPU 0 instructions: 370000000 cycles: 238933519 heartbeat IPC: 3.992 cumulative IPC: 1.416 (Simulation time: 01 hr 01 min 49 sec)
Heartbeat CPU 0 instructions: 380000004 cycles: 241439554 heartbeat IPC: 3.99 cumulative IPC: 1.444 (Simulation time: 01 hr 02 min 45 sec)
Heartbeat CPU 0 instructions: 390000001 cycles: 243944626 heartbeat IPC: 3.992 cumulative IPC: 1.471 (Simulation time: 01 hr 03 min 42 sec)
Heartbeat CPU 0 instructions: 400000003 cycles: 246449704 heartbeat IPC: 3.992 cumulative IPC: 1.498 (Simulation time: 01 hr 04 min 38 sec)
Heartbeat CPU 0 instructions: 410000003 cycles: 248954819 heartbeat IPC: 3.992 cumulative IPC: 1.525 (Simulation time: 01 hr 05 min 34 sec)
Heartbeat CPU 0 instructions: 420000002 cycles: 251459894 heartbeat IPC: 3.992 cumulative IPC: 1.551 (Simulation time: 01 hr 06 min 30 sec)
Heartbeat CPU 0 instructions: 430000000 cycles: 253964967 heartbeat IPC: 3.992 cumulative IPC: 1.576 (Simulation time: 01 hr 07 min 25 sec)
Heartbeat CPU 0 instructions: 440000001 cycles: 256470041 heartbeat IPC: 3.992 cumulative IPC: 1.601 (Simulation time: 01 hr 08 min 20 sec)
Heartbeat CPU 0 instructions: 450000000 cycles: 258975088 heartbeat IPC: 3.992 cumulative IPC: 1.625 (Simulation time: 01 hr 09 min 16 sec)
Heartbeat CPU 0 instructions: 460000003 cycles: 261480126 heartbeat IPC: 3.992 cumulative IPC: 1.649 (Simulation time: 01 hr 10 min 11 sec)
Heartbeat CPU 0 instructions: 470000001 cycles: 263985200 heartbeat IPC: 3.992 cumulative IPC: 1.673 (Simulation time: 01 hr 11 min 07 sec)
Heartbeat CPU 0 instructions: 480000003 cycles: 266490273 heartbeat IPC: 3.992 cumulative IPC: 1.696 (Simulation time: 01 hr 12 min 04 sec)
Heartbeat CPU 0 instructions: 490000003 cycles: 268995348 heartbeat IPC: 3.992 cumulative IPC: 1.718 (Simulation time: 01 hr 13 min 01 sec)
Heartbeat CPU 0 instructions: 500000002 cycles: 271500797 heartbeat IPC: 3.991 cumulative IPC: 1.74 (Simulation time: 01 hr 13 min 57 sec)
Heartbeat CPU 0 instructions: 510000003 cycles: 277712413 heartbeat IPC: 1.61 cumulative IPC: 1.737 (Simulation time: 01 hr 15 min 32 sec)
Heartbeat CPU 0 instructions: 520000001 cycles: 382039254 heartbeat IPC: 0.09585 cumulative IPC: 1.273 (Simulation time: 01 hr 34 min 58 sec)
Heartbeat CPU 0 instructions: 530000000 cycles: 463767232 heartbeat IPC: 0.1224 cumulative IPC: 1.065 (Simulation time: 01 hr 50 min 30 sec)
Heartbeat CPU 0 instructions: 540000000 cycles: 487289794 heartbeat IPC: 0.4251 cumulative IPC: 1.033 (Simulation time: 01 hr 55 min 27 sec)
Heartbeat CPU 0 instructions: 550000002 cycles: 510765216 heartbeat IPC: 0.426 cumulative IPC: 1.004 (Simulation time: 02 hr 00 min 24 sec)
Heartbeat CPU 0 instructions: 560000002 cycles: 534142692 heartbeat IPC: 0.4278 cumulative IPC: 0.9784 (Simulation time: 02 hr 05 min 18 sec)
Heartbeat CPU 0 instructions: 570000002 cycles: 557271266 heartbeat IPC: 0.4324 cumulative IPC: 0.9552 (Simulation time: 02 hr 10 min 10 sec)
Heartbeat CPU 0 instructions: 580000001 cycles: 579830244 heartbeat IPC: 0.4433 cumulative IPC: 0.9348 (Simulation time: 02 hr 14 min 58 sec)
Heartbeat CPU 0 instructions: 590000004 cycles: 602696727 heartbeat IPC: 0.4373 cumulative IPC: 0.9155 (Simulation time: 02 hr 19 min 55 sec)
*** Reached end of trace: (0, "traces/sp.A.champsimtrace")
Heartbeat CPU 0 instructions: 600000002 cycles: 625430186 heartbeat IPC: 0.4399 cumulative IPC: 0.8979 (Simulation time: 02 hr 24 min 45 sec)
Heartbeat CPU 0 instructions: 610000000 cycles: 654354172 heartbeat IPC: 0.3457 cumulative IPC: 0.873 (Simulation time: 02 hr 29 min 22 sec)
Heartbeat CPU 0 instructions: 620000000 cycles: 657849002 heartbeat IPC: 2.861 cumulative IPC: 0.8838 (Simulation time: 02 hr 30 min 42 sec)
Heartbeat CPU 0 instructions: 630000003 cycles: 661369859 heartbeat IPC: 2.84 cumulative IPC: 0.8944 (Simulation time: 02 hr 31 min 55 sec)
Heartbeat CPU 0 instructions: 640000004 cycles: 664875572 heartbeat IPC: 2.852 cumulative IPC: 0.9049 (Simulation time: 02 hr 33 min 12 sec)
Heartbeat CPU 0 instructions: 650000000 cycles: 668456569 heartbeat IPC: 2.793 cumulative IPC: 0.9152 (Simulation time: 02 hr 34 min 27 sec)
Simulation finished CPU 0 instructions: 600000000 cycles: 655575514 cumulative IPC: 0.9152 (Simulation time: 02 hr 34 min 27 sec)
Simulation complete CPU 0 instructions: 600000000 cycles: 655575514 cumulative IPC: 0.9152 (Simulation time: 02 hr 34 min 27 sec)

ChampSim completed all CPUs

=== Simulation ===
CPU 0 runs traces/sp.A.champsimtrace
Region of Interest Statistics

CPU 0 cumulative IPC: 0.9152 instructions: 600000000 cycles: 655575514
CPU 0 Branch Prediction Accuracy: 98.84% MPKI: 0.2406 Average ROB Occupancy at Mispredict: 221.9
Branch type MPKI
BRANCH_DIRECT_JUMP: 5e-06
BRANCH_INDIRECT: 7.5e-05
BRANCH_CONDITIONAL: 0.24
BRANCH_DIRECT_CALL: 2e-05
BRANCH_INDIRECT_CALL: 3.17e-05
BRANCH_RETURN: 3.67e-05

LLC TOTAL        ACCESS:    8126060 HIT:    5089261 MISS:    3036799
LLC LOAD         ACCESS:    2304239 HIT:    1468227 MISS:     836012
LLC RFO          ACCESS:     922635 HIT:       6817 MISS:     915818
LLC PREFETCH     ACCESS:    2850134 HIT:    1567253 MISS:    1282881
LLC WRITE        ACCESS:    2045582 HIT:    2045337 MISS:        245
LLC TRANSLATION  ACCESS:       3470 HIT:       1627 MISS:       1843
LLC PREFETCH REQUESTED:    2850134 ISSUED:    2850134 USEFUL:    1026102 USELESS:      18288
LLC AVERAGE MISS LATENCY: 1430 cycles
cpu0_DTLB TOTAL        ACCESS:  125666139 HIT:  124840054 MISS:     826085
cpu0_DTLB LOAD         ACCESS:  125666139 HIT:  124840054 MISS:     826085
cpu0_DTLB RFO          ACCESS:          0 HIT:          0 MISS:          0
cpu0_DTLB PREFETCH     ACCESS:          0 HIT:          0 MISS:          0
cpu0_DTLB WRITE        ACCESS:          0 HIT:          0 MISS:          0
cpu0_DTLB TRANSLATION  ACCESS:          0 HIT:          0 MISS:          0
cpu0_DTLB PREFETCH REQUESTED:          0 ISSUED:          0 USEFUL:          0 USELESS:          0
cpu0_DTLB AVERAGE MISS LATENCY: 17.85 cycles
cpu0_ITLB TOTAL        ACCESS:     218400 HIT:     218180 MISS:        220
cpu0_ITLB LOAD         ACCESS:     218400 HIT:     218180 MISS:        220
cpu0_ITLB RFO          ACCESS:          0 HIT:          0 MISS:          0
cpu0_ITLB PREFETCH     ACCESS:          0 HIT:          0 MISS:          0
cpu0_ITLB WRITE        ACCESS:          0 HIT:          0 MISS:          0
cpu0_ITLB TRANSLATION  ACCESS:          0 HIT:          0 MISS:          0
cpu0_ITLB PREFETCH REQUESTED:          0 ISSUED:          0 USEFUL:          0 USELESS:          0
cpu0_ITLB AVERAGE MISS LATENCY: 319.6 cycles
cpu0_L1D TOTAL        ACCESS:  191921976 HIT:  178610188 MISS:   13311788
cpu0_L1D LOAD         ACCESS:  156679749 HIT:  147829561 MISS:    8850188
cpu0_L1D RFO          ACCESS:          0 HIT:          0 MISS:          0
cpu0_L1D PREFETCH     ACCESS:          0 HIT:          0 MISS:          0
cpu0_L1D WRITE        ACCESS:   35194348 HIT:   30751057 MISS:    4443291
cpu0_L1D TRANSLATION  ACCESS:      47879 HIT:      29570 MISS:      18309
cpu0_L1D PREFETCH REQUESTED:          0 ISSUED:          0 USEFUL:          0 USELESS:          0
cpu0_L1D AVERAGE MISS LATENCY: 157 cycles
cpu0_L1I TOTAL        ACCESS:     226065 HIT:     223271 MISS:       2794
cpu0_L1I LOAD         ACCESS:     226065 HIT:     223271 MISS:       2794
cpu0_L1I RFO          ACCESS:          0 HIT:          0 MISS:          0
cpu0_L1I PREFETCH     ACCESS:          0 HIT:          0 MISS:          0
cpu0_L1I WRITE        ACCESS:          0 HIT:          0 MISS:          0
cpu0_L1I TRANSLATION  ACCESS:          0 HIT:          0 MISS:          0
cpu0_L1I PREFETCH REQUESTED:          0 ISSUED:          0 USEFUL:          0 USELESS:          0
cpu0_L1I AVERAGE MISS LATENCY: 514.2 cycles
cpu0_L2C TOTAL        ACCESS:    5423896 HIT:    2193099 MISS:    3230797
cpu0_L2C LOAD         ACCESS:    2426316 HIT:     121997 MISS:    2304319
cpu0_L2C RFO          ACCESS:     923194 HIT:        559 MISS:     922635
cpu0_L2C PREFETCH     ACCESS:          0 HIT:          0 MISS:          0
cpu0_L2C WRITE        ACCESS:    2056079 HIT:    2055706 MISS:        373
cpu0_L2C TRANSLATION  ACCESS:      18307 HIT:      14837 MISS:       3470
cpu0_L2C PREFETCH REQUESTED:          0 ISSUED:          0 USEFUL:          0 USELESS:          0
cpu0_L2C AVERAGE MISS LATENCY: 831.5 cycles
cpu0_STLB TOTAL        ACCESS:     573327 HIT:     525478 MISS:      47849
cpu0_STLB LOAD         ACCESS:     573327 HIT:     525478 MISS:      47849
cpu0_STLB RFO          ACCESS:          0 HIT:          0 MISS:          0
cpu0_STLB PREFETCH     ACCESS:          0 HIT:          0 MISS:          0
cpu0_STLB WRITE        ACCESS:          0 HIT:          0 MISS:          0
cpu0_STLB TRANSLATION  ACCESS:          0 HIT:          0 MISS:          0
cpu0_STLB PREFETCH REQUESTED:          0 ISSUED:          0 USEFUL:          0 USELESS:          0
cpu0_STLB AVERAGE MISS LATENCY: 296.3 cycles

DRAM Statistics

Channel 0 RQ ROW_BUFFER_HIT:     890376
  ROW_BUFFER_MISS:    1862079
 AVG DBUS CONGESTED CYCLE: 3.967
WQ ROW_BUFFER_HIT: Channel 0 
  ROW_BUFFER_MISS:     378910
  FULL:    1398187
