WARNING: physical memory size is smaller than virtual memory size.

*** ChampSim Multicore Out-of-Order Simulator ***
Warmup Instructions: 50000000
Simulation Instructions: 600000000
Number of CPUs: 1
Page size: 4096

Off-chip DRAM Size: 4 GiB Channels: 1 Width: 64-bit Data Race: 3200 MT/s
Heartbeat CPU 0 instructions: 10000001 cycles: 2881056 heartbeat IPC: 3.471 cumulative IPC: 3.471 (Simulation time: 00 hr 00 min 48 sec)
Heartbeat CPU 0 instructions: 20000001 cycles: 5381056 heartbeat IPC: 4 cumulative IPC: 3.717 (Simulation time: 00 hr 01 min 34 sec)
Heartbeat CPU 0 instructions: 30000001 cycles: 7881056 heartbeat IPC: 4 cumulative IPC: 3.807 (Simulation time: 00 hr 02 min 19 sec)
Heartbeat CPU 0 instructions: 40000001 cycles: 10381056 heartbeat IPC: 4 cumulative IPC: 3.853 (Simulation time: 00 hr 03 min 07 sec)
Heartbeat CPU 0 instructions: 50000001 cycles: 12881056 heartbeat IPC: 4 cumulative IPC: 3.882 (Simulation time: 00 hr 03 min 53 sec)
Warmup finished CPU 0 instructions: 50000001 cycles: 12881057 cumulative IPC: 3.882 (Simulation time: 00 hr 03 min 53 sec)
Warmup complete CPU 0 instructions: 50000001 cycles: 12881057 cumulative IPC: 3.882 (Simulation time: 00 hr 03 min 53 sec)
Heartbeat CPU 0 instructions: 60000000 cycles: 16510002 heartbeat IPC: 2.756 cumulative IPC: 2.756 (Simulation time: 00 hr 04 min 57 sec)
Heartbeat CPU 0 instructions: 70000003 cycles: 20151472 heartbeat IPC: 2.746 cumulative IPC: 2.751 (Simulation time: 00 hr 06 min 03 sec)
Heartbeat CPU 0 instructions: 80000001 cycles: 23778615 heartbeat IPC: 2.757 cumulative IPC: 2.753 (Simulation time: 00 hr 07 min 09 sec)
Heartbeat CPU 0 instructions: 90000004 cycles: 27380449 heartbeat IPC: 2.776 cumulative IPC: 2.759 (Simulation time: 00 hr 08 min 14 sec)
Heartbeat CPU 0 instructions: 100000000 cycles: 30490605 heartbeat IPC: 3.215 cumulative IPC: 2.839 (Simulation time: 00 hr 09 min 14 sec)
Heartbeat CPU 0 instructions: 110000004 cycles: 33044080 heartbeat IPC: 3.916 cumulative IPC: 2.976 (Simulation time: 00 hr 10 min 07 sec)
Heartbeat CPU 0 instructions: 120000000 cycles: 35597986 heartbeat IPC: 3.916 cumulative IPC: 3.081 (Simulation time: 00 hr 10 min 59 sec)
Heartbeat CPU 0 instructions: 130000000 cycles: 39044826 heartbeat IPC: 2.901 cumulative IPC: 3.058 (Simulation time: 00 hr 12 min 03 sec)
Heartbeat CPU 0 instructions: 140000004 cycles: 45745191 heartbeat IPC: 1.492 cumulative IPC: 2.739 (Simulation time: 00 hr 13 min 42 sec)
Heartbeat CPU 0 instructions: 150000001 cycles: 52929161 heartbeat IPC: 1.392 cumulative IPC: 2.497 (Simulation time: 00 hr 15 min 28 sec)
Heartbeat CPU 0 instructions: 160000002 cycles: 59895214 heartbeat IPC: 1.436 cumulative IPC: 2.34 (Simulation time: 00 hr 17 min 20 sec)
Heartbeat CPU 0 instructions: 170000000 cycles: 67039246 heartbeat IPC: 1.4 cumulative IPC: 2.216 (Simulation time: 00 hr 19 min 04 sec)
Heartbeat CPU 0 instructions: 180000000 cycles: 74091545 heartbeat IPC: 1.418 cumulative IPC: 2.124 (Simulation time: 00 hr 20 min 48 sec)
Heartbeat CPU 0 instructions: 190000000 cycles: 80549178 heartbeat IPC: 1.549 cumulative IPC: 2.069 (Simulation time: 00 hr 22 min 23 sec)
Heartbeat CPU 0 instructions: 200000003 cycles: 85415879 heartbeat IPC: 2.055 cumulative IPC: 2.068 (Simulation time: 00 hr 23 min 42 sec)
Heartbeat CPU 0 instructions: 210000001 cycles: 90301351 heartbeat IPC: 2.047 cumulative IPC: 2.067 (Simulation time: 00 hr 25 min 00 sec)
Heartbeat CPU 0 instructions: 220000004 cycles: 95245135 heartbeat IPC: 2.023 cumulative IPC: 2.064 (Simulation time: 00 hr 26 min 20 sec)
Heartbeat CPU 0 instructions: 230000000 cycles: 100184320 heartbeat IPC: 2.025 cumulative IPC: 2.062 (Simulation time: 00 hr 27 min 39 sec)
Heartbeat CPU 0 instructions: 240000003 cycles: 105115984 heartbeat IPC: 2.028 cumulative IPC: 2.06 (Simulation time: 00 hr 29 min 01 sec)
Heartbeat CPU 0 instructions: 250000002 cycles: 110050339 heartbeat IPC: 2.027 cumulative IPC: 2.058 (Simulation time: 00 hr 30 min 20 sec)
Heartbeat CPU 0 instructions: 260000000 cycles: 114988250 heartbeat IPC: 2.025 cumulative IPC: 2.057 (Simulation time: 00 hr 31 min 40 sec)
Heartbeat CPU 0 instructions: 270000003 cycles: 119912752 heartbeat IPC: 2.031 cumulative IPC: 2.055 (Simulation time: 00 hr 33 min 01 sec)
Heartbeat CPU 0 instructions: 280000003 cycles: 124842229 heartbeat IPC: 2.029 cumulative IPC: 2.054 (Simulation time: 00 hr 34 min 21 sec)
Heartbeat CPU 0 instructions: 290000000 cycles: 174725286 heartbeat IPC: 0.2005 cumulative IPC: 1.483 (Simulation time: 00 hr 42 min 33 sec)
Heartbeat CPU 0 instructions: 300000001 cycles: 177227820 heartbeat IPC: 3.996 cumulative IPC: 1.521 (Simulation time: 00 hr 43 min 24 sec)
Heartbeat CPU 0 instructions: 310000000 cycles: 179730197 heartbeat IPC: 3.996 cumulative IPC: 1.558 (Simulation time: 00 hr 44 min 15 sec)
Heartbeat CPU 0 instructions: 320000002 cycles: 182233132 heartbeat IPC: 3.995 cumulative IPC: 1.594 (Simulation time: 00 hr 45 min 06 sec)
Heartbeat CPU 0 instructions: 330000004 cycles: 184737630 heartbeat IPC: 3.993 cumulative IPC: 1.629 (Simulation time: 00 hr 45 min 58 sec)
Heartbeat CPU 0 instructions: 340000004 cycles: 187240708 heartbeat IPC: 3.995 cumulative IPC: 1.663 (Simulation time: 00 hr 46 min 49 sec)
Heartbeat CPU 0 instructions: 350000003 cycles: 189743152 heartbeat IPC: 3.996 cumulative IPC: 1.696 (Simulation time: 00 hr 47 min 39 sec)
Heartbeat CPU 0 instructions: 360000002 cycles: 192245811 heartbeat IPC: 3.996 cumulative IPC: 1.728 (Simulation time: 00 hr 48 min 31 sec)
Heartbeat CPU 0 instructions: 370000004 cycles: 194749282 heartbeat IPC: 3.994 cumulative IPC: 1.76 (Simulation time: 00 hr 49 min 24 sec)
Heartbeat CPU 0 instructions: 380000003 cycles: 197252566 heartbeat IPC: 3.995 cumulative IPC: 1.79 (Simulation time: 00 hr 50 min 15 sec)
Heartbeat CPU 0 instructions: 390000000 cycles: 199754975 heartbeat IPC: 3.996 cumulative IPC: 1.819 (Simulation time: 00 hr 51 min 05 sec)
Heartbeat CPU 0 instructions: 400000002 cycles: 202257710 heartbeat IPC: 3.996 cumulative IPC: 1.848 (Simulation time: 00 hr 51 min 57 sec)
Heartbeat CPU 0 instructions: 410000002 cycles: 204760299 heartbeat IPC: 3.996 cumulative IPC: 1.876 (Simulation time: 00 hr 52 min 48 sec)
Heartbeat CPU 0 instructions: 420000000 cycles: 207262771 heartbeat IPC: 3.996 cumulative IPC: 1.903 (Simulation time: 00 hr 53 min 39 sec)
Heartbeat CPU 0 instructions: 430000001 cycles: 209765451 heartbeat IPC: 3.996 cumulative IPC: 1.93 (Simulation time: 00 hr 54 min 30 sec)
Heartbeat CPU 0 instructions: 440000000 cycles: 212268478 heartbeat IPC: 3.995 cumulative IPC: 1.956 (Simulation time: 00 hr 55 min 21 sec)
Heartbeat CPU 0 instructions: 450000001 cycles: 214772289 heartbeat IPC: 3.994 cumulative IPC: 1.981 (Simulation time: 00 hr 56 min 11 sec)
Heartbeat CPU 0 instructions: 460000002 cycles: 217274874 heartbeat IPC: 3.996 cumulative IPC: 2.006 (Simulation time: 00 hr 57 min 02 sec)
Heartbeat CPU 0 instructions: 470000001 cycles: 219777792 heartbeat IPC: 3.995 cumulative IPC: 2.03 (Simulation time: 00 hr 57 min 53 sec)
Heartbeat CPU 0 instructions: 480000000 cycles: 222280182 heartbeat IPC: 3.996 cumulative IPC: 2.053 (Simulation time: 00 hr 58 min 44 sec)
Heartbeat CPU 0 instructions: 490000001 cycles: 224783165 heartbeat IPC: 3.995 cumulative IPC: 2.076 (Simulation time: 00 hr 59 min 35 sec)
Heartbeat CPU 0 instructions: 500000004 cycles: 227287721 heartbeat IPC: 3.993 cumulative IPC: 2.099 (Simulation time: 01 hr 00 min 25 sec)
Heartbeat CPU 0 instructions: 510000000 cycles: 235327629 heartbeat IPC: 1.244 cumulative IPC: 2.068 (Simulation time: 01 hr 02 min 13 sec)
Heartbeat CPU 0 instructions: 520000002 cycles: 334553517 heartbeat IPC: 0.1008 cumulative IPC: 1.461 (Simulation time: 01 hr 20 min 03 sec)
Heartbeat CPU 0 instructions: 530000001 cycles: 410727435 heartbeat IPC: 0.1313 cumulative IPC: 1.206 (Simulation time: 01 hr 34 min 00 sec)
Heartbeat CPU 0 instructions: 540000001 cycles: 443297821 heartbeat IPC: 0.307 cumulative IPC: 1.138 (Simulation time: 01 hr 40 min 22 sec)
Heartbeat CPU 0 instructions: 550000001 cycles: 475704841 heartbeat IPC: 0.3086 cumulative IPC: 1.08 (Simulation time: 01 hr 46 min 42 sec)
Heartbeat CPU 0 instructions: 560000003 cycles: 507839027 heartbeat IPC: 0.3112 cumulative IPC: 1.03 (Simulation time: 01 hr 52 min 59 sec)
Heartbeat CPU 0 instructions: 570000003 cycles: 540341698 heartbeat IPC: 0.3077 cumulative IPC: 0.9859 (Simulation time: 01 hr 59 min 20 sec)
Heartbeat CPU 0 instructions: 580000001 cycles: 570871160 heartbeat IPC: 0.3276 cumulative IPC: 0.9498 (Simulation time: 02 hr 05 min 34 sec)
Heartbeat CPU 0 instructions: 590000000 cycles: 602108612 heartbeat IPC: 0.3201 cumulative IPC: 0.9165 (Simulation time: 02 hr 11 min 43 sec)
*** Reached end of trace: (0, "traces/sp.A.champsimtrace")
Heartbeat CPU 0 instructions: 600000001 cycles: 632839473 heartbeat IPC: 0.3254 cumulative IPC: 0.8872 (Simulation time: 02 hr 17 min 47 sec)
Heartbeat CPU 0 instructions: 610000004 cycles: 652576333 heartbeat IPC: 0.5067 cumulative IPC: 0.8754 (Simulation time: 02 hr 21 min 02 sec)
Heartbeat CPU 0 instructions: 620000002 cycles: 655123408 heartbeat IPC: 3.926 cumulative IPC: 0.8875 (Simulation time: 02 hr 21 min 56 sec)
Heartbeat CPU 0 instructions: 630000001 cycles: 657672323 heartbeat IPC: 3.923 cumulative IPC: 0.8995 (Simulation time: 02 hr 22 min 49 sec)
Heartbeat CPU 0 instructions: 640000000 cycles: 660685311 heartbeat IPC: 3.319 cumulative IPC: 0.9108 (Simulation time: 02 hr 23 min 52 sec)
Heartbeat CPU 0 instructions: 650000001 cycles: 664275412 heartbeat IPC: 2.785 cumulative IPC: 0.9211 (Simulation time: 02 hr 24 min 58 sec)
Simulation finished CPU 0 instructions: 600000000 cycles: 651394356 cumulative IPC: 0.9211 (Simulation time: 02 hr 24 min 58 sec)
Simulation complete CPU 0 instructions: 600000000 cycles: 651394356 cumulative IPC: 0.9211 (Simulation time: 02 hr 24 min 58 sec)

ChampSim completed all CPUs

=== Simulation ===
CPU 0 runs traces/sp.A.champsimtrace
Region of Interest Statistics

CPU 0 cumulative IPC: 0.9211 instructions: 600000000 cycles: 651394356
CPU 0 Branch Prediction Accuracy: 98.91% MPKI: 0.226 Average ROB Occupancy at Mispredict: 233.1
Branch type MPKI
BRANCH_DIRECT_JUMP: 5e-06
BRANCH_INDIRECT: 7.67e-05
BRANCH_CONDITIONAL: 0.226
BRANCH_DIRECT_CALL: 2e-05
BRANCH_INDIRECT_CALL: 3.33e-05
BRANCH_RETURN: 3.67e-05

LLC TOTAL        ACCESS:    8128069 HIT:    3674829 MISS:    4453240
LLC LOAD         ACCESS:    2308146 HIT:    1461570 MISS:     846576
LLC RFO          ACCESS:     922677 HIT:      60853 MISS:     861824
LLC PREFETCH     ACCESS:    2847613 HIT:    1567984 MISS:    1279629
LLC WRITE        ACCESS:    2046169 HIT:     584225 MISS:    1461944
LLC TRANSLATION  ACCESS:       3464 HIT:        197 MISS:       3267
LLC PREFETCH REQUESTED:    2847613 ISSUED:    2847613 USEFUL:    1016150 USELESS:      32282
LLC AVERAGE MISS LATENCY: 950.5 cycles
cpu0_DTLB TOTAL        ACCESS:  126171826 HIT:  125285359 MISS:     886467
cpu0_DTLB LOAD         ACCESS:  126171826 HIT:  125285359 MISS:     886467
cpu0_DTLB RFO          ACCESS:          0 HIT:          0 MISS:          0
cpu0_DTLB PREFETCH     ACCESS:          0 HIT:          0 MISS:          0
cpu0_DTLB WRITE        ACCESS:          0 HIT:          0 MISS:          0
cpu0_DTLB TRANSLATION  ACCESS:          0 HIT:          0 MISS:          0
cpu0_DTLB PREFETCH REQUESTED:          0 ISSUED:          0 USEFUL:          0 USELESS:          0
cpu0_DTLB AVERAGE MISS LATENCY: 18.43 cycles
cpu0_ITLB TOTAL        ACCESS:     223431 HIT:     223191 MISS:        240
cpu0_ITLB LOAD         ACCESS:     223431 HIT:     223191 MISS:        240
cpu0_ITLB RFO          ACCESS:          0 HIT:          0 MISS:          0
cpu0_ITLB PREFETCH     ACCESS:          0 HIT:          0 MISS:          0
cpu0_ITLB WRITE        ACCESS:          0 HIT:          0 MISS:          0
cpu0_ITLB TRANSLATION  ACCESS:          0 HIT:          0 MISS:          0
cpu0_ITLB PREFETCH REQUESTED:          0 ISSUED:          0 USEFUL:          0 USELESS:          0
cpu0_ITLB AVERAGE MISS LATENCY: 257.6 cycles
cpu0_L1D TOTAL        ACCESS:  191661150 HIT:  178357630 MISS:   13303520
cpu0_L1D LOAD         ACCESS:  156419036 HIT:  147577606 MISS:    8841430
cpu0_L1D RFO          ACCESS:          0 HIT:          0 MISS:          0
cpu0_L1D PREFETCH     ACCESS:          0 HIT:          0 MISS:          0
cpu0_L1D WRITE        ACCESS:   35194240 HIT:   30750411 MISS:    4443829
cpu0_L1D TRANSLATION  ACCESS:      47874 HIT:      29613 MISS:      18261
cpu0_L1D PREFETCH REQUESTED:          0 ISSUED:          0 USEFUL:          0 USELESS:          0
cpu0_L1D AVERAGE MISS LATENCY: 146.4 cycles
cpu0_L1I TOTAL        ACCESS:     231701 HIT:     228879 MISS:       2822
cpu0_L1I LOAD         ACCESS:     231701 HIT:     228879 MISS:       2822
cpu0_L1I RFO          ACCESS:          0 HIT:          0 MISS:          0
cpu0_L1I PREFETCH     ACCESS:          0 HIT:          0 MISS:          0
cpu0_L1I WRITE        ACCESS:          0 HIT:          0 MISS:          0
cpu0_L1I TRANSLATION  ACCESS:          0 HIT:          0 MISS:          0
cpu0_L1I PREFETCH REQUESTED:          0 ISSUED:          0 USEFUL:          0 USELESS:          0
cpu0_L1I AVERAGE MISS LATENCY: 466.9 cycles
cpu0_L2C TOTAL        ACCESS:    5428068 HIT:    2193432 MISS:    3234636
cpu0_L2C LOAD         ACCESS:    2427747 HIT:     119600 MISS:    2308147
cpu0_L2C RFO          ACCESS:     924061 HIT:       1384 MISS:     922677
cpu0_L2C PREFETCH     ACCESS:          0 HIT:          0 MISS:          0
cpu0_L2C WRITE        ACCESS:    2058002 HIT:    2057654 MISS:        348
cpu0_L2C TRANSLATION  ACCESS:      18258 HIT:      14794 MISS:       3464
cpu0_L2C PREFETCH REQUESTED:          0 ISSUED:          0 USEFUL:          0 USELESS:          0
cpu0_L2C AVERAGE MISS LATENCY: 797.4 cycles
cpu0_STLB TOTAL        ACCESS:     624910 HIT:     577062 MISS:      47848
cpu0_STLB LOAD         ACCESS:     624910 HIT:     577062 MISS:      47848
cpu0_STLB RFO          ACCESS:          0 HIT:          0 MISS:          0
cpu0_STLB PREFETCH     ACCESS:          0 HIT:          0 MISS:          0
cpu0_STLB WRITE        ACCESS:          0 HIT:          0 MISS:          0
cpu0_STLB TRANSLATION  ACCESS:          0 HIT:          0 MISS:          0
cpu0_STLB PREFETCH REQUESTED:          0 ISSUED:          0 USEFUL:          0 USELESS:          0
cpu0_STLB AVERAGE MISS LATENCY: 350 cycles

DRAM Statistics

Channel 0 RQ ROW_BUFFER_HIT:     914682
  ROW_BUFFER_MISS:    1801776
 AVG DBUS CONGESTED CYCLE: 3.959
WQ ROW_BUFFER_HIT: Channel 0 
  ROW_BUFFER_MISS:     668354
  FULL:    1085224
