WARNING: physical memory size is smaller than virtual memory size.

*** ChampSim Multicore Out-of-Order Simulator ***
Warmup Instructions: 50000000
Simulation Instructions: 600000000
Number of CPUs: 1
Page size: 4096

Off-chip DRAM Size: 4 GiB Channels: 1 Width: 64-bit Data Race: 3200 MT/s
Heartbeat CPU 0 instructions: 10000002 cycles: 2881056 heartbeat IPC: 3.471 cumulative IPC: 3.471 (Simulation time: 00 hr 00 min 47 sec)
Heartbeat CPU 0 instructions: 20000002 cycles: 5381056 heartbeat IPC: 4 cumulative IPC: 3.717 (Simulation time: 00 hr 01 min 30 sec)
Heartbeat CPU 0 instructions: 30000002 cycles: 7881056 heartbeat IPC: 4 cumulative IPC: 3.807 (Simulation time: 00 hr 02 min 17 sec)
Heartbeat CPU 0 instructions: 40000002 cycles: 10381056 heartbeat IPC: 4 cumulative IPC: 3.853 (Simulation time: 00 hr 03 min 01 sec)
Heartbeat CPU 0 instructions: 50000002 cycles: 12881056 heartbeat IPC: 4 cumulative IPC: 3.882 (Simulation time: 00 hr 03 min 43 sec)
Warmup finished CPU 0 instructions: 50000002 cycles: 12881057 cumulative IPC: 3.882 (Simulation time: 00 hr 03 min 43 sec)
Warmup complete CPU 0 instructions: 50000002 cycles: 12881057 cumulative IPC: 3.882 (Simulation time: 00 hr 03 min 43 sec)
Heartbeat CPU 0 instructions: 60000000 cycles: 18984708 heartbeat IPC: 1.638 cumulative IPC: 1.638 (Simulation time: 00 hr 05 min 11 sec)
Heartbeat CPU 0 instructions: 70000000 cycles: 25030513 heartbeat IPC: 1.654 cumulative IPC: 1.646 (Simulation time: 00 hr 06 min 38 sec)
Heartbeat CPU 0 instructions: 80000001 cycles: 31187284 heartbeat IPC: 1.624 cumulative IPC: 1.639 (Simulation time: 00 hr 08 min 10 sec)
Heartbeat CPU 0 instructions: 90000003 cycles: 36909549 heartbeat IPC: 1.748 cumulative IPC: 1.665 (Simulation time: 00 hr 09 min 36 sec)
Heartbeat CPU 0 instructions: 100000000 cycles: 39794548 heartbeat IPC: 3.466 cumulative IPC: 1.858 (Simulation time: 00 hr 10 min 36 sec)
Heartbeat CPU 0 instructions: 110000001 cycles: 42342978 heartbeat IPC: 3.924 cumulative IPC: 2.037 (Simulation time: 00 hr 11 min 27 sec)
Heartbeat CPU 0 instructions: 120000001 cycles: 45038630 heartbeat IPC: 3.71 cumulative IPC: 2.177 (Simulation time: 00 hr 12 min 21 sec)
Heartbeat CPU 0 instructions: 130000002 cycles: 51144245 heartbeat IPC: 1.638 cumulative IPC: 2.091 (Simulation time: 00 hr 13 min 52 sec)
Heartbeat CPU 0 instructions: 140000004 cycles: 58308272 heartbeat IPC: 1.396 cumulative IPC: 1.981 (Simulation time: 00 hr 15 min 28 sec)
Heartbeat CPU 0 instructions: 150000000 cycles: 64484617 heartbeat IPC: 1.619 cumulative IPC: 1.938 (Simulation time: 00 hr 16 min 57 sec)
Heartbeat CPU 0 instructions: 160000001 cycles: 70082833 heartbeat IPC: 1.786 cumulative IPC: 1.923 (Simulation time: 00 hr 18 min 21 sec)
Heartbeat CPU 0 instructions: 170000001 cycles: 76672436 heartbeat IPC: 1.518 cumulative IPC: 1.881 (Simulation time: 00 hr 19 min 51 sec)
Heartbeat CPU 0 instructions: 180000002 cycles: 83689520 heartbeat IPC: 1.425 cumulative IPC: 1.836 (Simulation time: 00 hr 21 min 28 sec)
Heartbeat CPU 0 instructions: 190000002 cycles: 87918487 heartbeat IPC: 2.365 cumulative IPC: 1.866 (Simulation time: 00 hr 22 min 36 sec)
Heartbeat CPU 0 instructions: 200000000 cycles: 92663375 heartbeat IPC: 2.108 cumulative IPC: 1.88 (Simulation time: 00 hr 23 min 54 sec)
Heartbeat CPU 0 instructions: 210000001 cycles: 97494596 heartbeat IPC: 2.07 cumulative IPC: 1.891 (Simulation time: 00 hr 25 min 18 sec)
Heartbeat CPU 0 instructions: 220000001 cycles: 102334984 heartbeat IPC: 2.066 cumulative IPC: 1.9 (Simulation time: 00 hr 26 min 44 sec)
Heartbeat CPU 0 instructions: 230000004 cycles: 107123469 heartbeat IPC: 2.088 cumulative IPC: 1.91 (Simulation time: 00 hr 28 min 06 sec)
Heartbeat CPU 0 instructions: 240000003 cycles: 111973167 heartbeat IPC: 2.062 cumulative IPC: 1.917 (Simulation time: 00 hr 29 min 32 sec)
Heartbeat CPU 0 instructions: 250000002 cycles: 116822726 heartbeat IPC: 2.062 cumulative IPC: 1.924 (Simulation time: 00 hr 30 min 57 sec)
Heartbeat CPU 0 instructions: 260000002 cycles: 121732430 heartbeat IPC: 2.037 cumulative IPC: 1.929 (Simulation time: 00 hr 32 min 23 sec)
Heartbeat CPU 0 instructions: 270000003 cycles: 126650109 heartbeat IPC: 2.033 cumulative IPC: 1.934 (Simulation time: 00 hr 33 min 46 sec)
Heartbeat CPU 0 instructions: 280000000 cycles: 131556786 heartbeat IPC: 2.038 cumulative IPC: 1.938 (Simulation time: 00 hr 35 min 08 sec)
Heartbeat CPU 0 instructions: 290000001 cycles: 179415906 heartbeat IPC: 0.2089 cumulative IPC: 1.441 (Simulation time: 00 hr 42 min 45 sec)
Heartbeat CPU 0 instructions: 300000002 cycles: 181918789 heartbeat IPC: 3.995 cumulative IPC: 1.479 (Simulation time: 00 hr 43 min 41 sec)
Heartbeat CPU 0 instructions: 310000001 cycles: 184421250 heartbeat IPC: 3.996 cumulative IPC: 1.516 (Simulation time: 00 hr 44 min 38 sec)
Heartbeat CPU 0 instructions: 320000001 cycles: 186924952 heartbeat IPC: 3.994 cumulative IPC: 1.551 (Simulation time: 00 hr 45 min 32 sec)
Heartbeat CPU 0 instructions: 330000003 cycles: 189427588 heartbeat IPC: 3.996 cumulative IPC: 1.586 (Simulation time: 00 hr 46 min 25 sec)
Heartbeat CPU 0 instructions: 340000000 cycles: 191931129 heartbeat IPC: 3.994 cumulative IPC: 1.62 (Simulation time: 00 hr 47 min 19 sec)
Heartbeat CPU 0 instructions: 350000004 cycles: 194434324 heartbeat IPC: 3.995 cumulative IPC: 1.652 (Simulation time: 00 hr 48 min 17 sec)
Heartbeat CPU 0 instructions: 360000004 cycles: 196937159 heartbeat IPC: 3.995 cumulative IPC: 1.684 (Simulation time: 00 hr 49 min 11 sec)
Heartbeat CPU 0 instructions: 370000000 cycles: 199441368 heartbeat IPC: 3.993 cumulative IPC: 1.715 (Simulation time: 00 hr 50 min 04 sec)
Heartbeat CPU 0 instructions: 380000004 cycles: 201945297 heartbeat IPC: 3.994 cumulative IPC: 1.745 (Simulation time: 00 hr 50 min 56 sec)
Heartbeat CPU 0 instructions: 390000001 cycles: 204448016 heartbeat IPC: 3.996 cumulative IPC: 1.775 (Simulation time: 00 hr 51 min 53 sec)
Heartbeat CPU 0 instructions: 400000003 cycles: 206951704 heartbeat IPC: 3.994 cumulative IPC: 1.803 (Simulation time: 00 hr 52 min 47 sec)
Heartbeat CPU 0 instructions: 410000003 cycles: 209455015 heartbeat IPC: 3.995 cumulative IPC: 1.831 (Simulation time: 00 hr 53 min 40 sec)
Heartbeat CPU 0 instructions: 420000002 cycles: 211960449 heartbeat IPC: 3.991 cumulative IPC: 1.859 (Simulation time: 00 hr 54 min 36 sec)
Heartbeat CPU 0 instructions: 430000000 cycles: 214463798 heartbeat IPC: 3.995 cumulative IPC: 1.885 (Simulation time: 00 hr 55 min 32 sec)
Heartbeat CPU 0 instructions: 440000001 cycles: 216966273 heartbeat IPC: 3.996 cumulative IPC: 1.911 (Simulation time: 00 hr 56 min 26 sec)
Heartbeat CPU 0 instructions: 450000000 cycles: 219468648 heartbeat IPC: 3.996 cumulative IPC: 1.936 (Simulation time: 00 hr 57 min 19 sec)
Heartbeat CPU 0 instructions: 460000003 cycles: 221970943 heartbeat IPC: 3.996 cumulative IPC: 1.961 (Simulation time: 00 hr 58 min 10 sec)
Heartbeat CPU 0 instructions: 470000001 cycles: 224473249 heartbeat IPC: 3.996 cumulative IPC: 1.985 (Simulation time: 00 hr 59 min 02 sec)
Heartbeat CPU 0 instructions: 480000003 cycles: 226975552 heartbeat IPC: 3.996 cumulative IPC: 2.008 (Simulation time: 00 hr 59 min 56 sec)
Heartbeat CPU 0 instructions: 490000003 cycles: 229477857 heartbeat IPC: 3.996 cumulative IPC: 2.031 (Simulation time: 01 hr 00 min 48 sec)
Heartbeat CPU 0 instructions: 500000002 cycles: 231980162 heartbeat IPC: 3.996 cumulative IPC: 2.054 (Simulation time: 01 hr 01 min 39 sec)
Heartbeat CPU 0 instructions: 510000003 cycles: 237188019 heartbeat IPC: 1.92 cumulative IPC: 2.051 (Simulation time: 01 hr 02 min 56 sec)
Heartbeat CPU 0 instructions: 520000001 cycles: 335419974 heartbeat IPC: 0.1018 cumulative IPC: 1.457 (Simulation time: 01 hr 19 min 05 sec)
Heartbeat CPU 0 instructions: 530000004 cycles: 414668734 heartbeat IPC: 0.1262 cumulative IPC: 1.195 (Simulation time: 01 hr 31 min 39 sec)
Heartbeat CPU 0 instructions: 540000000 cycles: 444052662 heartbeat IPC: 0.3403 cumulative IPC: 1.136 (Simulation time: 01 hr 37 min 36 sec)
Heartbeat CPU 0 instructions: 550000002 cycles: 472953400 heartbeat IPC: 0.346 cumulative IPC: 1.087 (Simulation time: 01 hr 44 min 53 sec)
Heartbeat CPU 0 instructions: 560000004 cycles: 501434173 heartbeat IPC: 0.3511 cumulative IPC: 1.044 (Simulation time: 01 hr 49 min 18 sec)
Heartbeat CPU 0 instructions: 570000002 cycles: 525578596 heartbeat IPC: 0.4142 cumulative IPC: 1.014 (Simulation time: 01 hr 53 min 29 sec)
Heartbeat CPU 0 instructions: 580000001 cycles: 550189082 heartbeat IPC: 0.4063 cumulative IPC: 0.9864 (Simulation time: 01 hr 59 min 18 sec)
Heartbeat CPU 0 instructions: 590000000 cycles: 579955795 heartbeat IPC: 0.3359 cumulative IPC: 0.9523 (Simulation time: 02 hr 06 min 57 sec)
*** Reached end of trace: (0, "traces/sp.A.champsimtrace")
Heartbeat CPU 0 instructions: 600000002 cycles: 610188098 heartbeat IPC: 0.3308 cumulative IPC: 0.9208 (Simulation time: 02 hr 14 min 32 sec)
Heartbeat CPU 0 instructions: 610000000 cycles: 642258519 heartbeat IPC: 0.3118 cumulative IPC: 0.8898 (Simulation time: 02 hr 21 min 20 sec)
Heartbeat CPU 0 instructions: 620000001 cycles: 648334453 heartbeat IPC: 1.646 cumulative IPC: 0.897 (Simulation time: 02 hr 23 min 26 sec)
Heartbeat CPU 0 instructions: 630000003 cycles: 654405884 heartbeat IPC: 1.647 cumulative IPC: 0.9041 (Simulation time: 02 hr 25 min 30 sec)
Heartbeat CPU 0 instructions: 640000004 cycles: 660498130 heartbeat IPC: 1.641 cumulative IPC: 0.911 (Simulation time: 02 hr 27 min 26 sec)
Heartbeat CPU 0 instructions: 650000001 cycles: 666570062 heartbeat IPC: 1.647 cumulative IPC: 0.9179 (Simulation time: 02 hr 29 min 18 sec)
Simulation finished CPU 0 instructions: 600000004 cycles: 653689007 cumulative IPC: 0.9179 (Simulation time: 02 hr 29 min 18 sec)
Simulation complete CPU 0 instructions: 600000004 cycles: 653689007 cumulative IPC: 0.9179 (Simulation time: 02 hr 29 min 18 sec)

ChampSim completed all CPUs

=== Simulation ===
CPU 0 runs traces/sp.A.champsimtrace
Region of Interest Statistics

CPU 0 cumulative IPC: 0.9179 instructions: 600000004 cycles: 653689007
CPU 0 Branch Prediction Accuracy: 98.91% MPKI: 0.226 Average ROB Occupancy at Mispredict: 234.1
Branch type MPKI
BRANCH_DIRECT_JUMP: 5e-06
BRANCH_INDIRECT: 7.5e-05
BRANCH_CONDITIONAL: 0.226
BRANCH_DIRECT_CALL: 2e-05
BRANCH_INDIRECT_CALL: 3.17e-05
BRANCH_RETURN: 3.67e-05

LLC TOTAL        ACCESS:    5276121 HIT:    2219402 MISS:    3056719
LLC LOAD         ACCESS:    2304685 HIT:     764108 MISS:    1540577
LLC RFO          ACCESS:     922633 HIT:      57511 MISS:     865122
LLC PREFETCH     ACCESS:          0 HIT:          0 MISS:          0
LLC WRITE        ACCESS:    2045326 HIT:    1396651 MISS:     648675
LLC TRANSLATION  ACCESS:       3477 HIT:       1132 MISS:       2345
LLC PREFETCH REQUESTED:          0 ISSUED:          0 USEFUL:          0 USELESS:          0
LLC AVERAGE MISS LATENCY: 1010 cycles
cpu0_DTLB TOTAL        ACCESS:  126326765 HIT:  125500309 MISS:     826456
cpu0_DTLB LOAD         ACCESS:  126326765 HIT:  125500309 MISS:     826456
cpu0_DTLB RFO          ACCESS:          0 HIT:          0 MISS:          0
cpu0_DTLB PREFETCH     ACCESS:          0 HIT:          0 MISS:          0
cpu0_DTLB WRITE        ACCESS:          0 HIT:          0 MISS:          0
cpu0_DTLB TRANSLATION  ACCESS:          0 HIT:          0 MISS:          0
cpu0_DTLB PREFETCH REQUESTED:          0 ISSUED:          0 USEFUL:          0 USELESS:          0
cpu0_DTLB AVERAGE MISS LATENCY: 17.76 cycles
cpu0_ITLB TOTAL        ACCESS:     217765 HIT:     217534 MISS:        231
cpu0_ITLB LOAD         ACCESS:     217765 HIT:     217534 MISS:        231
cpu0_ITLB RFO          ACCESS:          0 HIT:          0 MISS:          0
cpu0_ITLB PREFETCH     ACCESS:          0 HIT:          0 MISS:          0
cpu0_ITLB WRITE        ACCESS:          0 HIT:          0 MISS:          0
cpu0_ITLB TRANSLATION  ACCESS:          0 HIT:          0 MISS:          0
cpu0_ITLB PREFETCH REQUESTED:          0 ISSUED:          0 USEFUL:          0 USELESS:          0
cpu0_ITLB AVERAGE MISS LATENCY: 358.9 cycles
cpu0_L1D TOTAL        ACCESS:  191660704 HIT:  177375122 MISS:   14285582
cpu0_L1D LOAD         ACCESS:  156418514 HIT:  146260741 MISS:   10157773
cpu0_L1D RFO          ACCESS:          0 HIT:          0 MISS:          0
cpu0_L1D PREFETCH     ACCESS:          0 HIT:          0 MISS:          0
cpu0_L1D WRITE        ACCESS:   35194311 HIT:   31084803 MISS:    4109508
cpu0_L1D TRANSLATION  ACCESS:      47879 HIT:      29578 MISS:      18301
cpu0_L1D PREFETCH REQUESTED:          0 ISSUED:          0 USEFUL:          0 USELESS:          0
cpu0_L1D AVERAGE MISS LATENCY: 155.8 cycles
cpu0_L1I TOTAL        ACCESS:     225100 HIT:     222293 MISS:       2807
cpu0_L1I LOAD         ACCESS:     225100 HIT:     222293 MISS:       2807
cpu0_L1I RFO          ACCESS:          0 HIT:          0 MISS:          0
cpu0_L1I PREFETCH     ACCESS:          0 HIT:          0 MISS:          0
cpu0_L1I WRITE        ACCESS:          0 HIT:          0 MISS:          0
cpu0_L1I TRANSLATION  ACCESS:          0 HIT:          0 MISS:          0
cpu0_L1I PREFETCH REQUESTED:          0 ISSUED:          0 USEFUL:          0 USELESS:          0
cpu0_L1I AVERAGE MISS LATENCY: 535.2 cycles
cpu0_L2C TOTAL        ACCESS:    5441144 HIT:    2209868 MISS:    3231276
cpu0_L2C LOAD         ACCESS:    2443591 HIT:     138797 MISS:    2304794
cpu0_L2C RFO          ACCESS:     923196 HIT:        563 MISS:     922633
cpu0_L2C PREFETCH     ACCESS:          0 HIT:          0 MISS:          0
cpu0_L2C WRITE        ACCESS:    2056058 HIT:    2055686 MISS:        372
cpu0_L2C TRANSLATION  ACCESS:      18299 HIT:      14822 MISS:       3477
cpu0_L2C PREFETCH REQUESTED:          0 ISSUED:          0 USEFUL:          0 USELESS:          0
cpu0_L2C AVERAGE MISS LATENCY: 976.4 cycles
cpu0_STLB TOTAL        ACCESS:     568569 HIT:     520719 MISS:      47850
cpu0_STLB LOAD         ACCESS:     568569 HIT:     520719 MISS:      47850
cpu0_STLB RFO          ACCESS:          0 HIT:          0 MISS:          0
cpu0_STLB PREFETCH     ACCESS:          0 HIT:          0 MISS:          0
cpu0_STLB WRITE        ACCESS:          0 HIT:          0 MISS:          0
cpu0_STLB TRANSLATION  ACCESS:          0 HIT:          0 MISS:          0
cpu0_STLB PREFETCH REQUESTED:          0 ISSUED:          0 USEFUL:          0 USELESS:          0
cpu0_STLB AVERAGE MISS LATENCY: 304.1 cycles

DRAM Statistics

Channel 0 RQ ROW_BUFFER_HIT:     680147
  ROW_BUFFER_MISS:    1725725
 AVG DBUS CONGESTED CYCLE: 3.972
WQ ROW_BUFFER_HIT: Channel 0 
  ROW_BUFFER_MISS:     518790
  FULL:    1045654
