WARNING: physical memory size is smaller than virtual memory size.

*** ChampSim Multicore Out-of-Order Simulator ***
Warmup Instructions: 50000000
Simulation Instructions: 600000000
Number of CPUs: 1
Page size: 4096

Off-chip DRAM Size: 4 GiB Channels: 1 Width: 64-bit Data Race: 3200 MT/s
Heartbeat CPU 0 instructions: 10000000 cycles: 2881055 heartbeat IPC: 3.471 cumulative IPC: 3.471 (Simulation time: 00 hr 00 min 33 sec)
Heartbeat CPU 0 instructions: 20000000 cycles: 5381055 heartbeat IPC: 4 cumulative IPC: 3.717 (Simulation time: 00 hr 01 min 05 sec)
Heartbeat CPU 0 instructions: 30000000 cycles: 7881055 heartbeat IPC: 4 cumulative IPC: 3.807 (Simulation time: 00 hr 01 min 37 sec)
Heartbeat CPU 0 instructions: 40000000 cycles: 10381055 heartbeat IPC: 4 cumulative IPC: 3.853 (Simulation time: 00 hr 02 min 10 sec)
Heartbeat CPU 0 instructions: 50000000 cycles: 12881055 heartbeat IPC: 4 cumulative IPC: 3.882 (Simulation time: 00 hr 02 min 42 sec)
Warmup finished CPU 0 instructions: 50000000 cycles: 12881056 cumulative IPC: 3.882 (Simulation time: 00 hr 02 min 42 sec)
Warmup complete CPU 0 instructions: 50000000 cycles: 12881056 cumulative IPC: 3.882 (Simulation time: 00 hr 02 min 42 sec)
Heartbeat CPU 0 instructions: 60000000 cycles: 19029940 heartbeat IPC: 1.626 cumulative IPC: 1.626 (Simulation time: 00 hr 03 min 49 sec)
Heartbeat CPU 0 instructions: 70000000 cycles: 25185158 heartbeat IPC: 1.625 cumulative IPC: 1.625 (Simulation time: 00 hr 04 min 56 sec)
Heartbeat CPU 0 instructions: 80000001 cycles: 31322293 heartbeat IPC: 1.629 cumulative IPC: 1.627 (Simulation time: 00 hr 06 min 01 sec)
Heartbeat CPU 0 instructions: 90000003 cycles: 37507490 heartbeat IPC: 1.617 cumulative IPC: 1.624 (Simulation time: 00 hr 07 min 05 sec)
Heartbeat CPU 0 instructions: 100000000 cycles: 44054608 heartbeat IPC: 1.527 cumulative IPC: 1.604 (Simulation time: 00 hr 08 min 10 sec)
Heartbeat CPU 0 instructions: 110000001 cycles: 50746876 heartbeat IPC: 1.494 cumulative IPC: 1.585 (Simulation time: 00 hr 09 min 17 sec)
Heartbeat CPU 0 instructions: 120000001 cycles: 57412901 heartbeat IPC: 1.5 cumulative IPC: 1.572 (Simulation time: 00 hr 10 min 22 sec)
Heartbeat CPU 0 instructions: 130000002 cycles: 64013092 heartbeat IPC: 1.515 cumulative IPC: 1.565 (Simulation time: 00 hr 11 min 28 sec)
Heartbeat CPU 0 instructions: 140000004 cycles: 70738036 heartbeat IPC: 1.487 cumulative IPC: 1.556 (Simulation time: 00 hr 12 min 35 sec)
Heartbeat CPU 0 instructions: 150000000 cycles: 77389927 heartbeat IPC: 1.503 cumulative IPC: 1.55 (Simulation time: 00 hr 13 min 41 sec)
Heartbeat CPU 0 instructions: 160000001 cycles: 84126130 heartbeat IPC: 1.485 cumulative IPC: 1.544 (Simulation time: 00 hr 14 min 47 sec)
Heartbeat CPU 0 instructions: 170000001 cycles: 90804300 heartbeat IPC: 1.497 cumulative IPC: 1.54 (Simulation time: 00 hr 15 min 53 sec)
Heartbeat CPU 0 instructions: 180000002 cycles: 97527311 heartbeat IPC: 1.487 cumulative IPC: 1.536 (Simulation time: 00 hr 17 min 00 sec)
Heartbeat CPU 0 instructions: 190000002 cycles: 103936547 heartbeat IPC: 1.56 cumulative IPC: 1.538 (Simulation time: 00 hr 18 min 05 sec)
Heartbeat CPU 0 instructions: 200000000 cycles: 109766065 heartbeat IPC: 1.715 cumulative IPC: 1.548 (Simulation time: 00 hr 19 min 06 sec)
Heartbeat CPU 0 instructions: 210000001 cycles: 116129869 heartbeat IPC: 1.571 cumulative IPC: 1.55 (Simulation time: 00 hr 20 min 11 sec)
Heartbeat CPU 0 instructions: 220000001 cycles: 123031365 heartbeat IPC: 1.449 cumulative IPC: 1.543 (Simulation time: 00 hr 21 min 19 sec)
Heartbeat CPU 0 instructions: 230000004 cycles: 129979933 heartbeat IPC: 1.439 cumulative IPC: 1.537 (Simulation time: 00 hr 22 min 28 sec)
Heartbeat CPU 0 instructions: 240000003 cycles: 136846590 heartbeat IPC: 1.456 cumulative IPC: 1.533 (Simulation time: 00 hr 23 min 37 sec)
Heartbeat CPU 0 instructions: 250000002 cycles: 143806180 heartbeat IPC: 1.437 cumulative IPC: 1.528 (Simulation time: 00 hr 24 min 46 sec)
Heartbeat CPU 0 instructions: 260000002 cycles: 150728015 heartbeat IPC: 1.445 cumulative IPC: 1.523 (Simulation time: 00 hr 25 min 56 sec)
Heartbeat CPU 0 instructions: 270000003 cycles: 157629503 heartbeat IPC: 1.449 cumulative IPC: 1.52 (Simulation time: 00 hr 27 min 05 sec)
Heartbeat CPU 0 instructions: 280000000 cycles: 164601994 heartbeat IPC: 1.434 cumulative IPC: 1.516 (Simulation time: 00 hr 28 min 15 sec)
Heartbeat CPU 0 instructions: 290000001 cycles: 221364618 heartbeat IPC: 0.1762 cumulative IPC: 1.151 (Simulation time: 00 hr 34 min 19 sec)
Heartbeat CPU 0 instructions: 300000002 cycles: 223869721 heartbeat IPC: 3.992 cumulative IPC: 1.185 (Simulation time: 00 hr 34 min 55 sec)
Heartbeat CPU 0 instructions: 310000001 cycles: 226374765 heartbeat IPC: 3.992 cumulative IPC: 1.218 (Simulation time: 00 hr 35 min 32 sec)
Heartbeat CPU 0 instructions: 320000000 cycles: 228880359 heartbeat IPC: 3.991 cumulative IPC: 1.25 (Simulation time: 00 hr 36 min 09 sec)
Heartbeat CPU 0 instructions: 330000003 cycles: 231385697 heartbeat IPC: 3.991 cumulative IPC: 1.281 (Simulation time: 00 hr 36 min 46 sec)
Heartbeat CPU 0 instructions: 340000000 cycles: 233890767 heartbeat IPC: 3.992 cumulative IPC: 1.312 (Simulation time: 00 hr 37 min 22 sec)
Heartbeat CPU 0 instructions: 350000004 cycles: 236395842 heartbeat IPC: 3.992 cumulative IPC: 1.342 (Simulation time: 00 hr 37 min 59 sec)
Heartbeat CPU 0 instructions: 360000004 cycles: 238900917 heartbeat IPC: 3.992 cumulative IPC: 1.372 (Simulation time: 00 hr 38 min 36 sec)
Heartbeat CPU 0 instructions: 370000000 cycles: 241405991 heartbeat IPC: 3.992 cumulative IPC: 1.4 (Simulation time: 00 hr 39 min 13 sec)
Heartbeat CPU 0 instructions: 380000004 cycles: 243912017 heartbeat IPC: 3.99 cumulative IPC: 1.428 (Simulation time: 00 hr 39 min 50 sec)
Heartbeat CPU 0 instructions: 390000001 cycles: 246417090 heartbeat IPC: 3.992 cumulative IPC: 1.456 (Simulation time: 00 hr 40 min 26 sec)
Heartbeat CPU 0 instructions: 400000003 cycles: 248922169 heartbeat IPC: 3.992 cumulative IPC: 1.483 (Simulation time: 00 hr 41 min 03 sec)
Heartbeat CPU 0 instructions: 410000003 cycles: 251427284 heartbeat IPC: 3.992 cumulative IPC: 1.509 (Simulation time: 00 hr 41 min 41 sec)
Heartbeat CPU 0 instructions: 420000002 cycles: 253932359 heartbeat IPC: 3.992 cumulative IPC: 1.535 (Simulation time: 00 hr 42 min 19 sec)
Heartbeat CPU 0 instructions: 430000000 cycles: 256437432 heartbeat IPC: 3.992 cumulative IPC: 1.56 (Simulation time: 00 hr 42 min 56 sec)
Heartbeat CPU 0 instructions: 440000001 cycles: 258942506 heartbeat IPC: 3.992 cumulative IPC: 1.585 (Simulation time: 00 hr 43 min 33 sec)
Heartbeat CPU 0 instructions: 450000000 cycles: 261447553 heartbeat IPC: 3.992 cumulative IPC: 1.609 (Simulation time: 00 hr 44 min 10 sec)
Heartbeat CPU 0 instructions: 460000003 cycles: 263952591 heartbeat IPC: 3.992 cumulative IPC: 1.633 (Simulation time: 00 hr 44 min 47 sec)
Heartbeat CPU 0 instructions: 470000001 cycles: 266457665 heartbeat IPC: 3.992 cumulative IPC: 1.656 (Simulation time: 00 hr 45 min 23 sec)
Heartbeat CPU 0 instructions: 480000003 cycles: 268962738 heartbeat IPC: 3.992 cumulative IPC: 1.679 (Simulation time: 00 hr 45 min 59 sec)
Heartbeat CPU 0 instructions: 490000003 cycles: 271467813 heartbeat IPC: 3.992 cumulative IPC: 1.702 (Simulation time: 00 hr 46 min 36 sec)
Heartbeat CPU 0 instructions: 500000002 cycles: 273972884 heartbeat IPC: 3.992 cumulative IPC: 1.724 (Simulation time: 00 hr 47 min 13 sec)
Heartbeat CPU 0 instructions: 510000003 cycles: 280171260 heartbeat IPC: 1.613 cumulative IPC: 1.721 (Simulation time: 00 hr 48 min 18 sec)
Heartbeat CPU 0 instructions: 520000001 cycles: 382046613 heartbeat IPC: 0.09816 cumulative IPC: 1.273 (Simulation time: 01 hr 00 min 53 sec)
Heartbeat CPU 0 instructions: 530000004 cycles: 459028855 heartbeat IPC: 0.1299 cumulative IPC: 1.076 (Simulation time: 01 hr 10 min 41 sec)
Heartbeat CPU 0 instructions: 540000000 cycles: 488262150 heartbeat IPC: 0.3421 cumulative IPC: 1.031 (Simulation time: 01 hr 14 min 55 sec)
Heartbeat CPU 0 instructions: 550000002 cycles: 517471604 heartbeat IPC: 0.3424 cumulative IPC: 0.9909 (Simulation time: 01 hr 19 min 10 sec)
Heartbeat CPU 0 instructions: 560000004 cycles: 546824489 heartbeat IPC: 0.3407 cumulative IPC: 0.9552 (Simulation time: 01 hr 23 min 16 sec)
Heartbeat CPU 0 instructions: 570000000 cycles: 576567696 heartbeat IPC: 0.3362 cumulative IPC: 0.9225 (Simulation time: 01 hr 27 min 24 sec)
Heartbeat CPU 0 instructions: 580000001 cycles: 606855745 heartbeat IPC: 0.3302 cumulative IPC: 0.8923 (Simulation time: 01 hr 31 min 33 sec)
Heartbeat CPU 0 instructions: 590000004 cycles: 637628510 heartbeat IPC: 0.325 cumulative IPC: 0.8643 (Simulation time: 01 hr 36 min 18 sec)
*** Reached end of trace: (0, "traces/sp.A.champsimtrace")
Heartbeat CPU 0 instructions: 600000002 cycles: 668524890 heartbeat IPC: 0.3237 cumulative IPC: 0.8389 (Simulation time: 01 hr 41 min 15 sec)
Heartbeat CPU 0 instructions: 610000000 cycles: 699673149 heartbeat IPC: 0.321 cumulative IPC: 0.8154 (Simulation time: 01 hr 44 min 47 sec)
Heartbeat CPU 0 instructions: 620000001 cycles: 705809185 heartbeat IPC: 1.63 cumulative IPC: 0.8226 (Simulation time: 01 hr 46 min 01 sec)
Heartbeat CPU 0 instructions: 630000003 cycles: 711935034 heartbeat IPC: 1.632 cumulative IPC: 0.8297 (Simulation time: 01 hr 47 min 15 sec)
Heartbeat CPU 0 instructions: 640000004 cycles: 718084135 heartbeat IPC: 1.626 cumulative IPC: 0.8366 (Simulation time: 01 hr 48 min 26 sec)
Heartbeat CPU 0 instructions: 650000001 cycles: 724223077 heartbeat IPC: 1.629 cumulative IPC: 0.8435 (Simulation time: 01 hr 49 min 37 sec)
Simulation finished CPU 0 instructions: 600000001 cycles: 711342022 cumulative IPC: 0.8435 (Simulation time: 01 hr 49 min 37 sec)
Simulation complete CPU 0 instructions: 600000001 cycles: 711342022 cumulative IPC: 0.8435 (Simulation time: 01 hr 49 min 37 sec)

ChampSim completed all CPUs

=== Simulation ===
CPU 0 runs traces/sp.A.champsimtrace
Region of Interest Statistics

CPU 0 cumulative IPC: 0.8435 instructions: 600000001 cycles: 711342022
CPU 0 Branch Prediction Accuracy: 98.84% MPKI: 0.2406 Average ROB Occupancy at Mispredict: 224.3
Branch type MPKI
BRANCH_DIRECT_JUMP: 5e-06
BRANCH_INDIRECT: 7.5e-05
BRANCH_CONDITIONAL: 0.24
BRANCH_DIRECT_CALL: 2e-05
BRANCH_INDIRECT_CALL: 3.17e-05
BRANCH_RETURN: 3.67e-05

LLC TOTAL        ACCESS:    5276114 HIT:    2570346 MISS:    2705768
LLC LOAD         ACCESS:    2304670 HIT:     516667 MISS:    1788003
LLC RFO          ACCESS:     922636 HIT:       6813 MISS:     915823
LLC PREFETCH     ACCESS:          0 HIT:          0 MISS:          0
LLC WRITE        ACCESS:    2045331 HIT:    2045188 MISS:        143
LLC TRANSLATION  ACCESS:       3477 HIT:       1678 MISS:       1799
LLC PREFETCH REQUESTED:          0 ISSUED:          0 USEFUL:          0 USELESS:          0
LLC AVERAGE MISS LATENCY: 1242 cycles
cpu0_DTLB TOTAL        ACCESS:  126041023 HIT:  125213533 MISS:     827490
cpu0_DTLB LOAD         ACCESS:  126041023 HIT:  125213533 MISS:     827490
cpu0_DTLB RFO          ACCESS:          0 HIT:          0 MISS:          0
cpu0_DTLB PREFETCH     ACCESS:          0 HIT:          0 MISS:          0
cpu0_DTLB WRITE        ACCESS:          0 HIT:          0 MISS:          0
cpu0_DTLB TRANSLATION  ACCESS:          0 HIT:          0 MISS:          0
cpu0_DTLB PREFETCH REQUESTED:          0 ISSUED:          0 USEFUL:          0 USELESS:          0
cpu0_DTLB AVERAGE MISS LATENCY: 18.24 cycles
cpu0_ITLB TOTAL        ACCESS:     218855 HIT:     218638 MISS:        217
cpu0_ITLB LOAD         ACCESS:     218855 HIT:     218638 MISS:        217
cpu0_ITLB RFO          ACCESS:          0 HIT:          0 MISS:          0
cpu0_ITLB PREFETCH     ACCESS:          0 HIT:          0 MISS:          0
cpu0_ITLB WRITE        ACCESS:          0 HIT:          0 MISS:          0
cpu0_ITLB TRANSLATION  ACCESS:          0 HIT:          0 MISS:          0
cpu0_ITLB PREFETCH REQUESTED:          0 ISSUED:          0 USEFUL:          0 USELESS:          0
cpu0_ITLB AVERAGE MISS LATENCY: 303.2 cycles
cpu0_L1D TOTAL        ACCESS:  191510417 HIT:  176997802 MISS:   14512615
cpu0_L1D LOAD         ACCESS:  156268192 HIT:  145880768 MISS:   10387424
cpu0_L1D RFO          ACCESS:          0 HIT:          0 MISS:          0
cpu0_L1D PREFETCH     ACCESS:          0 HIT:          0 MISS:          0
cpu0_L1D WRITE        ACCESS:   35194345 HIT:   31087471 MISS:    4106874
cpu0_L1D TRANSLATION  ACCESS:      47880 HIT:      29563 MISS:      18317
cpu0_L1D PREFETCH REQUESTED:          0 ISSUED:          0 USEFUL:          0 USELESS:          0
cpu0_L1D AVERAGE MISS LATENCY: 170.6 cycles
cpu0_L1I TOTAL        ACCESS:     226480 HIT:     223677 MISS:       2803
cpu0_L1I LOAD         ACCESS:     226480 HIT:     223677 MISS:       2803
cpu0_L1I RFO          ACCESS:          0 HIT:          0 MISS:          0
cpu0_L1I PREFETCH     ACCESS:          0 HIT:          0 MISS:          0
cpu0_L1I WRITE        ACCESS:          0 HIT:          0 MISS:          0
cpu0_L1I TRANSLATION  ACCESS:          0 HIT:          0 MISS:          0
cpu0_L1I PREFETCH REQUESTED:          0 ISSUED:          0 USEFUL:          0 USELESS:          0
cpu0_L1I AVERAGE MISS LATENCY: 490.8 cycles
cpu0_L2C TOTAL        ACCESS:    5442755 HIT:    2211488 MISS:    3231267
cpu0_L2C LOAD         ACCESS:    2445195 HIT:     140414 MISS:    2304781
cpu0_L2C RFO          ACCESS:     923197 HIT:        561 MISS:     922636
cpu0_L2C PREFETCH     ACCESS:          0 HIT:          0 MISS:          0
cpu0_L2C WRITE        ACCESS:    2056048 HIT:    2055675 MISS:        373
cpu0_L2C TRANSLATION  ACCESS:      18315 HIT:      14838 MISS:       3477
cpu0_L2C PREFETCH REQUESTED:          0 ISSUED:          0 USEFUL:          0 USELESS:          0
cpu0_L2C AVERAGE MISS LATENCY: 1061 cycles
cpu0_STLB TOTAL        ACCESS:     573475 HIT:     525625 MISS:      47850
cpu0_STLB LOAD         ACCESS:     573475 HIT:     525625 MISS:      47850
cpu0_STLB RFO          ACCESS:          0 HIT:          0 MISS:          0
cpu0_STLB PREFETCH     ACCESS:          0 HIT:          0 MISS:          0
cpu0_STLB WRITE        ACCESS:          0 HIT:          0 MISS:          0
cpu0_STLB TRANSLATION  ACCESS:          0 HIT:          0 MISS:          0
cpu0_STLB PREFETCH REQUESTED:          0 ISSUED:          0 USEFUL:          0 USELESS:          0
cpu0_STLB AVERAGE MISS LATENCY: 305.7 cycles

DRAM Statistics

Channel 0 RQ ROW_BUFFER_HIT:     702423
  ROW_BUFFER_MISS:    2003198
 AVG DBUS CONGESTED CYCLE: 3.973
WQ ROW_BUFFER_HIT: Channel 0 
  ROW_BUFFER_MISS:     414726
  FULL:    1362500
