WARNING: physical memory size is smaller than virtual memory size.

*** ChampSim Multicore Out-of-Order Simulator ***
Warmup Instructions: 50000000
Simulation Instructions: 600000000
Number of CPUs: 1
Page size: 4096

CPU 0 Tage branch predictor
Off-chip DRAM Size: 4 GiB Channels: 1 Width: 64-bit Data Race: 3200 MT/s
Heartbeat CPU 0 instructions: 10000000 cycles: 2881055 heartbeat IPC: 3.471 cumulative IPC: 3.471 (Simulation time: 00 hr 00 min 45 sec)
Heartbeat CPU 0 instructions: 20000000 cycles: 5381055 heartbeat IPC: 4 cumulative IPC: 3.717 (Simulation time: 00 hr 01 min 27 sec)
Heartbeat CPU 0 instructions: 30000000 cycles: 7881055 heartbeat IPC: 4 cumulative IPC: 3.807 (Simulation time: 00 hr 02 min 11 sec)
Heartbeat CPU 0 instructions: 40000000 cycles: 10381055 heartbeat IPC: 4 cumulative IPC: 3.853 (Simulation time: 00 hr 02 min 54 sec)
Heartbeat CPU 0 instructions: 50000000 cycles: 12881055 heartbeat IPC: 4 cumulative IPC: 3.882 (Simulation time: 00 hr 03 min 37 sec)
Warmup finished CPU 0 instructions: 50000000 cycles: 12881056 cumulative IPC: 3.882 (Simulation time: 00 hr 03 min 37 sec)
Warmup complete CPU 0 instructions: 50000000 cycles: 12881056 cumulative IPC: 3.882 (Simulation time: 00 hr 03 min 37 sec)
Heartbeat CPU 0 instructions: 60000000 cycles: 17236917 heartbeat IPC: 2.296 cumulative IPC: 2.296 (Simulation time: 00 hr 04 min 44 sec)
Heartbeat CPU 0 instructions: 70000002 cycles: 21597700 heartbeat IPC: 2.293 cumulative IPC: 2.294 (Simulation time: 00 hr 05 min 54 sec)
Heartbeat CPU 0 instructions: 80000000 cycles: 25857895 heartbeat IPC: 2.347 cumulative IPC: 2.312 (Simulation time: 00 hr 07 min 04 sec)
Heartbeat CPU 0 instructions: 90000003 cycles: 30250049 heartbeat IPC: 2.277 cumulative IPC: 2.303 (Simulation time: 00 hr 08 min 11 sec)
Heartbeat CPU 0 instructions: 100000000 cycles: 34303795 heartbeat IPC: 2.467 cumulative IPC: 2.334 (Simulation time: 00 hr 09 min 14 sec)
Heartbeat CPU 0 instructions: 110000001 cycles: 37930271 heartbeat IPC: 2.757 cumulative IPC: 2.395 (Simulation time: 00 hr 10 min 12 sec)
Heartbeat CPU 0 instructions: 120000001 cycles: 41588371 heartbeat IPC: 2.734 cumulative IPC: 2.438 (Simulation time: 00 hr 11 min 09 sec)
Heartbeat CPU 0 instructions: 130000000 cycles: 45254293 heartbeat IPC: 2.728 cumulative IPC: 2.471 (Simulation time: 00 hr 12 min 05 sec)
Heartbeat CPU 0 instructions: 140000004 cycles: 48880744 heartbeat IPC: 2.758 cumulative IPC: 2.5 (Simulation time: 00 hr 12 min 59 sec)
Heartbeat CPU 0 instructions: 150000000 cycles: 52494165 heartbeat IPC: 2.767 cumulative IPC: 2.524 (Simulation time: 00 hr 13 min 51 sec)
Heartbeat CPU 0 instructions: 160000003 cycles: 56113018 heartbeat IPC: 2.763 cumulative IPC: 2.544 (Simulation time: 00 hr 14 min 45 sec)
Heartbeat CPU 0 instructions: 170000003 cycles: 59670211 heartbeat IPC: 2.811 cumulative IPC: 2.565 (Simulation time: 00 hr 15 min 41 sec)
Heartbeat CPU 0 instructions: 180000002 cycles: 63358309 heartbeat IPC: 2.711 cumulative IPC: 2.575 (Simulation time: 00 hr 16 min 40 sec)
Heartbeat CPU 0 instructions: 190000002 cycles: 66750952 heartbeat IPC: 2.948 cumulative IPC: 2.599 (Simulation time: 00 hr 17 min 36 sec)
Heartbeat CPU 0 instructions: 200000000 cycles: 69759285 heartbeat IPC: 3.324 cumulative IPC: 2.637 (Simulation time: 00 hr 18 min 31 sec)
Heartbeat CPU 0 instructions: 210000000 cycles: 73002483 heartbeat IPC: 3.083 cumulative IPC: 2.661 (Simulation time: 00 hr 19 min 30 sec)
Heartbeat CPU 0 instructions: 220000001 cycles: 76565704 heartbeat IPC: 2.806 cumulative IPC: 2.669 (Simulation time: 00 hr 20 min 36 sec)
Heartbeat CPU 0 instructions: 230000004 cycles: 80020458 heartbeat IPC: 2.895 cumulative IPC: 2.681 (Simulation time: 00 hr 21 min 38 sec)
Heartbeat CPU 0 instructions: 240000001 cycles: 83854978 heartbeat IPC: 2.608 cumulative IPC: 2.677 (Simulation time: 00 hr 22 min 42 sec)
Heartbeat CPU 0 instructions: 250000001 cycles: 87630547 heartbeat IPC: 2.649 cumulative IPC: 2.676 (Simulation time: 00 hr 23 min 44 sec)
Heartbeat CPU 0 instructions: 260000002 cycles: 91297565 heartbeat IPC: 2.727 cumulative IPC: 2.678 (Simulation time: 00 hr 24 min 43 sec)
Heartbeat CPU 0 instructions: 270000003 cycles: 95150193 heartbeat IPC: 2.596 cumulative IPC: 2.674 (Simulation time: 00 hr 25 min 41 sec)
Heartbeat CPU 0 instructions: 280000003 cycles: 98972334 heartbeat IPC: 2.616 cumulative IPC: 2.672 (Simulation time: 00 hr 26 min 35 sec)
Heartbeat CPU 0 instructions: 290000001 cycles: 157728275 heartbeat IPC: 0.1702 cumulative IPC: 1.657 (Simulation time: 00 hr 33 min 10 sec)
Heartbeat CPU 0 instructions: 300000002 cycles: 160228403 heartbeat IPC: 4 cumulative IPC: 1.697 (Simulation time: 00 hr 33 min 51 sec)
Heartbeat CPU 0 instructions: 310000001 cycles: 162728498 heartbeat IPC: 4 cumulative IPC: 1.735 (Simulation time: 00 hr 34 min 32 sec)
Heartbeat CPU 0 instructions: 320000001 cycles: 165228626 heartbeat IPC: 4 cumulative IPC: 1.772 (Simulation time: 00 hr 35 min 13 sec)
Heartbeat CPU 0 instructions: 330000003 cycles: 167729313 heartbeat IPC: 3.999 cumulative IPC: 1.808 (Simulation time: 00 hr 35 min 54 sec)
Heartbeat CPU 0 instructions: 340000000 cycles: 170229915 heartbeat IPC: 3.999 cumulative IPC: 1.843 (Simulation time: 00 hr 36 min 35 sec)
Heartbeat CPU 0 instructions: 350000004 cycles: 172730001 heartbeat IPC: 4 cumulative IPC: 1.877 (Simulation time: 00 hr 37 min 17 sec)
Heartbeat CPU 0 instructions: 360000004 cycles: 175230088 heartbeat IPC: 4 cumulative IPC: 1.909 (Simulation time: 00 hr 38 min 00 sec)
Heartbeat CPU 0 instructions: 370000000 cycles: 177730171 heartbeat IPC: 4 cumulative IPC: 1.941 (Simulation time: 00 hr 38 min 44 sec)
Heartbeat CPU 0 instructions: 380000004 cycles: 180230258 heartbeat IPC: 4 cumulative IPC: 1.972 (Simulation time: 00 hr 39 min 28 sec)
Heartbeat CPU 0 instructions: 390000001 cycles: 182730343 heartbeat IPC: 4 cumulative IPC: 2.002 (Simulation time: 00 hr 40 min 13 sec)
Heartbeat CPU 0 instructions: 400000003 cycles: 185230429 heartbeat IPC: 4 cumulative IPC: 2.031 (Simulation time: 00 hr 41 min 10 sec)
Heartbeat CPU 0 instructions: 410000003 cycles: 187731099 heartbeat IPC: 3.999 cumulative IPC: 2.059 (Simulation time: 00 hr 42 min 03 sec)
Heartbeat CPU 0 instructions: 420000002 cycles: 190231185 heartbeat IPC: 4 cumulative IPC: 2.086 (Simulation time: 00 hr 42 min 51 sec)
Heartbeat CPU 0 instructions: 430000000 cycles: 192731269 heartbeat IPC: 4 cumulative IPC: 2.113 (Simulation time: 00 hr 43 min 39 sec)
Heartbeat CPU 0 instructions: 440000001 cycles: 195232203 heartbeat IPC: 3.999 cumulative IPC: 2.139 (Simulation time: 00 hr 44 min 28 sec)
Heartbeat CPU 0 instructions: 450000000 cycles: 197732287 heartbeat IPC: 4 cumulative IPC: 2.164 (Simulation time: 00 hr 45 min 18 sec)
Heartbeat CPU 0 instructions: 460000003 cycles: 200232330 heartbeat IPC: 4 cumulative IPC: 2.188 (Simulation time: 00 hr 46 min 09 sec)
Heartbeat CPU 0 instructions: 470000001 cycles: 202732417 heartbeat IPC: 4 cumulative IPC: 2.212 (Simulation time: 00 hr 47 min 02 sec)
Heartbeat CPU 0 instructions: 480000003 cycles: 205232501 heartbeat IPC: 4 cumulative IPC: 2.235 (Simulation time: 00 hr 47 min 53 sec)
Heartbeat CPU 0 instructions: 490000003 cycles: 207732588 heartbeat IPC: 4 cumulative IPC: 2.258 (Simulation time: 00 hr 48 min 44 sec)
Heartbeat CPU 0 instructions: 500000002 cycles: 210232674 heartbeat IPC: 4 cumulative IPC: 2.28 (Simulation time: 00 hr 49 min 35 sec)
Heartbeat CPU 0 instructions: 510000003 cycles: 216401910 heartbeat IPC: 1.621 cumulative IPC: 2.26 (Simulation time: 00 hr 50 min 51 sec)
Heartbeat CPU 0 instructions: 520000001 cycles: 325721058 heartbeat IPC: 0.09148 cumulative IPC: 1.502 (Simulation time: 01 hr 07 min 17 sec)
Heartbeat CPU 0 instructions: 530000004 cycles: 410877116 heartbeat IPC: 0.1174 cumulative IPC: 1.206 (Simulation time: 01 hr 20 min 13 sec)
Heartbeat CPU 0 instructions: 540000000 cycles: 440025417 heartbeat IPC: 0.3431 cumulative IPC: 1.147 (Simulation time: 01 hr 25 min 26 sec)
Heartbeat CPU 0 instructions: 550000004 cycles: 469413697 heartbeat IPC: 0.3403 cumulative IPC: 1.095 (Simulation time: 01 hr 31 min 07 sec)
Heartbeat CPU 0 instructions: 560000004 cycles: 498762170 heartbeat IPC: 0.3407 cumulative IPC: 1.05 (Simulation time: 01 hr 35 min 31 sec)
Heartbeat CPU 0 instructions: 570000000 cycles: 528551139 heartbeat IPC: 0.3357 cumulative IPC: 1.008 (Simulation time: 01 hr 40 min 39 sec)
Heartbeat CPU 0 instructions: 580000003 cycles: 558852408 heartbeat IPC: 0.33 cumulative IPC: 0.9707 (Simulation time: 01 hr 45 min 17 sec)
Heartbeat CPU 0 instructions: 590000004 cycles: 589534006 heartbeat IPC: 0.3259 cumulative IPC: 0.9364 (Simulation time: 01 hr 49 min 53 sec)
*** Reached end of trace: (0, "traces/sp.A.champsimtrace")
Heartbeat CPU 0 instructions: 600000001 cycles: 620338605 heartbeat IPC: 0.3246 cumulative IPC: 0.9054 (Simulation time: 01 hr 54 min 17 sec)
Heartbeat CPU 0 instructions: 610000000 cycles: 650412860 heartbeat IPC: 0.3325 cumulative IPC: 0.8784 (Simulation time: 01 hr 57 min 34 sec)
Heartbeat CPU 0 instructions: 620000003 cycles: 654756464 heartbeat IPC: 2.302 cumulative IPC: 0.888 (Simulation time: 01 hr 58 min 33 sec)
Heartbeat CPU 0 instructions: 630000002 cycles: 659097781 heartbeat IPC: 2.303 cumulative IPC: 0.8975 (Simulation time: 01 hr 59 min 31 sec)
Heartbeat CPU 0 instructions: 640000004 cycles: 663448729 heartbeat IPC: 2.298 cumulative IPC: 0.9069 (Simulation time: 02 hr 00 min 30 sec)
Heartbeat CPU 0 instructions: 650000001 cycles: 667823007 heartbeat IPC: 2.286 cumulative IPC: 0.9161 (Simulation time: 02 hr 01 min 30 sec)
Simulation finished CPU 0 instructions: 600000001 cycles: 654941952 cumulative IPC: 0.9161 (Simulation time: 02 hr 01 min 30 sec)
Simulation complete CPU 0 instructions: 600000001 cycles: 654941952 cumulative IPC: 0.9161 (Simulation time: 02 hr 01 min 30 sec)

ChampSim completed all CPUs

=== Simulation ===
CPU 0 runs traces/sp.A.champsimtrace
Region of Interest Statistics

CPU 0 cumulative IPC: 0.9161 instructions: 600000001 cycles: 654941952
CPU 0 Branch Prediction Accuracy: 99.98% MPKI: 0.003913 Average ROB Occupancy at Mispredict: 105.6
Branch type MPKI
BRANCH_DIRECT_JUMP: 5e-06
BRANCH_INDIRECT: 7.5e-05
BRANCH_CONDITIONAL: 0.00374
BRANCH_DIRECT_CALL: 2e-05
BRANCH_INDIRECT_CALL: 3.17e-05
BRANCH_RETURN: 3.67e-05

LLC TOTAL        ACCESS:    7580124 HIT:    3675161 MISS:    3904963
LLC LOAD         ACCESS:    2304425 HIT:    1151079 MISS:    1153346
LLC RFO          ACCESS:     922633 HIT:       6840 MISS:     915793
LLC PREFETCH     ACCESS:    2304455 HIT:     492532 MISS:    1811923
LLC WRITE        ACCESS:    2045145 HIT:    2023238 MISS:      21907
LLC TRANSLATION  ACCESS:       3466 HIT:       1472 MISS:       1994
LLC PREFETCH REQUESTED:    2305271 ISSUED:    2304455 USEFUL:    1518941 USELESS:      27510
LLC AVERAGE MISS LATENCY: 1215 cycles
cpu0_DTLB TOTAL        ACCESS:  129202679 HIT:  128207154 MISS:     995525
cpu0_DTLB LOAD         ACCESS:  129202679 HIT:  128207154 MISS:     995525
cpu0_DTLB RFO          ACCESS:          0 HIT:          0 MISS:          0
cpu0_DTLB PREFETCH     ACCESS:          0 HIT:          0 MISS:          0
cpu0_DTLB WRITE        ACCESS:          0 HIT:          0 MISS:          0
cpu0_DTLB TRANSLATION  ACCESS:          0 HIT:          0 MISS:          0
cpu0_DTLB PREFETCH REQUESTED:          0 ISSUED:          0 USEFUL:          0 USELESS:          0
cpu0_DTLB AVERAGE MISS LATENCY: 16.37 cycles
cpu0_ITLB TOTAL        ACCESS:     236383 HIT:     236131 MISS:        252
cpu0_ITLB LOAD         ACCESS:     236383 HIT:     236131 MISS:        252
cpu0_ITLB RFO          ACCESS:          0 HIT:          0 MISS:          0
cpu0_ITLB PREFETCH     ACCESS:          0 HIT:          0 MISS:          0
cpu0_ITLB WRITE        ACCESS:          0 HIT:          0 MISS:          0
cpu0_ITLB TRANSLATION  ACCESS:          0 HIT:          0 MISS:          0
cpu0_ITLB PREFETCH REQUESTED:          0 ISSUED:          0 USEFUL:          0 USELESS:          0
cpu0_ITLB AVERAGE MISS LATENCY: 337.8 cycles
cpu0_L1D TOTAL        ACCESS:  196146602 HIT:  182228153 MISS:   13918449
cpu0_L1D LOAD         ACCESS:  160904395 HIT:  151206327 MISS:    9698068
cpu0_L1D RFO          ACCESS:          0 HIT:          0 MISS:          0
cpu0_L1D PREFETCH     ACCESS:          0 HIT:          0 MISS:          0
cpu0_L1D WRITE        ACCESS:   35194329 HIT:   30992262 MISS:    4202067
cpu0_L1D TRANSLATION  ACCESS:      47878 HIT:      29564 MISS:      18314
cpu0_L1D PREFETCH REQUESTED:          0 ISSUED:          0 USEFUL:          0 USELESS:          0
cpu0_L1D AVERAGE MISS LATENCY: 165.3 cycles
cpu0_L1I TOTAL        ACCESS:     245866 HIT:     242868 MISS:       2998
cpu0_L1I LOAD         ACCESS:     245866 HIT:     242868 MISS:       2998
cpu0_L1I RFO          ACCESS:          0 HIT:          0 MISS:          0
cpu0_L1I PREFETCH     ACCESS:          0 HIT:          0 MISS:          0
cpu0_L1I WRITE        ACCESS:          0 HIT:          0 MISS:          0
cpu0_L1I TRANSLATION  ACCESS:          0 HIT:          0 MISS:          0
cpu0_L1I PREFETCH REQUESTED:          0 ISSUED:          0 USEFUL:          0 USELESS:          0
cpu0_L1I AVERAGE MISS LATENCY: 460.2 cycles
cpu0_L2C TOTAL        ACCESS:    5429634 HIT:    2198605 MISS:    3231029
cpu0_L2C LOAD         ACCESS:    2431421 HIT:     126861 MISS:    2304560
cpu0_L2C RFO          ACCESS:     923513 HIT:        880 MISS:     922633
cpu0_L2C PREFETCH     ACCESS:          0 HIT:          0 MISS:          0
cpu0_L2C WRITE        ACCESS:    2056389 HIT:    2056019 MISS:        370
cpu0_L2C TRANSLATION  ACCESS:      18311 HIT:      14845 MISS:       3466
cpu0_L2C PREFETCH REQUESTED:          0 ISSUED:          0 USEFUL:          0 USELESS:          0
cpu0_L2C AVERAGE MISS LATENCY: 957.9 cycles
cpu0_STLB TOTAL        ACCESS:     749329 HIT:     701481 MISS:      47848
cpu0_STLB LOAD         ACCESS:     749329 HIT:     701481 MISS:      47848
cpu0_STLB RFO          ACCESS:          0 HIT:          0 MISS:          0
cpu0_STLB PREFETCH     ACCESS:          0 HIT:          0 MISS:          0
cpu0_STLB WRITE        ACCESS:          0 HIT:          0 MISS:          0
cpu0_STLB TRANSLATION  ACCESS:          0 HIT:          0 MISS:          0
cpu0_STLB PREFETCH REQUESTED:          0 ISSUED:          0 USEFUL:          0 USELESS:          0
cpu0_STLB AVERAGE MISS LATENCY: 333.1 cycles

DRAM Statistics

Channel 0 RQ ROW_BUFFER_HIT:     762175
  ROW_BUFFER_MISS:    2000708
 AVG DBUS CONGESTED CYCLE: 3.98
WQ ROW_BUFFER_HIT: Channel 0 
  ROW_BUFFER_MISS:     300271
  FULL:    1487296
