WARNING: physical memory size is smaller than virtual memory size.

*** ChampSim Multicore Out-of-Order Simulator ***
Warmup Instructions: 50000000
Simulation Instructions: 600000000
Number of CPUs: 1
Page size: 4096

Off-chip DRAM Size: 4 GiB Channels: 1 Width: 64-bit Data Race: 3200 MT/s
Heartbeat CPU 0 instructions: 10000003 cycles: 2881057 heartbeat IPC: 3.471 cumulative IPC: 3.471 (Simulation time: 00 hr 00 min 34 sec)
Heartbeat CPU 0 instructions: 20000003 cycles: 5381057 heartbeat IPC: 4 cumulative IPC: 3.717 (Simulation time: 00 hr 01 min 10 sec)
Heartbeat CPU 0 instructions: 30000003 cycles: 7881057 heartbeat IPC: 4 cumulative IPC: 3.807 (Simulation time: 00 hr 01 min 47 sec)
Heartbeat CPU 0 instructions: 40000003 cycles: 10381057 heartbeat IPC: 4 cumulative IPC: 3.853 (Simulation time: 00 hr 02 min 22 sec)
Heartbeat CPU 0 instructions: 50000003 cycles: 12881057 heartbeat IPC: 4 cumulative IPC: 3.882 (Simulation time: 00 hr 02 min 58 sec)
Warmup finished CPU 0 instructions: 50000003 cycles: 12881058 cumulative IPC: 3.882 (Simulation time: 00 hr 02 min 58 sec)
Warmup complete CPU 0 instructions: 50000003 cycles: 12881058 cumulative IPC: 3.882 (Simulation time: 00 hr 02 min 58 sec)
Heartbeat CPU 0 instructions: 60000000 cycles: 16359164 heartbeat IPC: 2.875 cumulative IPC: 2.875 (Simulation time: 00 hr 03 min 52 sec)
Heartbeat CPU 0 instructions: 70000004 cycles: 19927737 heartbeat IPC: 2.802 cumulative IPC: 2.838 (Simulation time: 00 hr 04 min 46 sec)
Heartbeat CPU 0 instructions: 80000001 cycles: 23468302 heartbeat IPC: 2.824 cumulative IPC: 2.834 (Simulation time: 00 hr 05 min 37 sec)
Heartbeat CPU 0 instructions: 90000003 cycles: 26978689 heartbeat IPC: 2.849 cumulative IPC: 2.837 (Simulation time: 00 hr 06 min 26 sec)
Heartbeat CPU 0 instructions: 100000000 cycles: 30338694 heartbeat IPC: 2.976 cumulative IPC: 2.864 (Simulation time: 00 hr 07 min 15 sec)
Heartbeat CPU 0 instructions: 110000001 cycles: 33316101 heartbeat IPC: 3.359 cumulative IPC: 2.936 (Simulation time: 00 hr 07 min 59 sec)
Heartbeat CPU 0 instructions: 120000001 cycles: 39797030 heartbeat IPC: 1.543 cumulative IPC: 2.601 (Simulation time: 00 hr 09 min 15 sec)
Heartbeat CPU 0 instructions: 130000002 cycles: 46736097 heartbeat IPC: 1.441 cumulative IPC: 2.363 (Simulation time: 00 hr 10 min 27 sec)
Heartbeat CPU 0 instructions: 140000004 cycles: 53778515 heartbeat IPC: 1.42 cumulative IPC: 2.201 (Simulation time: 00 hr 11 min 39 sec)
Heartbeat CPU 0 instructions: 150000000 cycles: 60687961 heartbeat IPC: 1.447 cumulative IPC: 2.092 (Simulation time: 00 hr 12 min 51 sec)
Heartbeat CPU 0 instructions: 160000003 cycles: 67646140 heartbeat IPC: 1.437 cumulative IPC: 2.009 (Simulation time: 00 hr 14 min 01 sec)
Heartbeat CPU 0 instructions: 170000001 cycles: 74609577 heartbeat IPC: 1.436 cumulative IPC: 1.944 (Simulation time: 00 hr 15 min 14 sec)
Heartbeat CPU 0 instructions: 180000002 cycles: 81522475 heartbeat IPC: 1.447 cumulative IPC: 1.894 (Simulation time: 00 hr 16 min 26 sec)
Heartbeat CPU 0 instructions: 190000002 cycles: 87412787 heartbeat IPC: 1.698 cumulative IPC: 1.878 (Simulation time: 00 hr 17 min 31 sec)
Heartbeat CPU 0 instructions: 200000000 cycles: 93382812 heartbeat IPC: 1.675 cumulative IPC: 1.863 (Simulation time: 00 hr 18 min 39 sec)
Heartbeat CPU 0 instructions: 210000001 cycles: 99407519 heartbeat IPC: 1.66 cumulative IPC: 1.849 (Simulation time: 00 hr 19 min 49 sec)
Heartbeat CPU 0 instructions: 220000001 cycles: 105359753 heartbeat IPC: 1.68 cumulative IPC: 1.838 (Simulation time: 00 hr 21 min 06 sec)
Heartbeat CPU 0 instructions: 230000004 cycles: 111290455 heartbeat IPC: 1.686 cumulative IPC: 1.829 (Simulation time: 00 hr 22 min 20 sec)
Heartbeat CPU 0 instructions: 240000003 cycles: 117298669 heartbeat IPC: 1.664 cumulative IPC: 1.82 (Simulation time: 00 hr 23 min 30 sec)
Heartbeat CPU 0 instructions: 250000002 cycles: 123212580 heartbeat IPC: 1.691 cumulative IPC: 1.813 (Simulation time: 00 hr 24 min 38 sec)
Heartbeat CPU 0 instructions: 260000002 cycles: 129032686 heartbeat IPC: 1.718 cumulative IPC: 1.808 (Simulation time: 00 hr 25 min 47 sec)
Heartbeat CPU 0 instructions: 270000003 cycles: 134921918 heartbeat IPC: 1.698 cumulative IPC: 1.803 (Simulation time: 00 hr 26 min 58 sec)
Heartbeat CPU 0 instructions: 280000000 cycles: 140841331 heartbeat IPC: 1.689 cumulative IPC: 1.797 (Simulation time: 00 hr 28 min 08 sec)
Heartbeat CPU 0 instructions: 290000001 cycles: 199451057 heartbeat IPC: 0.1706 cumulative IPC: 1.286 (Simulation time: 00 hr 35 min 13 sec)
Heartbeat CPU 0 instructions: 300000002 cycles: 201953445 heartbeat IPC: 3.996 cumulative IPC: 1.322 (Simulation time: 00 hr 35 min 56 sec)
Heartbeat CPU 0 instructions: 310000001 cycles: 204456497 heartbeat IPC: 3.995 cumulative IPC: 1.357 (Simulation time: 00 hr 36 min 42 sec)
Heartbeat CPU 0 instructions: 320000001 cycles: 206959366 heartbeat IPC: 3.995 cumulative IPC: 1.391 (Simulation time: 00 hr 37 min 29 sec)
Heartbeat CPU 0 instructions: 330000003 cycles: 209461738 heartbeat IPC: 3.996 cumulative IPC: 1.424 (Simulation time: 00 hr 38 min 14 sec)
Heartbeat CPU 0 instructions: 340000000 cycles: 211964801 heartbeat IPC: 3.995 cumulative IPC: 1.457 (Simulation time: 00 hr 38 min 56 sec)
Heartbeat CPU 0 instructions: 350000004 cycles: 214467207 heartbeat IPC: 3.996 cumulative IPC: 1.488 (Simulation time: 00 hr 39 min 37 sec)
Heartbeat CPU 0 instructions: 360000004 cycles: 216970515 heartbeat IPC: 3.995 cumulative IPC: 1.519 (Simulation time: 00 hr 40 min 22 sec)
Heartbeat CPU 0 instructions: 370000000 cycles: 219473766 heartbeat IPC: 3.995 cumulative IPC: 1.549 (Simulation time: 00 hr 41 min 03 sec)
Heartbeat CPU 0 instructions: 380000004 cycles: 221977559 heartbeat IPC: 3.994 cumulative IPC: 1.578 (Simulation time: 00 hr 41 min 44 sec)
Heartbeat CPU 0 instructions: 390000001 cycles: 224480009 heartbeat IPC: 3.996 cumulative IPC: 1.607 (Simulation time: 00 hr 42 min 26 sec)
Heartbeat CPU 0 instructions: 400000003 cycles: 226982694 heartbeat IPC: 3.996 cumulative IPC: 1.635 (Simulation time: 00 hr 43 min 08 sec)
Heartbeat CPU 0 instructions: 410000003 cycles: 229485880 heartbeat IPC: 3.995 cumulative IPC: 1.662 (Simulation time: 00 hr 43 min 50 sec)
Heartbeat CPU 0 instructions: 420000002 cycles: 231988387 heartbeat IPC: 3.996 cumulative IPC: 1.689 (Simulation time: 00 hr 44 min 32 sec)
Heartbeat CPU 0 instructions: 430000000 cycles: 234490775 heartbeat IPC: 3.996 cumulative IPC: 1.715 (Simulation time: 00 hr 45 min 20 sec)
Heartbeat CPU 0 instructions: 440000001 cycles: 236993264 heartbeat IPC: 3.996 cumulative IPC: 1.74 (Simulation time: 00 hr 46 min 06 sec)
Heartbeat CPU 0 instructions: 450000000 cycles: 239495755 heartbeat IPC: 3.996 cumulative IPC: 1.765 (Simulation time: 00 hr 46 min 52 sec)
Heartbeat CPU 0 instructions: 460000003 cycles: 241998291 heartbeat IPC: 3.996 cumulative IPC: 1.789 (Simulation time: 00 hr 47 min 37 sec)
Heartbeat CPU 0 instructions: 470000001 cycles: 244502217 heartbeat IPC: 3.994 cumulative IPC: 1.813 (Simulation time: 00 hr 48 min 19 sec)
Heartbeat CPU 0 instructions: 480000003 cycles: 247004603 heartbeat IPC: 3.996 cumulative IPC: 1.837 (Simulation time: 00 hr 48 min 59 sec)
Heartbeat CPU 0 instructions: 490000003 cycles: 249507212 heartbeat IPC: 3.996 cumulative IPC: 1.859 (Simulation time: 00 hr 49 min 40 sec)
Heartbeat CPU 0 instructions: 500000002 cycles: 252011034 heartbeat IPC: 3.994 cumulative IPC: 1.882 (Simulation time: 00 hr 50 min 20 sec)
Heartbeat CPU 0 instructions: 510000003 cycles: 259726981 heartbeat IPC: 1.296 cumulative IPC: 1.864 (Simulation time: 00 hr 51 min 43 sec)
Heartbeat CPU 0 instructions: 520000001 cycles: 360806572 heartbeat IPC: 0.09893 cumulative IPC: 1.351 (Simulation time: 01 hr 05 min 03 sec)
Heartbeat CPU 0 instructions: 530000002 cycles: 446197746 heartbeat IPC: 0.1171 cumulative IPC: 1.108 (Simulation time: 01 hr 17 min 17 sec)
Heartbeat CPU 0 instructions: 540000000 cycles: 479526575 heartbeat IPC: 0.3 cumulative IPC: 1.05 (Simulation time: 01 hr 22 min 18 sec)
Heartbeat CPU 0 instructions: 550000004 cycles: 513310812 heartbeat IPC: 0.296 cumulative IPC: 0.9991 (Simulation time: 01 hr 27 min 38 sec)
Heartbeat CPU 0 instructions: 560000002 cycles: 546577535 heartbeat IPC: 0.3006 cumulative IPC: 0.9556 (Simulation time: 01 hr 32 min 39 sec)
Heartbeat CPU 0 instructions: 570000002 cycles: 578613323 heartbeat IPC: 0.3122 cumulative IPC: 0.9192 (Simulation time: 01 hr 37 min 14 sec)
Heartbeat CPU 0 instructions: 580000001 cycles: 609963758 heartbeat IPC: 0.319 cumulative IPC: 0.8876 (Simulation time: 01 hr 41 min 52 sec)
Heartbeat CPU 0 instructions: 590000004 cycles: 642484361 heartbeat IPC: 0.3075 cumulative IPC: 0.8577 (Simulation time: 01 hr 46 min 19 sec)
*** Reached end of trace: (0, "traces/sp.A.champsimtrace")
Heartbeat CPU 0 instructions: 600000002 cycles: 674142656 heartbeat IPC: 0.3159 cumulative IPC: 0.8317 (Simulation time: 01 hr 50 min 38 sec)
Heartbeat CPU 0 instructions: 610000000 cycles: 700474448 heartbeat IPC: 0.3798 cumulative IPC: 0.8144 (Simulation time: 01 hr 53 min 24 sec)
Heartbeat CPU 0 instructions: 620000000 cycles: 703390522 heartbeat IPC: 3.429 cumulative IPC: 0.8255 (Simulation time: 01 hr 54 min 07 sec)
Heartbeat CPU 0 instructions: 630000003 cycles: 706887757 heartbeat IPC: 2.859 cumulative IPC: 0.8357 (Simulation time: 01 hr 54 min 54 sec)
Heartbeat CPU 0 instructions: 640000004 cycles: 710419853 heartbeat IPC: 2.831 cumulative IPC: 0.8458 (Simulation time: 01 hr 55 min 43 sec)
Heartbeat CPU 0 instructions: 650000000 cycles: 713980171 heartbeat IPC: 2.809 cumulative IPC: 0.8558 (Simulation time: 01 hr 56 min 31 sec)
Simulation finished CPU 0 instructions: 600000002 cycles: 701099115 cumulative IPC: 0.8558 (Simulation time: 01 hr 56 min 31 sec)
Simulation complete CPU 0 instructions: 600000002 cycles: 701099115 cumulative IPC: 0.8558 (Simulation time: 01 hr 56 min 31 sec)

ChampSim completed all CPUs

=== Simulation ===
CPU 0 runs traces/sp.A.champsimtrace
Region of Interest Statistics

CPU 0 cumulative IPC: 0.8558 instructions: 600000002 cycles: 701099115
CPU 0 Branch Prediction Accuracy: 98.91% MPKI: 0.226 Average ROB Occupancy at Mispredict: 233.2
Branch type MPKI
BRANCH_DIRECT_JUMP: 5e-06
BRANCH_INDIRECT: 7.5e-05
BRANCH_CONDITIONAL: 0.226
BRANCH_DIRECT_CALL: 2e-05
BRANCH_INDIRECT_CALL: 3.17e-05
BRANCH_RETURN: 3.67e-05

LLC TOTAL        ACCESS:    8138760 HIT:    2964435 MISS:    5174325
LLC LOAD         ACCESS:    2303699 HIT:    1256782 MISS:    1046917
LLC RFO          ACCESS:     922633 HIT:      23853 MISS:     898780
LLC PREFETCH     ACCESS:    2863982 HIT:    1410626 MISS:    1453356
LLC WRITE        ACCESS:    2044978 HIT:     273063 MISS:    1771915
LLC TRANSLATION  ACCESS:       3468 HIT:        111 MISS:       3357
LLC PREFETCH REQUESTED:    2863982 ISSUED:    2863982 USEFUL:    1108013 USELESS:      66216
LLC AVERAGE MISS LATENCY: 917.9 cycles
cpu0_DTLB TOTAL        ACCESS:  125774326 HIT:  124949152 MISS:     825174
cpu0_DTLB LOAD         ACCESS:  125774326 HIT:  124949152 MISS:     825174
cpu0_DTLB RFO          ACCESS:          0 HIT:          0 MISS:          0
cpu0_DTLB PREFETCH     ACCESS:          0 HIT:          0 MISS:          0
cpu0_DTLB WRITE        ACCESS:          0 HIT:          0 MISS:          0
cpu0_DTLB TRANSLATION  ACCESS:          0 HIT:          0 MISS:          0
cpu0_DTLB PREFETCH REQUESTED:          0 ISSUED:          0 USEFUL:          0 USELESS:          0
cpu0_DTLB AVERAGE MISS LATENCY: 19.99 cycles
cpu0_ITLB TOTAL        ACCESS:     222540 HIT:     222306 MISS:        234
cpu0_ITLB LOAD         ACCESS:     222540 HIT:     222306 MISS:        234
cpu0_ITLB RFO          ACCESS:          0 HIT:          0 MISS:          0
cpu0_ITLB PREFETCH     ACCESS:          0 HIT:          0 MISS:          0
cpu0_ITLB WRITE        ACCESS:          0 HIT:          0 MISS:          0
cpu0_ITLB TRANSLATION  ACCESS:          0 HIT:          0 MISS:          0
cpu0_ITLB PREFETCH REQUESTED:          0 ISSUED:          0 USEFUL:          0 USELESS:          0
cpu0_ITLB AVERAGE MISS LATENCY: 345.3 cycles
cpu0_L1D TOTAL        ACCESS:  191827014 HIT:  178443604 MISS:   13383410
cpu0_L1D LOAD         ACCESS:  156584876 HIT:  147661582 MISS:    8923294
cpu0_L1D RFO          ACCESS:          0 HIT:          0 MISS:          0
cpu0_L1D PREFETCH     ACCESS:          0 HIT:          0 MISS:          0
cpu0_L1D WRITE        ACCESS:   35194258 HIT:   30752414 MISS:    4441844
cpu0_L1D TRANSLATION  ACCESS:      47880 HIT:      29608 MISS:      18272
cpu0_L1D PREFETCH REQUESTED:          0 ISSUED:          0 USEFUL:          0 USELESS:          0
cpu0_L1D AVERAGE MISS LATENCY: 166.1 cycles
cpu0_L1I TOTAL        ACCESS:     230498 HIT:     227704 MISS:       2794
cpu0_L1I LOAD         ACCESS:     230498 HIT:     227704 MISS:       2794
cpu0_L1I RFO          ACCESS:          0 HIT:          0 MISS:          0
cpu0_L1I PREFETCH     ACCESS:          0 HIT:          0 MISS:          0
cpu0_L1I WRITE        ACCESS:          0 HIT:          0 MISS:          0
cpu0_L1I TRANSLATION  ACCESS:          0 HIT:          0 MISS:          0
cpu0_L1I PREFETCH REQUESTED:          0 ISSUED:          0 USEFUL:          0 USELESS:          0
cpu0_L1I AVERAGE MISS LATENCY: 556.2 cycles
cpu0_L2C TOTAL        ACCESS:    5424053 HIT:    2193865 MISS:    3230188
cpu0_L2C LOAD         ACCESS:    2426466 HIT:     122751 MISS:    2303715
cpu0_L2C RFO          ACCESS:     923192 HIT:        559 MISS:     922633
cpu0_L2C PREFETCH     ACCESS:          0 HIT:          0 MISS:          0
cpu0_L2C WRITE        ACCESS:    2056124 HIT:    2055752 MISS:        372
cpu0_L2C TRANSLATION  ACCESS:      18271 HIT:      14803 MISS:       3468
cpu0_L2C PREFETCH REQUESTED:          0 ISSUED:          0 USEFUL:          0 USELESS:          0
cpu0_L2C AVERAGE MISS LATENCY: 892.9 cycles
cpu0_STLB TOTAL        ACCESS:     573345 HIT:     525495 MISS:      47850
cpu0_STLB LOAD         ACCESS:     573345 HIT:     525495 MISS:      47850
cpu0_STLB RFO          ACCESS:          0 HIT:          0 MISS:          0
cpu0_STLB PREFETCH     ACCESS:          0 HIT:          0 MISS:          0
cpu0_STLB WRITE        ACCESS:          0 HIT:          0 MISS:          0
cpu0_STLB TRANSLATION  ACCESS:          0 HIT:          0 MISS:          0
cpu0_STLB PREFETCH REQUESTED:          0 ISSUED:          0 USEFUL:          0 USELESS:          0
cpu0_STLB AVERAGE MISS LATENCY: 366.3 cycles

DRAM Statistics

Channel 0 RQ ROW_BUFFER_HIT:     985631
  ROW_BUFFER_MISS:    2005023
 AVG DBUS CONGESTED CYCLE: 3.958
WQ ROW_BUFFER_HIT: Channel 0 
  ROW_BUFFER_MISS:     591361
  FULL:    1315809
