WARNING: physical memory size is smaller than virtual memory size.

*** ChampSim Multicore Out-of-Order Simulator ***
Warmup Instructions: 50000000
Simulation Instructions: 600000000
Number of CPUs: 1
Page size: 4096

Off-chip DRAM Size: 4 GiB Channels: 1 Width: 64-bit Data Race: 3200 MT/s
Heartbeat CPU 0 instructions: 10000003 cycles: 2881057 heartbeat IPC: 3.471 cumulative IPC: 3.471 (Simulation time: 00 hr 00 min 37 sec)
Heartbeat CPU 0 instructions: 20000003 cycles: 5381057 heartbeat IPC: 4 cumulative IPC: 3.717 (Simulation time: 00 hr 01 min 14 sec)
Heartbeat CPU 0 instructions: 30000003 cycles: 7881057 heartbeat IPC: 4 cumulative IPC: 3.807 (Simulation time: 00 hr 01 min 53 sec)
Heartbeat CPU 0 instructions: 40000003 cycles: 10381057 heartbeat IPC: 4 cumulative IPC: 3.853 (Simulation time: 00 hr 02 min 31 sec)
Heartbeat CPU 0 instructions: 50000003 cycles: 12881057 heartbeat IPC: 4 cumulative IPC: 3.882 (Simulation time: 00 hr 03 min 08 sec)
Warmup finished CPU 0 instructions: 50000003 cycles: 12881058 cumulative IPC: 3.882 (Simulation time: 00 hr 03 min 08 sec)
Warmup complete CPU 0 instructions: 50000003 cycles: 12881058 cumulative IPC: 3.882 (Simulation time: 00 hr 03 min 08 sec)
Heartbeat CPU 0 instructions: 60000000 cycles: 19029985 heartbeat IPC: 1.626 cumulative IPC: 1.626 (Simulation time: 00 hr 04 min 18 sec)
Heartbeat CPU 0 instructions: 70000000 cycles: 25184182 heartbeat IPC: 1.625 cumulative IPC: 1.626 (Simulation time: 00 hr 05 min 34 sec)
Heartbeat CPU 0 instructions: 80000001 cycles: 31328670 heartbeat IPC: 1.627 cumulative IPC: 1.626 (Simulation time: 00 hr 06 min 47 sec)
Heartbeat CPU 0 instructions: 90000003 cycles: 37468117 heartbeat IPC: 1.629 cumulative IPC: 1.627 (Simulation time: 00 hr 08 min 05 sec)
Heartbeat CPU 0 instructions: 100000000 cycles: 41690804 heartbeat IPC: 2.368 cumulative IPC: 1.736 (Simulation time: 00 hr 09 min 03 sec)
Heartbeat CPU 0 instructions: 110000001 cycles: 44673156 heartbeat IPC: 3.353 cumulative IPC: 1.887 (Simulation time: 00 hr 09 min 47 sec)
Heartbeat CPU 0 instructions: 120000001 cycles: 51219264 heartbeat IPC: 1.528 cumulative IPC: 1.826 (Simulation time: 00 hr 10 min 58 sec)
Heartbeat CPU 0 instructions: 130000002 cycles: 58238777 heartbeat IPC: 1.425 cumulative IPC: 1.764 (Simulation time: 00 hr 12 min 14 sec)
Heartbeat CPU 0 instructions: 140000004 cycles: 65356280 heartbeat IPC: 1.405 cumulative IPC: 1.715 (Simulation time: 00 hr 13 min 31 sec)
Heartbeat CPU 0 instructions: 150000000 cycles: 72316103 heartbeat IPC: 1.437 cumulative IPC: 1.683 (Simulation time: 00 hr 14 min 44 sec)
Heartbeat CPU 0 instructions: 160000003 cycles: 79313439 heartbeat IPC: 1.429 cumulative IPC: 1.656 (Simulation time: 00 hr 15 min 59 sec)
Heartbeat CPU 0 instructions: 170000001 cycles: 86314110 heartbeat IPC: 1.428 cumulative IPC: 1.634 (Simulation time: 00 hr 17 min 16 sec)
Heartbeat CPU 0 instructions: 180000002 cycles: 93265842 heartbeat IPC: 1.438 cumulative IPC: 1.617 (Simulation time: 00 hr 18 min 31 sec)
Heartbeat CPU 0 instructions: 190000002 cycles: 99975733 heartbeat IPC: 1.49 cumulative IPC: 1.607 (Simulation time: 00 hr 19 min 44 sec)
Heartbeat CPU 0 instructions: 200000000 cycles: 106006304 heartbeat IPC: 1.658 cumulative IPC: 1.611 (Simulation time: 00 hr 20 min 53 sec)
Heartbeat CPU 0 instructions: 210000001 cycles: 112077218 heartbeat IPC: 1.647 cumulative IPC: 1.613 (Simulation time: 00 hr 22 min 02 sec)
Heartbeat CPU 0 instructions: 220000001 cycles: 118057313 heartbeat IPC: 1.672 cumulative IPC: 1.616 (Simulation time: 00 hr 23 min 09 sec)
Heartbeat CPU 0 instructions: 230000004 cycles: 124080231 heartbeat IPC: 1.66 cumulative IPC: 1.619 (Simulation time: 00 hr 24 min 15 sec)
Heartbeat CPU 0 instructions: 240000003 cycles: 130109752 heartbeat IPC: 1.659 cumulative IPC: 1.621 (Simulation time: 00 hr 25 min 22 sec)
Heartbeat CPU 0 instructions: 250000002 cycles: 136177588 heartbeat IPC: 1.648 cumulative IPC: 1.622 (Simulation time: 00 hr 26 min 31 sec)
Heartbeat CPU 0 instructions: 260000002 cycles: 142202547 heartbeat IPC: 1.66 cumulative IPC: 1.624 (Simulation time: 00 hr 27 min 38 sec)
Heartbeat CPU 0 instructions: 270000003 cycles: 148256792 heartbeat IPC: 1.652 cumulative IPC: 1.625 (Simulation time: 00 hr 28 min 45 sec)
Heartbeat CPU 0 instructions: 280000000 cycles: 154344214 heartbeat IPC: 1.643 cumulative IPC: 1.626 (Simulation time: 00 hr 29 min 52 sec)
Heartbeat CPU 0 instructions: 290000001 cycles: 204396231 heartbeat IPC: 0.1998 cumulative IPC: 1.253 (Simulation time: 00 hr 35 min 41 sec)
Heartbeat CPU 0 instructions: 300000002 cycles: 206898620 heartbeat IPC: 3.996 cumulative IPC: 1.289 (Simulation time: 00 hr 36 min 26 sec)
Heartbeat CPU 0 instructions: 310000001 cycles: 209400995 heartbeat IPC: 3.996 cumulative IPC: 1.323 (Simulation time: 00 hr 37 min 09 sec)
Heartbeat CPU 0 instructions: 320000001 cycles: 211904459 heartbeat IPC: 3.994 cumulative IPC: 1.357 (Simulation time: 00 hr 37 min 52 sec)
Heartbeat CPU 0 instructions: 330000003 cycles: 214407159 heartbeat IPC: 3.996 cumulative IPC: 1.389 (Simulation time: 00 hr 38 min 34 sec)
Heartbeat CPU 0 instructions: 340000000 cycles: 216909547 heartbeat IPC: 3.996 cumulative IPC: 1.421 (Simulation time: 00 hr 39 min 16 sec)
Heartbeat CPU 0 instructions: 350000004 cycles: 219413030 heartbeat IPC: 3.994 cumulative IPC: 1.453 (Simulation time: 00 hr 39 min 56 sec)
Heartbeat CPU 0 instructions: 360000004 cycles: 221916257 heartbeat IPC: 3.995 cumulative IPC: 1.483 (Simulation time: 00 hr 40 min 35 sec)
Heartbeat CPU 0 instructions: 370000000 cycles: 224420320 heartbeat IPC: 3.994 cumulative IPC: 1.513 (Simulation time: 00 hr 41 min 15 sec)
Heartbeat CPU 0 instructions: 380000004 cycles: 226923647 heartbeat IPC: 3.995 cumulative IPC: 1.542 (Simulation time: 00 hr 41 min 56 sec)
Heartbeat CPU 0 instructions: 390000001 cycles: 229426036 heartbeat IPC: 3.996 cumulative IPC: 1.57 (Simulation time: 00 hr 42 min 35 sec)
Heartbeat CPU 0 instructions: 400000003 cycles: 231928742 heartbeat IPC: 3.996 cumulative IPC: 1.598 (Simulation time: 00 hr 43 min 14 sec)
Heartbeat CPU 0 instructions: 410000003 cycles: 234431226 heartbeat IPC: 3.996 cumulative IPC: 1.625 (Simulation time: 00 hr 43 min 54 sec)
Heartbeat CPU 0 instructions: 420000002 cycles: 236935901 heartbeat IPC: 3.993 cumulative IPC: 1.651 (Simulation time: 00 hr 44 min 36 sec)
Heartbeat CPU 0 instructions: 430000000 cycles: 239438289 heartbeat IPC: 3.996 cumulative IPC: 1.677 (Simulation time: 00 hr 45 min 20 sec)
Heartbeat CPU 0 instructions: 440000001 cycles: 241940775 heartbeat IPC: 3.996 cumulative IPC: 1.703 (Simulation time: 00 hr 46 min 02 sec)
Heartbeat CPU 0 instructions: 450000000 cycles: 244443267 heartbeat IPC: 3.996 cumulative IPC: 1.727 (Simulation time: 00 hr 46 min 40 sec)
Heartbeat CPU 0 instructions: 460000003 cycles: 246945801 heartbeat IPC: 3.996 cumulative IPC: 1.752 (Simulation time: 00 hr 47 min 18 sec)
Heartbeat CPU 0 instructions: 470000001 cycles: 249449727 heartbeat IPC: 3.994 cumulative IPC: 1.775 (Simulation time: 00 hr 47 min 59 sec)
Heartbeat CPU 0 instructions: 480000003 cycles: 251952113 heartbeat IPC: 3.996 cumulative IPC: 1.799 (Simulation time: 00 hr 48 min 41 sec)
Heartbeat CPU 0 instructions: 490000003 cycles: 254454722 heartbeat IPC: 3.996 cumulative IPC: 1.821 (Simulation time: 00 hr 49 min 22 sec)
Heartbeat CPU 0 instructions: 500000002 cycles: 256958544 heartbeat IPC: 3.994 cumulative IPC: 1.844 (Simulation time: 00 hr 50 min 04 sec)
Heartbeat CPU 0 instructions: 510000003 cycles: 264690511 heartbeat IPC: 1.293 cumulative IPC: 1.827 (Simulation time: 00 hr 51 min 23 sec)
Heartbeat CPU 0 instructions: 520000001 cycles: 357639624 heartbeat IPC: 0.1076 cumulative IPC: 1.363 (Simulation time: 01 hr 03 min 01 sec)
Heartbeat CPU 0 instructions: 530000000 cycles: 435419169 heartbeat IPC: 0.1286 cumulative IPC: 1.136 (Simulation time: 01 hr 12 min 20 sec)
Heartbeat CPU 0 instructions: 540000000 cycles: 474531197 heartbeat IPC: 0.2557 cumulative IPC: 1.061 (Simulation time: 01 hr 17 min 26 sec)
Heartbeat CPU 0 instructions: 550000002 cycles: 513630725 heartbeat IPC: 0.2558 cumulative IPC: 0.9985 (Simulation time: 01 hr 22 min 35 sec)
Heartbeat CPU 0 instructions: 560000004 cycles: 552276941 heartbeat IPC: 0.2588 cumulative IPC: 0.9455 (Simulation time: 01 hr 27 min 37 sec)
Heartbeat CPU 0 instructions: 570000000 cycles: 590412573 heartbeat IPC: 0.2622 cumulative IPC: 0.9004 (Simulation time: 01 hr 32 min 42 sec)
Heartbeat CPU 0 instructions: 580000001 cycles: 630081161 heartbeat IPC: 0.2521 cumulative IPC: 0.8587 (Simulation time: 01 hr 37 min 55 sec)
Heartbeat CPU 0 instructions: 590000004 cycles: 670809306 heartbeat IPC: 0.2455 cumulative IPC: 0.8208 (Simulation time: 01 hr 43 min 32 sec)
*** Reached end of trace: (0, "traces/sp.A.champsimtrace")
Heartbeat CPU 0 instructions: 600000002 cycles: 710521243 heartbeat IPC: 0.2518 cumulative IPC: 0.7884 (Simulation time: 01 hr 49 min 12 sec)
Heartbeat CPU 0 instructions: 610000000 cycles: 735520949 heartbeat IPC: 0.4 cumulative IPC: 0.7749 (Simulation time: 01 hr 51 min 49 sec)
Heartbeat CPU 0 instructions: 620000001 cycles: 739247861 heartbeat IPC: 2.683 cumulative IPC: 0.7847 (Simulation time: 01 hr 52 min 37 sec)
Heartbeat CPU 0 instructions: 630000003 cycles: 745333204 heartbeat IPC: 1.643 cumulative IPC: 0.7919 (Simulation time: 01 hr 53 min 44 sec)
Heartbeat CPU 0 instructions: 640000004 cycles: 751485415 heartbeat IPC: 1.625 cumulative IPC: 0.7988 (Simulation time: 01 hr 54 min 52 sec)
Heartbeat CPU 0 instructions: 650000001 cycles: 757608531 heartbeat IPC: 1.633 cumulative IPC: 0.8057 (Simulation time: 01 hr 55 min 56 sec)
Simulation finished CPU 0 instructions: 600000003 cycles: 744727475 cumulative IPC: 0.8057 (Simulation time: 01 hr 55 min 56 sec)
Simulation complete CPU 0 instructions: 600000003 cycles: 744727475 cumulative IPC: 0.8057 (Simulation time: 01 hr 55 min 56 sec)

ChampSim completed all CPUs

=== Simulation ===
CPU 0 runs traces/sp.A.champsimtrace
Region of Interest Statistics

CPU 0 cumulative IPC: 0.8057 instructions: 600000003 cycles: 744727475
CPU 0 Branch Prediction Accuracy: 98.91% MPKI: 0.226 Average ROB Occupancy at Mispredict: 235.6
Branch type MPKI
BRANCH_DIRECT_JUMP: 5e-06
BRANCH_INDIRECT: 7.5e-05
BRANCH_CONDITIONAL: 0.226
BRANCH_DIRECT_CALL: 2e-05
BRANCH_INDIRECT_CALL: 3.17e-05
BRANCH_RETURN: 3.67e-05

LLC TOTAL        ACCESS:    5274066 HIT:     435485 MISS:    4838581
LLC LOAD         ACCESS:    2303702 HIT:     238641 MISS:    2065061
LLC RFO          ACCESS:     922634 HIT:      28488 MISS:     894146
LLC PREFETCH     ACCESS:          0 HIT:          0 MISS:          0
LLC WRITE        ACCESS:    2044252 HIT:     168218 MISS:    1876034
LLC TRANSLATION  ACCESS:       3478 HIT:        138 MISS:       3340
LLC PREFETCH REQUESTED:          0 ISSUED:          0 USEFUL:          0 USELESS:          0
LLC AVERAGE MISS LATENCY: 739 cycles
cpu0_DTLB TOTAL        ACCESS:  125982541 HIT:  125154453 MISS:     828088
cpu0_DTLB LOAD         ACCESS:  125982541 HIT:  125154453 MISS:     828088
cpu0_DTLB RFO          ACCESS:          0 HIT:          0 MISS:          0
cpu0_DTLB PREFETCH     ACCESS:          0 HIT:          0 MISS:          0
cpu0_DTLB WRITE        ACCESS:          0 HIT:          0 MISS:          0
cpu0_DTLB TRANSLATION  ACCESS:          0 HIT:          0 MISS:          0
cpu0_DTLB PREFETCH REQUESTED:          0 ISSUED:          0 USEFUL:          0 USELESS:          0
cpu0_DTLB AVERAGE MISS LATENCY: 20.65 cycles
cpu0_ITLB TOTAL        ACCESS:     224922 HIT:     224685 MISS:        237
cpu0_ITLB LOAD         ACCESS:     224922 HIT:     224685 MISS:        237
cpu0_ITLB RFO          ACCESS:          0 HIT:          0 MISS:          0
cpu0_ITLB PREFETCH     ACCESS:          0 HIT:          0 MISS:          0
cpu0_ITLB WRITE        ACCESS:          0 HIT:          0 MISS:          0
cpu0_ITLB TRANSLATION  ACCESS:          0 HIT:          0 MISS:          0
cpu0_ITLB PREFETCH REQUESTED:          0 ISSUED:          0 USEFUL:          0 USELESS:          0
cpu0_ITLB AVERAGE MISS LATENCY: 320.3 cycles
cpu0_L1D TOTAL        ACCESS:  191141133 HIT:  176440647 MISS:   14700486
cpu0_L1D LOAD         ACCESS:  155899003 HIT:  145318350 MISS:   10580653
cpu0_L1D RFO          ACCESS:          0 HIT:          0 MISS:          0
cpu0_L1D PREFETCH     ACCESS:          0 HIT:          0 MISS:          0
cpu0_L1D WRITE        ACCESS:   35194250 HIT:   31092701 MISS:    4101549
cpu0_L1D TRANSLATION  ACCESS:      47880 HIT:      29596 MISS:      18284
cpu0_L1D PREFETCH REQUESTED:          0 ISSUED:          0 USEFUL:          0 USELESS:          0
cpu0_L1D AVERAGE MISS LATENCY: 177.4 cycles
cpu0_L1I TOTAL        ACCESS:     233274 HIT:     230467 MISS:       2807
cpu0_L1I LOAD         ACCESS:     233274 HIT:     230467 MISS:       2807
cpu0_L1I RFO          ACCESS:          0 HIT:          0 MISS:          0
cpu0_L1I PREFETCH     ACCESS:          0 HIT:          0 MISS:          0
cpu0_L1I WRITE        ACCESS:          0 HIT:          0 MISS:          0
cpu0_L1I TRANSLATION  ACCESS:          0 HIT:          0 MISS:          0
cpu0_L1I PREFETCH REQUESTED:          0 ISSUED:          0 USEFUL:          0 USELESS:          0
cpu0_L1I AVERAGE MISS LATENCY: 543.2 cycles
cpu0_L2C TOTAL        ACCESS:    5442567 HIT:    2212377 MISS:    3230190
cpu0_L2C LOAD         ACCESS:    2444949 HIT:     141241 MISS:    2303708
cpu0_L2C RFO          ACCESS:     923196 HIT:        562 MISS:     922634
cpu0_L2C PREFETCH     ACCESS:          0 HIT:          0 MISS:          0
cpu0_L2C WRITE        ACCESS:    2056139 HIT:    2055769 MISS:        370
cpu0_L2C TRANSLATION  ACCESS:      18283 HIT:      14805 MISS:       3478
cpu0_L2C PREFETCH REQUESTED:          0 ISSUED:          0 USEFUL:          0 USELESS:          0
cpu0_L2C AVERAGE MISS LATENCY: 1128 cycles
cpu0_STLB TOTAL        ACCESS:     576174 HIT:     528323 MISS:      47851
cpu0_STLB LOAD         ACCESS:     576174 HIT:     528323 MISS:      47851
cpu0_STLB RFO          ACCESS:          0 HIT:          0 MISS:          0
cpu0_STLB PREFETCH     ACCESS:          0 HIT:          0 MISS:          0
cpu0_STLB WRITE        ACCESS:          0 HIT:          0 MISS:          0
cpu0_STLB TRANSLATION  ACCESS:          0 HIT:          0 MISS:          0
cpu0_STLB PREFETCH REQUESTED:          0 ISSUED:          0 USEFUL:          0 USELESS:          0
cpu0_STLB AVERAGE MISS LATENCY: 373.7 cycles

DRAM Statistics

Channel 0 RQ ROW_BUFFER_HIT:     733073
  ROW_BUFFER_MISS:    2171876
 AVG DBUS CONGESTED CYCLE: 3.97
WQ ROW_BUFFER_HIT: Channel 0 
  ROW_BUFFER_MISS:     665620
  FULL:    1240356
