WARNING: physical memory size is smaller than virtual memory size.

*** ChampSim Multicore Out-of-Order Simulator ***
Warmup Instructions: 50000000
Simulation Instructions: 600000000
Number of CPUs: 1
Page size: 4096

Off-chip DRAM Size: 4 GiB Channels: 1 Width: 64-bit Data Race: 3200 MT/s
Heartbeat CPU 0 instructions: 10000001 cycles: 2881056 heartbeat IPC: 3.471 cumulative IPC: 3.471 (Simulation time: 00 hr 01 min 00 sec)
Heartbeat CPU 0 instructions: 20000001 cycles: 5381056 heartbeat IPC: 4 cumulative IPC: 3.717 (Simulation time: 00 hr 01 min 54 sec)
Heartbeat CPU 0 instructions: 30000001 cycles: 7881056 heartbeat IPC: 4 cumulative IPC: 3.807 (Simulation time: 00 hr 02 min 47 sec)
Heartbeat CPU 0 instructions: 40000001 cycles: 10381056 heartbeat IPC: 4 cumulative IPC: 3.853 (Simulation time: 00 hr 03 min 40 sec)
Heartbeat CPU 0 instructions: 50000001 cycles: 12881056 heartbeat IPC: 4 cumulative IPC: 3.882 (Simulation time: 00 hr 04 min 34 sec)
Warmup finished CPU 0 instructions: 50000001 cycles: 12881057 cumulative IPC: 3.882 (Simulation time: 00 hr 04 min 34 sec)
Warmup complete CPU 0 instructions: 50000001 cycles: 12881057 cumulative IPC: 3.882 (Simulation time: 00 hr 04 min 34 sec)
Heartbeat CPU 0 instructions: 60000000 cycles: 16521429 heartbeat IPC: 2.747 cumulative IPC: 2.747 (Simulation time: 00 hr 05 min 50 sec)
Heartbeat CPU 0 instructions: 70000003 cycles: 20354061 heartbeat IPC: 2.609 cumulative IPC: 2.676 (Simulation time: 00 hr 07 min 22 sec)
Heartbeat CPU 0 instructions: 80000001 cycles: 23969270 heartbeat IPC: 2.766 cumulative IPC: 2.706 (Simulation time: 00 hr 08 min 39 sec)
Heartbeat CPU 0 instructions: 90000004 cycles: 27575924 heartbeat IPC: 2.773 cumulative IPC: 2.722 (Simulation time: 00 hr 09 min 55 sec)
Heartbeat CPU 0 instructions: 100000000 cycles: 31480896 heartbeat IPC: 2.561 cumulative IPC: 2.688 (Simulation time: 00 hr 11 min 14 sec)
Heartbeat CPU 0 instructions: 110000004 cycles: 34211547 heartbeat IPC: 3.662 cumulative IPC: 2.813 (Simulation time: 00 hr 12 min 18 sec)
Heartbeat CPU 0 instructions: 120000000 cycles: 36950388 heartbeat IPC: 3.651 cumulative IPC: 2.908 (Simulation time: 00 hr 13 min 22 sec)
Heartbeat CPU 0 instructions: 130000000 cycles: 41803167 heartbeat IPC: 2.061 cumulative IPC: 2.766 (Simulation time: 00 hr 14 min 54 sec)
Heartbeat CPU 0 instructions: 140000004 cycles: 47954361 heartbeat IPC: 1.626 cumulative IPC: 2.566 (Simulation time: 00 hr 16 min 44 sec)
Heartbeat CPU 0 instructions: 150000001 cycles: 55157326 heartbeat IPC: 1.388 cumulative IPC: 2.365 (Simulation time: 00 hr 18 min 47 sec)
Heartbeat CPU 0 instructions: 160000002 cycles: 62124647 heartbeat IPC: 1.435 cumulative IPC: 2.234 (Simulation time: 00 hr 20 min 46 sec)
Heartbeat CPU 0 instructions: 170000000 cycles: 69260734 heartbeat IPC: 1.401 cumulative IPC: 2.128 (Simulation time: 00 hr 22 min 48 sec)
Heartbeat CPU 0 instructions: 180000000 cycles: 76367796 heartbeat IPC: 1.407 cumulative IPC: 2.048 (Simulation time: 00 hr 24 min 48 sec)
Heartbeat CPU 0 instructions: 190000000 cycles: 82983948 heartbeat IPC: 1.511 cumulative IPC: 1.997 (Simulation time: 00 hr 26 min 43 sec)
Heartbeat CPU 0 instructions: 200000003 cycles: 87943524 heartbeat IPC: 2.016 cumulative IPC: 1.998 (Simulation time: 00 hr 28 min 17 sec)
Heartbeat CPU 0 instructions: 210000000 cycles: 93188099 heartbeat IPC: 1.907 cumulative IPC: 1.992 (Simulation time: 00 hr 29 min 54 sec)
Heartbeat CPU 0 instructions: 220000004 cycles: 98767471 heartbeat IPC: 1.792 cumulative IPC: 1.979 (Simulation time: 00 hr 31 min 35 sec)
Heartbeat CPU 0 instructions: 230000000 cycles: 104343907 heartbeat IPC: 1.793 cumulative IPC: 1.968 (Simulation time: 00 hr 33 min 17 sec)
Heartbeat CPU 0 instructions: 240000003 cycles: 110042747 heartbeat IPC: 1.755 cumulative IPC: 1.956 (Simulation time: 00 hr 34 min 59 sec)
Heartbeat CPU 0 instructions: 250000002 cycles: 115816272 heartbeat IPC: 1.732 cumulative IPC: 1.943 (Simulation time: 00 hr 36 min 43 sec)
Heartbeat CPU 0 instructions: 260000000 cycles: 121437256 heartbeat IPC: 1.779 cumulative IPC: 1.934 (Simulation time: 00 hr 38 min 26 sec)
Heartbeat CPU 0 instructions: 270000001 cycles: 126914498 heartbeat IPC: 1.826 cumulative IPC: 1.929 (Simulation time: 00 hr 40 min 08 sec)
Heartbeat CPU 0 instructions: 280000001 cycles: 132475045 heartbeat IPC: 1.798 cumulative IPC: 1.923 (Simulation time: 00 hr 41 min 49 sec)
Heartbeat CPU 0 instructions: 290000000 cycles: 192339317 heartbeat IPC: 0.167 cumulative IPC: 1.337 (Simulation time: 00 hr 53 min 20 sec)
Heartbeat CPU 0 instructions: 300000001 cycles: 194841707 heartbeat IPC: 3.996 cumulative IPC: 1.374 (Simulation time: 00 hr 54 min 23 sec)
Heartbeat CPU 0 instructions: 310000000 cycles: 197344084 heartbeat IPC: 3.996 cumulative IPC: 1.409 (Simulation time: 00 hr 55 min 22 sec)
Heartbeat CPU 0 instructions: 320000002 cycles: 199846515 heartbeat IPC: 3.996 cumulative IPC: 1.444 (Simulation time: 00 hr 56 min 22 sec)
Heartbeat CPU 0 instructions: 330000004 cycles: 202348852 heartbeat IPC: 3.996 cumulative IPC: 1.478 (Simulation time: 00 hr 57 min 21 sec)
Heartbeat CPU 0 instructions: 340000004 cycles: 204851240 heartbeat IPC: 3.996 cumulative IPC: 1.511 (Simulation time: 00 hr 58 min 21 sec)
Heartbeat CPU 0 instructions: 350000003 cycles: 207353633 heartbeat IPC: 3.996 cumulative IPC: 1.543 (Simulation time: 00 hr 59 min 29 sec)
Heartbeat CPU 0 instructions: 360000002 cycles: 209856023 heartbeat IPC: 3.996 cumulative IPC: 1.574 (Simulation time: 01 hr 00 min 30 sec)
Heartbeat CPU 0 instructions: 370000004 cycles: 212358372 heartbeat IPC: 3.996 cumulative IPC: 1.604 (Simulation time: 01 hr 01 min 30 sec)
Heartbeat CPU 0 instructions: 380000003 cycles: 214860879 heartbeat IPC: 3.996 cumulative IPC: 1.634 (Simulation time: 01 hr 02 min 29 sec)
Heartbeat CPU 0 instructions: 390000000 cycles: 217363267 heartbeat IPC: 3.996 cumulative IPC: 1.663 (Simulation time: 01 hr 03 min 29 sec)
Heartbeat CPU 0 instructions: 400000002 cycles: 219866901 heartbeat IPC: 3.994 cumulative IPC: 1.691 (Simulation time: 01 hr 04 min 29 sec)
Heartbeat CPU 0 instructions: 410000002 cycles: 222369841 heartbeat IPC: 3.995 cumulative IPC: 1.718 (Simulation time: 01 hr 05 min 28 sec)
Heartbeat CPU 0 instructions: 420000000 cycles: 224872503 heartbeat IPC: 3.996 cumulative IPC: 1.745 (Simulation time: 01 hr 06 min 28 sec)
Heartbeat CPU 0 instructions: 430000001 cycles: 227374892 heartbeat IPC: 3.996 cumulative IPC: 1.772 (Simulation time: 01 hr 07 min 29 sec)
Heartbeat CPU 0 instructions: 440000000 cycles: 229878568 heartbeat IPC: 3.994 cumulative IPC: 1.797 (Simulation time: 01 hr 08 min 28 sec)
Heartbeat CPU 0 instructions: 450000001 cycles: 232380976 heartbeat IPC: 3.996 cumulative IPC: 1.822 (Simulation time: 01 hr 09 min 27 sec)
Heartbeat CPU 0 instructions: 460000002 cycles: 234884542 heartbeat IPC: 3.994 cumulative IPC: 1.847 (Simulation time: 01 hr 10 min 26 sec)
Heartbeat CPU 0 instructions: 470000001 cycles: 237388287 heartbeat IPC: 3.994 cumulative IPC: 1.871 (Simulation time: 01 hr 11 min 25 sec)
Heartbeat CPU 0 instructions: 480000000 cycles: 239890675 heartbeat IPC: 3.996 cumulative IPC: 1.894 (Simulation time: 01 hr 12 min 25 sec)
Heartbeat CPU 0 instructions: 490000001 cycles: 242394181 heartbeat IPC: 3.994 cumulative IPC: 1.917 (Simulation time: 01 hr 13 min 24 sec)
Heartbeat CPU 0 instructions: 500000004 cycles: 244897150 heartbeat IPC: 3.995 cumulative IPC: 1.94 (Simulation time: 01 hr 14 min 23 sec)
Heartbeat CPU 0 instructions: 510000000 cycles: 250570037 heartbeat IPC: 1.763 cumulative IPC: 1.935 (Simulation time: 01 hr 16 min 01 sec)
Heartbeat CPU 0 instructions: 520000002 cycles: 364959833 heartbeat IPC: 0.08742 cumulative IPC: 1.335 (Simulation time: 01 hr 40 min 04 sec)
Heartbeat CPU 0 instructions: 530000001 cycles: 444327931 heartbeat IPC: 0.126 cumulative IPC: 1.113 (Simulation time: 01 hr 57 min 02 sec)
Heartbeat CPU 0 instructions: 540000001 cycles: 467219142 heartbeat IPC: 0.4368 cumulative IPC: 1.078 (Simulation time: 02 hr 02 min 21 sec)
Heartbeat CPU 0 instructions: 550000001 cycles: 490813646 heartbeat IPC: 0.4238 cumulative IPC: 1.046 (Simulation time: 02 hr 07 min 53 sec)
Heartbeat CPU 0 instructions: 560000003 cycles: 514743579 heartbeat IPC: 0.4179 cumulative IPC: 1.016 (Simulation time: 02 hr 13 min 27 sec)
Heartbeat CPU 0 instructions: 570000003 cycles: 540282912 heartbeat IPC: 0.3916 cumulative IPC: 0.986 (Simulation time: 02 hr 19 min 23 sec)
Heartbeat CPU 0 instructions: 580000002 cycles: 567682919 heartbeat IPC: 0.365 cumulative IPC: 0.9553 (Simulation time: 02 hr 25 min 41 sec)
Heartbeat CPU 0 instructions: 590000000 cycles: 592828369 heartbeat IPC: 0.3977 cumulative IPC: 0.9311 (Simulation time: 02 hr 31 min 33 sec)
*** Reached end of trace: (0, "traces/sp.A.champsimtrace")
Heartbeat CPU 0 instructions: 600000001 cycles: 617931699 heartbeat IPC: 0.3984 cumulative IPC: 0.909 (Simulation time: 02 hr 37 min 26 sec)
Heartbeat CPU 0 instructions: 610000004 cycles: 644211148 heartbeat IPC: 0.3805 cumulative IPC: 0.887 (Simulation time: 02 hr 42 min 24 sec)
Heartbeat CPU 0 instructions: 620000001 cycles: 647193613 heartbeat IPC: 3.353 cumulative IPC: 0.8986 (Simulation time: 02 hr 43 min 34 sec)
Heartbeat CPU 0 instructions: 630000001 cycles: 650162984 heartbeat IPC: 3.368 cumulative IPC: 0.9101 (Simulation time: 02 hr 44 min 43 sec)
Heartbeat CPU 0 instructions: 640000000 cycles: 653139785 heartbeat IPC: 3.359 cumulative IPC: 0.9215 (Simulation time: 02 hr 45 min 52 sec)
Heartbeat CPU 0 instructions: 650000001 cycles: 656359989 heartbeat IPC: 3.105 cumulative IPC: 0.9324 (Simulation time: 02 hr 47 min 04 sec)
Simulation finished CPU 0 instructions: 600000000 cycles: 643478933 cumulative IPC: 0.9324 (Simulation time: 02 hr 47 min 04 sec)
Simulation complete CPU 0 instructions: 600000000 cycles: 643478933 cumulative IPC: 0.9324 (Simulation time: 02 hr 47 min 04 sec)

ChampSim completed all CPUs

=== Simulation ===
CPU 0 runs traces/sp.A.champsimtrace
Region of Interest Statistics

CPU 0 cumulative IPC: 0.9324 instructions: 600000000 cycles: 643478933
CPU 0 Branch Prediction Accuracy: 98.91% MPKI: 0.226 Average ROB Occupancy at Mispredict: 233
Branch type MPKI
BRANCH_DIRECT_JUMP: 5e-06
BRANCH_INDIRECT: 7.67e-05
BRANCH_CONDITIONAL: 0.226
BRANCH_DIRECT_CALL: 2e-05
BRANCH_INDIRECT_CALL: 3.33e-05
BRANCH_RETURN: 3.67e-05

LLC TOTAL        ACCESS:    8119864 HIT:    4455659 MISS:    3664205
LLC LOAD         ACCESS:    2308146 HIT:    1585409 MISS:     722737
LLC RFO          ACCESS:     922677 HIT:      69407 MISS:     853270
LLC PREFETCH     ACCESS:    2839418 HIT:    1626722 MISS:    1212696
LLC WRITE        ACCESS:    2046158 HIT:    1173909 MISS:     872249
LLC TRANSLATION  ACCESS:       3465 HIT:        212 MISS:       3253
LLC PREFETCH REQUESTED:    2839418 ISSUED:    2839418 USEFUL:     971159 USELESS:      15195
LLC AVERAGE MISS LATENCY: 1165 cycles
cpu0_DTLB TOTAL        ACCESS:  125820944 HIT:  124927406 MISS:     893538
cpu0_DTLB LOAD         ACCESS:  125820944 HIT:  124927406 MISS:     893538
cpu0_DTLB RFO          ACCESS:          0 HIT:          0 MISS:          0
cpu0_DTLB PREFETCH     ACCESS:          0 HIT:          0 MISS:          0
cpu0_DTLB WRITE        ACCESS:          0 HIT:          0 MISS:          0
cpu0_DTLB TRANSLATION  ACCESS:          0 HIT:          0 MISS:          0
cpu0_DTLB PREFETCH REQUESTED:          0 ISSUED:          0 USEFUL:          0 USELESS:          0
cpu0_DTLB AVERAGE MISS LATENCY: 19.25 cycles
cpu0_ITLB TOTAL        ACCESS:     223835 HIT:     223589 MISS:        246
cpu0_ITLB LOAD         ACCESS:     223835 HIT:     223589 MISS:        246
cpu0_ITLB RFO          ACCESS:          0 HIT:          0 MISS:          0
cpu0_ITLB PREFETCH     ACCESS:          0 HIT:          0 MISS:          0
cpu0_ITLB WRITE        ACCESS:          0 HIT:          0 MISS:          0
cpu0_ITLB TRANSLATION  ACCESS:          0 HIT:          0 MISS:          0
cpu0_ITLB PREFETCH REQUESTED:          0 ISSUED:          0 USEFUL:          0 USELESS:          0
cpu0_ITLB AVERAGE MISS LATENCY: 260.6 cycles
cpu0_L1D TOTAL        ACCESS:  191394083 HIT:  178283091 MISS:   13110992
cpu0_L1D LOAD         ACCESS:  156151835 HIT:  147334017 MISS:    8817818
cpu0_L1D RFO          ACCESS:          0 HIT:          0 MISS:          0
cpu0_L1D PREFETCH     ACCESS:          0 HIT:          0 MISS:          0
cpu0_L1D WRITE        ACCESS:   35194374 HIT:   30919467 MISS:    4274907
cpu0_L1D TRANSLATION  ACCESS:      47874 HIT:      29607 MISS:      18267
cpu0_L1D PREFETCH REQUESTED:          0 ISSUED:          0 USEFUL:          0 USELESS:          0
cpu0_L1D AVERAGE MISS LATENCY: 152.1 cycles
cpu0_L1I TOTAL        ACCESS:     232155 HIT:     229319 MISS:       2836
cpu0_L1I LOAD         ACCESS:     232155 HIT:     229319 MISS:       2836
cpu0_L1I RFO          ACCESS:          0 HIT:          0 MISS:          0
cpu0_L1I PREFETCH     ACCESS:          0 HIT:          0 MISS:          0
cpu0_L1I WRITE        ACCESS:          0 HIT:          0 MISS:          0
cpu0_L1I TRANSLATION  ACCESS:          0 HIT:          0 MISS:          0
cpu0_L1I PREFETCH REQUESTED:          0 ISSUED:          0 USEFUL:          0 USELESS:          0
cpu0_L1I AVERAGE MISS LATENCY: 547.1 cycles
cpu0_L2C TOTAL        ACCESS:    5428125 HIT:    2193488 MISS:    3234637
cpu0_L2C LOAD         ACCESS:    2427855 HIT:     119708 MISS:    2308147
cpu0_L2C RFO          ACCESS:     924057 HIT:       1380 MISS:     922677
cpu0_L2C PREFETCH     ACCESS:          0 HIT:          0 MISS:          0
cpu0_L2C WRITE        ACCESS:    2057949 HIT:    2057601 MISS:        348
cpu0_L2C TRANSLATION  ACCESS:      18264 HIT:      14799 MISS:       3465
cpu0_L2C PREFETCH REQUESTED:          0 ISSUED:          0 USEFUL:          0 USELESS:          0
cpu0_L2C AVERAGE MISS LATENCY: 807.9 cycles
cpu0_STLB TOTAL        ACCESS:     624451 HIT:     576603 MISS:      47848
cpu0_STLB LOAD         ACCESS:     624451 HIT:     576603 MISS:      47848
cpu0_STLB RFO          ACCESS:          0 HIT:          0 MISS:          0
cpu0_STLB PREFETCH     ACCESS:          0 HIT:          0 MISS:          0
cpu0_STLB WRITE        ACCESS:          0 HIT:          0 MISS:          0
cpu0_STLB TRANSLATION  ACCESS:          0 HIT:          0 MISS:          0
cpu0_STLB PREFETCH REQUESTED:          0 ISSUED:          0 USEFUL:          0 USELESS:          0
cpu0_STLB AVERAGE MISS LATENCY: 360.3 cycles

DRAM Statistics

Channel 0 RQ ROW_BUFFER_HIT:     873868
  ROW_BUFFER_MISS:    1649532
 AVG DBUS CONGESTED CYCLE: 3.966
WQ ROW_BUFFER_HIT: Channel 0 
  ROW_BUFFER_MISS:     432669
  FULL:    1183017
Final OPTGen Hits: 53407
Final OPTGen Access: 54351
Final OPTGEN Hit Rate: 98.2632
