WARNING: physical memory size is smaller than virtual memory size.

*** ChampSim Multicore Out-of-Order Simulator ***
Warmup Instructions: 50000000
Simulation Instructions: 600000000
Number of CPUs: 1
Page size: 4096

CPU 0 Tage branch predictor
Off-chip DRAM Size: 4 GiB Channels: 1 Width: 64-bit Data Race: 3200 MT/s
Heartbeat CPU 0 instructions: 10000003 cycles: 2881057 heartbeat IPC: 3.471 cumulative IPC: 3.471 (Simulation time: 00 hr 00 min 42 sec)
Heartbeat CPU 0 instructions: 20000003 cycles: 5381057 heartbeat IPC: 4 cumulative IPC: 3.717 (Simulation time: 00 hr 01 min 20 sec)
Heartbeat CPU 0 instructions: 30000003 cycles: 7881057 heartbeat IPC: 4 cumulative IPC: 3.807 (Simulation time: 00 hr 02 min 01 sec)
Heartbeat CPU 0 instructions: 40000003 cycles: 10381057 heartbeat IPC: 4 cumulative IPC: 3.853 (Simulation time: 00 hr 02 min 41 sec)
Heartbeat CPU 0 instructions: 50000003 cycles: 12881057 heartbeat IPC: 4 cumulative IPC: 3.882 (Simulation time: 00 hr 03 min 22 sec)
Warmup finished CPU 0 instructions: 50000003 cycles: 12881058 cumulative IPC: 3.882 (Simulation time: 00 hr 03 min 22 sec)
Warmup complete CPU 0 instructions: 50000003 cycles: 12881058 cumulative IPC: 3.882 (Simulation time: 00 hr 03 min 22 sec)
Heartbeat CPU 0 instructions: 60000000 cycles: 16255438 heartbeat IPC: 2.964 cumulative IPC: 2.964 (Simulation time: 00 hr 04 min 14 sec)
Heartbeat CPU 0 instructions: 70000004 cycles: 19652139 heartbeat IPC: 2.944 cumulative IPC: 2.954 (Simulation time: 00 hr 05 min 11 sec)
Heartbeat CPU 0 instructions: 80000000 cycles: 23056411 heartbeat IPC: 2.937 cumulative IPC: 2.948 (Simulation time: 00 hr 06 min 08 sec)
Heartbeat CPU 0 instructions: 90000003 cycles: 26424931 heartbeat IPC: 2.969 cumulative IPC: 2.953 (Simulation time: 00 hr 06 min 59 sec)
Heartbeat CPU 0 instructions: 100000000 cycles: 29832050 heartbeat IPC: 2.935 cumulative IPC: 2.95 (Simulation time: 00 hr 07 min 53 sec)
Heartbeat CPU 0 instructions: 110000001 cycles: 33203966 heartbeat IPC: 2.966 cumulative IPC: 2.952 (Simulation time: 00 hr 08 min 48 sec)
Heartbeat CPU 0 instructions: 120000001 cycles: 38037102 heartbeat IPC: 2.069 cumulative IPC: 2.783 (Simulation time: 00 hr 09 min 58 sec)
Heartbeat CPU 0 instructions: 130000002 cycles: 44576502 heartbeat IPC: 1.529 cumulative IPC: 2.524 (Simulation time: 00 hr 11 min 20 sec)
Heartbeat CPU 0 instructions: 140000004 cycles: 51663195 heartbeat IPC: 1.411 cumulative IPC: 2.321 (Simulation time: 00 hr 12 min 43 sec)
Heartbeat CPU 0 instructions: 150000000 cycles: 58639686 heartbeat IPC: 1.433 cumulative IPC: 2.185 (Simulation time: 00 hr 14 min 04 sec)
Heartbeat CPU 0 instructions: 160000001 cycles: 65645363 heartbeat IPC: 1.427 cumulative IPC: 2.085 (Simulation time: 00 hr 15 min 34 sec)
Heartbeat CPU 0 instructions: 170000001 cycles: 72603511 heartbeat IPC: 1.437 cumulative IPC: 2.009 (Simulation time: 00 hr 16 min 58 sec)
Heartbeat CPU 0 instructions: 180000002 cycles: 79570964 heartbeat IPC: 1.435 cumulative IPC: 1.949 (Simulation time: 00 hr 18 min 18 sec)
Heartbeat CPU 0 instructions: 190000002 cycles: 86287109 heartbeat IPC: 1.489 cumulative IPC: 1.907 (Simulation time: 00 hr 19 min 39 sec)
Heartbeat CPU 0 instructions: 200000000 cycles: 92164971 heartbeat IPC: 1.701 cumulative IPC: 1.892 (Simulation time: 00 hr 20 min 52 sec)
Heartbeat CPU 0 instructions: 210000001 cycles: 97972993 heartbeat IPC: 1.722 cumulative IPC: 1.88 (Simulation time: 00 hr 22 min 04 sec)
Heartbeat CPU 0 instructions: 220000001 cycles: 103809292 heartbeat IPC: 1.713 cumulative IPC: 1.87 (Simulation time: 00 hr 23 min 16 sec)
Heartbeat CPU 0 instructions: 230000004 cycles: 109627396 heartbeat IPC: 1.719 cumulative IPC: 1.861 (Simulation time: 00 hr 24 min 27 sec)
Heartbeat CPU 0 instructions: 240000001 cycles: 115516742 heartbeat IPC: 1.698 cumulative IPC: 1.851 (Simulation time: 00 hr 25 min 38 sec)
Heartbeat CPU 0 instructions: 250000003 cycles: 121327194 heartbeat IPC: 1.721 cumulative IPC: 1.844 (Simulation time: 00 hr 26 min 48 sec)
Heartbeat CPU 0 instructions: 260000002 cycles: 127165785 heartbeat IPC: 1.713 cumulative IPC: 1.838 (Simulation time: 00 hr 28 min 00 sec)
Heartbeat CPU 0 instructions: 270000003 cycles: 133009154 heartbeat IPC: 1.711 cumulative IPC: 1.831 (Simulation time: 00 hr 29 min 16 sec)
Heartbeat CPU 0 instructions: 280000000 cycles: 138884794 heartbeat IPC: 1.702 cumulative IPC: 1.825 (Simulation time: 00 hr 30 min 31 sec)
Heartbeat CPU 0 instructions: 290000001 cycles: 194832507 heartbeat IPC: 0.1787 cumulative IPC: 1.319 (Simulation time: 00 hr 37 min 17 sec)
Heartbeat CPU 0 instructions: 300000002 cycles: 197332644 heartbeat IPC: 4 cumulative IPC: 1.355 (Simulation time: 00 hr 38 min 07 sec)
Heartbeat CPU 0 instructions: 310000001 cycles: 199833627 heartbeat IPC: 3.998 cumulative IPC: 1.391 (Simulation time: 00 hr 38 min 58 sec)
Heartbeat CPU 0 instructions: 320000001 cycles: 202335307 heartbeat IPC: 3.997 cumulative IPC: 1.425 (Simulation time: 00 hr 39 min 46 sec)
Heartbeat CPU 0 instructions: 330000003 cycles: 204835523 heartbeat IPC: 4 cumulative IPC: 1.459 (Simulation time: 00 hr 40 min 33 sec)
Heartbeat CPU 0 instructions: 340000000 cycles: 207337430 heartbeat IPC: 3.997 cumulative IPC: 1.491 (Simulation time: 00 hr 41 min 19 sec)
Heartbeat CPU 0 instructions: 350000004 cycles: 209837661 heartbeat IPC: 4 cumulative IPC: 1.523 (Simulation time: 00 hr 42 min 05 sec)
Heartbeat CPU 0 instructions: 360000004 cycles: 212338329 heartbeat IPC: 3.999 cumulative IPC: 1.554 (Simulation time: 00 hr 42 min 51 sec)
Heartbeat CPU 0 instructions: 370000000 cycles: 214840224 heartbeat IPC: 3.997 cumulative IPC: 1.584 (Simulation time: 00 hr 43 min 36 sec)
Heartbeat CPU 0 instructions: 380000004 cycles: 217341852 heartbeat IPC: 3.997 cumulative IPC: 1.614 (Simulation time: 00 hr 44 min 23 sec)
Heartbeat CPU 0 instructions: 390000001 cycles: 219842273 heartbeat IPC: 3.999 cumulative IPC: 1.643 (Simulation time: 00 hr 45 min 09 sec)
Heartbeat CPU 0 instructions: 400000003 cycles: 222342359 heartbeat IPC: 4 cumulative IPC: 1.671 (Simulation time: 00 hr 45 min 54 sec)
Heartbeat CPU 0 instructions: 410000003 cycles: 224843327 heartbeat IPC: 3.998 cumulative IPC: 1.698 (Simulation time: 00 hr 46 min 39 sec)
Heartbeat CPU 0 instructions: 420000002 cycles: 227344534 heartbeat IPC: 3.998 cumulative IPC: 1.725 (Simulation time: 00 hr 47 min 29 sec)
Heartbeat CPU 0 instructions: 430000000 cycles: 229845420 heartbeat IPC: 3.999 cumulative IPC: 1.751 (Simulation time: 00 hr 48 min 20 sec)
Heartbeat CPU 0 instructions: 440000001 cycles: 232347600 heartbeat IPC: 3.997 cumulative IPC: 1.777 (Simulation time: 00 hr 49 min 03 sec)
Heartbeat CPU 0 instructions: 450000000 cycles: 234847882 heartbeat IPC: 4 cumulative IPC: 1.802 (Simulation time: 00 hr 49 min 47 sec)
Heartbeat CPU 0 instructions: 460000003 cycles: 237348401 heartbeat IPC: 3.999 cumulative IPC: 1.827 (Simulation time: 00 hr 50 min 30 sec)
Heartbeat CPU 0 instructions: 470000001 cycles: 239849303 heartbeat IPC: 3.999 cumulative IPC: 1.85 (Simulation time: 00 hr 51 min 15 sec)
Heartbeat CPU 0 instructions: 480000003 cycles: 242350084 heartbeat IPC: 3.999 cumulative IPC: 1.874 (Simulation time: 00 hr 51 min 59 sec)
Heartbeat CPU 0 instructions: 490000003 cycles: 244850222 heartbeat IPC: 4 cumulative IPC: 1.897 (Simulation time: 00 hr 52 min 43 sec)
Heartbeat CPU 0 instructions: 500000002 cycles: 247351377 heartbeat IPC: 3.998 cumulative IPC: 1.919 (Simulation time: 00 hr 53 min 28 sec)
Heartbeat CPU 0 instructions: 510000003 cycles: 255051327 heartbeat IPC: 1.299 cumulative IPC: 1.899 (Simulation time: 00 hr 55 min 02 sec)
Heartbeat CPU 0 instructions: 520000001 cycles: 349262446 heartbeat IPC: 0.1061 cumulative IPC: 1.397 (Simulation time: 01 hr 07 min 24 sec)
Heartbeat CPU 0 instructions: 530000002 cycles: 433719540 heartbeat IPC: 0.1184 cumulative IPC: 1.141 (Simulation time: 01 hr 18 min 04 sec)
Heartbeat CPU 0 instructions: 540000000 cycles: 467492484 heartbeat IPC: 0.2961 cumulative IPC: 1.078 (Simulation time: 01 hr 22 min 46 sec)
Heartbeat CPU 0 instructions: 550000002 cycles: 501344221 heartbeat IPC: 0.2954 cumulative IPC: 1.024 (Simulation time: 01 hr 27 min 25 sec)
Heartbeat CPU 0 instructions: 560000002 cycles: 534711852 heartbeat IPC: 0.2997 cumulative IPC: 0.9773 (Simulation time: 01 hr 32 min 04 sec)
Heartbeat CPU 0 instructions: 570000002 cycles: 567264436 heartbeat IPC: 0.3072 cumulative IPC: 0.938 (Simulation time: 01 hr 36 min 31 sec)
Heartbeat CPU 0 instructions: 580000000 cycles: 599172010 heartbeat IPC: 0.3134 cumulative IPC: 0.904 (Simulation time: 01 hr 40 min 59 sec)
Heartbeat CPU 0 instructions: 590000004 cycles: 631586261 heartbeat IPC: 0.3085 cumulative IPC: 0.8728 (Simulation time: 01 hr 45 min 41 sec)
*** Reached end of trace: (0, "traces/sp.A.champsimtrace")
Heartbeat CPU 0 instructions: 600000002 cycles: 663250081 heartbeat IPC: 0.3158 cumulative IPC: 0.8457 (Simulation time: 01 hr 50 min 35 sec)
Heartbeat CPU 0 instructions: 610000000 cycles: 688580046 heartbeat IPC: 0.3948 cumulative IPC: 0.8288 (Simulation time: 01 hr 53 min 31 sec)
Heartbeat CPU 0 instructions: 620000004 cycles: 691470802 heartbeat IPC: 3.459 cumulative IPC: 0.84 (Simulation time: 01 hr 54 min 18 sec)
Heartbeat CPU 0 instructions: 630000003 cycles: 694719554 heartbeat IPC: 3.078 cumulative IPC: 0.8506 (Simulation time: 01 hr 55 min 07 sec)
Heartbeat CPU 0 instructions: 640000004 cycles: 698101145 heartbeat IPC: 2.957 cumulative IPC: 0.861 (Simulation time: 01 hr 55 min 58 sec)
Heartbeat CPU 0 instructions: 650000000 cycles: 701482056 heartbeat IPC: 2.958 cumulative IPC: 0.8713 (Simulation time: 01 hr 56 min 49 sec)
Simulation finished CPU 0 instructions: 600000002 cycles: 688601000 cumulative IPC: 0.8713 (Simulation time: 01 hr 56 min 49 sec)
Simulation complete CPU 0 instructions: 600000002 cycles: 688601000 cumulative IPC: 0.8713 (Simulation time: 01 hr 56 min 49 sec)

ChampSim completed all CPUs

=== Simulation ===
CPU 0 runs traces/sp.A.champsimtrace
Region of Interest Statistics

CPU 0 cumulative IPC: 0.8713 instructions: 600000002 cycles: 688601000
CPU 0 Branch Prediction Accuracy: 99.98% MPKI: 0.003913 Average ROB Occupancy at Mispredict: 105.8
Branch type MPKI
BRANCH_DIRECT_JUMP: 5e-06
BRANCH_INDIRECT: 7.5e-05
BRANCH_CONDITIONAL: 0.00374
BRANCH_DIRECT_CALL: 2e-05
BRANCH_INDIRECT_CALL: 3.17e-05
BRANCH_RETURN: 3.67e-05

LLC TOTAL        ACCESS:    8173673 HIT:    2916435 MISS:    5257238
LLC LOAD         ACCESS:    2303653 HIT:    1255580 MISS:    1048073
LLC RFO          ACCESS:     922634 HIT:      30293 MISS:     892341
LLC PREFETCH     ACCESS:    2898950 HIT:    1439223 MISS:    1459727
LLC WRITE        ACCESS:    2044959 HIT:     191261 MISS:    1853698
LLC TRANSLATION  ACCESS:       3477 HIT:         78 MISS:       3399
LLC PREFETCH REQUESTED:    2898950 ISSUED:    2898950 USEFUL:    1106407 USELESS:      71300
LLC AVERAGE MISS LATENCY: 881.6 cycles
cpu0_DTLB TOTAL        ACCESS:  127094247 HIT:  126114356 MISS:     979891
cpu0_DTLB LOAD         ACCESS:  127094247 HIT:  126114356 MISS:     979891
cpu0_DTLB RFO          ACCESS:          0 HIT:          0 MISS:          0
cpu0_DTLB PREFETCH     ACCESS:          0 HIT:          0 MISS:          0
cpu0_DTLB WRITE        ACCESS:          0 HIT:          0 MISS:          0
cpu0_DTLB TRANSLATION  ACCESS:          0 HIT:          0 MISS:          0
cpu0_DTLB PREFETCH REQUESTED:          0 ISSUED:          0 USEFUL:          0 USELESS:          0
cpu0_DTLB AVERAGE MISS LATENCY: 17.21 cycles
cpu0_ITLB TOTAL        ACCESS:     241016 HIT:     240764 MISS:        252
cpu0_ITLB LOAD         ACCESS:     241016 HIT:     240764 MISS:        252
cpu0_ITLB RFO          ACCESS:          0 HIT:          0 MISS:          0
cpu0_ITLB PREFETCH     ACCESS:          0 HIT:          0 MISS:          0
cpu0_ITLB WRITE        ACCESS:          0 HIT:          0 MISS:          0
cpu0_ITLB TRANSLATION  ACCESS:          0 HIT:          0 MISS:          0
cpu0_ITLB PREFETCH REQUESTED:          0 ISSUED:          0 USEFUL:          0 USELESS:          0
cpu0_ITLB AVERAGE MISS LATENCY: 313.7 cycles
cpu0_L1D TOTAL        ACCESS:  193727874 HIT:  180372441 MISS:   13355433
cpu0_L1D LOAD         ACCESS:  158485765 HIT:  149589262 MISS:    8896503
cpu0_L1D RFO          ACCESS:          0 HIT:          0 MISS:          0
cpu0_L1D PREFETCH     ACCESS:          0 HIT:          0 MISS:          0
cpu0_L1D WRITE        ACCESS:   35194230 HIT:   30753577 MISS:    4440653
cpu0_L1D TRANSLATION  ACCESS:      47879 HIT:      29602 MISS:      18277
cpu0_L1D PREFETCH REQUESTED:          0 ISSUED:          0 USEFUL:          0 USELESS:          0
cpu0_L1D AVERAGE MISS LATENCY: 161.6 cycles
cpu0_L1I TOTAL        ACCESS:     251331 HIT:     248307 MISS:       3024
cpu0_L1I LOAD         ACCESS:     251331 HIT:     248307 MISS:       3024
cpu0_L1I RFO          ACCESS:          0 HIT:          0 MISS:          0
cpu0_L1I PREFETCH     ACCESS:          0 HIT:          0 MISS:          0
cpu0_L1I WRITE        ACCESS:          0 HIT:          0 MISS:          0
cpu0_L1I TRANSLATION  ACCESS:          0 HIT:          0 MISS:          0
cpu0_L1I PREFETCH REQUESTED:          0 ISSUED:          0 USEFUL:          0 USELESS:          0
cpu0_L1I AVERAGE MISS LATENCY: 546.1 cycles
cpu0_L2C TOTAL        ACCESS:    5424856 HIT:    2194710 MISS:    3230146
cpu0_L2C LOAD         ACCESS:    2426616 HIT:     122952 MISS:    2303664
cpu0_L2C RFO          ACCESS:     923513 HIT:        879 MISS:     922634
cpu0_L2C PREFETCH     ACCESS:          0 HIT:          0 MISS:          0
cpu0_L2C WRITE        ACCESS:    2056452 HIT:    2056081 MISS:        371
cpu0_L2C TRANSLATION  ACCESS:      18275 HIT:      14798 MISS:       3477
cpu0_L2C PREFETCH REQUESTED:          0 ISSUED:          0 USEFUL:          0 USELESS:          0
cpu0_L2C AVERAGE MISS LATENCY: 864.9 cycles
cpu0_STLB TOTAL        ACCESS:     735242 HIT:     687394 MISS:      47848
cpu0_STLB LOAD         ACCESS:     735242 HIT:     687394 MISS:      47848
cpu0_STLB RFO          ACCESS:          0 HIT:          0 MISS:          0
cpu0_STLB PREFETCH     ACCESS:          0 HIT:          0 MISS:          0
cpu0_STLB WRITE        ACCESS:          0 HIT:          0 MISS:          0
cpu0_STLB TRANSLATION  ACCESS:          0 HIT:          0 MISS:          0
cpu0_STLB PREFETCH REQUESTED:          0 ISSUED:          0 USEFUL:          0 USELESS:          0
cpu0_STLB AVERAGE MISS LATENCY: 347.9 cycles

DRAM Statistics

Channel 0 RQ ROW_BUFFER_HIT:     979391
  ROW_BUFFER_MISS:    2007735
 AVG DBUS CONGESTED CYCLE: 3.958
WQ ROW_BUFFER_HIT: Channel 0 
  ROW_BUFFER_MISS:     658486
  FULL:    1235177
