WARNING: physical memory size is smaller than virtual memory size.

*** ChampSim Multicore Out-of-Order Simulator ***
Warmup Instructions: 50000000
Simulation Instructions: 600000000
Number of CPUs: 1
Page size: 4096

CPU 0 Tage branch predictor
Off-chip DRAM Size: 4 GiB Channels: 1 Width: 64-bit Data Race: 3200 MT/s
Heartbeat CPU 0 instructions: 10000000 cycles: 2881055 heartbeat IPC: 3.471 cumulative IPC: 3.471 (Simulation time: 00 hr 00 min 49 sec)
Heartbeat CPU 0 instructions: 20000000 cycles: 5381055 heartbeat IPC: 4 cumulative IPC: 3.717 (Simulation time: 00 hr 01 min 34 sec)
Heartbeat CPU 0 instructions: 30000000 cycles: 7881055 heartbeat IPC: 4 cumulative IPC: 3.807 (Simulation time: 00 hr 02 min 18 sec)
Heartbeat CPU 0 instructions: 40000000 cycles: 10381055 heartbeat IPC: 4 cumulative IPC: 3.853 (Simulation time: 00 hr 03 min 04 sec)
Heartbeat CPU 0 instructions: 50000000 cycles: 12881055 heartbeat IPC: 4 cumulative IPC: 3.882 (Simulation time: 00 hr 03 min 50 sec)
Warmup finished CPU 0 instructions: 50000000 cycles: 12881056 cumulative IPC: 3.882 (Simulation time: 00 hr 03 min 50 sec)
Warmup complete CPU 0 instructions: 50000000 cycles: 12881056 cumulative IPC: 3.882 (Simulation time: 00 hr 03 min 50 sec)
Heartbeat CPU 0 instructions: 60000000 cycles: 16363940 heartbeat IPC: 2.871 cumulative IPC: 2.871 (Simulation time: 00 hr 04 min 54 sec)
Heartbeat CPU 0 instructions: 70000001 cycles: 20251190 heartbeat IPC: 2.573 cumulative IPC: 2.714 (Simulation time: 00 hr 06 min 00 sec)
Heartbeat CPU 0 instructions: 80000000 cycles: 24174730 heartbeat IPC: 2.549 cumulative IPC: 2.656 (Simulation time: 00 hr 07 min 05 sec)
Heartbeat CPU 0 instructions: 90000003 cycles: 28122015 heartbeat IPC: 2.533 cumulative IPC: 2.625 (Simulation time: 00 hr 08 min 14 sec)
Heartbeat CPU 0 instructions: 100000000 cycles: 33669746 heartbeat IPC: 1.803 cumulative IPC: 2.405 (Simulation time: 00 hr 09 min 32 sec)
Heartbeat CPU 0 instructions: 110000001 cycles: 40435844 heartbeat IPC: 1.478 cumulative IPC: 2.177 (Simulation time: 00 hr 10 min 58 sec)
Heartbeat CPU 0 instructions: 120000003 cycles: 47313024 heartbeat IPC: 1.454 cumulative IPC: 2.033 (Simulation time: 00 hr 12 min 30 sec)
Heartbeat CPU 0 instructions: 130000002 cycles: 54079707 heartbeat IPC: 1.478 cumulative IPC: 1.942 (Simulation time: 00 hr 14 min 04 sec)
Heartbeat CPU 0 instructions: 140000004 cycles: 60882795 heartbeat IPC: 1.47 cumulative IPC: 1.875 (Simulation time: 00 hr 15 min 33 sec)
Heartbeat CPU 0 instructions: 150000000 cycles: 67601761 heartbeat IPC: 1.488 cumulative IPC: 1.827 (Simulation time: 00 hr 17 min 05 sec)
Heartbeat CPU 0 instructions: 160000001 cycles: 74270385 heartbeat IPC: 1.5 cumulative IPC: 1.792 (Simulation time: 00 hr 18 min 41 sec)
Heartbeat CPU 0 instructions: 170000001 cycles: 80954377 heartbeat IPC: 1.496 cumulative IPC: 1.763 (Simulation time: 00 hr 20 min 15 sec)
Heartbeat CPU 0 instructions: 180000002 cycles: 87674301 heartbeat IPC: 1.488 cumulative IPC: 1.738 (Simulation time: 00 hr 21 min 47 sec)
Heartbeat CPU 0 instructions: 190000002 cycles: 94127323 heartbeat IPC: 1.55 cumulative IPC: 1.723 (Simulation time: 00 hr 23 min 19 sec)
Heartbeat CPU 0 instructions: 200000000 cycles: 99897410 heartbeat IPC: 1.733 cumulative IPC: 1.724 (Simulation time: 00 hr 24 min 51 sec)
Heartbeat CPU 0 instructions: 210000001 cycles: 106214307 heartbeat IPC: 1.583 cumulative IPC: 1.714 (Simulation time: 00 hr 26 min 25 sec)
Heartbeat CPU 0 instructions: 220000001 cycles: 112924144 heartbeat IPC: 1.49 cumulative IPC: 1.699 (Simulation time: 00 hr 28 min 02 sec)
Heartbeat CPU 0 instructions: 230000004 cycles: 119708166 heartbeat IPC: 1.474 cumulative IPC: 1.685 (Simulation time: 00 hr 29 min 30 sec)
Heartbeat CPU 0 instructions: 240000003 cycles: 126385795 heartbeat IPC: 1.498 cumulative IPC: 1.674 (Simulation time: 00 hr 30 min 58 sec)
Heartbeat CPU 0 instructions: 250000002 cycles: 133157069 heartbeat IPC: 1.477 cumulative IPC: 1.663 (Simulation time: 00 hr 33 min 26 sec)
Heartbeat CPU 0 instructions: 260000002 cycles: 139896420 heartbeat IPC: 1.484 cumulative IPC: 1.653 (Simulation time: 00 hr 34 min 42 sec)
Heartbeat CPU 0 instructions: 270000003 cycles: 146549924 heartbeat IPC: 1.503 cumulative IPC: 1.646 (Simulation time: 00 hr 36 min 04 sec)
Heartbeat CPU 0 instructions: 280000000 cycles: 153292716 heartbeat IPC: 1.483 cumulative IPC: 1.638 (Simulation time: 00 hr 37 min 34 sec)
Heartbeat CPU 0 instructions: 290000001 cycles: 221541675 heartbeat IPC: 0.1465 cumulative IPC: 1.15 (Simulation time: 00 hr 46 min 43 sec)
Heartbeat CPU 0 instructions: 300000002 cycles: 224041803 heartbeat IPC: 4 cumulative IPC: 1.184 (Simulation time: 00 hr 47 min 30 sec)
Heartbeat CPU 0 instructions: 310000001 cycles: 226541898 heartbeat IPC: 4 cumulative IPC: 1.217 (Simulation time: 00 hr 48 min 16 sec)
Heartbeat CPU 0 instructions: 320000001 cycles: 229042026 heartbeat IPC: 4 cumulative IPC: 1.249 (Simulation time: 00 hr 49 min 01 sec)
Heartbeat CPU 0 instructions: 330000003 cycles: 231543206 heartbeat IPC: 3.998 cumulative IPC: 1.281 (Simulation time: 00 hr 49 min 49 sec)
Heartbeat CPU 0 instructions: 340000000 cycles: 234043290 heartbeat IPC: 4 cumulative IPC: 1.311 (Simulation time: 00 hr 50 min 33 sec)
Heartbeat CPU 0 instructions: 350000004 cycles: 236543376 heartbeat IPC: 4 cumulative IPC: 1.341 (Simulation time: 00 hr 51 min 16 sec)
Heartbeat CPU 0 instructions: 360000004 cycles: 239043463 heartbeat IPC: 4 cumulative IPC: 1.371 (Simulation time: 00 hr 52 min 00 sec)
Heartbeat CPU 0 instructions: 370000000 cycles: 241543546 heartbeat IPC: 4 cumulative IPC: 1.399 (Simulation time: 00 hr 52 min 45 sec)
Heartbeat CPU 0 instructions: 380000004 cycles: 244044189 heartbeat IPC: 3.999 cumulative IPC: 1.428 (Simulation time: 00 hr 53 min 28 sec)
Heartbeat CPU 0 instructions: 390000001 cycles: 246544399 heartbeat IPC: 4 cumulative IPC: 1.455 (Simulation time: 00 hr 54 min 11 sec)
Heartbeat CPU 0 instructions: 400000003 cycles: 249044484 heartbeat IPC: 4 cumulative IPC: 1.482 (Simulation time: 00 hr 54 min 53 sec)
Heartbeat CPU 0 instructions: 410000003 cycles: 251544612 heartbeat IPC: 4 cumulative IPC: 1.508 (Simulation time: 00 hr 55 min 36 sec)
Heartbeat CPU 0 instructions: 420000002 cycles: 254044699 heartbeat IPC: 4 cumulative IPC: 1.534 (Simulation time: 00 hr 56 min 18 sec)
Heartbeat CPU 0 instructions: 430000000 cycles: 256544784 heartbeat IPC: 4 cumulative IPC: 1.56 (Simulation time: 00 hr 57 min 00 sec)
Heartbeat CPU 0 instructions: 440000001 cycles: 259044870 heartbeat IPC: 4 cumulative IPC: 1.584 (Simulation time: 00 hr 57 min 43 sec)
Heartbeat CPU 0 instructions: 450000000 cycles: 261544955 heartbeat IPC: 4 cumulative IPC: 1.609 (Simulation time: 00 hr 58 min 24 sec)
Heartbeat CPU 0 instructions: 460000003 cycles: 264044999 heartbeat IPC: 4 cumulative IPC: 1.632 (Simulation time: 00 hr 59 min 06 sec)
Heartbeat CPU 0 instructions: 470000001 cycles: 266545134 heartbeat IPC: 4 cumulative IPC: 1.656 (Simulation time: 00 hr 59 min 47 sec)
Heartbeat CPU 0 instructions: 480000003 cycles: 269045218 heartbeat IPC: 4 cumulative IPC: 1.679 (Simulation time: 01 hr 00 min 29 sec)
Heartbeat CPU 0 instructions: 490000003 cycles: 271545305 heartbeat IPC: 4 cumulative IPC: 1.701 (Simulation time: 01 hr 01 min 10 sec)
Heartbeat CPU 0 instructions: 500000002 cycles: 274045391 heartbeat IPC: 4 cumulative IPC: 1.723 (Simulation time: 01 hr 01 min 52 sec)
Heartbeat CPU 0 instructions: 510000003 cycles: 280241839 heartbeat IPC: 1.614 cumulative IPC: 1.721 (Simulation time: 01 hr 03 min 05 sec)
Heartbeat CPU 0 instructions: 520000004 cycles: 392717891 heartbeat IPC: 0.08891 cumulative IPC: 1.237 (Simulation time: 01 hr 17 min 23 sec)
Heartbeat CPU 0 instructions: 530000000 cycles: 479366502 heartbeat IPC: 0.1154 cumulative IPC: 1.029 (Simulation time: 01 hr 28 min 14 sec)
Heartbeat CPU 0 instructions: 540000000 cycles: 502870425 heartbeat IPC: 0.4255 cumulative IPC: 1 (Simulation time: 01 hr 31 min 39 sec)
Heartbeat CPU 0 instructions: 550000002 cycles: 526515121 heartbeat IPC: 0.4229 cumulative IPC: 0.9735 (Simulation time: 01 hr 35 min 00 sec)
Heartbeat CPU 0 instructions: 560000002 cycles: 550182938 heartbeat IPC: 0.4225 cumulative IPC: 0.9492 (Simulation time: 01 hr 38 min 19 sec)
Heartbeat CPU 0 instructions: 570000002 cycles: 573575524 heartbeat IPC: 0.4275 cumulative IPC: 0.9274 (Simulation time: 01 hr 41 min 38 sec)
Heartbeat CPU 0 instructions: 580000003 cycles: 596449970 heartbeat IPC: 0.4372 cumulative IPC: 0.9082 (Simulation time: 01 hr 44 min 53 sec)
Heartbeat CPU 0 instructions: 590000004 cycles: 619546308 heartbeat IPC: 0.433 cumulative IPC: 0.8901 (Simulation time: 01 hr 48 min 15 sec)
*** Reached end of trace: (0, "traces/sp.A.champsimtrace")
Heartbeat CPU 0 instructions: 600000002 cycles: 642538047 heartbeat IPC: 0.4349 cumulative IPC: 0.8735 (Simulation time: 01 hr 51 min 42 sec)
Heartbeat CPU 0 instructions: 610000000 cycles: 671868689 heartbeat IPC: 0.3409 cumulative IPC: 0.8498 (Simulation time: 01 hr 54 min 54 sec)
Heartbeat CPU 0 instructions: 620000003 cycles: 675196547 heartbeat IPC: 3.005 cumulative IPC: 0.8606 (Simulation time: 01 hr 55 min 45 sec)
Heartbeat CPU 0 instructions: 630000003 cycles: 679063728 heartbeat IPC: 2.586 cumulative IPC: 0.8706 (Simulation time: 01 hr 56 min 41 sec)
Heartbeat CPU 0 instructions: 640000004 cycles: 682869138 heartbeat IPC: 2.628 cumulative IPC: 0.8806 (Simulation time: 01 hr 57 min 36 sec)
Heartbeat CPU 0 instructions: 650000000 cycles: 686823211 heartbeat IPC: 2.529 cumulative IPC: 0.8903 (Simulation time: 01 hr 58 min 32 sec)
Simulation finished CPU 0 instructions: 600000000 cycles: 673942156 cumulative IPC: 0.8903 (Simulation time: 01 hr 58 min 32 sec)
Simulation complete CPU 0 instructions: 600000000 cycles: 673942156 cumulative IPC: 0.8903 (Simulation time: 01 hr 58 min 32 sec)

ChampSim completed all CPUs

=== Simulation ===
CPU 0 runs traces/sp.A.champsimtrace
Region of Interest Statistics

CPU 0 cumulative IPC: 0.8903 instructions: 600000000 cycles: 673942156
CPU 0 Branch Prediction Accuracy: 99.98% MPKI: 0.003913 Average ROB Occupancy at Mispredict: 105.8
Branch type MPKI
BRANCH_DIRECT_JUMP: 5e-06
BRANCH_INDIRECT: 7.5e-05
BRANCH_CONDITIONAL: 0.00375
BRANCH_DIRECT_CALL: 2e-05
BRANCH_INDIRECT_CALL: 3.17e-05
BRANCH_RETURN: 3.67e-05

LLC TOTAL        ACCESS:    8170098 HIT:    5083996 MISS:    3086102
LLC LOAD         ACCESS:    2304363 HIT:    1461977 MISS:     842386
LLC RFO          ACCESS:     922635 HIT:       6818 MISS:     915817
LLC PREFETCH     ACCESS:    2893920 HIT:    1577132 MISS:    1316788
LLC WRITE        ACCESS:    2045701 HIT:    2036485 MISS:       9216
LLC TRANSLATION  ACCESS:       3479 HIT:       1584 MISS:       1895
LLC PREFETCH REQUESTED:    2893920 ISSUED:    2893920 USEFUL:    1039343 USELESS:      18722
LLC AVERAGE MISS LATENCY: 1484 cycles
cpu0_DTLB TOTAL        ACCESS:  127074050 HIT:  126089901 MISS:     984149
cpu0_DTLB LOAD         ACCESS:  127074050 HIT:  126089901 MISS:     984149
cpu0_DTLB RFO          ACCESS:          0 HIT:          0 MISS:          0
cpu0_DTLB PREFETCH     ACCESS:          0 HIT:          0 MISS:          0
cpu0_DTLB WRITE        ACCESS:          0 HIT:          0 MISS:          0
cpu0_DTLB TRANSLATION  ACCESS:          0 HIT:          0 MISS:          0
cpu0_DTLB PREFETCH REQUESTED:          0 ISSUED:          0 USEFUL:          0 USELESS:          0
cpu0_DTLB AVERAGE MISS LATENCY: 16.62 cycles
cpu0_ITLB TOTAL        ACCESS:     239344 HIT:     239089 MISS:        255
cpu0_ITLB LOAD         ACCESS:     239344 HIT:     239089 MISS:        255
cpu0_ITLB RFO          ACCESS:          0 HIT:          0 MISS:          0
cpu0_ITLB PREFETCH     ACCESS:          0 HIT:          0 MISS:          0
cpu0_ITLB WRITE        ACCESS:          0 HIT:          0 MISS:          0
cpu0_ITLB TRANSLATION  ACCESS:          0 HIT:          0 MISS:          0
cpu0_ITLB PREFETCH REQUESTED:          0 ISSUED:          0 USEFUL:          0 USELESS:          0
cpu0_ITLB AVERAGE MISS LATENCY: 317.3 cycles
cpu0_L1D TOTAL        ACCESS:  193915330 HIT:  180676017 MISS:   13239313
cpu0_L1D LOAD         ACCESS:  158673117 HIT:  149886996 MISS:    8786121
cpu0_L1D RFO          ACCESS:          0 HIT:          0 MISS:          0
cpu0_L1D PREFETCH     ACCESS:          0 HIT:          0 MISS:          0
cpu0_L1D WRITE        ACCESS:   35194334 HIT:   30759458 MISS:    4434876
cpu0_L1D TRANSLATION  ACCESS:      47879 HIT:      29563 MISS:      18316
cpu0_L1D PREFETCH REQUESTED:          0 ISSUED:          0 USEFUL:          0 USELESS:          0
cpu0_L1D AVERAGE MISS LATENCY: 165.5 cycles
cpu0_L1I TOTAL        ACCESS:     249440 HIT:     246417 MISS:       3023
cpu0_L1I LOAD         ACCESS:     249440 HIT:     246417 MISS:       3023
cpu0_L1I RFO          ACCESS:          0 HIT:          0 MISS:          0
cpu0_L1I PREFETCH     ACCESS:          0 HIT:          0 MISS:          0
cpu0_L1I WRITE        ACCESS:          0 HIT:          0 MISS:          0
cpu0_L1I TRANSLATION  ACCESS:          0 HIT:          0 MISS:          0
cpu0_L1I PREFETCH REQUESTED:          0 ISSUED:          0 USEFUL:          0 USELESS:          0
cpu0_L1I AVERAGE MISS LATENCY: 504.2 cycles
cpu0_L2C TOTAL        ACCESS:    5424780 HIT:    2193836 MISS:    3230944
cpu0_L2C LOAD         ACCESS:    2426532 HIT:     122072 MISS:    2304460
cpu0_L2C RFO          ACCESS:     923514 HIT:        879 MISS:     922635
cpu0_L2C PREFETCH     ACCESS:          0 HIT:          0 MISS:          0
cpu0_L2C WRITE        ACCESS:    2056422 HIT:    2056052 MISS:        370
cpu0_L2C TRANSLATION  ACCESS:      18312 HIT:      14833 MISS:       3479
cpu0_L2C PREFETCH REQUESTED:          0 ISSUED:          0 USEFUL:          0 USELESS:          0
cpu0_L2C AVERAGE MISS LATENCY: 872.4 cycles
cpu0_STLB TOTAL        ACCESS:     737546 HIT:     689698 MISS:      47848
cpu0_STLB LOAD         ACCESS:     737546 HIT:     689698 MISS:      47848
cpu0_STLB RFO          ACCESS:          0 HIT:          0 MISS:          0
cpu0_STLB PREFETCH     ACCESS:          0 HIT:          0 MISS:          0
cpu0_STLB WRITE        ACCESS:          0 HIT:          0 MISS:          0
cpu0_STLB TRANSLATION  ACCESS:          0 HIT:          0 MISS:          0
cpu0_STLB PREFETCH REQUESTED:          0 ISSUED:          0 USEFUL:          0 USELESS:          0
cpu0_STLB AVERAGE MISS LATENCY: 313.7 cycles

DRAM Statistics

Channel 0 RQ ROW_BUFFER_HIT:     884731
  ROW_BUFFER_MISS:    1881269
 AVG DBUS CONGESTED CYCLE: 3.971
WQ ROW_BUFFER_HIT: Channel 0 
  ROW_BUFFER_MISS:     255742
  FULL:    1523404
