WARNING: physical memory size is smaller than virtual memory size.

*** ChampSim Multicore Out-of-Order Simulator ***
Warmup Instructions: 50000000
Simulation Instructions: 600000000
Number of CPUs: 1
Page size: 4096

Off-chip DRAM Size: 4 GiB Channels: 1 Width: 64-bit Data Race: 3200 MT/s
Heartbeat CPU 0 instructions: 10000003 cycles: 2881057 heartbeat IPC: 3.471 cumulative IPC: 3.471 (Simulation time: 00 hr 00 min 34 sec)
Heartbeat CPU 0 instructions: 20000003 cycles: 5381057 heartbeat IPC: 4 cumulative IPC: 3.717 (Simulation time: 00 hr 01 min 06 sec)
Heartbeat CPU 0 instructions: 30000003 cycles: 7881057 heartbeat IPC: 4 cumulative IPC: 3.807 (Simulation time: 00 hr 01 min 38 sec)
Heartbeat CPU 0 instructions: 40000003 cycles: 10381057 heartbeat IPC: 4 cumulative IPC: 3.853 (Simulation time: 00 hr 02 min 10 sec)
Heartbeat CPU 0 instructions: 50000003 cycles: 12881057 heartbeat IPC: 4 cumulative IPC: 3.882 (Simulation time: 00 hr 02 min 42 sec)
Warmup finished CPU 0 instructions: 50000003 cycles: 12881058 cumulative IPC: 3.882 (Simulation time: 00 hr 02 min 42 sec)
Warmup complete CPU 0 instructions: 50000003 cycles: 12881058 cumulative IPC: 3.882 (Simulation time: 00 hr 02 min 42 sec)
Heartbeat CPU 0 instructions: 60000000 cycles: 17523786 heartbeat IPC: 2.154 cumulative IPC: 2.154 (Simulation time: 00 hr 03 min 39 sec)
Heartbeat CPU 0 instructions: 70000002 cycles: 22116132 heartbeat IPC: 2.178 cumulative IPC: 2.166 (Simulation time: 00 hr 04 min 37 sec)
Heartbeat CPU 0 instructions: 80000001 cycles: 26761318 heartbeat IPC: 2.153 cumulative IPC: 2.161 (Simulation time: 00 hr 05 min 40 sec)
Heartbeat CPU 0 instructions: 90000003 cycles: 31409067 heartbeat IPC: 2.152 cumulative IPC: 2.159 (Simulation time: 00 hr 06 min 47 sec)
Heartbeat CPU 0 instructions: 100000000 cycles: 34963063 heartbeat IPC: 2.814 cumulative IPC: 2.264 (Simulation time: 00 hr 07 min 39 sec)
Heartbeat CPU 0 instructions: 110000001 cycles: 37529189 heartbeat IPC: 3.897 cumulative IPC: 2.434 (Simulation time: 00 hr 08 min 22 sec)
Heartbeat CPU 0 instructions: 120000001 cycles: 40512664 heartbeat IPC: 3.352 cumulative IPC: 2.533 (Simulation time: 00 hr 09 min 08 sec)
Heartbeat CPU 0 instructions: 130000000 cycles: 44020205 heartbeat IPC: 2.851 cumulative IPC: 2.569 (Simulation time: 00 hr 10 min 00 sec)
Heartbeat CPU 0 instructions: 140000004 cycles: 47611315 heartbeat IPC: 2.785 cumulative IPC: 2.591 (Simulation time: 00 hr 10 min 53 sec)
Heartbeat CPU 0 instructions: 150000000 cycles: 51159484 heartbeat IPC: 2.818 cumulative IPC: 2.612 (Simulation time: 00 hr 11 min 50 sec)
Heartbeat CPU 0 instructions: 160000000 cycles: 54736555 heartbeat IPC: 2.796 cumulative IPC: 2.628 (Simulation time: 00 hr 12 min 47 sec)
Heartbeat CPU 0 instructions: 170000000 cycles: 58248382 heartbeat IPC: 2.848 cumulative IPC: 2.645 (Simulation time: 00 hr 13 min 45 sec)
Heartbeat CPU 0 instructions: 180000002 cycles: 61814641 heartbeat IPC: 2.804 cumulative IPC: 2.657 (Simulation time: 00 hr 14 min 40 sec)
Heartbeat CPU 0 instructions: 190000002 cycles: 65247946 heartbeat IPC: 2.913 cumulative IPC: 2.673 (Simulation time: 00 hr 15 min 32 sec)
Heartbeat CPU 0 instructions: 200000000 cycles: 68389514 heartbeat IPC: 3.183 cumulative IPC: 2.702 (Simulation time: 00 hr 16 min 22 sec)
Heartbeat CPU 0 instructions: 210000000 cycles: 71490908 heartbeat IPC: 3.224 cumulative IPC: 2.73 (Simulation time: 00 hr 17 min 09 sec)
Heartbeat CPU 0 instructions: 220000001 cycles: 74640974 heartbeat IPC: 3.175 cumulative IPC: 2.753 (Simulation time: 00 hr 17 min 57 sec)
Heartbeat CPU 0 instructions: 230000004 cycles: 77784908 heartbeat IPC: 3.181 cumulative IPC: 2.773 (Simulation time: 00 hr 18 min 44 sec)
Heartbeat CPU 0 instructions: 240000002 cycles: 80865864 heartbeat IPC: 3.246 cumulative IPC: 2.795 (Simulation time: 00 hr 19 min 32 sec)
Heartbeat CPU 0 instructions: 250000002 cycles: 84018794 heartbeat IPC: 3.172 cumulative IPC: 2.811 (Simulation time: 00 hr 20 min 20 sec)
Heartbeat CPU 0 instructions: 260000002 cycles: 87236013 heartbeat IPC: 3.108 cumulative IPC: 2.824 (Simulation time: 00 hr 21 min 07 sec)
Heartbeat CPU 0 instructions: 270000003 cycles: 90382305 heartbeat IPC: 3.178 cumulative IPC: 2.839 (Simulation time: 00 hr 21 min 56 sec)
Heartbeat CPU 0 instructions: 280000003 cycles: 93642304 heartbeat IPC: 3.067 cumulative IPC: 2.848 (Simulation time: 00 hr 22 min 42 sec)
Heartbeat CPU 0 instructions: 290000001 cycles: 143663128 heartbeat IPC: 0.1999 cumulative IPC: 1.835 (Simulation time: 00 hr 28 min 54 sec)
Heartbeat CPU 0 instructions: 300000002 cycles: 146168231 heartbeat IPC: 3.992 cumulative IPC: 1.876 (Simulation time: 00 hr 29 min 33 sec)
Heartbeat CPU 0 instructions: 310000001 cycles: 148673275 heartbeat IPC: 3.992 cumulative IPC: 1.915 (Simulation time: 00 hr 30 min 14 sec)
Heartbeat CPU 0 instructions: 320000000 cycles: 151179427 heartbeat IPC: 3.99 cumulative IPC: 1.952 (Simulation time: 00 hr 30 min 54 sec)
Heartbeat CPU 0 instructions: 330000003 cycles: 153684830 heartbeat IPC: 3.991 cumulative IPC: 1.989 (Simulation time: 00 hr 31 min 37 sec)
Heartbeat CPU 0 instructions: 340000000 cycles: 156189902 heartbeat IPC: 3.992 cumulative IPC: 2.024 (Simulation time: 00 hr 32 min 19 sec)
Heartbeat CPU 0 instructions: 350000004 cycles: 158696057 heartbeat IPC: 3.99 cumulative IPC: 2.057 (Simulation time: 00 hr 32 min 59 sec)
Heartbeat CPU 0 instructions: 360000004 cycles: 161201968 heartbeat IPC: 3.991 cumulative IPC: 2.09 (Simulation time: 00 hr 33 min 39 sec)
Heartbeat CPU 0 instructions: 370000000 cycles: 163708706 heartbeat IPC: 3.989 cumulative IPC: 2.122 (Simulation time: 00 hr 34 min 18 sec)
Heartbeat CPU 0 instructions: 380000004 cycles: 166214692 heartbeat IPC: 3.99 cumulative IPC: 2.152 (Simulation time: 00 hr 34 min 58 sec)
Heartbeat CPU 0 instructions: 390000001 cycles: 168719765 heartbeat IPC: 3.992 cumulative IPC: 2.182 (Simulation time: 00 hr 35 min 38 sec)
Heartbeat CPU 0 instructions: 400000003 cycles: 171225175 heartbeat IPC: 3.991 cumulative IPC: 2.21 (Simulation time: 00 hr 36 min 16 sec)
Heartbeat CPU 0 instructions: 410000003 cycles: 173730832 heartbeat IPC: 3.991 cumulative IPC: 2.238 (Simulation time: 00 hr 36 min 55 sec)
Heartbeat CPU 0 instructions: 420000002 cycles: 176236532 heartbeat IPC: 3.991 cumulative IPC: 2.265 (Simulation time: 00 hr 37 min 33 sec)
Heartbeat CPU 0 instructions: 430000000 cycles: 178741605 heartbeat IPC: 3.992 cumulative IPC: 2.291 (Simulation time: 00 hr 38 min 12 sec)
Heartbeat CPU 0 instructions: 440000001 cycles: 181246776 heartbeat IPC: 3.992 cumulative IPC: 2.316 (Simulation time: 00 hr 38 min 52 sec)
Heartbeat CPU 0 instructions: 450000000 cycles: 183751958 heartbeat IPC: 3.992 cumulative IPC: 2.341 (Simulation time: 00 hr 39 min 31 sec)
Heartbeat CPU 0 instructions: 460000003 cycles: 186256996 heartbeat IPC: 3.992 cumulative IPC: 2.365 (Simulation time: 00 hr 40 min 09 sec)
Heartbeat CPU 0 instructions: 470000001 cycles: 188763866 heartbeat IPC: 3.989 cumulative IPC: 2.388 (Simulation time: 00 hr 40 min 47 sec)
Heartbeat CPU 0 instructions: 480000003 cycles: 191268988 heartbeat IPC: 3.992 cumulative IPC: 2.41 (Simulation time: 00 hr 41 min 25 sec)
Heartbeat CPU 0 instructions: 490000003 cycles: 193774063 heartbeat IPC: 3.992 cumulative IPC: 2.432 (Simulation time: 00 hr 42 min 03 sec)
Heartbeat CPU 0 instructions: 500000002 cycles: 196281179 heartbeat IPC: 3.989 cumulative IPC: 2.454 (Simulation time: 00 hr 42 min 41 sec)
Heartbeat CPU 0 instructions: 510000003 cycles: 204031737 heartbeat IPC: 1.29 cumulative IPC: 2.406 (Simulation time: 00 hr 43 min 56 sec)
Heartbeat CPU 0 instructions: 520000001 cycles: 295757588 heartbeat IPC: 0.109 cumulative IPC: 1.662 (Simulation time: 00 hr 56 min 16 sec)
Heartbeat CPU 0 instructions: 530000004 cycles: 375781040 heartbeat IPC: 0.125 cumulative IPC: 1.323 (Simulation time: 01 hr 06 min 53 sec)
Heartbeat CPU 0 instructions: 540000000 cycles: 413158220 heartbeat IPC: 0.2675 cumulative IPC: 1.224 (Simulation time: 01 hr 12 min 23 sec)
Heartbeat CPU 0 instructions: 550000004 cycles: 450478985 heartbeat IPC: 0.2679 cumulative IPC: 1.143 (Simulation time: 01 hr 17 min 27 sec)
Heartbeat CPU 0 instructions: 560000004 cycles: 487460186 heartbeat IPC: 0.2704 cumulative IPC: 1.075 (Simulation time: 01 hr 22 min 21 sec)
Heartbeat CPU 0 instructions: 570000000 cycles: 524190632 heartbeat IPC: 0.2723 cumulative IPC: 1.017 (Simulation time: 01 hr 27 min 07 sec)
Heartbeat CPU 0 instructions: 580000001 cycles: 562550310 heartbeat IPC: 0.2607 cumulative IPC: 0.9642 (Simulation time: 01 hr 32 min 10 sec)
Heartbeat CPU 0 instructions: 590000004 cycles: 601771143 heartbeat IPC: 0.255 cumulative IPC: 0.917 (Simulation time: 01 hr 37 min 18 sec)
*** Reached end of trace: (0, "traces/sp.A.champsimtrace")
Heartbeat CPU 0 instructions: 600000001 cycles: 640210261 heartbeat IPC: 0.2602 cumulative IPC: 0.8767 (Simulation time: 01 hr 42 min 30 sec)
Heartbeat CPU 0 instructions: 610000000 cycles: 664702702 heartbeat IPC: 0.4083 cumulative IPC: 0.8591 (Simulation time: 01 hr 45 min 07 sec)
Heartbeat CPU 0 instructions: 620000001 cycles: 667687408 heartbeat IPC: 3.35 cumulative IPC: 0.8705 (Simulation time: 01 hr 45 min 52 sec)
Heartbeat CPU 0 instructions: 630000003 cycles: 672029911 heartbeat IPC: 2.303 cumulative IPC: 0.8799 (Simulation time: 01 hr 46 min 47 sec)
Heartbeat CPU 0 instructions: 640000004 cycles: 676691518 heartbeat IPC: 2.145 cumulative IPC: 0.8888 (Simulation time: 01 hr 47 min 44 sec)
Heartbeat CPU 0 instructions: 650000001 cycles: 681275825 heartbeat IPC: 2.181 cumulative IPC: 0.8977 (Simulation time: 01 hr 48 min 40 sec)
Simulation finished CPU 0 instructions: 600000003 cycles: 668394769 cumulative IPC: 0.8977 (Simulation time: 01 hr 48 min 40 sec)
Simulation complete CPU 0 instructions: 600000003 cycles: 668394769 cumulative IPC: 0.8977 (Simulation time: 01 hr 48 min 40 sec)

ChampSim completed all CPUs

=== Simulation ===
CPU 0 runs traces/sp.A.champsimtrace
Region of Interest Statistics

CPU 0 cumulative IPC: 0.8977 instructions: 600000003 cycles: 668394769
CPU 0 Branch Prediction Accuracy: 98.84% MPKI: 0.2406 Average ROB Occupancy at Mispredict: 220.7
Branch type MPKI
BRANCH_DIRECT_JUMP: 5e-06
BRANCH_INDIRECT: 7.5e-05
BRANCH_CONDITIONAL: 0.24
BRANCH_DIRECT_CALL: 2e-05
BRANCH_INDIRECT_CALL: 3.17e-05
BRANCH_RETURN: 3.67e-05

LLC TOTAL        ACCESS:    7577753 HIT:    1397346 MISS:    6180407
LLC LOAD         ACCESS:    2303676 HIT:     892116 MISS:    1411560
LLC RFO          ACCESS:     922635 HIT:      29548 MISS:     893087
LLC PREFETCH     ACCESS:    2303676 HIT:     290907 MISS:    2012769
LLC WRITE        ACCESS:    2044296 HIT:     184696 MISS:    1859600
LLC TRANSLATION  ACCESS:       3470 HIT:         79 MISS:       3391
LLC PREFETCH REQUESTED:    2303676 ISSUED:    2303676 USEFUL:    1590126 USELESS:      49296
LLC AVERAGE MISS LATENCY: 754.3 cycles
cpu0_DTLB TOTAL        ACCESS:  127305541 HIT:  126492943 MISS:     812598
cpu0_DTLB LOAD         ACCESS:  127305541 HIT:  126492943 MISS:     812598
cpu0_DTLB RFO          ACCESS:          0 HIT:          0 MISS:          0
cpu0_DTLB PREFETCH     ACCESS:          0 HIT:          0 MISS:          0
cpu0_DTLB WRITE        ACCESS:          0 HIT:          0 MISS:          0
cpu0_DTLB TRANSLATION  ACCESS:          0 HIT:          0 MISS:          0
cpu0_DTLB PREFETCH REQUESTED:          0 ISSUED:          0 USEFUL:          0 USELESS:          0
cpu0_DTLB AVERAGE MISS LATENCY: 20.1 cycles
cpu0_ITLB TOTAL        ACCESS:     217013 HIT:     216795 MISS:        218
cpu0_ITLB LOAD         ACCESS:     217013 HIT:     216795 MISS:        218
cpu0_ITLB RFO          ACCESS:          0 HIT:          0 MISS:          0
cpu0_ITLB PREFETCH     ACCESS:          0 HIT:          0 MISS:          0
cpu0_ITLB WRITE        ACCESS:          0 HIT:          0 MISS:          0
cpu0_ITLB TRANSLATION  ACCESS:          0 HIT:          0 MISS:          0
cpu0_ITLB PREFETCH REQUESTED:          0 ISSUED:          0 USEFUL:          0 USELESS:          0
cpu0_ITLB AVERAGE MISS LATENCY: 354.3 cycles
cpu0_L1D TOTAL        ACCESS:  193218633 HIT:  179074467 MISS:   14144166
cpu0_L1D LOAD         ACCESS:  157976510 HIT:  148034162 MISS:    9942348
cpu0_L1D RFO          ACCESS:          0 HIT:          0 MISS:          0
cpu0_L1D PREFETCH     ACCESS:          0 HIT:          0 MISS:          0
cpu0_L1D WRITE        ACCESS:   35194245 HIT:   31010709 MISS:    4183536
cpu0_L1D TRANSLATION  ACCESS:      47878 HIT:      29596 MISS:      18282
cpu0_L1D PREFETCH REQUESTED:          0 ISSUED:          0 USEFUL:          0 USELESS:          0
cpu0_L1D AVERAGE MISS LATENCY: 161 cycles
cpu0_L1I TOTAL        ACCESS:     224459 HIT:     221678 MISS:       2781
cpu0_L1I LOAD         ACCESS:     224459 HIT:     221678 MISS:       2781
cpu0_L1I RFO          ACCESS:          0 HIT:          0 MISS:          0
cpu0_L1I PREFETCH     ACCESS:          0 HIT:          0 MISS:          0
cpu0_L1I WRITE        ACCESS:          0 HIT:          0 MISS:          0
cpu0_L1I TRANSLATION  ACCESS:          0 HIT:          0 MISS:          0
cpu0_L1I PREFETCH REQUESTED:          0 ISSUED:          0 USEFUL:          0 USELESS:          0
cpu0_L1I AVERAGE MISS LATENCY: 495.8 cycles
cpu0_L2C TOTAL        ACCESS:    5428693 HIT:    2198491 MISS:    3230202
cpu0_L2C LOAD         ACCESS:    2431096 HIT:     127369 MISS:    2303727
cpu0_L2C RFO          ACCESS:     923194 HIT:        559 MISS:     922635
cpu0_L2C PREFETCH     ACCESS:          0 HIT:          0 MISS:          0
cpu0_L2C WRITE        ACCESS:    2056123 HIT:    2055753 MISS:        370
cpu0_L2C TRANSLATION  ACCESS:      18280 HIT:      14810 MISS:       3470
cpu0_L2C PREFETCH REQUESTED:          0 ISSUED:          0 USEFUL:          0 USELESS:          0
cpu0_L2C AVERAGE MISS LATENCY: 967.1 cycles
cpu0_STLB TOTAL        ACCESS:     563982 HIT:     516134 MISS:      47848
cpu0_STLB LOAD         ACCESS:     563982 HIT:     516134 MISS:      47848
cpu0_STLB RFO          ACCESS:          0 HIT:          0 MISS:          0
cpu0_STLB PREFETCH     ACCESS:          0 HIT:          0 MISS:          0
cpu0_STLB WRITE        ACCESS:          0 HIT:          0 MISS:          0
cpu0_STLB TRANSLATION  ACCESS:          0 HIT:          0 MISS:          0
cpu0_STLB PREFETCH REQUESTED:          0 ISSUED:          0 USEFUL:          0 USELESS:          0
cpu0_STLB AVERAGE MISS LATENCY: 387.3 cycles

DRAM Statistics

Channel 0 RQ ROW_BUFFER_HIT:     770795
  ROW_BUFFER_MISS:    2168487
 AVG DBUS CONGESTED CYCLE: 3.975
WQ ROW_BUFFER_HIT: Channel 0 
  ROW_BUFFER_MISS:     649997
  FULL:    1242988
