WARNING: physical memory size is smaller than virtual memory size.

*** ChampSim Multicore Out-of-Order Simulator ***
Warmup Instructions: 50000000
Simulation Instructions: 600000000
Number of CPUs: 1
Page size: 4096

CPU 0 Tage branch predictor
Off-chip DRAM Size: 4 GiB Channels: 1 Width: 64-bit Data Race: 3200 MT/s
Heartbeat CPU 0 instructions: 10000001 cycles: 2881056 heartbeat IPC: 3.471 cumulative IPC: 3.471 (Simulation time: 00 hr 01 min 06 sec)
Heartbeat CPU 0 instructions: 20000001 cycles: 5381056 heartbeat IPC: 4 cumulative IPC: 3.717 (Simulation time: 00 hr 02 min 07 sec)
Heartbeat CPU 0 instructions: 30000001 cycles: 7881056 heartbeat IPC: 4 cumulative IPC: 3.807 (Simulation time: 00 hr 03 min 09 sec)
Heartbeat CPU 0 instructions: 40000001 cycles: 10381056 heartbeat IPC: 4 cumulative IPC: 3.853 (Simulation time: 00 hr 04 min 10 sec)
Heartbeat CPU 0 instructions: 50000001 cycles: 12881056 heartbeat IPC: 4 cumulative IPC: 3.882 (Simulation time: 00 hr 05 min 11 sec)
Warmup finished CPU 0 instructions: 50000001 cycles: 12881057 cumulative IPC: 3.882 (Simulation time: 00 hr 05 min 11 sec)
Warmup complete CPU 0 instructions: 50000001 cycles: 12881057 cumulative IPC: 3.882 (Simulation time: 00 hr 05 min 11 sec)
Heartbeat CPU 0 instructions: 60000000 cycles: 18879087 heartbeat IPC: 1.667 cumulative IPC: 1.667 (Simulation time: 00 hr 07 min 07 sec)
Heartbeat CPU 0 instructions: 70000002 cycles: 24792454 heartbeat IPC: 1.691 cumulative IPC: 1.679 (Simulation time: 00 hr 09 min 02 sec)
Heartbeat CPU 0 instructions: 80000001 cycles: 30702935 heartbeat IPC: 1.692 cumulative IPC: 1.683 (Simulation time: 00 hr 10 min 59 sec)
Heartbeat CPU 0 instructions: 90000003 cycles: 36616454 heartbeat IPC: 1.691 cumulative IPC: 1.685 (Simulation time: 00 hr 12 min 58 sec)
Heartbeat CPU 0 instructions: 100000000 cycles: 41323498 heartbeat IPC: 2.124 cumulative IPC: 1.758 (Simulation time: 00 hr 14 min 39 sec)
Heartbeat CPU 0 instructions: 110000004 cycles: 43945175 heartbeat IPC: 3.814 cumulative IPC: 1.931 (Simulation time: 00 hr 15 min 51 sec)
Heartbeat CPU 0 instructions: 120000000 cycles: 46481068 heartbeat IPC: 3.943 cumulative IPC: 2.083 (Simulation time: 00 hr 17 min 02 sec)
Heartbeat CPU 0 instructions: 130000000 cycles: 50435487 heartbeat IPC: 2.529 cumulative IPC: 2.13 (Simulation time: 00 hr 18 min 33 sec)
Heartbeat CPU 0 instructions: 140000004 cycles: 56325830 heartbeat IPC: 1.698 cumulative IPC: 2.072 (Simulation time: 00 hr 20 min 28 sec)
Heartbeat CPU 0 instructions: 150000001 cycles: 63448554 heartbeat IPC: 1.404 cumulative IPC: 1.978 (Simulation time: 00 hr 22 min 38 sec)
Heartbeat CPU 0 instructions: 160000002 cycles: 70275973 heartbeat IPC: 1.465 cumulative IPC: 1.917 (Simulation time: 00 hr 24 min 45 sec)
Heartbeat CPU 0 instructions: 170000000 cycles: 77383574 heartbeat IPC: 1.407 cumulative IPC: 1.86 (Simulation time: 00 hr 26 min 56 sec)
Heartbeat CPU 0 instructions: 180000000 cycles: 84414943 heartbeat IPC: 1.422 cumulative IPC: 1.817 (Simulation time: 00 hr 29 min 08 sec)
Heartbeat CPU 0 instructions: 190000000 cycles: 90946089 heartbeat IPC: 1.531 cumulative IPC: 1.793 (Simulation time: 00 hr 31 min 14 sec)
Heartbeat CPU 0 instructions: 200000003 cycles: 95873104 heartbeat IPC: 2.03 cumulative IPC: 1.807 (Simulation time: 00 hr 32 min 58 sec)
Heartbeat CPU 0 instructions: 210000000 cycles: 101019379 heartbeat IPC: 1.943 cumulative IPC: 1.815 (Simulation time: 00 hr 34 min 46 sec)
Heartbeat CPU 0 instructions: 220000004 cycles: 106595256 heartbeat IPC: 1.793 cumulative IPC: 1.814 (Simulation time: 00 hr 36 min 38 sec)
Heartbeat CPU 0 instructions: 230000000 cycles: 113029089 heartbeat IPC: 1.554 cumulative IPC: 1.797 (Simulation time: 00 hr 38 min 40 sec)
Heartbeat CPU 0 instructions: 240000003 cycles: 120236060 heartbeat IPC: 1.388 cumulative IPC: 1.77 (Simulation time: 00 hr 40 min 52 sec)
Heartbeat CPU 0 instructions: 250000002 cycles: 127564280 heartbeat IPC: 1.365 cumulative IPC: 1.744 (Simulation time: 00 hr 43 min 05 sec)
Heartbeat CPU 0 instructions: 260000002 cycles: 134919142 heartbeat IPC: 1.36 cumulative IPC: 1.721 (Simulation time: 00 hr 45 min 18 sec)
Heartbeat CPU 0 instructions: 270000003 cycles: 142395627 heartbeat IPC: 1.338 cumulative IPC: 1.699 (Simulation time: 00 hr 47 min 36 sec)
Heartbeat CPU 0 instructions: 280000003 cycles: 149655898 heartbeat IPC: 1.377 cumulative IPC: 1.682 (Simulation time: 00 hr 49 min 49 sec)
Heartbeat CPU 0 instructions: 290000000 cycles: 205040271 heartbeat IPC: 0.1806 cumulative IPC: 1.249 (Simulation time: 01 hr 00 min 45 sec)
Heartbeat CPU 0 instructions: 300000001 cycles: 207540399 heartbeat IPC: 4 cumulative IPC: 1.284 (Simulation time: 01 hr 01 min 53 sec)
Heartbeat CPU 0 instructions: 310000000 cycles: 210040515 heartbeat IPC: 4 cumulative IPC: 1.319 (Simulation time: 01 hr 03 min 02 sec)
Heartbeat CPU 0 instructions: 320000002 cycles: 212540672 heartbeat IPC: 4 cumulative IPC: 1.352 (Simulation time: 01 hr 04 min 09 sec)
Heartbeat CPU 0 instructions: 330000004 cycles: 215040735 heartbeat IPC: 4 cumulative IPC: 1.385 (Simulation time: 01 hr 05 min 16 sec)
Heartbeat CPU 0 instructions: 340000004 cycles: 217540850 heartbeat IPC: 4 cumulative IPC: 1.417 (Simulation time: 01 hr 06 min 24 sec)
Heartbeat CPU 0 instructions: 350000003 cycles: 220040968 heartbeat IPC: 4 cumulative IPC: 1.448 (Simulation time: 01 hr 07 min 31 sec)
Heartbeat CPU 0 instructions: 360000002 cycles: 222541083 heartbeat IPC: 4 cumulative IPC: 1.479 (Simulation time: 01 hr 08 min 39 sec)
Heartbeat CPU 0 instructions: 370000004 cycles: 225041157 heartbeat IPC: 4 cumulative IPC: 1.508 (Simulation time: 01 hr 09 min 47 sec)
Heartbeat CPU 0 instructions: 380000003 cycles: 227541445 heartbeat IPC: 4 cumulative IPC: 1.537 (Simulation time: 01 hr 10 min 55 sec)
Heartbeat CPU 0 instructions: 390000000 cycles: 230042087 heartbeat IPC: 3.999 cumulative IPC: 1.566 (Simulation time: 01 hr 12 min 03 sec)
Heartbeat CPU 0 instructions: 400000002 cycles: 232542193 heartbeat IPC: 4 cumulative IPC: 1.593 (Simulation time: 01 hr 13 min 12 sec)
Heartbeat CPU 0 instructions: 410000002 cycles: 235043389 heartbeat IPC: 3.998 cumulative IPC: 1.62 (Simulation time: 01 hr 14 min 20 sec)
Heartbeat CPU 0 instructions: 420000000 cycles: 237544270 heartbeat IPC: 3.999 cumulative IPC: 1.647 (Simulation time: 01 hr 15 min 28 sec)
Heartbeat CPU 0 instructions: 430000001 cycles: 240044717 heartbeat IPC: 3.999 cumulative IPC: 1.673 (Simulation time: 01 hr 16 min 36 sec)
Heartbeat CPU 0 instructions: 440000002 cycles: 242544833 heartbeat IPC: 4 cumulative IPC: 1.698 (Simulation time: 01 hr 17 min 45 sec)
Heartbeat CPU 0 instructions: 450000001 cycles: 245044906 heartbeat IPC: 4 cumulative IPC: 1.723 (Simulation time: 01 hr 18 min 53 sec)
Heartbeat CPU 0 instructions: 460000002 cycles: 247545321 heartbeat IPC: 3.999 cumulative IPC: 1.747 (Simulation time: 01 hr 20 min 05 sec)
Heartbeat CPU 0 instructions: 470000001 cycles: 250045693 heartbeat IPC: 3.999 cumulative IPC: 1.771 (Simulation time: 01 hr 21 min 23 sec)
Heartbeat CPU 0 instructions: 480000000 cycles: 252546075 heartbeat IPC: 3.999 cumulative IPC: 1.794 (Simulation time: 01 hr 22 min 30 sec)
Heartbeat CPU 0 instructions: 490000001 cycles: 255046189 heartbeat IPC: 4 cumulative IPC: 1.817 (Simulation time: 01 hr 23 min 38 sec)
Heartbeat CPU 0 instructions: 500000004 cycles: 257547147 heartbeat IPC: 3.998 cumulative IPC: 1.839 (Simulation time: 01 hr 24 min 45 sec)
Heartbeat CPU 0 instructions: 510000000 cycles: 263366429 heartbeat IPC: 1.718 cumulative IPC: 1.836 (Simulation time: 01 hr 26 min 33 sec)
Heartbeat CPU 0 instructions: 520000002 cycles: 371686778 heartbeat IPC: 0.09232 cumulative IPC: 1.31 (Simulation time: 01 hr 49 min 42 sec)
Heartbeat CPU 0 instructions: 530000001 cycles: 454929088 heartbeat IPC: 0.1201 cumulative IPC: 1.086 (Simulation time: 02 hr 07 min 31 sec)
Heartbeat CPU 0 instructions: 540000001 cycles: 487095147 heartbeat IPC: 0.3109 cumulative IPC: 1.033 (Simulation time: 02 hr 15 min 00 sec)
Heartbeat CPU 0 instructions: 550000001 cycles: 518799085 heartbeat IPC: 0.3154 cumulative IPC: 0.9883 (Simulation time: 02 hr 22 min 32 sec)
Heartbeat CPU 0 instructions: 560000003 cycles: 550677429 heartbeat IPC: 0.3137 cumulative IPC: 0.9483 (Simulation time: 02 hr 29 min 52 sec)
Heartbeat CPU 0 instructions: 570000003 cycles: 581198353 heartbeat IPC: 0.3276 cumulative IPC: 0.915 (Simulation time: 02 hr 36 min 58 sec)
Heartbeat CPU 0 instructions: 580000002 cycles: 610928754 heartbeat IPC: 0.3364 cumulative IPC: 0.8862 (Simulation time: 02 hr 43 min 59 sec)
Heartbeat CPU 0 instructions: 590000001 cycles: 643598133 heartbeat IPC: 0.3061 cumulative IPC: 0.8562 (Simulation time: 02 hr 51 min 45 sec)
*** Reached end of trace: (0, "traces/sp.A.champsimtrace")
Heartbeat CPU 0 instructions: 600000002 cycles: 676440189 heartbeat IPC: 0.3045 cumulative IPC: 0.8289 (Simulation time: 02 hr 59 min 23 sec)
Heartbeat CPU 0 instructions: 610000004 cycles: 708321863 heartbeat IPC: 0.3137 cumulative IPC: 0.8052 (Simulation time: 03 hr 05 min 35 sec)
Heartbeat CPU 0 instructions: 620000003 cycles: 714267782 heartbeat IPC: 1.682 cumulative IPC: 0.8127 (Simulation time: 03 hr 07 min 32 sec)
Heartbeat CPU 0 instructions: 630000001 cycles: 720140517 heartbeat IPC: 1.703 cumulative IPC: 0.8201 (Simulation time: 03 hr 09 min 29 sec)
Heartbeat CPU 0 instructions: 640000000 cycles: 726083471 heartbeat IPC: 1.683 cumulative IPC: 0.8273 (Simulation time: 03 hr 11 min 26 sec)
Heartbeat CPU 0 instructions: 650000003 cycles: 732042928 heartbeat IPC: 1.678 cumulative IPC: 0.8343 (Simulation time: 03 hr 13 min 25 sec)
Simulation finished CPU 0 instructions: 600000002 cycles: 719161872 cumulative IPC: 0.8343 (Simulation time: 03 hr 13 min 25 sec)
Simulation complete CPU 0 instructions: 600000002 cycles: 719161872 cumulative IPC: 0.8343 (Simulation time: 03 hr 13 min 25 sec)

ChampSim completed all CPUs

=== Simulation ===
CPU 0 runs traces/sp.A.champsimtrace
Region of Interest Statistics

CPU 0 cumulative IPC: 0.8343 instructions: 600000002 cycles: 719161872
CPU 0 Branch Prediction Accuracy: 99.98% MPKI: 0.004213 Average ROB Occupancy at Mispredict: 119.5
Branch type MPKI
BRANCH_DIRECT_JUMP: 5e-06
BRANCH_INDIRECT: 7.67e-05
BRANCH_CONDITIONAL: 0.00404
BRANCH_DIRECT_CALL: 2e-05
BRANCH_INDIRECT_CALL: 3.33e-05
BRANCH_RETURN: 3.67e-05

LLC TOTAL        ACCESS:    5280439 HIT:    1769037 MISS:    3511402
LLC LOAD         ACCESS:    2308144 HIT:     629995 MISS:    1678149
LLC RFO          ACCESS:     922676 HIT:      67174 MISS:     855502
LLC PREFETCH     ACCESS:          0 HIT:          0 MISS:          0
LLC WRITE        ACCESS:    2046155 HIT:    1070544 MISS:     975611
LLC TRANSLATION  ACCESS:       3464 HIT:       1324 MISS:       2140
LLC PREFETCH REQUESTED:          0 ISSUED:          0 USEFUL:          0 USELESS:          0
LLC AVERAGE MISS LATENCY: 982.2 cycles
cpu0_DTLB TOTAL        ACCESS:  127464751 HIT:  126398174 MISS:    1066577
cpu0_DTLB LOAD         ACCESS:  127464751 HIT:  126398174 MISS:    1066577
cpu0_DTLB RFO          ACCESS:          0 HIT:          0 MISS:          0
cpu0_DTLB PREFETCH     ACCESS:          0 HIT:          0 MISS:          0
cpu0_DTLB WRITE        ACCESS:          0 HIT:          0 MISS:          0
cpu0_DTLB TRANSLATION  ACCESS:          0 HIT:          0 MISS:          0
cpu0_DTLB PREFETCH REQUESTED:          0 ISSUED:          0 USEFUL:          0 USELESS:          0
cpu0_DTLB AVERAGE MISS LATENCY: 16.03 cycles
cpu0_ITLB TOTAL        ACCESS:     235086 HIT:     234826 MISS:        260
cpu0_ITLB LOAD         ACCESS:     235086 HIT:     234826 MISS:        260
cpu0_ITLB RFO          ACCESS:          0 HIT:          0 MISS:          0
cpu0_ITLB PREFETCH     ACCESS:          0 HIT:          0 MISS:          0
cpu0_ITLB WRITE        ACCESS:          0 HIT:          0 MISS:          0
cpu0_ITLB TRANSLATION  ACCESS:          0 HIT:          0 MISS:          0
cpu0_ITLB PREFETCH REQUESTED:          0 ISSUED:          0 USEFUL:          0 USELESS:          0
cpu0_ITLB AVERAGE MISS LATENCY: 257.5 cycles
cpu0_L1D TOTAL        ACCESS:  193103224 HIT:  178837097 MISS:   14266127
cpu0_L1D LOAD         ACCESS:  157860974 HIT:  147601456 MISS:   10259518
cpu0_L1D RFO          ACCESS:          0 HIT:          0 MISS:          0
cpu0_L1D PREFETCH     ACCESS:          0 HIT:          0 MISS:          0
cpu0_L1D WRITE        ACCESS:   35194377 HIT:   31206079 MISS:    3988298
cpu0_L1D TRANSLATION  ACCESS:      47873 HIT:      29562 MISS:      18311
cpu0_L1D PREFETCH REQUESTED:          0 ISSUED:          0 USEFUL:          0 USELESS:          0
cpu0_L1D AVERAGE MISS LATENCY: 178.7 cycles
cpu0_L1I TOTAL        ACCESS:     246081 HIT:     243046 MISS:       3035
cpu0_L1I LOAD         ACCESS:     246081 HIT:     243046 MISS:       3035
cpu0_L1I RFO          ACCESS:          0 HIT:          0 MISS:          0
cpu0_L1I PREFETCH     ACCESS:          0 HIT:          0 MISS:          0
cpu0_L1I WRITE        ACCESS:          0 HIT:          0 MISS:          0
cpu0_L1I TRANSLATION  ACCESS:          0 HIT:          0 MISS:          0
cpu0_L1I PREFETCH REQUESTED:          0 ISSUED:          0 USEFUL:          0 USELESS:          0
cpu0_L1I AVERAGE MISS LATENCY: 496.1 cycles
cpu0_L2C TOTAL        ACCESS:    5441928 HIT:    2207300 MISS:    3234628
cpu0_L2C LOAD         ACCESS:    2441016 HIT:     132871 MISS:    2308145
cpu0_L2C RFO          ACCESS:     924381 HIT:       1705 MISS:     922676
cpu0_L2C PREFETCH     ACCESS:          0 HIT:          0 MISS:          0
cpu0_L2C WRITE        ACCESS:    2058224 HIT:    2057881 MISS:        343
cpu0_L2C TRANSLATION  ACCESS:      18307 HIT:      14843 MISS:       3464
cpu0_L2C PREFETCH REQUESTED:          0 ISSUED:          0 USEFUL:          0 USELESS:          0
cpu0_L2C AVERAGE MISS LATENCY: 1087 cycles
cpu0_STLB TOTAL        ACCESS:     804513 HIT:     756666 MISS:      47847
cpu0_STLB LOAD         ACCESS:     804513 HIT:     756666 MISS:      47847
cpu0_STLB RFO          ACCESS:          0 HIT:          0 MISS:          0
cpu0_STLB PREFETCH     ACCESS:          0 HIT:          0 MISS:          0
cpu0_STLB WRITE        ACCESS:          0 HIT:          0 MISS:          0
cpu0_STLB TRANSLATION  ACCESS:          0 HIT:          0 MISS:          0
cpu0_STLB PREFETCH REQUESTED:          0 ISSUED:          0 USEFUL:          0 USELESS:          0
cpu0_STLB AVERAGE MISS LATENCY: 318.4 cycles

DRAM Statistics

Channel 0 RQ ROW_BUFFER_HIT:     704817
  ROW_BUFFER_MISS:    1830949
 AVG DBUS CONGESTED CYCLE: 3.975
WQ ROW_BUFFER_HIT: Channel 0 
  ROW_BUFFER_MISS:     513458
  FULL:    1189069
Final OPTGen Hits: 14603
Final OPTGen Access: 54351
Final OPTGEN Hit Rate: 26.868
