WARNING: physical memory size is smaller than virtual memory size.

*** ChampSim Multicore Out-of-Order Simulator ***
Warmup Instructions: 50000000
Simulation Instructions: 600000000
Number of CPUs: 1
Page size: 4096

CPU 0 Tage branch predictor
Off-chip DRAM Size: 4 GiB Channels: 1 Width: 64-bit Data Race: 3200 MT/s
Heartbeat CPU 0 instructions: 10000003 cycles: 2881057 heartbeat IPC: 3.471 cumulative IPC: 3.471 (Simulation time: 00 hr 00 min 41 sec)
Heartbeat CPU 0 instructions: 20000003 cycles: 5381057 heartbeat IPC: 4 cumulative IPC: 3.717 (Simulation time: 00 hr 01 min 20 sec)
Heartbeat CPU 0 instructions: 30000003 cycles: 7881057 heartbeat IPC: 4 cumulative IPC: 3.807 (Simulation time: 00 hr 01 min 57 sec)
Heartbeat CPU 0 instructions: 40000003 cycles: 10381057 heartbeat IPC: 4 cumulative IPC: 3.853 (Simulation time: 00 hr 02 min 35 sec)
Heartbeat CPU 0 instructions: 50000003 cycles: 12881057 heartbeat IPC: 4 cumulative IPC: 3.882 (Simulation time: 00 hr 03 min 15 sec)
Warmup finished CPU 0 instructions: 50000003 cycles: 12881058 cumulative IPC: 3.882 (Simulation time: 00 hr 03 min 15 sec)
Warmup complete CPU 0 instructions: 50000003 cycles: 12881058 cumulative IPC: 3.882 (Simulation time: 00 hr 03 min 15 sec)
Heartbeat CPU 0 instructions: 60000000 cycles: 17096279 heartbeat IPC: 2.372 cumulative IPC: 2.372 (Simulation time: 00 hr 04 min 16 sec)
Heartbeat CPU 0 instructions: 70000000 cycles: 21498808 heartbeat IPC: 2.271 cumulative IPC: 2.321 (Simulation time: 00 hr 05 min 17 sec)
Heartbeat CPU 0 instructions: 80000000 cycles: 25967240 heartbeat IPC: 2.238 cumulative IPC: 2.292 (Simulation time: 00 hr 06 min 21 sec)
Heartbeat CPU 0 instructions: 90000003 cycles: 30370474 heartbeat IPC: 2.271 cumulative IPC: 2.287 (Simulation time: 00 hr 07 min 24 sec)
Heartbeat CPU 0 instructions: 100000000 cycles: 33817471 heartbeat IPC: 2.901 cumulative IPC: 2.388 (Simulation time: 00 hr 08 min 18 sec)
Heartbeat CPU 0 instructions: 110000001 cycles: 36360672 heartbeat IPC: 3.932 cumulative IPC: 2.555 (Simulation time: 00 hr 09 min 04 sec)
Heartbeat CPU 0 instructions: 120000001 cycles: 39880867 heartbeat IPC: 2.841 cumulative IPC: 2.593 (Simulation time: 00 hr 09 min 57 sec)
Heartbeat CPU 0 instructions: 130000000 cycles: 43491254 heartbeat IPC: 2.77 cumulative IPC: 2.614 (Simulation time: 00 hr 10 min 49 sec)
Heartbeat CPU 0 instructions: 140000004 cycles: 47217644 heartbeat IPC: 2.684 cumulative IPC: 2.621 (Simulation time: 00 hr 11 min 41 sec)
Heartbeat CPU 0 instructions: 150000000 cycles: 50931281 heartbeat IPC: 2.693 cumulative IPC: 2.628 (Simulation time: 00 hr 12 min 31 sec)
Heartbeat CPU 0 instructions: 160000000 cycles: 54613463 heartbeat IPC: 2.716 cumulative IPC: 2.636 (Simulation time: 00 hr 13 min 21 sec)
Heartbeat CPU 0 instructions: 170000003 cycles: 58231442 heartbeat IPC: 2.764 cumulative IPC: 2.646 (Simulation time: 00 hr 14 min 11 sec)
Heartbeat CPU 0 instructions: 180000002 cycles: 61907524 heartbeat IPC: 2.72 cumulative IPC: 2.652 (Simulation time: 00 hr 15 min 02 sec)
Heartbeat CPU 0 instructions: 190000002 cycles: 65399884 heartbeat IPC: 2.863 cumulative IPC: 2.666 (Simulation time: 00 hr 15 min 51 sec)
Heartbeat CPU 0 instructions: 200000000 cycles: 68720565 heartbeat IPC: 3.011 cumulative IPC: 2.686 (Simulation time: 00 hr 16 min 40 sec)
Heartbeat CPU 0 instructions: 210000000 cycles: 72060893 heartbeat IPC: 2.994 cumulative IPC: 2.704 (Simulation time: 00 hr 17 min 28 sec)
Heartbeat CPU 0 instructions: 220000001 cycles: 75467988 heartbeat IPC: 2.935 cumulative IPC: 2.716 (Simulation time: 00 hr 18 min 20 sec)
Heartbeat CPU 0 instructions: 230000004 cycles: 78719788 heartbeat IPC: 3.075 cumulative IPC: 2.734 (Simulation time: 00 hr 19 min 09 sec)
Heartbeat CPU 0 instructions: 240000002 cycles: 81972985 heartbeat IPC: 3.074 cumulative IPC: 2.75 (Simulation time: 00 hr 20 min 09 sec)
Heartbeat CPU 0 instructions: 250000001 cycles: 85195803 heartbeat IPC: 3.103 cumulative IPC: 2.766 (Simulation time: 00 hr 21 min 04 sec)
Heartbeat CPU 0 instructions: 260000002 cycles: 88343485 heartbeat IPC: 3.177 cumulative IPC: 2.783 (Simulation time: 00 hr 22 min 04 sec)
Heartbeat CPU 0 instructions: 270000003 cycles: 91600328 heartbeat IPC: 3.07 cumulative IPC: 2.795 (Simulation time: 00 hr 23 min 06 sec)
Heartbeat CPU 0 instructions: 280000003 cycles: 94917071 heartbeat IPC: 3.015 cumulative IPC: 2.804 (Simulation time: 00 hr 24 min 06 sec)
Heartbeat CPU 0 instructions: 290000001 cycles: 144887804 heartbeat IPC: 0.2001 cumulative IPC: 1.818 (Simulation time: 00 hr 30 min 11 sec)
Heartbeat CPU 0 instructions: 300000002 cycles: 147387931 heartbeat IPC: 4 cumulative IPC: 1.859 (Simulation time: 00 hr 30 min 55 sec)
Heartbeat CPU 0 instructions: 310000001 cycles: 149888545 heartbeat IPC: 3.999 cumulative IPC: 1.898 (Simulation time: 00 hr 31 min 38 sec)
Heartbeat CPU 0 instructions: 320000001 cycles: 152389074 heartbeat IPC: 3.999 cumulative IPC: 1.935 (Simulation time: 00 hr 32 min 21 sec)
Heartbeat CPU 0 instructions: 330000003 cycles: 154891442 heartbeat IPC: 3.996 cumulative IPC: 1.972 (Simulation time: 00 hr 33 min 06 sec)
Heartbeat CPU 0 instructions: 340000000 cycles: 157392488 heartbeat IPC: 3.998 cumulative IPC: 2.007 (Simulation time: 00 hr 33 min 50 sec)
Heartbeat CPU 0 instructions: 350000004 cycles: 159892595 heartbeat IPC: 4 cumulative IPC: 2.041 (Simulation time: 00 hr 34 min 35 sec)
Heartbeat CPU 0 instructions: 360000004 cycles: 162392947 heartbeat IPC: 3.999 cumulative IPC: 2.073 (Simulation time: 00 hr 35 min 23 sec)
Heartbeat CPU 0 instructions: 370000000 cycles: 164894206 heartbeat IPC: 3.998 cumulative IPC: 2.105 (Simulation time: 00 hr 36 min 14 sec)
Heartbeat CPU 0 instructions: 380000004 cycles: 167395837 heartbeat IPC: 3.997 cumulative IPC: 2.136 (Simulation time: 00 hr 37 min 14 sec)
Heartbeat CPU 0 instructions: 390000001 cycles: 169896258 heartbeat IPC: 3.999 cumulative IPC: 2.165 (Simulation time: 00 hr 38 min 09 sec)
Heartbeat CPU 0 instructions: 400000003 cycles: 172396344 heartbeat IPC: 4 cumulative IPC: 2.194 (Simulation time: 00 hr 38 min 57 sec)
Heartbeat CPU 0 instructions: 410000003 cycles: 174897312 heartbeat IPC: 3.998 cumulative IPC: 2.222 (Simulation time: 00 hr 39 min 45 sec)
Heartbeat CPU 0 instructions: 420000002 cycles: 177398519 heartbeat IPC: 3.998 cumulative IPC: 2.249 (Simulation time: 00 hr 40 min 31 sec)
Heartbeat CPU 0 instructions: 430000000 cycles: 179899405 heartbeat IPC: 3.999 cumulative IPC: 2.275 (Simulation time: 00 hr 41 min 16 sec)
Heartbeat CPU 0 instructions: 440000001 cycles: 182401585 heartbeat IPC: 3.997 cumulative IPC: 2.301 (Simulation time: 00 hr 42 min 07 sec)
Heartbeat CPU 0 instructions: 450000000 cycles: 184901867 heartbeat IPC: 4 cumulative IPC: 2.325 (Simulation time: 00 hr 42 min 53 sec)
Heartbeat CPU 0 instructions: 460000003 cycles: 187402386 heartbeat IPC: 3.999 cumulative IPC: 2.349 (Simulation time: 00 hr 43 min 40 sec)
Heartbeat CPU 0 instructions: 470000001 cycles: 189903288 heartbeat IPC: 3.999 cumulative IPC: 2.373 (Simulation time: 00 hr 44 min 27 sec)
Heartbeat CPU 0 instructions: 480000003 cycles: 192404069 heartbeat IPC: 3.999 cumulative IPC: 2.395 (Simulation time: 00 hr 45 min 13 sec)
Heartbeat CPU 0 instructions: 490000003 cycles: 194904207 heartbeat IPC: 4 cumulative IPC: 2.417 (Simulation time: 00 hr 45 min 58 sec)
Heartbeat CPU 0 instructions: 500000002 cycles: 197405362 heartbeat IPC: 3.998 cumulative IPC: 2.439 (Simulation time: 00 hr 46 min 45 sec)
Heartbeat CPU 0 instructions: 510000003 cycles: 205144631 heartbeat IPC: 1.292 cumulative IPC: 2.393 (Simulation time: 00 hr 48 min 17 sec)
Heartbeat CPU 0 instructions: 520000002 cycles: 299375054 heartbeat IPC: 0.1061 cumulative IPC: 1.641 (Simulation time: 01 hr 01 min 24 sec)
Heartbeat CPU 0 instructions: 530000004 cycles: 381390117 heartbeat IPC: 0.1219 cumulative IPC: 1.303 (Simulation time: 01 hr 13 min 20 sec)
Heartbeat CPU 0 instructions: 540000000 cycles: 418643164 heartbeat IPC: 0.2684 cumulative IPC: 1.208 (Simulation time: 01 hr 19 min 12 sec)
Heartbeat CPU 0 instructions: 550000004 cycles: 455856723 heartbeat IPC: 0.2687 cumulative IPC: 1.129 (Simulation time: 01 hr 25 min 08 sec)
Heartbeat CPU 0 instructions: 560000004 cycles: 492760071 heartbeat IPC: 0.271 cumulative IPC: 1.063 (Simulation time: 01 hr 31 min 05 sec)
Heartbeat CPU 0 instructions: 570000000 cycles: 529517891 heartbeat IPC: 0.2721 cumulative IPC: 1.007 (Simulation time: 01 hr 36 min 47 sec)
Heartbeat CPU 0 instructions: 580000001 cycles: 567612383 heartbeat IPC: 0.2625 cumulative IPC: 0.9554 (Simulation time: 01 hr 42 min 20 sec)
Heartbeat CPU 0 instructions: 590000004 cycles: 606682622 heartbeat IPC: 0.2559 cumulative IPC: 0.9094 (Simulation time: 01 hr 47 min 41 sec)
*** Reached end of trace: (0, "traces/sp.A.champsimtrace")
Heartbeat CPU 0 instructions: 600000001 cycles: 644965655 heartbeat IPC: 0.2612 cumulative IPC: 0.8701 (Simulation time: 01 hr 52 min 55 sec)
Heartbeat CPU 0 instructions: 610000000 cycles: 670288748 heartbeat IPC: 0.3949 cumulative IPC: 0.8518 (Simulation time: 01 hr 55 min 42 sec)
Heartbeat CPU 0 instructions: 620000001 cycles: 673511676 heartbeat IPC: 3.103 cumulative IPC: 0.8628 (Simulation time: 01 hr 56 min 30 sec)
Heartbeat CPU 0 instructions: 630000003 cycles: 677873478 heartbeat IPC: 2.293 cumulative IPC: 0.8722 (Simulation time: 01 hr 57 min 31 sec)
Heartbeat CPU 0 instructions: 640000004 cycles: 682288082 heartbeat IPC: 2.265 cumulative IPC: 0.8814 (Simulation time: 01 hr 58 min 29 sec)
Heartbeat CPU 0 instructions: 650000001 cycles: 686714590 heartbeat IPC: 2.259 cumulative IPC: 0.8904 (Simulation time: 01 hr 59 min 28 sec)
Simulation finished CPU 0 instructions: 600000003 cycles: 673833534 cumulative IPC: 0.8904 (Simulation time: 01 hr 59 min 28 sec)
Simulation complete CPU 0 instructions: 600000003 cycles: 673833534 cumulative IPC: 0.8904 (Simulation time: 01 hr 59 min 28 sec)

ChampSim completed all CPUs

=== Simulation ===
CPU 0 runs traces/sp.A.champsimtrace
Region of Interest Statistics

CPU 0 cumulative IPC: 0.8904 instructions: 600000003 cycles: 673833534
CPU 0 Branch Prediction Accuracy: 99.98% MPKI: 0.003913 Average ROB Occupancy at Mispredict: 107.5
Branch type MPKI
BRANCH_DIRECT_JUMP: 5e-06
BRANCH_INDIRECT: 7.5e-05
BRANCH_CONDITIONAL: 0.00374
BRANCH_DIRECT_CALL: 2e-05
BRANCH_INDIRECT_CALL: 3.17e-05
BRANCH_RETURN: 3.67e-05

LLC TOTAL        ACCESS:    7577815 HIT:    1584787 MISS:    5993028
LLC LOAD         ACCESS:    2303694 HIT:     880485 MISS:    1423209
LLC RFO          ACCESS:     922632 HIT:      27949 MISS:     894683
LLC PREFETCH     ACCESS:    2303724 HIT:     277237 MISS:    2026487
LLC WRITE        ACCESS:    2044302 HIT:     399006 MISS:    1645296
LLC TRANSLATION  ACCESS:       3463 HIT:        110 MISS:       3353
LLC PREFETCH REQUESTED:    2303974 ISSUED:    2303724 USEFUL:    1609904 USELESS:      49285
LLC AVERAGE MISS LATENCY: 796.4 cycles
cpu0_DTLB TOTAL        ACCESS:  128985985 HIT:  127994253 MISS:     991732
cpu0_DTLB LOAD         ACCESS:  128985985 HIT:  127994253 MISS:     991732
cpu0_DTLB RFO          ACCESS:          0 HIT:          0 MISS:          0
cpu0_DTLB PREFETCH     ACCESS:          0 HIT:          0 MISS:          0
cpu0_DTLB WRITE        ACCESS:          0 HIT:          0 MISS:          0
cpu0_DTLB TRANSLATION  ACCESS:          0 HIT:          0 MISS:          0
cpu0_DTLB PREFETCH REQUESTED:          0 ISSUED:          0 USEFUL:          0 USELESS:          0
cpu0_DTLB AVERAGE MISS LATENCY: 18.03 cycles
cpu0_ITLB TOTAL        ACCESS:     237545 HIT:     237294 MISS:        251
cpu0_ITLB LOAD         ACCESS:     237545 HIT:     237294 MISS:        251
cpu0_ITLB RFO          ACCESS:          0 HIT:          0 MISS:          0
cpu0_ITLB PREFETCH     ACCESS:          0 HIT:          0 MISS:          0
cpu0_ITLB WRITE        ACCESS:          0 HIT:          0 MISS:          0
cpu0_ITLB TRANSLATION  ACCESS:          0 HIT:          0 MISS:          0
cpu0_ITLB PREFETCH REQUESTED:          0 ISSUED:          0 USEFUL:          0 USELESS:          0
cpu0_ITLB AVERAGE MISS LATENCY: 380 cycles
cpu0_L1D TOTAL        ACCESS:  195674283 HIT:  181558682 MISS:   14115601
cpu0_L1D LOAD         ACCESS:  160432184 HIT:  150531467 MISS:    9900717
cpu0_L1D RFO          ACCESS:          0 HIT:          0 MISS:          0
cpu0_L1D PREFETCH     ACCESS:          0 HIT:          0 MISS:          0
cpu0_L1D WRITE        ACCESS:   35194222 HIT:   30997616 MISS:    4196606
cpu0_L1D TRANSLATION  ACCESS:      47877 HIT:      29599 MISS:      18278
cpu0_L1D PREFETCH REQUESTED:          0 ISSUED:          0 USEFUL:          0 USELESS:          0
cpu0_L1D AVERAGE MISS LATENCY: 163.6 cycles
cpu0_L1I TOTAL        ACCESS:     246994 HIT:     243999 MISS:       2995
cpu0_L1I LOAD         ACCESS:     246994 HIT:     243999 MISS:       2995
cpu0_L1I RFO          ACCESS:          0 HIT:          0 MISS:          0
cpu0_L1I PREFETCH     ACCESS:          0 HIT:          0 MISS:          0
cpu0_L1I WRITE        ACCESS:          0 HIT:          0 MISS:          0
cpu0_L1I TRANSLATION  ACCESS:          0 HIT:          0 MISS:          0
cpu0_L1I PREFETCH REQUESTED:          0 ISSUED:          0 USEFUL:          0 USELESS:          0
cpu0_L1I AVERAGE MISS LATENCY: 485.1 cycles
cpu0_L2C TOTAL        ACCESS:    5429662 HIT:    2199460 MISS:    3230202
cpu0_L2C LOAD         ACCESS:    2431410 HIT:     127671 MISS:    2303739
cpu0_L2C RFO          ACCESS:     923513 HIT:        881 MISS:     922632
cpu0_L2C PREFETCH     ACCESS:          0 HIT:          0 MISS:          0
cpu0_L2C WRITE        ACCESS:    2056463 HIT:    2056095 MISS:        368
cpu0_L2C TRANSLATION  ACCESS:      18276 HIT:      14813 MISS:       3463
cpu0_L2C PREFETCH REQUESTED:          0 ISSUED:          0 USEFUL:          0 USELESS:          0
cpu0_L2C AVERAGE MISS LATENCY: 982.2 cycles
cpu0_STLB TOTAL        ACCESS:     749709 HIT:     701862 MISS:      47847
cpu0_STLB LOAD         ACCESS:     749709 HIT:     701862 MISS:      47847
cpu0_STLB RFO          ACCESS:          0 HIT:          0 MISS:          0
cpu0_STLB PREFETCH     ACCESS:          0 HIT:          0 MISS:          0
cpu0_STLB WRITE        ACCESS:          0 HIT:          0 MISS:          0
cpu0_STLB TRANSLATION  ACCESS:          0 HIT:          0 MISS:          0
cpu0_STLB PREFETCH REQUESTED:          0 ISSUED:          0 USEFUL:          0 USELESS:          0
cpu0_STLB AVERAGE MISS LATENCY: 392.9 cycles

DRAM Statistics

Channel 0 RQ ROW_BUFFER_HIT:     792002
  ROW_BUFFER_MISS:    2162551
 AVG DBUS CONGESTED CYCLE: 3.974
WQ ROW_BUFFER_HIT: Channel 0 
  ROW_BUFFER_MISS:     603851
  FULL:    1305850
