WARNING: physical memory size is smaller than virtual memory size.

*** ChampSim Multicore Out-of-Order Simulator ***
Warmup Instructions: 50000000
Simulation Instructions: 600000000
Number of CPUs: 1
Page size: 4096

Off-chip DRAM Size: 4 GiB Channels: 1 Width: 64-bit Data Race: 3200 MT/s
Heartbeat CPU 0 instructions: 10000000 cycles: 2881055 heartbeat IPC: 3.471 cumulative IPC: 3.471 (Simulation time: 00 hr 00 min 33 sec)
Heartbeat CPU 0 instructions: 20000000 cycles: 5381055 heartbeat IPC: 4 cumulative IPC: 3.717 (Simulation time: 00 hr 01 min 05 sec)
Heartbeat CPU 0 instructions: 30000000 cycles: 7881055 heartbeat IPC: 4 cumulative IPC: 3.807 (Simulation time: 00 hr 01 min 37 sec)
Heartbeat CPU 0 instructions: 40000000 cycles: 10381055 heartbeat IPC: 4 cumulative IPC: 3.853 (Simulation time: 00 hr 02 min 08 sec)
Heartbeat CPU 0 instructions: 50000000 cycles: 12881055 heartbeat IPC: 4 cumulative IPC: 3.882 (Simulation time: 00 hr 02 min 40 sec)
Warmup finished CPU 0 instructions: 50000000 cycles: 12881056 cumulative IPC: 3.882 (Simulation time: 00 hr 02 min 40 sec)
Warmup complete CPU 0 instructions: 50000000 cycles: 12881056 cumulative IPC: 3.882 (Simulation time: 00 hr 02 min 40 sec)
Heartbeat CPU 0 instructions: 60000000 cycles: 17090924 heartbeat IPC: 2.375 cumulative IPC: 2.375 (Simulation time: 00 hr 03 min 30 sec)
Heartbeat CPU 0 instructions: 70000004 cycles: 21330529 heartbeat IPC: 2.359 cumulative IPC: 2.367 (Simulation time: 00 hr 04 min 21 sec)
Heartbeat CPU 0 instructions: 80000001 cycles: 25595891 heartbeat IPC: 2.344 cumulative IPC: 2.359 (Simulation time: 00 hr 05 min 11 sec)
Heartbeat CPU 0 instructions: 90000003 cycles: 29835552 heartbeat IPC: 2.359 cumulative IPC: 2.359 (Simulation time: 00 hr 06 min 01 sec)
Heartbeat CPU 0 instructions: 100000000 cycles: 35746545 heartbeat IPC: 1.692 cumulative IPC: 2.187 (Simulation time: 00 hr 07 min 05 sec)
Heartbeat CPU 0 instructions: 110000001 cycles: 42846593 heartbeat IPC: 1.408 cumulative IPC: 2.002 (Simulation time: 00 hr 08 min 20 sec)
Heartbeat CPU 0 instructions: 120000001 cycles: 49995567 heartbeat IPC: 1.399 cumulative IPC: 1.886 (Simulation time: 00 hr 09 min 33 sec)
Heartbeat CPU 0 instructions: 130000002 cycles: 57141302 heartbeat IPC: 1.399 cumulative IPC: 1.807 (Simulation time: 00 hr 10 min 47 sec)
Heartbeat CPU 0 instructions: 140000004 cycles: 64328766 heartbeat IPC: 1.391 cumulative IPC: 1.749 (Simulation time: 00 hr 12 min 06 sec)
Heartbeat CPU 0 instructions: 150000000 cycles: 71518138 heartbeat IPC: 1.391 cumulative IPC: 1.705 (Simulation time: 00 hr 13 min 20 sec)
Heartbeat CPU 0 instructions: 160000001 cycles: 78657213 heartbeat IPC: 1.401 cumulative IPC: 1.672 (Simulation time: 00 hr 14 min 34 sec)
Heartbeat CPU 0 instructions: 170000001 cycles: 85840209 heartbeat IPC: 1.392 cumulative IPC: 1.645 (Simulation time: 00 hr 15 min 51 sec)
Heartbeat CPU 0 instructions: 180000002 cycles: 92999656 heartbeat IPC: 1.397 cumulative IPC: 1.623 (Simulation time: 00 hr 17 min 09 sec)
Heartbeat CPU 0 instructions: 190000002 cycles: 99831138 heartbeat IPC: 1.464 cumulative IPC: 1.61 (Simulation time: 00 hr 18 min 25 sec)
Heartbeat CPU 0 instructions: 200000000 cycles: 106024072 heartbeat IPC: 1.615 cumulative IPC: 1.61 (Simulation time: 00 hr 19 min 35 sec)
Heartbeat CPU 0 instructions: 210000001 cycles: 112768873 heartbeat IPC: 1.483 cumulative IPC: 1.602 (Simulation time: 00 hr 20 min 46 sec)
Heartbeat CPU 0 instructions: 220000001 cycles: 119720673 heartbeat IPC: 1.438 cumulative IPC: 1.591 (Simulation time: 00 hr 22 min 01 sec)
Heartbeat CPU 0 instructions: 230000004 cycles: 126835435 heartbeat IPC: 1.406 cumulative IPC: 1.58 (Simulation time: 00 hr 23 min 16 sec)
Heartbeat CPU 0 instructions: 240000003 cycles: 133992887 heartbeat IPC: 1.397 cumulative IPC: 1.569 (Simulation time: 00 hr 24 min 33 sec)
Heartbeat CPU 0 instructions: 250000002 cycles: 141228945 heartbeat IPC: 1.382 cumulative IPC: 1.558 (Simulation time: 00 hr 25 min 48 sec)
Heartbeat CPU 0 instructions: 260000002 cycles: 148457830 heartbeat IPC: 1.383 cumulative IPC: 1.549 (Simulation time: 00 hr 27 min 00 sec)
Heartbeat CPU 0 instructions: 270000003 cycles: 155661822 heartbeat IPC: 1.388 cumulative IPC: 1.541 (Simulation time: 00 hr 28 min 12 sec)
Heartbeat CPU 0 instructions: 280000000 cycles: 162924664 heartbeat IPC: 1.377 cumulative IPC: 1.533 (Simulation time: 00 hr 29 min 26 sec)
Heartbeat CPU 0 instructions: 290000001 cycles: 235441758 heartbeat IPC: 0.1379 cumulative IPC: 1.078 (Simulation time: 00 hr 37 min 24 sec)
Heartbeat CPU 0 instructions: 300000002 cycles: 237946861 heartbeat IPC: 3.992 cumulative IPC: 1.111 (Simulation time: 00 hr 38 min 03 sec)
Heartbeat CPU 0 instructions: 310000001 cycles: 240452269 heartbeat IPC: 3.991 cumulative IPC: 1.142 (Simulation time: 00 hr 38 min 41 sec)
Heartbeat CPU 0 instructions: 320000000 cycles: 242957739 heartbeat IPC: 3.991 cumulative IPC: 1.174 (Simulation time: 00 hr 39 min 19 sec)
Heartbeat CPU 0 instructions: 330000003 cycles: 245462810 heartbeat IPC: 3.992 cumulative IPC: 1.204 (Simulation time: 00 hr 39 min 57 sec)
Heartbeat CPU 0 instructions: 340000000 cycles: 247968657 heartbeat IPC: 3.991 cumulative IPC: 1.234 (Simulation time: 00 hr 40 min 35 sec)
Heartbeat CPU 0 instructions: 350000004 cycles: 250473767 heartbeat IPC: 3.992 cumulative IPC: 1.263 (Simulation time: 00 hr 41 min 13 sec)
Heartbeat CPU 0 instructions: 360000004 cycles: 252979532 heartbeat IPC: 3.991 cumulative IPC: 1.291 (Simulation time: 00 hr 41 min 51 sec)
Heartbeat CPU 0 instructions: 370000000 cycles: 255485158 heartbeat IPC: 3.991 cumulative IPC: 1.319 (Simulation time: 00 hr 42 min 28 sec)
Heartbeat CPU 0 instructions: 380000004 cycles: 257990532 heartbeat IPC: 3.991 cumulative IPC: 1.346 (Simulation time: 00 hr 43 min 05 sec)
Heartbeat CPU 0 instructions: 390000001 cycles: 260496150 heartbeat IPC: 3.991 cumulative IPC: 1.373 (Simulation time: 00 hr 43 min 42 sec)
Heartbeat CPU 0 instructions: 400000003 cycles: 263002006 heartbeat IPC: 3.991 cumulative IPC: 1.399 (Simulation time: 00 hr 44 min 18 sec)
Heartbeat CPU 0 instructions: 410000003 cycles: 265507399 heartbeat IPC: 3.991 cumulative IPC: 1.425 (Simulation time: 00 hr 44 min 57 sec)
Heartbeat CPU 0 instructions: 420000002 cycles: 268013290 heartbeat IPC: 3.991 cumulative IPC: 1.45 (Simulation time: 00 hr 45 min 33 sec)
Heartbeat CPU 0 instructions: 430000000 cycles: 270518362 heartbeat IPC: 3.992 cumulative IPC: 1.475 (Simulation time: 00 hr 46 min 10 sec)
Heartbeat CPU 0 instructions: 440000001 cycles: 273023436 heartbeat IPC: 3.992 cumulative IPC: 1.499 (Simulation time: 00 hr 46 min 47 sec)
Heartbeat CPU 0 instructions: 450000000 cycles: 275528638 heartbeat IPC: 3.992 cumulative IPC: 1.523 (Simulation time: 00 hr 47 min 25 sec)
Heartbeat CPU 0 instructions: 460000003 cycles: 278035237 heartbeat IPC: 3.989 cumulative IPC: 1.546 (Simulation time: 00 hr 48 min 02 sec)
Heartbeat CPU 0 instructions: 470000001 cycles: 280540311 heartbeat IPC: 3.992 cumulative IPC: 1.569 (Simulation time: 00 hr 48 min 38 sec)
Heartbeat CPU 0 instructions: 480000003 cycles: 283045384 heartbeat IPC: 3.992 cumulative IPC: 1.592 (Simulation time: 00 hr 49 min 15 sec)
Heartbeat CPU 0 instructions: 490000003 cycles: 285551743 heartbeat IPC: 3.99 cumulative IPC: 1.614 (Simulation time: 00 hr 49 min 52 sec)
Heartbeat CPU 0 instructions: 500000002 cycles: 288057765 heartbeat IPC: 3.99 cumulative IPC: 1.635 (Simulation time: 00 hr 50 min 29 sec)
Heartbeat CPU 0 instructions: 510000003 cycles: 294411130 heartbeat IPC: 1.574 cumulative IPC: 1.634 (Simulation time: 00 hr 51 min 33 sec)
Heartbeat CPU 0 instructions: 520000001 cycles: 410254851 heartbeat IPC: 0.08632 cumulative IPC: 1.183 (Simulation time: 01 hr 05 min 40 sec)
Heartbeat CPU 0 instructions: 530000000 cycles: 502182358 heartbeat IPC: 0.1088 cumulative IPC: 0.981 (Simulation time: 01 hr 16 min 56 sec)
Heartbeat CPU 0 instructions: 540000000 cycles: 527665859 heartbeat IPC: 0.3924 cumulative IPC: 0.9519 (Simulation time: 01 hr 20 min 21 sec)
Heartbeat CPU 0 instructions: 550000002 cycles: 553138103 heartbeat IPC: 0.3926 cumulative IPC: 0.9255 (Simulation time: 01 hr 23 min 47 sec)
Heartbeat CPU 0 instructions: 560000002 cycles: 578501198 heartbeat IPC: 0.3943 cumulative IPC: 0.9017 (Simulation time: 01 hr 27 min 18 sec)
Heartbeat CPU 0 instructions: 570000002 cycles: 603590116 heartbeat IPC: 0.3986 cumulative IPC: 0.8803 (Simulation time: 01 hr 30 min 55 sec)
Heartbeat CPU 0 instructions: 580000001 cycles: 628447126 heartbeat IPC: 0.4023 cumulative IPC: 0.861 (Simulation time: 01 hr 34 min 49 sec)
Heartbeat CPU 0 instructions: 590000004 cycles: 653599864 heartbeat IPC: 0.3976 cumulative IPC: 0.8428 (Simulation time: 01 hr 38 min 53 sec)
*** Reached end of trace: (0, "traces/sp.A.champsimtrace")
Heartbeat CPU 0 instructions: 600000002 cycles: 678788520 heartbeat IPC: 0.397 cumulative IPC: 0.8259 (Simulation time: 01 hr 42 min 40 sec)
Heartbeat CPU 0 instructions: 610000000 cycles: 711614188 heartbeat IPC: 0.3046 cumulative IPC: 0.8015 (Simulation time: 01 hr 46 min 01 sec)
Heartbeat CPU 0 instructions: 620000004 cycles: 715854080 heartbeat IPC: 2.359 cumulative IPC: 0.8108 (Simulation time: 01 hr 46 min 55 sec)
Heartbeat CPU 0 instructions: 630000003 cycles: 720122300 heartbeat IPC: 2.343 cumulative IPC: 0.8201 (Simulation time: 01 hr 47 min 49 sec)
Heartbeat CPU 0 instructions: 640000004 cycles: 724326036 heartbeat IPC: 2.379 cumulative IPC: 0.8293 (Simulation time: 01 hr 48 min 42 sec)
Heartbeat CPU 0 instructions: 650000000 cycles: 728582701 heartbeat IPC: 2.349 cumulative IPC: 0.8383 (Simulation time: 01 hr 49 min 34 sec)
Simulation finished CPU 0 instructions: 600000000 cycles: 715701646 cumulative IPC: 0.8383 (Simulation time: 01 hr 49 min 34 sec)
Simulation complete CPU 0 instructions: 600000000 cycles: 715701646 cumulative IPC: 0.8383 (Simulation time: 01 hr 49 min 34 sec)

ChampSim completed all CPUs

=== Simulation ===
CPU 0 runs traces/sp.A.champsimtrace
Region of Interest Statistics

CPU 0 cumulative IPC: 0.8383 instructions: 600000000 cycles: 715701646
CPU 0 Branch Prediction Accuracy: 98.84% MPKI: 0.2406 Average ROB Occupancy at Mispredict: 221.9
Branch type MPKI
BRANCH_DIRECT_JUMP: 5e-06
BRANCH_INDIRECT: 7.5e-05
BRANCH_CONDITIONAL: 0.24
BRANCH_DIRECT_CALL: 2e-05
BRANCH_INDIRECT_CALL: 3.17e-05
BRANCH_RETURN: 3.67e-05

LLC TOTAL        ACCESS:    8131621 HIT:    4788626 MISS:    3342995
LLC LOAD         ACCESS:    2303953 HIT:    1441734 MISS:     862219
LLC RFO          ACCESS:     922633 HIT:       6327 MISS:     916306
LLC PREFETCH     ACCESS:    2856308 HIT:    1537180 MISS:    1319128
LLC WRITE        ACCESS:    2045260 HIT:    1802061 MISS:     243199
LLC TRANSLATION  ACCESS:       3467 HIT:       1324 MISS:       2143
LLC PREFETCH REQUESTED:    2856308 ISSUED:    2856308 USEFUL:    1035395 USELESS:      20688
LLC AVERAGE MISS LATENCY: 1454 cycles
cpu0_DTLB TOTAL        ACCESS:  125359619 HIT:  124532154 MISS:     827465
cpu0_DTLB LOAD         ACCESS:  125359619 HIT:  124532154 MISS:     827465
cpu0_DTLB RFO          ACCESS:          0 HIT:          0 MISS:          0
cpu0_DTLB PREFETCH     ACCESS:          0 HIT:          0 MISS:          0
cpu0_DTLB WRITE        ACCESS:          0 HIT:          0 MISS:          0
cpu0_DTLB TRANSLATION  ACCESS:          0 HIT:          0 MISS:          0
cpu0_DTLB PREFETCH REQUESTED:          0 ISSUED:          0 USEFUL:          0 USELESS:          0
cpu0_DTLB AVERAGE MISS LATENCY: 19.49 cycles
cpu0_ITLB TOTAL        ACCESS:     220459 HIT:     220239 MISS:        220
cpu0_ITLB LOAD         ACCESS:     220459 HIT:     220239 MISS:        220
cpu0_ITLB RFO          ACCESS:          0 HIT:          0 MISS:          0
cpu0_ITLB PREFETCH     ACCESS:          0 HIT:          0 MISS:          0
cpu0_ITLB WRITE        ACCESS:          0 HIT:          0 MISS:          0
cpu0_ITLB TRANSLATION  ACCESS:          0 HIT:          0 MISS:          0
cpu0_ITLB PREFETCH REQUESTED:          0 ISSUED:          0 USEFUL:          0 USELESS:          0
cpu0_ITLB AVERAGE MISS LATENCY: 263.8 cycles
cpu0_L1D TOTAL        ACCESS:  191495315 HIT:  178237844 MISS:   13257471
cpu0_L1D LOAD         ACCESS:  156253106 HIT:  147452376 MISS:    8800730
cpu0_L1D RFO          ACCESS:          0 HIT:          0 MISS:          0
cpu0_L1D PREFETCH     ACCESS:          0 HIT:          0 MISS:          0
cpu0_L1D WRITE        ACCESS:   35194330 HIT:   30755878 MISS:    4438452
cpu0_L1D TRANSLATION  ACCESS:      47879 HIT:      29590 MISS:      18289
cpu0_L1D PREFETCH REQUESTED:          0 ISSUED:          0 USEFUL:          0 USELESS:          0
cpu0_L1D AVERAGE MISS LATENCY: 177.5 cycles
cpu0_L1I TOTAL        ACCESS:     228303 HIT:     225541 MISS:       2762
cpu0_L1I LOAD         ACCESS:     228303 HIT:     225541 MISS:       2762
cpu0_L1I RFO          ACCESS:          0 HIT:          0 MISS:          0
cpu0_L1I PREFETCH     ACCESS:          0 HIT:          0 MISS:          0
cpu0_L1I WRITE        ACCESS:          0 HIT:          0 MISS:          0
cpu0_L1I TRANSLATION  ACCESS:          0 HIT:          0 MISS:          0
cpu0_L1I PREFETCH REQUESTED:          0 ISSUED:          0 USEFUL:          0 USELESS:          0
cpu0_L1I AVERAGE MISS LATENCY: 445.1 cycles
cpu0_L2C TOTAL        ACCESS:    5423882 HIT:    2193392 MISS:    3230490
cpu0_L2C LOAD         ACCESS:    2426308 HIT:     122291 MISS:    2304017
cpu0_L2C RFO          ACCESS:     923191 HIT:        558 MISS:     922633
cpu0_L2C PREFETCH     ACCESS:          0 HIT:          0 MISS:          0
cpu0_L2C WRITE        ACCESS:    2056096 HIT:    2055723 MISS:        373
cpu0_L2C TRANSLATION  ACCESS:      18287 HIT:      14820 MISS:       3467
cpu0_L2C PREFETCH REQUESTED:          0 ISSUED:          0 USEFUL:          0 USELESS:          0
cpu0_L2C AVERAGE MISS LATENCY: 929.1 cycles
cpu0_STLB TOTAL        ACCESS:     573975 HIT:     526126 MISS:      47849
cpu0_STLB LOAD         ACCESS:     573975 HIT:     526126 MISS:      47849
cpu0_STLB RFO          ACCESS:          0 HIT:          0 MISS:          0
cpu0_STLB PREFETCH     ACCESS:          0 HIT:          0 MISS:          0
cpu0_STLB WRITE        ACCESS:          0 HIT:          0 MISS:          0
cpu0_STLB TRANSLATION  ACCESS:          0 HIT:          0 MISS:          0
cpu0_STLB PREFETCH REQUESTED:          0 ISSUED:          0 USEFUL:          0 USELESS:          0
cpu0_STLB AVERAGE MISS LATENCY: 333 cycles

DRAM Statistics

Channel 0 RQ ROW_BUFFER_HIT:     881085
  ROW_BUFFER_MISS:    1900775
 AVG DBUS CONGESTED CYCLE: 3.98
WQ ROW_BUFFER_HIT: Channel 0 
  ROW_BUFFER_MISS:      39789
  FULL:    1758520
