WARNING: physical memory size is smaller than virtual memory size.

*** ChampSim Multicore Out-of-Order Simulator ***
Warmup Instructions: 50000000
Simulation Instructions: 600000000
Number of CPUs: 1
Page size: 4096

Off-chip DRAM Size: 4 GiB Channels: 1 Width: 64-bit Data Race: 3200 MT/s
Heartbeat CPU 0 instructions: 10000002 cycles: 2881057 heartbeat IPC: 3.471 cumulative IPC: 3.471 (Simulation time: 00 hr 00 min 57 sec)
Heartbeat CPU 0 instructions: 20000002 cycles: 5381057 heartbeat IPC: 4 cumulative IPC: 3.717 (Simulation time: 00 hr 01 min 50 sec)
Heartbeat CPU 0 instructions: 30000002 cycles: 7881057 heartbeat IPC: 4 cumulative IPC: 3.807 (Simulation time: 00 hr 02 min 39 sec)
Heartbeat CPU 0 instructions: 40000002 cycles: 10381057 heartbeat IPC: 4 cumulative IPC: 3.853 (Simulation time: 00 hr 03 min 25 sec)
Heartbeat CPU 0 instructions: 50000002 cycles: 12881057 heartbeat IPC: 4 cumulative IPC: 3.882 (Simulation time: 00 hr 04 min 10 sec)
Warmup finished CPU 0 instructions: 50000002 cycles: 12881058 cumulative IPC: 3.882 (Simulation time: 00 hr 04 min 10 sec)
Warmup complete CPU 0 instructions: 50000002 cycles: 12881058 cumulative IPC: 3.882 (Simulation time: 00 hr 04 min 10 sec)
Heartbeat CPU 0 instructions: 60000000 cycles: 17373514 heartbeat IPC: 2.226 cumulative IPC: 2.226 (Simulation time: 00 hr 05 min 22 sec)
Heartbeat CPU 0 instructions: 70000002 cycles: 21850016 heartbeat IPC: 2.234 cumulative IPC: 2.23 (Simulation time: 00 hr 06 min 33 sec)
Heartbeat CPU 0 instructions: 80000001 cycles: 26347725 heartbeat IPC: 2.223 cumulative IPC: 2.228 (Simulation time: 00 hr 07 min 44 sec)
Heartbeat CPU 0 instructions: 90000004 cycles: 30843046 heartbeat IPC: 2.225 cumulative IPC: 2.227 (Simulation time: 00 hr 08 min 54 sec)
Heartbeat CPU 0 instructions: 100000000 cycles: 34317354 heartbeat IPC: 2.878 cumulative IPC: 2.332 (Simulation time: 00 hr 09 min 52 sec)
Heartbeat CPU 0 instructions: 110000004 cycles: 36870830 heartbeat IPC: 3.916 cumulative IPC: 2.501 (Simulation time: 00 hr 10 min 41 sec)
Heartbeat CPU 0 instructions: 120000000 cycles: 39424736 heartbeat IPC: 3.916 cumulative IPC: 2.637 (Simulation time: 00 hr 11 min 28 sec)
Heartbeat CPU 0 instructions: 130000002 cycles: 42027275 heartbeat IPC: 3.842 cumulative IPC: 2.745 (Simulation time: 00 hr 12 min 18 sec)
Heartbeat CPU 0 instructions: 140000004 cycles: 45387451 heartbeat IPC: 2.976 cumulative IPC: 2.769 (Simulation time: 00 hr 13 min 15 sec)
Heartbeat CPU 0 instructions: 150000001 cycles: 49112027 heartbeat IPC: 2.685 cumulative IPC: 2.76 (Simulation time: 00 hr 14 min 18 sec)
Heartbeat CPU 0 instructions: 160000003 cycles: 52664201 heartbeat IPC: 2.815 cumulative IPC: 2.765 (Simulation time: 00 hr 15 min 19 sec)
Heartbeat CPU 0 instructions: 170000000 cycles: 56426925 heartbeat IPC: 2.658 cumulative IPC: 2.756 (Simulation time: 00 hr 16 min 23 sec)
Heartbeat CPU 0 instructions: 180000000 cycles: 60125353 heartbeat IPC: 2.704 cumulative IPC: 2.752 (Simulation time: 00 hr 17 min 26 sec)
Heartbeat CPU 0 instructions: 190000000 cycles: 63544000 heartbeat IPC: 2.925 cumulative IPC: 2.763 (Simulation time: 00 hr 18 min 26 sec)
Heartbeat CPU 0 instructions: 200000004 cycles: 66304861 heartbeat IPC: 3.622 cumulative IPC: 2.808 (Simulation time: 00 hr 19 min 20 sec)
Heartbeat CPU 0 instructions: 210000001 cycles: 69026949 heartbeat IPC: 3.674 cumulative IPC: 2.85 (Simulation time: 00 hr 20 min 12 sec)
Heartbeat CPU 0 instructions: 220000004 cycles: 71780256 heartbeat IPC: 3.632 cumulative IPC: 2.886 (Simulation time: 00 hr 21 min 06 sec)
Heartbeat CPU 0 instructions: 230000000 cycles: 74537618 heartbeat IPC: 3.627 cumulative IPC: 2.919 (Simulation time: 00 hr 21 min 59 sec)
Heartbeat CPU 0 instructions: 240000001 cycles: 77263592 heartbeat IPC: 3.668 cumulative IPC: 2.951 (Simulation time: 00 hr 22 min 53 sec)
Heartbeat CPU 0 instructions: 250000002 cycles: 80024816 heartbeat IPC: 3.622 cumulative IPC: 2.979 (Simulation time: 00 hr 23 min 47 sec)
Heartbeat CPU 0 instructions: 260000000 cycles: 82775519 heartbeat IPC: 3.635 cumulative IPC: 3.005 (Simulation time: 00 hr 24 min 41 sec)
Heartbeat CPU 0 instructions: 270000002 cycles: 85502479 heartbeat IPC: 3.667 cumulative IPC: 3.029 (Simulation time: 00 hr 25 min 35 sec)
Heartbeat CPU 0 instructions: 280000003 cycles: 88259713 heartbeat IPC: 3.627 cumulative IPC: 3.051 (Simulation time: 00 hr 26 min 29 sec)
Heartbeat CPU 0 instructions: 290000000 cycles: 133306037 heartbeat IPC: 0.222 cumulative IPC: 1.993 (Simulation time: 00 hr 33 min 45 sec)
Heartbeat CPU 0 instructions: 300000001 cycles: 135808427 heartbeat IPC: 3.996 cumulative IPC: 2.034 (Simulation time: 00 hr 34 min 36 sec)
Heartbeat CPU 0 instructions: 310000000 cycles: 138310804 heartbeat IPC: 3.996 cumulative IPC: 2.073 (Simulation time: 00 hr 35 min 26 sec)
Heartbeat CPU 0 instructions: 320000002 cycles: 140813740 heartbeat IPC: 3.995 cumulative IPC: 2.11 (Simulation time: 00 hr 36 min 16 sec)
Heartbeat CPU 0 instructions: 330000004 cycles: 143317699 heartbeat IPC: 3.994 cumulative IPC: 2.147 (Simulation time: 00 hr 37 min 07 sec)
Heartbeat CPU 0 instructions: 340000004 cycles: 145821560 heartbeat IPC: 3.994 cumulative IPC: 2.181 (Simulation time: 00 hr 37 min 57 sec)
Heartbeat CPU 0 instructions: 350000003 cycles: 148325048 heartbeat IPC: 3.994 cumulative IPC: 2.215 (Simulation time: 00 hr 38 min 48 sec)
Heartbeat CPU 0 instructions: 360000002 cycles: 150827438 heartbeat IPC: 3.996 cumulative IPC: 2.247 (Simulation time: 00 hr 39 min 39 sec)
Heartbeat CPU 0 instructions: 370000004 cycles: 153331617 heartbeat IPC: 3.993 cumulative IPC: 2.278 (Simulation time: 00 hr 40 min 31 sec)
Heartbeat CPU 0 instructions: 380000003 cycles: 155835391 heartbeat IPC: 3.994 cumulative IPC: 2.308 (Simulation time: 00 hr 41 min 22 sec)
Heartbeat CPU 0 instructions: 390000000 cycles: 158338132 heartbeat IPC: 3.996 cumulative IPC: 2.337 (Simulation time: 00 hr 42 min 14 sec)
Heartbeat CPU 0 instructions: 400000002 cycles: 160842356 heartbeat IPC: 3.993 cumulative IPC: 2.365 (Simulation time: 00 hr 43 min 05 sec)
Heartbeat CPU 0 instructions: 410000002 cycles: 163345051 heartbeat IPC: 3.996 cumulative IPC: 2.393 (Simulation time: 00 hr 43 min 56 sec)
Heartbeat CPU 0 instructions: 420000000 cycles: 165847580 heartbeat IPC: 3.996 cumulative IPC: 2.419 (Simulation time: 00 hr 44 min 47 sec)
Heartbeat CPU 0 instructions: 430000001 cycles: 168350129 heartbeat IPC: 3.996 cumulative IPC: 2.444 (Simulation time: 00 hr 45 min 37 sec)
Heartbeat CPU 0 instructions: 440000000 cycles: 170855126 heartbeat IPC: 3.992 cumulative IPC: 2.469 (Simulation time: 00 hr 46 min 28 sec)
Heartbeat CPU 0 instructions: 450000001 cycles: 173357463 heartbeat IPC: 3.996 cumulative IPC: 2.493 (Simulation time: 00 hr 47 min 19 sec)
Heartbeat CPU 0 instructions: 460000002 cycles: 175860935 heartbeat IPC: 3.994 cumulative IPC: 2.516 (Simulation time: 00 hr 48 min 09 sec)
Heartbeat CPU 0 instructions: 470000001 cycles: 178364571 heartbeat IPC: 3.994 cumulative IPC: 2.538 (Simulation time: 00 hr 49 min 00 sec)
Heartbeat CPU 0 instructions: 480000000 cycles: 180866958 heartbeat IPC: 3.996 cumulative IPC: 2.56 (Simulation time: 00 hr 49 min 51 sec)
Heartbeat CPU 0 instructions: 490000001 cycles: 183370490 heartbeat IPC: 3.994 cumulative IPC: 2.581 (Simulation time: 00 hr 50 min 41 sec)
Heartbeat CPU 0 instructions: 500000004 cycles: 185875799 heartbeat IPC: 3.992 cumulative IPC: 2.601 (Simulation time: 00 hr 51 min 32 sec)
Heartbeat CPU 0 instructions: 510000000 cycles: 193897857 heartbeat IPC: 1.247 cumulative IPC: 2.541 (Simulation time: 00 hr 53 min 21 sec)
Heartbeat CPU 0 instructions: 520000002 cycles: 292812193 heartbeat IPC: 0.1011 cumulative IPC: 1.679 (Simulation time: 01 hr 11 min 07 sec)
Heartbeat CPU 0 instructions: 530000001 cycles: 368880864 heartbeat IPC: 0.1315 cumulative IPC: 1.348 (Simulation time: 01 hr 25 min 13 sec)
Heartbeat CPU 0 instructions: 540000000 cycles: 405676739 heartbeat IPC: 0.2718 cumulative IPC: 1.247 (Simulation time: 01 hr 32 min 20 sec)
Heartbeat CPU 0 instructions: 550000001 cycles: 442334075 heartbeat IPC: 0.2728 cumulative IPC: 1.164 (Simulation time: 01 hr 39 min 29 sec)
Heartbeat CPU 0 instructions: 560000000 cycles: 478610098 heartbeat IPC: 0.2757 cumulative IPC: 1.095 (Simulation time: 01 hr 46 min 36 sec)
Heartbeat CPU 0 instructions: 570000003 cycles: 515900222 heartbeat IPC: 0.2682 cumulative IPC: 1.034 (Simulation time: 01 hr 53 min 52 sec)
Heartbeat CPU 0 instructions: 580000002 cycles: 552626422 heartbeat IPC: 0.2723 cumulative IPC: 0.9819 (Simulation time: 02 hr 01 min 04 sec)
Heartbeat CPU 0 instructions: 590000001 cycles: 590220062 heartbeat IPC: 0.266 cumulative IPC: 0.9353 (Simulation time: 02 hr 08 min 26 sec)
*** Reached end of trace: (0, "traces/sp.A.champsimtrace")
Heartbeat CPU 0 instructions: 600000004 cycles: 627403463 heartbeat IPC: 0.2689 cumulative IPC: 0.895 (Simulation time: 02 hr 15 min 49 sec)
Heartbeat CPU 0 instructions: 610000004 cycles: 646994085 heartbeat IPC: 0.5104 cumulative IPC: 0.8831 (Simulation time: 02 hr 19 min 12 sec)
Heartbeat CPU 0 instructions: 620000002 cycles: 649542240 heartbeat IPC: 3.924 cumulative IPC: 0.8953 (Simulation time: 02 hr 20 min 04 sec)
Heartbeat CPU 0 instructions: 630000001 cycles: 652092197 heartbeat IPC: 3.922 cumulative IPC: 0.9074 (Simulation time: 02 hr 20 min 57 sec)
Heartbeat CPU 0 instructions: 640000000 cycles: 655609366 heartbeat IPC: 2.843 cumulative IPC: 0.918 (Simulation time: 02 hr 22 min 01 sec)
Heartbeat CPU 0 instructions: 650000004 cycles: 660030497 heartbeat IPC: 2.262 cumulative IPC: 0.9271 (Simulation time: 02 hr 23 min 17 sec)
Simulation finished CPU 0 instructions: 600000002 cycles: 647149440 cumulative IPC: 0.9271 (Simulation time: 02 hr 23 min 17 sec)
Simulation complete CPU 0 instructions: 600000002 cycles: 647149440 cumulative IPC: 0.9271 (Simulation time: 02 hr 23 min 17 sec)

ChampSim completed all CPUs

=== Simulation ===
CPU 0 runs traces/sp.A.champsimtrace
Region of Interest Statistics

CPU 0 cumulative IPC: 0.9271 instructions: 600000002 cycles: 647149440
CPU 0 Branch Prediction Accuracy: 98.84% MPKI: 0.2407 Average ROB Occupancy at Mispredict: 218.1
Branch type MPKI
BRANCH_DIRECT_JUMP: 5e-06
BRANCH_INDIRECT: 7.67e-05
BRANCH_CONDITIONAL: 0.241
BRANCH_DIRECT_CALL: 2e-05
BRANCH_INDIRECT_CALL: 3.33e-05
BRANCH_RETURN: 3.67e-05

LLC TOTAL        ACCESS:    7588592 HIT:    2248720 MISS:    5339872
LLC LOAD         ACCESS:    2308144 HIT:    1089733 MISS:    1218411
LLC RFO          ACCESS:     922675 HIT:      60618 MISS:     862057
LLC PREFETCH     ACCESS:    2308153 HIT:     515963 MISS:    1792190
LLC WRITE        ACCESS:    2046155 HIT:     582207 MISS:    1463948
LLC TRANSLATION  ACCESS:       3465 HIT:        199 MISS:       3266
LLC PREFETCH REQUESTED:    2308153 ISSUED:    2308153 USEFUL:    1404475 USELESS:      39177
LLC AVERAGE MISS LATENCY: 776.7 cycles
cpu0_DTLB TOTAL        ACCESS:  127555556 HIT:  126688105 MISS:     867451
cpu0_DTLB LOAD         ACCESS:  127555556 HIT:  126688105 MISS:     867451
cpu0_DTLB RFO          ACCESS:          0 HIT:          0 MISS:          0
cpu0_DTLB PREFETCH     ACCESS:          0 HIT:          0 MISS:          0
cpu0_DTLB WRITE        ACCESS:          0 HIT:          0 MISS:          0
cpu0_DTLB TRANSLATION  ACCESS:          0 HIT:          0 MISS:          0
cpu0_DTLB PREFETCH REQUESTED:          0 ISSUED:          0 USEFUL:          0 USELESS:          0
cpu0_DTLB AVERAGE MISS LATENCY: 19.03 cycles
cpu0_ITLB TOTAL        ACCESS:     216582 HIT:     216357 MISS:        225
cpu0_ITLB LOAD         ACCESS:     216582 HIT:     216357 MISS:        225
cpu0_ITLB RFO          ACCESS:          0 HIT:          0 MISS:          0
cpu0_ITLB PREFETCH     ACCESS:          0 HIT:          0 MISS:          0
cpu0_ITLB WRITE        ACCESS:          0 HIT:          0 MISS:          0
cpu0_ITLB TRANSLATION  ACCESS:          0 HIT:          0 MISS:          0
cpu0_ITLB PREFETCH REQUESTED:          0 ISSUED:          0 USEFUL:          0 USELESS:          0
cpu0_ITLB AVERAGE MISS LATENCY: 299.8 cycles
cpu0_L1D TOTAL        ACCESS:  193034786 HIT:  178824757 MISS:   14210029
cpu0_L1D LOAD         ACCESS:  157792666 HIT:  147806255 MISS:    9986411
cpu0_L1D RFO          ACCESS:          0 HIT:          0 MISS:          0
cpu0_L1D PREFETCH     ACCESS:          0 HIT:          0 MISS:          0
cpu0_L1D WRITE        ACCESS:   35194246 HIT:   30988897 MISS:    4205349
cpu0_L1D TRANSLATION  ACCESS:      47874 HIT:      29605 MISS:      18269
cpu0_L1D PREFETCH REQUESTED:          0 ISSUED:          0 USEFUL:          0 USELESS:          0
cpu0_L1D AVERAGE MISS LATENCY: 151.3 cycles
cpu0_L1I TOTAL        ACCESS:     224000 HIT:     221252 MISS:       2748
cpu0_L1I LOAD         ACCESS:     224000 HIT:     221252 MISS:       2748
cpu0_L1I RFO          ACCESS:          0 HIT:          0 MISS:          0
cpu0_L1I PREFETCH     ACCESS:          0 HIT:          0 MISS:          0
cpu0_L1I WRITE        ACCESS:          0 HIT:          0 MISS:          0
cpu0_L1I TRANSLATION  ACCESS:          0 HIT:          0 MISS:          0
cpu0_L1I PREFETCH REQUESTED:          0 ISSUED:          0 USEFUL:          0 USELESS:          0
cpu0_L1I AVERAGE MISS LATENCY: 445.8 cycles
cpu0_L2C TOTAL        ACCESS:    5431032 HIT:    2196405 MISS:    3234627
cpu0_L2C LOAD         ACCESS:    2430713 HIT:     122568 MISS:    2308145
cpu0_L2C RFO          ACCESS:     924058 HIT:       1383 MISS:     922675
cpu0_L2C PREFETCH     ACCESS:          0 HIT:          0 MISS:          0
cpu0_L2C WRITE        ACCESS:    2057997 HIT:    2057655 MISS:        342
cpu0_L2C TRANSLATION  ACCESS:      18264 HIT:      14799 MISS:       3465
cpu0_L2C PREFETCH REQUESTED:          0 ISSUED:          0 USEFUL:          0 USELESS:          0
cpu0_L2C AVERAGE MISS LATENCY: 924.5 cycles
cpu0_STLB TOTAL        ACCESS:     610610 HIT:     562762 MISS:      47848
cpu0_STLB LOAD         ACCESS:     610610 HIT:     562762 MISS:      47848
cpu0_STLB RFO          ACCESS:          0 HIT:          0 MISS:          0
cpu0_STLB PREFETCH     ACCESS:          0 HIT:          0 MISS:          0
cpu0_STLB WRITE        ACCESS:          0 HIT:          0 MISS:          0
cpu0_STLB TRANSLATION  ACCESS:          0 HIT:          0 MISS:          0
cpu0_STLB PREFETCH REQUESTED:          0 ISSUED:          0 USEFUL:          0 USELESS:          0
cpu0_STLB AVERAGE MISS LATENCY: 385.9 cycles

DRAM Statistics

Channel 0 RQ ROW_BUFFER_HIT:     742363
  ROW_BUFFER_MISS:    1955487
 AVG DBUS CONGESTED CYCLE: 3.975
WQ ROW_BUFFER_HIT: Channel 0 
  ROW_BUFFER_MISS:     654233
  FULL:    1102384
