WARNING: physical memory size is smaller than virtual memory size.

*** ChampSim Multicore Out-of-Order Simulator ***
Warmup Instructions: 50000000
Simulation Instructions: 600000000
Number of CPUs: 1
Page size: 4096

Off-chip DRAM Size: 4 GiB Channels: 1 Width: 64-bit Data Race: 3200 MT/s
Heartbeat CPU 0 instructions: 10000000 cycles: 2881055 heartbeat IPC: 3.471 cumulative IPC: 3.471 (Simulation time: 00 hr 00 min 35 sec)
Heartbeat CPU 0 instructions: 20000000 cycles: 5381055 heartbeat IPC: 4 cumulative IPC: 3.717 (Simulation time: 00 hr 01 min 07 sec)
Heartbeat CPU 0 instructions: 30000000 cycles: 7881055 heartbeat IPC: 4 cumulative IPC: 3.807 (Simulation time: 00 hr 01 min 42 sec)
Heartbeat CPU 0 instructions: 40000000 cycles: 10381055 heartbeat IPC: 4 cumulative IPC: 3.853 (Simulation time: 00 hr 02 min 15 sec)
Heartbeat CPU 0 instructions: 50000000 cycles: 12881055 heartbeat IPC: 4 cumulative IPC: 3.882 (Simulation time: 00 hr 02 min 47 sec)
Warmup finished CPU 0 instructions: 50000000 cycles: 12881056 cumulative IPC: 3.882 (Simulation time: 00 hr 02 min 47 sec)
Warmup complete CPU 0 instructions: 50000000 cycles: 12881056 cumulative IPC: 3.882 (Simulation time: 00 hr 02 min 47 sec)
Heartbeat CPU 0 instructions: 60000000 cycles: 17088153 heartbeat IPC: 2.377 cumulative IPC: 2.377 (Simulation time: 00 hr 03 min 39 sec)
Heartbeat CPU 0 instructions: 70000004 cycles: 21361003 heartbeat IPC: 2.34 cumulative IPC: 2.359 (Simulation time: 00 hr 04 min 31 sec)
Heartbeat CPU 0 instructions: 80000001 cycles: 25584353 heartbeat IPC: 2.368 cumulative IPC: 2.362 (Simulation time: 00 hr 05 min 22 sec)
Heartbeat CPU 0 instructions: 90000003 cycles: 29781583 heartbeat IPC: 2.383 cumulative IPC: 2.367 (Simulation time: 00 hr 06 min 13 sec)
Heartbeat CPU 0 instructions: 100000000 cycles: 35658267 heartbeat IPC: 1.702 cumulative IPC: 2.195 (Simulation time: 00 hr 07 min 17 sec)
Heartbeat CPU 0 instructions: 110000001 cycles: 42753909 heartbeat IPC: 1.409 cumulative IPC: 2.009 (Simulation time: 00 hr 08 min 29 sec)
Heartbeat CPU 0 instructions: 120000003 cycles: 49872447 heartbeat IPC: 1.405 cumulative IPC: 1.892 (Simulation time: 00 hr 09 min 41 sec)
Heartbeat CPU 0 instructions: 130000002 cycles: 57002751 heartbeat IPC: 1.402 cumulative IPC: 1.813 (Simulation time: 00 hr 10 min 53 sec)
Heartbeat CPU 0 instructions: 140000004 cycles: 64184996 heartbeat IPC: 1.392 cumulative IPC: 1.754 (Simulation time: 00 hr 12 min 04 sec)
Heartbeat CPU 0 instructions: 150000000 cycles: 71351628 heartbeat IPC: 1.395 cumulative IPC: 1.71 (Simulation time: 00 hr 13 min 16 sec)
Heartbeat CPU 0 instructions: 160000001 cycles: 78505817 heartbeat IPC: 1.398 cumulative IPC: 1.676 (Simulation time: 00 hr 14 min 27 sec)
Heartbeat CPU 0 instructions: 170000001 cycles: 85632166 heartbeat IPC: 1.403 cumulative IPC: 1.649 (Simulation time: 00 hr 15 min 38 sec)
Heartbeat CPU 0 instructions: 180000002 cycles: 92818299 heartbeat IPC: 1.392 cumulative IPC: 1.626 (Simulation time: 00 hr 16 min 51 sec)
Heartbeat CPU 0 instructions: 190000002 cycles: 99658734 heartbeat IPC: 1.462 cumulative IPC: 1.613 (Simulation time: 00 hr 18 min 00 sec)
Heartbeat CPU 0 instructions: 200000000 cycles: 105883347 heartbeat IPC: 1.607 cumulative IPC: 1.613 (Simulation time: 00 hr 19 min 05 sec)
Heartbeat CPU 0 instructions: 210000001 cycles: 112624429 heartbeat IPC: 1.483 cumulative IPC: 1.604 (Simulation time: 00 hr 20 min 13 sec)
Heartbeat CPU 0 instructions: 220000001 cycles: 119607861 heartbeat IPC: 1.432 cumulative IPC: 1.593 (Simulation time: 00 hr 21 min 24 sec)
Heartbeat CPU 0 instructions: 230000004 cycles: 126732675 heartbeat IPC: 1.404 cumulative IPC: 1.581 (Simulation time: 00 hr 22 min 39 sec)
Heartbeat CPU 0 instructions: 240000001 cycles: 133874879 heartbeat IPC: 1.4 cumulative IPC: 1.57 (Simulation time: 00 hr 23 min 54 sec)
Heartbeat CPU 0 instructions: 250000002 cycles: 141126930 heartbeat IPC: 1.379 cumulative IPC: 1.56 (Simulation time: 00 hr 25 min 07 sec)
Heartbeat CPU 0 instructions: 260000002 cycles: 148381782 heartbeat IPC: 1.378 cumulative IPC: 1.55 (Simulation time: 00 hr 26 min 19 sec)
Heartbeat CPU 0 instructions: 270000003 cycles: 155569856 heartbeat IPC: 1.391 cumulative IPC: 1.542 (Simulation time: 00 hr 27 min 32 sec)
Heartbeat CPU 0 instructions: 280000000 cycles: 162799959 heartbeat IPC: 1.383 cumulative IPC: 1.534 (Simulation time: 00 hr 28 min 45 sec)
Heartbeat CPU 0 instructions: 290000001 cycles: 235291145 heartbeat IPC: 0.1379 cumulative IPC: 1.079 (Simulation time: 00 hr 36 min 32 sec)
Heartbeat CPU 0 instructions: 300000002 cycles: 237793534 heartbeat IPC: 3.996 cumulative IPC: 1.112 (Simulation time: 00 hr 37 min 08 sec)
Heartbeat CPU 0 instructions: 310000001 cycles: 240295995 heartbeat IPC: 3.996 cumulative IPC: 1.143 (Simulation time: 00 hr 37 min 46 sec)
Heartbeat CPU 0 instructions: 320000001 cycles: 242801397 heartbeat IPC: 3.991 cumulative IPC: 1.174 (Simulation time: 00 hr 38 min 24 sec)
Heartbeat CPU 0 instructions: 330000003 cycles: 245303816 heartbeat IPC: 3.996 cumulative IPC: 1.205 (Simulation time: 00 hr 39 min 02 sec)
Heartbeat CPU 0 instructions: 340000000 cycles: 247806872 heartbeat IPC: 3.995 cumulative IPC: 1.234 (Simulation time: 00 hr 39 min 39 sec)
Heartbeat CPU 0 instructions: 350000004 cycles: 250311338 heartbeat IPC: 3.993 cumulative IPC: 1.264 (Simulation time: 00 hr 40 min 15 sec)
Heartbeat CPU 0 instructions: 360000004 cycles: 252814145 heartbeat IPC: 3.996 cumulative IPC: 1.292 (Simulation time: 00 hr 40 min 52 sec)
Heartbeat CPU 0 instructions: 370000000 cycles: 255317708 heartbeat IPC: 3.994 cumulative IPC: 1.32 (Simulation time: 00 hr 41 min 29 sec)
Heartbeat CPU 0 instructions: 380000004 cycles: 257820083 heartbeat IPC: 3.996 cumulative IPC: 1.347 (Simulation time: 00 hr 42 min 09 sec)
Heartbeat CPU 0 instructions: 390000001 cycles: 260322880 heartbeat IPC: 3.996 cumulative IPC: 1.374 (Simulation time: 00 hr 42 min 49 sec)
Heartbeat CPU 0 instructions: 400000003 cycles: 262825558 heartbeat IPC: 3.996 cumulative IPC: 1.4 (Simulation time: 00 hr 43 min 27 sec)
Heartbeat CPU 0 instructions: 410000003 cycles: 265328213 heartbeat IPC: 3.996 cumulative IPC: 1.426 (Simulation time: 00 hr 44 min 06 sec)
Heartbeat CPU 0 instructions: 420000002 cycles: 267831167 heartbeat IPC: 3.995 cumulative IPC: 1.451 (Simulation time: 00 hr 44 min 45 sec)
Heartbeat CPU 0 instructions: 430000000 cycles: 270333571 heartbeat IPC: 3.996 cumulative IPC: 1.476 (Simulation time: 00 hr 45 min 23 sec)
Heartbeat CPU 0 instructions: 440000001 cycles: 272836503 heartbeat IPC: 3.995 cumulative IPC: 1.5 (Simulation time: 00 hr 46 min 05 sec)
Heartbeat CPU 0 instructions: 450000000 cycles: 275339668 heartbeat IPC: 3.995 cumulative IPC: 1.524 (Simulation time: 00 hr 46 min 44 sec)
Heartbeat CPU 0 instructions: 460000003 cycles: 277841963 heartbeat IPC: 3.996 cumulative IPC: 1.547 (Simulation time: 00 hr 47 min 24 sec)
Heartbeat CPU 0 instructions: 470000001 cycles: 280344834 heartbeat IPC: 3.995 cumulative IPC: 1.57 (Simulation time: 00 hr 48 min 03 sec)
Heartbeat CPU 0 instructions: 480000003 cycles: 282848046 heartbeat IPC: 3.995 cumulative IPC: 1.593 (Simulation time: 00 hr 48 min 42 sec)
Heartbeat CPU 0 instructions: 490000003 cycles: 285350435 heartbeat IPC: 3.996 cumulative IPC: 1.615 (Simulation time: 00 hr 49 min 20 sec)
Heartbeat CPU 0 instructions: 500000002 cycles: 287853413 heartbeat IPC: 3.995 cumulative IPC: 1.637 (Simulation time: 00 hr 49 min 59 sec)
Heartbeat CPU 0 instructions: 510000002 cycles: 294198980 heartbeat IPC: 1.576 cumulative IPC: 1.635 (Simulation time: 00 hr 51 min 04 sec)
Heartbeat CPU 0 instructions: 520000001 cycles: 410228462 heartbeat IPC: 0.08618 cumulative IPC: 1.183 (Simulation time: 01 hr 05 min 12 sec)
Heartbeat CPU 0 instructions: 530000000 cycles: 502213683 heartbeat IPC: 0.1087 cumulative IPC: 0.9809 (Simulation time: 01 hr 16 min 11 sec)
Heartbeat CPU 0 instructions: 540000000 cycles: 527731970 heartbeat IPC: 0.3919 cumulative IPC: 0.9517 (Simulation time: 01 hr 19 min 35 sec)
Heartbeat CPU 0 instructions: 550000004 cycles: 553085382 heartbeat IPC: 0.3944 cumulative IPC: 0.9256 (Simulation time: 01 hr 22 min 56 sec)
Heartbeat CPU 0 instructions: 560000002 cycles: 578448167 heartbeat IPC: 0.3943 cumulative IPC: 0.9017 (Simulation time: 01 hr 26 min 20 sec)
Heartbeat CPU 0 instructions: 570000002 cycles: 603489714 heartbeat IPC: 0.3993 cumulative IPC: 0.8804 (Simulation time: 01 hr 29 min 42 sec)
Heartbeat CPU 0 instructions: 580000003 cycles: 628291154 heartbeat IPC: 0.4032 cumulative IPC: 0.8612 (Simulation time: 01 hr 33 min 03 sec)
Heartbeat CPU 0 instructions: 590000004 cycles: 653487921 heartbeat IPC: 0.3969 cumulative IPC: 0.843 (Simulation time: 01 hr 36 min 30 sec)
*** Reached end of trace: (0, "traces/sp.A.champsimtrace")
Heartbeat CPU 0 instructions: 600000002 cycles: 678639175 heartbeat IPC: 0.3976 cumulative IPC: 0.8261 (Simulation time: 01 hr 39 min 59 sec)
Heartbeat CPU 0 instructions: 610000000 cycles: 711381405 heartbeat IPC: 0.3054 cumulative IPC: 0.8017 (Simulation time: 01 hr 43 min 16 sec)
Heartbeat CPU 0 instructions: 620000004 cycles: 715628073 heartbeat IPC: 2.355 cumulative IPC: 0.8111 (Simulation time: 01 hr 44 min 07 sec)
Heartbeat CPU 0 instructions: 630000003 cycles: 719911918 heartbeat IPC: 2.334 cumulative IPC: 0.8203 (Simulation time: 01 hr 44 min 59 sec)
Heartbeat CPU 0 instructions: 640000004 cycles: 724143450 heartbeat IPC: 2.363 cumulative IPC: 0.8295 (Simulation time: 01 hr 45 min 49 sec)
Heartbeat CPU 0 instructions: 650000000 cycles: 728398244 heartbeat IPC: 2.35 cumulative IPC: 0.8386 (Simulation time: 01 hr 46 min 40 sec)
Simulation finished CPU 0 instructions: 600000000 cycles: 715517189 cumulative IPC: 0.8386 (Simulation time: 01 hr 46 min 40 sec)
Simulation complete CPU 0 instructions: 600000000 cycles: 715517189 cumulative IPC: 0.8386 (Simulation time: 01 hr 46 min 40 sec)

ChampSim completed all CPUs

=== Simulation ===
CPU 0 runs traces/sp.A.champsimtrace
Region of Interest Statistics

CPU 0 cumulative IPC: 0.8386 instructions: 600000000 cycles: 715517189
CPU 0 Branch Prediction Accuracy: 98.91% MPKI: 0.226 Average ROB Occupancy at Mispredict: 233.1
Branch type MPKI
BRANCH_DIRECT_JUMP: 5e-06
BRANCH_INDIRECT: 7.5e-05
BRANCH_CONDITIONAL: 0.226
BRANCH_DIRECT_CALL: 2e-05
BRANCH_INDIRECT_CALL: 3.17e-05
BRANCH_RETURN: 3.67e-05

LLC TOTAL        ACCESS:    8132657 HIT:    4788496 MISS:    3344161
LLC LOAD         ACCESS:    2303983 HIT:    1441947 MISS:     862036
LLC RFO          ACCESS:     922632 HIT:       6390 MISS:     916242
LLC PREFETCH     ACCESS:    2857272 HIT:    1536901 MISS:    1320371
LLC WRITE        ACCESS:    2045294 HIT:    1801948 MISS:     243346
LLC TRANSLATION  ACCESS:       3476 HIT:       1310 MISS:       2166
LLC PREFETCH REQUESTED:    2857272 ISSUED:    2857272 USEFUL:    1035675 USELESS:      20594
LLC AVERAGE MISS LATENCY: 1454 cycles
cpu0_DTLB TOTAL        ACCESS:  125429745 HIT:  124602335 MISS:     827410
cpu0_DTLB LOAD         ACCESS:  125429745 HIT:  124602335 MISS:     827410
cpu0_DTLB RFO          ACCESS:          0 HIT:          0 MISS:          0
cpu0_DTLB PREFETCH     ACCESS:          0 HIT:          0 MISS:          0
cpu0_DTLB WRITE        ACCESS:          0 HIT:          0 MISS:          0
cpu0_DTLB TRANSLATION  ACCESS:          0 HIT:          0 MISS:          0
cpu0_DTLB PREFETCH REQUESTED:          0 ISSUED:          0 USEFUL:          0 USELESS:          0
cpu0_DTLB AVERAGE MISS LATENCY: 19.37 cycles
cpu0_ITLB TOTAL        ACCESS:     220479 HIT:     220239 MISS:        240
cpu0_ITLB LOAD         ACCESS:     220479 HIT:     220239 MISS:        240
cpu0_ITLB RFO          ACCESS:          0 HIT:          0 MISS:          0
cpu0_ITLB PREFETCH     ACCESS:          0 HIT:          0 MISS:          0
cpu0_ITLB WRITE        ACCESS:          0 HIT:          0 MISS:          0
cpu0_ITLB TRANSLATION  ACCESS:          0 HIT:          0 MISS:          0
cpu0_ITLB PREFETCH REQUESTED:          0 ISSUED:          0 USEFUL:          0 USELESS:          0
cpu0_ITLB AVERAGE MISS LATENCY: 276.3 cycles
cpu0_L1D TOTAL        ACCESS:  191514366 HIT:  178258734 MISS:   13255632
cpu0_L1D LOAD         ACCESS:  156272154 HIT:  147474375 MISS:    8797779
cpu0_L1D RFO          ACCESS:          0 HIT:          0 MISS:          0
cpu0_L1D PREFETCH     ACCESS:          0 HIT:          0 MISS:          0
cpu0_L1D WRITE        ACCESS:   35194331 HIT:   30754771 MISS:    4439560
cpu0_L1D TRANSLATION  ACCESS:      47881 HIT:      29588 MISS:      18293
cpu0_L1D PREFETCH REQUESTED:          0 ISSUED:          0 USEFUL:          0 USELESS:          0
cpu0_L1D AVERAGE MISS LATENCY: 177.5 cycles
cpu0_L1I TOTAL        ACCESS:     228312 HIT:     225560 MISS:       2752
cpu0_L1I LOAD         ACCESS:     228312 HIT:     225560 MISS:       2752
cpu0_L1I RFO          ACCESS:          0 HIT:          0 MISS:          0
cpu0_L1I PREFETCH     ACCESS:          0 HIT:          0 MISS:          0
cpu0_L1I WRITE        ACCESS:          0 HIT:          0 MISS:          0
cpu0_L1I TRANSLATION  ACCESS:          0 HIT:          0 MISS:          0
cpu0_L1I PREFETCH REQUESTED:          0 ISSUED:          0 USEFUL:          0 USELESS:          0
cpu0_L1I AVERAGE MISS LATENCY: 426.6 cycles
cpu0_L2C TOTAL        ACCESS:    5423926 HIT:    2193392 MISS:    3230534
cpu0_L2C LOAD         ACCESS:    2426347 HIT:     122293 MISS:    2304054
cpu0_L2C RFO          ACCESS:     923191 HIT:        559 MISS:     922632
cpu0_L2C PREFETCH     ACCESS:          0 HIT:          0 MISS:          0
cpu0_L2C WRITE        ACCESS:    2056098 HIT:    2055726 MISS:        372
cpu0_L2C TRANSLATION  ACCESS:      18290 HIT:      14814 MISS:       3476
cpu0_L2C PREFETCH REQUESTED:          0 ISSUED:          0 USEFUL:          0 USELESS:          0
cpu0_L2C AVERAGE MISS LATENCY: 929.6 cycles
cpu0_STLB TOTAL        ACCESS:     573939 HIT:     526089 MISS:      47850
cpu0_STLB LOAD         ACCESS:     573939 HIT:     526089 MISS:      47850
cpu0_STLB RFO          ACCESS:          0 HIT:          0 MISS:          0
cpu0_STLB PREFETCH     ACCESS:          0 HIT:          0 MISS:          0
cpu0_STLB WRITE        ACCESS:          0 HIT:          0 MISS:          0
cpu0_STLB TRANSLATION  ACCESS:          0 HIT:          0 MISS:          0
cpu0_STLB PREFETCH REQUESTED:          0 ISSUED:          0 USEFUL:          0 USELESS:          0
cpu0_STLB AVERAGE MISS LATENCY: 335.3 cycles

DRAM Statistics

Channel 0 RQ ROW_BUFFER_HIT:     880267
  ROW_BUFFER_MISS:    1901594
 AVG DBUS CONGESTED CYCLE: 3.98
WQ ROW_BUFFER_HIT: Channel 0 
  ROW_BUFFER_MISS:      39635
  FULL:    1758844
