WARNING: physical memory size is smaller than virtual memory size.

*** ChampSim Multicore Out-of-Order Simulator ***
Warmup Instructions: 50000000
Simulation Instructions: 600000000
Number of CPUs: 1
Page size: 4096

CPU 0 Tage branch predictor
Off-chip DRAM Size: 4 GiB Channels: 1 Width: 64-bit Data Race: 3200 MT/s
Heartbeat CPU 0 instructions: 10000002 cycles: 2881057 heartbeat IPC: 3.471 cumulative IPC: 3.471 (Simulation time: 00 hr 00 min 57 sec)
Heartbeat CPU 0 instructions: 20000002 cycles: 5381057 heartbeat IPC: 4 cumulative IPC: 3.717 (Simulation time: 00 hr 01 min 50 sec)
Heartbeat CPU 0 instructions: 30000002 cycles: 7881057 heartbeat IPC: 4 cumulative IPC: 3.807 (Simulation time: 00 hr 02 min 42 sec)
Heartbeat CPU 0 instructions: 40000002 cycles: 10381057 heartbeat IPC: 4 cumulative IPC: 3.853 (Simulation time: 00 hr 03 min 35 sec)
Heartbeat CPU 0 instructions: 50000002 cycles: 12881057 heartbeat IPC: 4 cumulative IPC: 3.882 (Simulation time: 00 hr 04 min 29 sec)
Warmup finished CPU 0 instructions: 50000002 cycles: 12881058 cumulative IPC: 3.882 (Simulation time: 00 hr 04 min 29 sec)
Warmup complete CPU 0 instructions: 50000002 cycles: 12881058 cumulative IPC: 3.882 (Simulation time: 00 hr 04 min 29 sec)
Heartbeat CPU 0 instructions: 60000000 cycles: 17341039 heartbeat IPC: 2.242 cumulative IPC: 2.242 (Simulation time: 00 hr 05 min 54 sec)
Heartbeat CPU 0 instructions: 70000002 cycles: 21751961 heartbeat IPC: 2.267 cumulative IPC: 2.255 (Simulation time: 00 hr 07 min 19 sec)
Heartbeat CPU 0 instructions: 80000001 cycles: 26240988 heartbeat IPC: 2.228 cumulative IPC: 2.246 (Simulation time: 00 hr 08 min 43 sec)
Heartbeat CPU 0 instructions: 90000003 cycles: 30709958 heartbeat IPC: 2.238 cumulative IPC: 2.244 (Simulation time: 00 hr 10 min 08 sec)
Heartbeat CPU 0 instructions: 100000000 cycles: 34152643 heartbeat IPC: 2.905 cumulative IPC: 2.351 (Simulation time: 00 hr 11 min 30 sec)
Heartbeat CPU 0 instructions: 110000004 cycles: 36665158 heartbeat IPC: 3.98 cumulative IPC: 2.523 (Simulation time: 00 hr 12 min 31 sec)
Heartbeat CPU 0 instructions: 120000000 cycles: 39178010 heartbeat IPC: 3.98 cumulative IPC: 2.662 (Simulation time: 00 hr 13 min 30 sec)
Heartbeat CPU 0 instructions: 130000000 cycles: 41741511 heartbeat IPC: 3.901 cumulative IPC: 2.772 (Simulation time: 00 hr 14 min 31 sec)
Heartbeat CPU 0 instructions: 140000004 cycles: 45127750 heartbeat IPC: 2.953 cumulative IPC: 2.791 (Simulation time: 00 hr 15 min 40 sec)
Heartbeat CPU 0 instructions: 150000001 cycles: 48861046 heartbeat IPC: 2.679 cumulative IPC: 2.779 (Simulation time: 00 hr 16 min 55 sec)
Heartbeat CPU 0 instructions: 160000003 cycles: 52374119 heartbeat IPC: 2.847 cumulative IPC: 2.785 (Simulation time: 00 hr 18 min 07 sec)
Heartbeat CPU 0 instructions: 170000000 cycles: 56088026 heartbeat IPC: 2.693 cumulative IPC: 2.777 (Simulation time: 00 hr 19 min 21 sec)
Heartbeat CPU 0 instructions: 180000000 cycles: 59769432 heartbeat IPC: 2.716 cumulative IPC: 2.773 (Simulation time: 00 hr 20 min 34 sec)
Heartbeat CPU 0 instructions: 190000000 cycles: 63157459 heartbeat IPC: 2.952 cumulative IPC: 2.785 (Simulation time: 00 hr 21 min 42 sec)
Heartbeat CPU 0 instructions: 200000004 cycles: 65884176 heartbeat IPC: 3.667 cumulative IPC: 2.83 (Simulation time: 00 hr 22 min 45 sec)
Heartbeat CPU 0 instructions: 210000001 cycles: 68563413 heartbeat IPC: 3.732 cumulative IPC: 2.873 (Simulation time: 00 hr 23 min 47 sec)
Heartbeat CPU 0 instructions: 220000004 cycles: 71276830 heartbeat IPC: 3.685 cumulative IPC: 2.911 (Simulation time: 00 hr 24 min 49 sec)
Heartbeat CPU 0 instructions: 230000000 cycles: 73991500 heartbeat IPC: 3.684 cumulative IPC: 2.945 (Simulation time: 00 hr 25 min 52 sec)
Heartbeat CPU 0 instructions: 240000001 cycles: 76674014 heartbeat IPC: 3.728 cumulative IPC: 2.978 (Simulation time: 00 hr 26 min 53 sec)
Heartbeat CPU 0 instructions: 250000002 cycles: 79389800 heartbeat IPC: 3.682 cumulative IPC: 3.007 (Simulation time: 00 hr 27 min 56 sec)
Heartbeat CPU 0 instructions: 260000002 cycles: 82097169 heartbeat IPC: 3.694 cumulative IPC: 3.034 (Simulation time: 00 hr 28 min 59 sec)
Heartbeat CPU 0 instructions: 270000002 cycles: 84780185 heartbeat IPC: 3.727 cumulative IPC: 3.06 (Simulation time: 00 hr 30 min 01 sec)
Heartbeat CPU 0 instructions: 280000003 cycles: 87492221 heartbeat IPC: 3.687 cumulative IPC: 3.083 (Simulation time: 00 hr 31 min 04 sec)
Heartbeat CPU 0 instructions: 290000000 cycles: 132605985 heartbeat IPC: 0.2217 cumulative IPC: 2.005 (Simulation time: 00 hr 38 min 51 sec)
Heartbeat CPU 0 instructions: 300000001 cycles: 135106475 heartbeat IPC: 3.999 cumulative IPC: 2.045 (Simulation time: 00 hr 39 min 50 sec)
Heartbeat CPU 0 instructions: 310000000 cycles: 137606593 heartbeat IPC: 4 cumulative IPC: 2.085 (Simulation time: 00 hr 40 min 50 sec)
Heartbeat CPU 0 instructions: 320000002 cycles: 140108686 heartbeat IPC: 3.997 cumulative IPC: 2.122 (Simulation time: 00 hr 41 min 47 sec)
Heartbeat CPU 0 instructions: 330000004 cycles: 142609060 heartbeat IPC: 3.999 cumulative IPC: 2.158 (Simulation time: 00 hr 42 min 46 sec)
Heartbeat CPU 0 instructions: 340000004 cycles: 145109871 heartbeat IPC: 3.999 cumulative IPC: 2.193 (Simulation time: 00 hr 43 min 45 sec)
Heartbeat CPU 0 instructions: 350000003 cycles: 147610381 heartbeat IPC: 3.999 cumulative IPC: 2.227 (Simulation time: 00 hr 44 min 45 sec)
Heartbeat CPU 0 instructions: 360000002 cycles: 150111121 heartbeat IPC: 3.999 cumulative IPC: 2.259 (Simulation time: 00 hr 45 min 45 sec)
Heartbeat CPU 0 instructions: 370000004 cycles: 152611826 heartbeat IPC: 3.999 cumulative IPC: 2.29 (Simulation time: 00 hr 46 min 44 sec)
Heartbeat CPU 0 instructions: 380000003 cycles: 155113920 heartbeat IPC: 3.997 cumulative IPC: 2.32 (Simulation time: 00 hr 47 min 45 sec)
Heartbeat CPU 0 instructions: 390000000 cycles: 157615096 heartbeat IPC: 3.998 cumulative IPC: 2.349 (Simulation time: 00 hr 48 min 43 sec)
Heartbeat CPU 0 instructions: 400000002 cycles: 160116054 heartbeat IPC: 3.998 cumulative IPC: 2.377 (Simulation time: 00 hr 49 min 41 sec)
Heartbeat CPU 0 instructions: 410000002 cycles: 162616256 heartbeat IPC: 4 cumulative IPC: 2.404 (Simulation time: 00 hr 50 min 41 sec)
Heartbeat CPU 0 instructions: 420000000 cycles: 165116418 heartbeat IPC: 4 cumulative IPC: 2.43 (Simulation time: 00 hr 51 min 40 sec)
Heartbeat CPU 0 instructions: 430000001 cycles: 167616532 heartbeat IPC: 4 cumulative IPC: 2.456 (Simulation time: 00 hr 52 min 38 sec)
Heartbeat CPU 0 instructions: 440000002 cycles: 170117725 heartbeat IPC: 3.998 cumulative IPC: 2.48 (Simulation time: 00 hr 53 min 36 sec)
Heartbeat CPU 0 instructions: 450000001 cycles: 172619608 heartbeat IPC: 3.997 cumulative IPC: 2.504 (Simulation time: 00 hr 54 min 34 sec)
Heartbeat CPU 0 instructions: 460000002 cycles: 175121344 heartbeat IPC: 3.997 cumulative IPC: 2.527 (Simulation time: 00 hr 55 min 32 sec)
Heartbeat CPU 0 instructions: 470000001 cycles: 177621459 heartbeat IPC: 4 cumulative IPC: 2.549 (Simulation time: 00 hr 56 min 29 sec)
Heartbeat CPU 0 instructions: 480000000 cycles: 180121573 heartbeat IPC: 4 cumulative IPC: 2.571 (Simulation time: 00 hr 57 min 29 sec)
Heartbeat CPU 0 instructions: 490000001 cycles: 182621827 heartbeat IPC: 4 cumulative IPC: 2.592 (Simulation time: 00 hr 58 min 27 sec)
Heartbeat CPU 0 instructions: 500000004 cycles: 185122223 heartbeat IPC: 3.999 cumulative IPC: 2.613 (Simulation time: 00 hr 59 min 26 sec)
Heartbeat CPU 0 instructions: 510000000 cycles: 193154497 heartbeat IPC: 1.245 cumulative IPC: 2.552 (Simulation time: 01 hr 01 min 23 sec)
Heartbeat CPU 0 instructions: 520000002 cycles: 291230140 heartbeat IPC: 0.102 cumulative IPC: 1.689 (Simulation time: 01 hr 19 min 27 sec)
Heartbeat CPU 0 instructions: 530000001 cycles: 367175994 heartbeat IPC: 0.1317 cumulative IPC: 1.355 (Simulation time: 01 hr 33 min 24 sec)
Heartbeat CPU 0 instructions: 540000000 cycles: 403899666 heartbeat IPC: 0.2723 cumulative IPC: 1.253 (Simulation time: 01 hr 40 min 34 sec)
Heartbeat CPU 0 instructions: 550000001 cycles: 440472750 heartbeat IPC: 0.2734 cumulative IPC: 1.169 (Simulation time: 01 hr 47 min 53 sec)
Heartbeat CPU 0 instructions: 560000000 cycles: 476690390 heartbeat IPC: 0.2761 cumulative IPC: 1.1 (Simulation time: 01 hr 55 min 03 sec)
Heartbeat CPU 0 instructions: 570000003 cycles: 513911718 heartbeat IPC: 0.2687 cumulative IPC: 1.038 (Simulation time: 02 hr 02 min 21 sec)
Heartbeat CPU 0 instructions: 580000001 cycles: 550529578 heartbeat IPC: 0.2731 cumulative IPC: 0.9858 (Simulation time: 02 hr 09 min 40 sec)
Heartbeat CPU 0 instructions: 590000001 cycles: 588084814 heartbeat IPC: 0.2663 cumulative IPC: 0.9388 (Simulation time: 02 hr 17 min 09 sec)
*** Reached end of trace: (0, "traces/sp.A.champsimtrace")
Heartbeat CPU 0 instructions: 600000004 cycles: 625142106 heartbeat IPC: 0.2699 cumulative IPC: 0.8983 (Simulation time: 02 hr 24 min 44 sec)
Heartbeat CPU 0 instructions: 610000004 cycles: 644678975 heartbeat IPC: 0.5119 cumulative IPC: 0.8864 (Simulation time: 02 hr 28 min 08 sec)
Heartbeat CPU 0 instructions: 620000002 cycles: 647181595 heartbeat IPC: 3.996 cumulative IPC: 0.8986 (Simulation time: 02 hr 29 min 07 sec)
Heartbeat CPU 0 instructions: 630000001 cycles: 649686901 heartbeat IPC: 3.992 cumulative IPC: 0.9108 (Simulation time: 02 hr 30 min 07 sec)
Heartbeat CPU 0 instructions: 640000000 cycles: 653129543 heartbeat IPC: 2.905 cumulative IPC: 0.9215 (Simulation time: 02 hr 31 min 21 sec)
Heartbeat CPU 0 instructions: 650000004 cycles: 657437324 heartbeat IPC: 2.321 cumulative IPC: 0.9309 (Simulation time: 02 hr 32 min 46 sec)
Simulation finished CPU 0 instructions: 600000002 cycles: 644556267 cumulative IPC: 0.9309 (Simulation time: 02 hr 32 min 46 sec)
Simulation complete CPU 0 instructions: 600000002 cycles: 644556267 cumulative IPC: 0.9309 (Simulation time: 02 hr 32 min 46 sec)

ChampSim completed all CPUs

=== Simulation ===
CPU 0 runs traces/sp.A.champsimtrace
Region of Interest Statistics

CPU 0 cumulative IPC: 0.9309 instructions: 600000002 cycles: 644556267
CPU 0 Branch Prediction Accuracy: 99.98% MPKI: 0.004213 Average ROB Occupancy at Mispredict: 117.8
Branch type MPKI
BRANCH_DIRECT_JUMP: 5e-06
BRANCH_INDIRECT: 7.67e-05
BRANCH_CONDITIONAL: 0.00404
BRANCH_DIRECT_CALL: 2e-05
BRANCH_INDIRECT_CALL: 3.33e-05
BRANCH_RETURN: 3.67e-05

LLC TOTAL        ACCESS:    7588611 HIT:    2247993 MISS:    5340618
LLC LOAD         ACCESS:    2308148 HIT:    1088577 MISS:    1219571
LLC RFO          ACCESS:     922675 HIT:      60626 MISS:     862049
LLC PREFETCH     ACCESS:    2308155 HIT:     516218 MISS:    1791937
LLC WRITE        ACCESS:    2046166 HIT:     582380 MISS:    1463786
LLC TRANSLATION  ACCESS:       3467 HIT:        192 MISS:       3275
LLC PREFETCH REQUESTED:    2308155 ISSUED:    2308155 USEFUL:    1411390 USELESS:      39168
LLC AVERAGE MISS LATENCY: 778.5 cycles
cpu0_DTLB TOTAL        ACCESS:  129315304 HIT:  128239969 MISS:    1075335
cpu0_DTLB LOAD         ACCESS:  129315304 HIT:  128239969 MISS:    1075335
cpu0_DTLB RFO          ACCESS:          0 HIT:          0 MISS:          0
cpu0_DTLB PREFETCH     ACCESS:          0 HIT:          0 MISS:          0
cpu0_DTLB WRITE        ACCESS:          0 HIT:          0 MISS:          0
cpu0_DTLB TRANSLATION  ACCESS:          0 HIT:          0 MISS:          0
cpu0_DTLB PREFETCH REQUESTED:          0 ISSUED:          0 USEFUL:          0 USELESS:          0
cpu0_DTLB AVERAGE MISS LATENCY: 16.61 cycles
cpu0_ITLB TOTAL        ACCESS:     240068 HIT:     239815 MISS:        253
cpu0_ITLB LOAD         ACCESS:     240068 HIT:     239815 MISS:        253
cpu0_ITLB RFO          ACCESS:          0 HIT:          0 MISS:          0
cpu0_ITLB PREFETCH     ACCESS:          0 HIT:          0 MISS:          0
cpu0_ITLB WRITE        ACCESS:          0 HIT:          0 MISS:          0
cpu0_ITLB TRANSLATION  ACCESS:          0 HIT:          0 MISS:          0
cpu0_ITLB PREFETCH REQUESTED:          0 ISSUED:          0 USEFUL:          0 USELESS:          0
cpu0_ITLB AVERAGE MISS LATENCY: 277.3 cycles
cpu0_L1D TOTAL        ACCESS:  195781517 HIT:  181624144 MISS:   14157373
cpu0_L1D LOAD         ACCESS:  160539425 HIT:  150611643 MISS:    9927782
cpu0_L1D RFO          ACCESS:          0 HIT:          0 MISS:          0
cpu0_L1D PREFETCH     ACCESS:          0 HIT:          0 MISS:          0
cpu0_L1D WRITE        ACCESS:   35194217 HIT:   30982895 MISS:    4211322
cpu0_L1D TRANSLATION  ACCESS:      47875 HIT:      29606 MISS:      18269
cpu0_L1D PREFETCH REQUESTED:          0 ISSUED:          0 USEFUL:          0 USELESS:          0
cpu0_L1D AVERAGE MISS LATENCY: 151.8 cycles
cpu0_L1I TOTAL        ACCESS:     248760 HIT:     245776 MISS:       2984
cpu0_L1I LOAD         ACCESS:     248760 HIT:     245776 MISS:       2984
cpu0_L1I RFO          ACCESS:          0 HIT:          0 MISS:          0
cpu0_L1I PREFETCH     ACCESS:          0 HIT:          0 MISS:          0
cpu0_L1I WRITE        ACCESS:          0 HIT:          0 MISS:          0
cpu0_L1I TRANSLATION  ACCESS:          0 HIT:          0 MISS:          0
cpu0_L1I PREFETCH REQUESTED:          0 ISSUED:          0 USEFUL:          0 USELESS:          0
cpu0_L1I AVERAGE MISS LATENCY: 433.5 cycles
cpu0_L2C TOTAL        ACCESS:    5432055 HIT:    2197421 MISS:    3234634
cpu0_L2C LOAD         ACCESS:    2431092 HIT:     122943 MISS:    2308149
cpu0_L2C RFO          ACCESS:     924374 HIT:       1699 MISS:     922675
cpu0_L2C PREFETCH     ACCESS:          0 HIT:          0 MISS:          0
cpu0_L2C WRITE        ACCESS:    2058325 HIT:    2057982 MISS:        343
cpu0_L2C TRANSLATION  ACCESS:      18264 HIT:      14797 MISS:       3467
cpu0_L2C PREFETCH REQUESTED:          0 ISSUED:          0 USEFUL:          0 USELESS:          0
cpu0_L2C AVERAGE MISS LATENCY: 926.7 cycles
cpu0_STLB TOTAL        ACCESS:     822305 HIT:     774458 MISS:      47847
cpu0_STLB LOAD         ACCESS:     822305 HIT:     774458 MISS:      47847
cpu0_STLB RFO          ACCESS:          0 HIT:          0 MISS:          0
cpu0_STLB PREFETCH     ACCESS:          0 HIT:          0 MISS:          0
cpu0_STLB WRITE        ACCESS:          0 HIT:          0 MISS:          0
cpu0_STLB TRANSLATION  ACCESS:          0 HIT:          0 MISS:          0
cpu0_STLB PREFETCH REQUESTED:          0 ISSUED:          0 USEFUL:          0 USELESS:          0
cpu0_STLB AVERAGE MISS LATENCY: 384.8 cycles

DRAM Statistics

Channel 0 RQ ROW_BUFFER_HIT:     744924
  ROW_BUFFER_MISS:    1952909
 AVG DBUS CONGESTED CYCLE: 3.975
WQ ROW_BUFFER_HIT: Channel 0 
  ROW_BUFFER_MISS:     654875
  FULL:    1101743
