WARNING: physical memory size is smaller than virtual memory size.

*** ChampSim Multicore Out-of-Order Simulator ***
Warmup Instructions: 50000000
Simulation Instructions: 600000000
Number of CPUs: 1
Page size: 4096

CPU 0 Tage branch predictor
Off-chip DRAM Size: 4 GiB Channels: 1 Width: 64-bit Data Race: 3200 MT/s
Heartbeat CPU 0 instructions: 10000000 cycles: 2881055 heartbeat IPC: 3.471 cumulative IPC: 3.471 (Simulation time: 00 hr 00 min 28 sec)
Heartbeat CPU 0 instructions: 20000000 cycles: 5381055 heartbeat IPC: 4 cumulative IPC: 3.717 (Simulation time: 00 hr 01 min 02 sec)
Heartbeat CPU 0 instructions: 30000000 cycles: 7881055 heartbeat IPC: 4 cumulative IPC: 3.807 (Simulation time: 00 hr 01 min 39 sec)
Heartbeat CPU 0 instructions: 40000000 cycles: 10381055 heartbeat IPC: 4 cumulative IPC: 3.853 (Simulation time: 00 hr 02 min 15 sec)
Heartbeat CPU 0 instructions: 50000000 cycles: 12881055 heartbeat IPC: 4 cumulative IPC: 3.882 (Simulation time: 00 hr 02 min 51 sec)
Warmup finished CPU 0 instructions: 50000000 cycles: 12881056 cumulative IPC: 3.882 (Simulation time: 00 hr 02 min 51 sec)
Warmup complete CPU 0 instructions: 50000000 cycles: 12881056 cumulative IPC: 3.882 (Simulation time: 00 hr 02 min 51 sec)
Heartbeat CPU 0 instructions: 60000000 cycles: 17265383 heartbeat IPC: 2.281 cumulative IPC: 2.281 (Simulation time: 00 hr 03 min 50 sec)
Heartbeat CPU 0 instructions: 70000000 cycles: 21653426 heartbeat IPC: 2.279 cumulative IPC: 2.28 (Simulation time: 00 hr 04 min 50 sec)
Heartbeat CPU 0 instructions: 80000000 cycles: 26056850 heartbeat IPC: 2.271 cumulative IPC: 2.277 (Simulation time: 00 hr 05 min 49 sec)
Heartbeat CPU 0 instructions: 90000003 cycles: 30450966 heartbeat IPC: 2.276 cumulative IPC: 2.277 (Simulation time: 00 hr 06 min 46 sec)
Heartbeat CPU 0 instructions: 100000000 cycles: 34483639 heartbeat IPC: 2.48 cumulative IPC: 2.315 (Simulation time: 00 hr 07 min 38 sec)
Heartbeat CPU 0 instructions: 110000001 cycles: 38024856 heartbeat IPC: 2.824 cumulative IPC: 2.386 (Simulation time: 00 hr 08 min 27 sec)
Heartbeat CPU 0 instructions: 120000001 cycles: 41691466 heartbeat IPC: 2.727 cumulative IPC: 2.43 (Simulation time: 00 hr 09 min 16 sec)
Heartbeat CPU 0 instructions: 130000000 cycles: 45215459 heartbeat IPC: 2.838 cumulative IPC: 2.474 (Simulation time: 00 hr 10 min 05 sec)
Heartbeat CPU 0 instructions: 140000004 cycles: 48901363 heartbeat IPC: 2.713 cumulative IPC: 2.499 (Simulation time: 00 hr 10 min 56 sec)
Heartbeat CPU 0 instructions: 150000000 cycles: 52498348 heartbeat IPC: 2.78 cumulative IPC: 2.524 (Simulation time: 00 hr 11 min 47 sec)
Heartbeat CPU 0 instructions: 160000000 cycles: 56091799 heartbeat IPC: 2.783 cumulative IPC: 2.546 (Simulation time: 00 hr 12 min 37 sec)
Heartbeat CPU 0 instructions: 170000003 cycles: 59594849 heartbeat IPC: 2.855 cumulative IPC: 2.569 (Simulation time: 00 hr 13 min 27 sec)
Heartbeat CPU 0 instructions: 180000002 cycles: 63163905 heartbeat IPC: 2.802 cumulative IPC: 2.585 (Simulation time: 00 hr 14 min 18 sec)
Heartbeat CPU 0 instructions: 190000002 cycles: 66574842 heartbeat IPC: 2.932 cumulative IPC: 2.607 (Simulation time: 00 hr 15 min 07 sec)
Heartbeat CPU 0 instructions: 200000000 cycles: 69678068 heartbeat IPC: 3.222 cumulative IPC: 2.641 (Simulation time: 00 hr 15 min 55 sec)
Heartbeat CPU 0 instructions: 210000000 cycles: 73330701 heartbeat IPC: 2.738 cumulative IPC: 2.647 (Simulation time: 00 hr 16 min 47 sec)
Heartbeat CPU 0 instructions: 220000001 cycles: 76974628 heartbeat IPC: 2.744 cumulative IPC: 2.652 (Simulation time: 00 hr 17 min 39 sec)
Heartbeat CPU 0 instructions: 230000004 cycles: 80884080 heartbeat IPC: 2.558 cumulative IPC: 2.647 (Simulation time: 00 hr 18 min 33 sec)
Heartbeat CPU 0 instructions: 240000002 cycles: 84556440 heartbeat IPC: 2.723 cumulative IPC: 2.651 (Simulation time: 00 hr 19 min 25 sec)
Heartbeat CPU 0 instructions: 250000001 cycles: 88347297 heartbeat IPC: 2.638 cumulative IPC: 2.65 (Simulation time: 00 hr 20 min 16 sec)
Heartbeat CPU 0 instructions: 260000001 cycles: 92024791 heartbeat IPC: 2.719 cumulative IPC: 2.653 (Simulation time: 00 hr 21 min 07 sec)
Heartbeat CPU 0 instructions: 270000003 cycles: 95816244 heartbeat IPC: 2.638 cumulative IPC: 2.653 (Simulation time: 00 hr 21 min 58 sec)
Heartbeat CPU 0 instructions: 280000003 cycles: 99655835 heartbeat IPC: 2.604 cumulative IPC: 2.651 (Simulation time: 00 hr 22 min 49 sec)
Heartbeat CPU 0 instructions: 290000001 cycles: 156811695 heartbeat IPC: 0.175 cumulative IPC: 1.667 (Simulation time: 00 hr 29 min 08 sec)
Heartbeat CPU 0 instructions: 300000002 cycles: 159311823 heartbeat IPC: 4 cumulative IPC: 1.707 (Simulation time: 00 hr 29 min 48 sec)
Heartbeat CPU 0 instructions: 310000001 cycles: 161811918 heartbeat IPC: 4 cumulative IPC: 1.746 (Simulation time: 00 hr 30 min 29 sec)
Heartbeat CPU 0 instructions: 320000001 cycles: 164312046 heartbeat IPC: 4 cumulative IPC: 1.783 (Simulation time: 00 hr 31 min 10 sec)
Heartbeat CPU 0 instructions: 330000003 cycles: 166812089 heartbeat IPC: 4 cumulative IPC: 1.819 (Simulation time: 00 hr 31 min 50 sec)
Heartbeat CPU 0 instructions: 340000000 cycles: 169312174 heartbeat IPC: 4 cumulative IPC: 1.854 (Simulation time: 00 hr 32 min 31 sec)
Heartbeat CPU 0 instructions: 350000004 cycles: 171812261 heartbeat IPC: 4 cumulative IPC: 1.888 (Simulation time: 00 hr 33 min 12 sec)
Heartbeat CPU 0 instructions: 360000004 cycles: 174312348 heartbeat IPC: 4 cumulative IPC: 1.92 (Simulation time: 00 hr 33 min 52 sec)
Heartbeat CPU 0 instructions: 370000000 cycles: 176812431 heartbeat IPC: 4 cumulative IPC: 1.952 (Simulation time: 00 hr 34 min 33 sec)
Heartbeat CPU 0 instructions: 380000004 cycles: 179313519 heartbeat IPC: 3.998 cumulative IPC: 1.983 (Simulation time: 00 hr 35 min 13 sec)
Heartbeat CPU 0 instructions: 390000001 cycles: 181813603 heartbeat IPC: 4 cumulative IPC: 2.013 (Simulation time: 00 hr 35 min 54 sec)
Heartbeat CPU 0 instructions: 400000003 cycles: 184313689 heartbeat IPC: 4 cumulative IPC: 2.042 (Simulation time: 00 hr 36 min 34 sec)
Heartbeat CPU 0 instructions: 410000003 cycles: 186813817 heartbeat IPC: 4 cumulative IPC: 2.07 (Simulation time: 00 hr 37 min 15 sec)
Heartbeat CPU 0 instructions: 420000002 cycles: 189313904 heartbeat IPC: 4 cumulative IPC: 2.097 (Simulation time: 00 hr 37 min 55 sec)
Heartbeat CPU 0 instructions: 430000000 cycles: 191813989 heartbeat IPC: 4 cumulative IPC: 2.124 (Simulation time: 00 hr 38 min 36 sec)
Heartbeat CPU 0 instructions: 440000001 cycles: 194314075 heartbeat IPC: 4 cumulative IPC: 2.15 (Simulation time: 00 hr 39 min 17 sec)
Heartbeat CPU 0 instructions: 450000000 cycles: 196814160 heartbeat IPC: 4 cumulative IPC: 2.175 (Simulation time: 00 hr 39 min 57 sec)
Heartbeat CPU 0 instructions: 460000003 cycles: 199314204 heartbeat IPC: 4 cumulative IPC: 2.199 (Simulation time: 00 hr 40 min 37 sec)
Heartbeat CPU 0 instructions: 470000001 cycles: 201814290 heartbeat IPC: 4 cumulative IPC: 2.223 (Simulation time: 00 hr 41 min 18 sec)
Heartbeat CPU 0 instructions: 480000003 cycles: 204314373 heartbeat IPC: 4 cumulative IPC: 2.246 (Simulation time: 00 hr 41 min 59 sec)
Heartbeat CPU 0 instructions: 490000003 cycles: 206814460 heartbeat IPC: 4 cumulative IPC: 2.269 (Simulation time: 00 hr 42 min 40 sec)
Heartbeat CPU 0 instructions: 500000002 cycles: 209314945 heartbeat IPC: 3.999 cumulative IPC: 2.291 (Simulation time: 00 hr 43 min 22 sec)
Heartbeat CPU 0 instructions: 510000003 cycles: 215482956 heartbeat IPC: 1.621 cumulative IPC: 2.27 (Simulation time: 00 hr 44 min 29 sec)
Heartbeat CPU 0 instructions: 520000004 cycles: 315632986 heartbeat IPC: 0.09985 cumulative IPC: 1.552 (Simulation time: 00 hr 57 min 19 sec)
Heartbeat CPU 0 instructions: 530000004 cycles: 393997917 heartbeat IPC: 0.1276 cumulative IPC: 1.259 (Simulation time: 01 hr 07 min 18 sec)
Heartbeat CPU 0 instructions: 540000000 cycles: 421861360 heartbeat IPC: 0.3589 cumulative IPC: 1.198 (Simulation time: 01 hr 11 min 14 sec)
Heartbeat CPU 0 instructions: 550000004 cycles: 449681735 heartbeat IPC: 0.3594 cumulative IPC: 1.145 (Simulation time: 01 hr 15 min 19 sec)
Heartbeat CPU 0 instructions: 560000004 cycles: 477693984 heartbeat IPC: 0.357 cumulative IPC: 1.097 (Simulation time: 01 hr 19 min 32 sec)
Heartbeat CPU 0 instructions: 570000003 cycles: 506156998 heartbeat IPC: 0.3513 cumulative IPC: 1.054 (Simulation time: 01 hr 23 min 41 sec)
Heartbeat CPU 0 instructions: 580000003 cycles: 535633712 heartbeat IPC: 0.3393 cumulative IPC: 1.014 (Simulation time: 01 hr 27 min 50 sec)
Heartbeat CPU 0 instructions: 590000004 cycles: 565541759 heartbeat IPC: 0.3344 cumulative IPC: 0.9771 (Simulation time: 01 hr 32 min 07 sec)
*** Reached end of trace: (0, "traces/sp.A.champsimtrace")
Heartbeat CPU 0 instructions: 600000001 cycles: 595586456 heartbeat IPC: 0.3328 cumulative IPC: 0.9439 (Simulation time: 01 hr 36 min 46 sec)
Heartbeat CPU 0 instructions: 610000000 cycles: 624680915 heartbeat IPC: 0.3437 cumulative IPC: 0.9153 (Simulation time: 01 hr 40 min 23 sec)
Heartbeat CPU 0 instructions: 620000003 cycles: 629041574 heartbeat IPC: 2.293 cumulative IPC: 0.9251 (Simulation time: 01 hr 41 min 41 sec)
Heartbeat CPU 0 instructions: 630000002 cycles: 633401326 heartbeat IPC: 2.294 cumulative IPC: 0.9347 (Simulation time: 01 hr 42 min 56 sec)
Heartbeat CPU 0 instructions: 640000004 cycles: 637789684 heartbeat IPC: 2.279 cumulative IPC: 0.9441 (Simulation time: 01 hr 44 min 05 sec)
Heartbeat CPU 0 instructions: 650000001 cycles: 642202292 heartbeat IPC: 2.266 cumulative IPC: 0.9534 (Simulation time: 01 hr 45 min 11 sec)
Simulation finished CPU 0 instructions: 600000001 cycles: 629321237 cumulative IPC: 0.9534 (Simulation time: 01 hr 45 min 11 sec)
Simulation complete CPU 0 instructions: 600000001 cycles: 629321237 cumulative IPC: 0.9534 (Simulation time: 01 hr 45 min 11 sec)

ChampSim completed all CPUs

=== Simulation ===
CPU 0 runs traces/sp.A.champsimtrace
Region of Interest Statistics

CPU 0 cumulative IPC: 0.9534 instructions: 600000001 cycles: 629321237
CPU 0 Branch Prediction Accuracy: 99.98% MPKI: 0.003913 Average ROB Occupancy at Mispredict: 106.2
Branch type MPKI
BRANCH_DIRECT_JUMP: 5e-06
BRANCH_INDIRECT: 7.5e-05
BRANCH_CONDITIONAL: 0.00374
BRANCH_DIRECT_CALL: 2e-05
BRANCH_INDIRECT_CALL: 3.17e-05
BRANCH_RETURN: 3.67e-05

LLC TOTAL        ACCESS:    7581647 HIT:    3758103 MISS:    3823544
LLC LOAD         ACCESS:    2304923 HIT:    1181444 MISS:    1123479
LLC RFO          ACCESS:     922633 HIT:       6831 MISS:     915802
LLC PREFETCH     ACCESS:    2304923 HIT:     522599 MISS:    1782324
LLC WRITE        ACCESS:    2045699 HIT:    2045570 MISS:        129
LLC TRANSLATION  ACCESS:       3469 HIT:       1659 MISS:       1810
LLC PREFETCH REQUESTED:    2304923 ISSUED:    2304923 USEFUL:    1507892 USELESS:      26519
LLC AVERAGE MISS LATENCY: 1207 cycles
cpu0_DTLB TOTAL        ACCESS:  129459691 HIT:  128463091 MISS:     996600
cpu0_DTLB LOAD         ACCESS:  129459691 HIT:  128463091 MISS:     996600
cpu0_DTLB RFO          ACCESS:          0 HIT:          0 MISS:          0
cpu0_DTLB PREFETCH     ACCESS:          0 HIT:          0 MISS:          0
cpu0_DTLB WRITE        ACCESS:          0 HIT:          0 MISS:          0
cpu0_DTLB TRANSLATION  ACCESS:          0 HIT:          0 MISS:          0
cpu0_DTLB PREFETCH REQUESTED:          0 ISSUED:          0 USEFUL:          0 USELESS:          0
cpu0_DTLB AVERAGE MISS LATENCY: 15.31 cycles
cpu0_ITLB TOTAL        ACCESS:     237069 HIT:     236817 MISS:        252
cpu0_ITLB LOAD         ACCESS:     237069 HIT:     236817 MISS:        252
cpu0_ITLB RFO          ACCESS:          0 HIT:          0 MISS:          0
cpu0_ITLB PREFETCH     ACCESS:          0 HIT:          0 MISS:          0
cpu0_ITLB WRITE        ACCESS:          0 HIT:          0 MISS:          0
cpu0_ITLB TRANSLATION  ACCESS:          0 HIT:          0 MISS:          0
cpu0_ITLB PREFETCH REQUESTED:          0 ISSUED:          0 USEFUL:          0 USELESS:          0
cpu0_ITLB AVERAGE MISS LATENCY: 311.9 cycles
cpu0_L1D TOTAL        ACCESS:  196507809 HIT:  182562089 MISS:   13945720
cpu0_L1D LOAD         ACCESS:  161265607 HIT:  151532966 MISS:    9732641
cpu0_L1D RFO          ACCESS:          0 HIT:          0 MISS:          0
cpu0_L1D PREFETCH     ACCESS:          0 HIT:          0 MISS:          0
cpu0_L1D WRITE        ACCESS:   35194325 HIT:   30999556 MISS:    4194769
cpu0_L1D TRANSLATION  ACCESS:      47877 HIT:      29567 MISS:      18310
cpu0_L1D PREFETCH REQUESTED:          0 ISSUED:          0 USEFUL:          0 USELESS:          0
cpu0_L1D AVERAGE MISS LATENCY: 155.4 cycles
cpu0_L1I TOTAL        ACCESS:     246473 HIT:     243483 MISS:       2990
cpu0_L1I LOAD         ACCESS:     246473 HIT:     243483 MISS:       2990
cpu0_L1I RFO          ACCESS:          0 HIT:          0 MISS:          0
cpu0_L1I PREFETCH     ACCESS:          0 HIT:          0 MISS:          0
cpu0_L1I WRITE        ACCESS:          0 HIT:          0 MISS:          0
cpu0_L1I TRANSLATION  ACCESS:          0 HIT:          0 MISS:          0
cpu0_L1I PREFETCH REQUESTED:          0 ISSUED:          0 USEFUL:          0 USELESS:          0
cpu0_L1I AVERAGE MISS LATENCY: 408.6 cycles
cpu0_L2C TOTAL        ACCESS:    5429666 HIT:    2198087 MISS:    3231579
cpu0_L2C LOAD         ACCESS:    2431472 HIT:     126365 MISS:    2305107
cpu0_L2C RFO          ACCESS:     923514 HIT:        881 MISS:     922633
cpu0_L2C PREFETCH     ACCESS:          0 HIT:          0 MISS:          0
cpu0_L2C WRITE        ACCESS:    2056372 HIT:    2056002 MISS:        370
cpu0_L2C TRANSLATION  ACCESS:      18308 HIT:      14839 MISS:       3469
cpu0_L2C PREFETCH REQUESTED:          0 ISSUED:          0 USEFUL:          0 USELESS:          0
cpu0_L2C AVERAGE MISS LATENCY: 907.5 cycles
cpu0_STLB TOTAL        ACCESS:     749294 HIT:     701446 MISS:      47848
cpu0_STLB LOAD         ACCESS:     749294 HIT:     701446 MISS:      47848
cpu0_STLB RFO          ACCESS:          0 HIT:          0 MISS:          0
cpu0_STLB PREFETCH     ACCESS:          0 HIT:          0 MISS:          0
cpu0_STLB WRITE        ACCESS:          0 HIT:          0 MISS:          0
cpu0_STLB TRANSLATION  ACCESS:          0 HIT:          0 MISS:          0
cpu0_STLB PREFETCH REQUESTED:          0 ISSUED:          0 USEFUL:          0 USELESS:          0
cpu0_STLB AVERAGE MISS LATENCY: 305.2 cycles

DRAM Statistics

Channel 0 RQ ROW_BUFFER_HIT:     745671
  ROW_BUFFER_MISS:    1986909
 AVG DBUS CONGESTED CYCLE: 3.979
WQ ROW_BUFFER_HIT: Channel 0 
  ROW_BUFFER_MISS:     466838
  FULL:    1310789
