WARNING: physical memory size is smaller than virtual memory size.

*** ChampSim Multicore Out-of-Order Simulator ***
Warmup Instructions: 50000000
Simulation Instructions: 600000000
Number of CPUs: 1
Page size: 4096

Off-chip DRAM Size: 4 GiB Channels: 1 Width: 64-bit Data Race: 3200 MT/s
Heartbeat CPU 0 instructions: 10000000 cycles: 2881055 heartbeat IPC: 3.471 cumulative IPC: 3.471 (Simulation time: 00 hr 00 min 20 sec)
Heartbeat CPU 0 instructions: 20000000 cycles: 5381055 heartbeat IPC: 4 cumulative IPC: 3.717 (Simulation time: 00 hr 00 min 45 sec)
Heartbeat CPU 0 instructions: 30000000 cycles: 7881055 heartbeat IPC: 4 cumulative IPC: 3.807 (Simulation time: 00 hr 01 min 18 sec)
Heartbeat CPU 0 instructions: 40000000 cycles: 10381055 heartbeat IPC: 4 cumulative IPC: 3.853 (Simulation time: 00 hr 01 min 50 sec)
Heartbeat CPU 0 instructions: 50000000 cycles: 12881055 heartbeat IPC: 4 cumulative IPC: 3.882 (Simulation time: 00 hr 02 min 21 sec)
Warmup finished CPU 0 instructions: 50000000 cycles: 12881056 cumulative IPC: 3.882 (Simulation time: 00 hr 02 min 21 sec)
Warmup complete CPU 0 instructions: 50000000 cycles: 12881056 cumulative IPC: 3.882 (Simulation time: 00 hr 02 min 21 sec)
Heartbeat CPU 0 instructions: 60000000 cycles: 17384232 heartbeat IPC: 2.221 cumulative IPC: 2.221 (Simulation time: 00 hr 03 min 14 sec)
Heartbeat CPU 0 instructions: 70000002 cycles: 21899972 heartbeat IPC: 2.214 cumulative IPC: 2.218 (Simulation time: 00 hr 04 min 07 sec)
Heartbeat CPU 0 instructions: 80000001 cycles: 26391669 heartbeat IPC: 2.226 cumulative IPC: 2.22 (Simulation time: 00 hr 05 min 04 sec)
Heartbeat CPU 0 instructions: 90000003 cycles: 30855302 heartbeat IPC: 2.24 cumulative IPC: 2.225 (Simulation time: 00 hr 05 min 59 sec)
Heartbeat CPU 0 instructions: 100000000 cycles: 34849084 heartbeat IPC: 2.504 cumulative IPC: 2.276 (Simulation time: 00 hr 06 min 47 sec)
Heartbeat CPU 0 instructions: 110000001 cycles: 38457560 heartbeat IPC: 2.771 cumulative IPC: 2.346 (Simulation time: 00 hr 07 min 32 sec)
Heartbeat CPU 0 instructions: 120000001 cycles: 41970384 heartbeat IPC: 2.847 cumulative IPC: 2.406 (Simulation time: 00 hr 08 min 15 sec)
Heartbeat CPU 0 instructions: 130000000 cycles: 45265556 heartbeat IPC: 3.035 cumulative IPC: 2.47 (Simulation time: 00 hr 08 min 56 sec)
Heartbeat CPU 0 instructions: 140000004 cycles: 48809043 heartbeat IPC: 2.822 cumulative IPC: 2.505 (Simulation time: 00 hr 09 min 39 sec)
Heartbeat CPU 0 instructions: 150000000 cycles: 52235631 heartbeat IPC: 2.918 cumulative IPC: 2.541 (Simulation time: 00 hr 10 min 22 sec)
Heartbeat CPU 0 instructions: 160000000 cycles: 55738116 heartbeat IPC: 2.855 cumulative IPC: 2.567 (Simulation time: 00 hr 11 min 04 sec)
Heartbeat CPU 0 instructions: 170000000 cycles: 59319258 heartbeat IPC: 2.792 cumulative IPC: 2.584 (Simulation time: 00 hr 11 min 47 sec)
Heartbeat CPU 0 instructions: 180000002 cycles: 62795529 heartbeat IPC: 2.877 cumulative IPC: 2.604 (Simulation time: 00 hr 12 min 30 sec)
Heartbeat CPU 0 instructions: 190000002 cycles: 66017132 heartbeat IPC: 3.104 cumulative IPC: 2.635 (Simulation time: 00 hr 13 min 11 sec)
Heartbeat CPU 0 instructions: 200000000 cycles: 69151532 heartbeat IPC: 3.19 cumulative IPC: 2.666 (Simulation time: 00 hr 13 min 52 sec)
Heartbeat CPU 0 instructions: 210000000 cycles: 72540117 heartbeat IPC: 2.951 cumulative IPC: 2.682 (Simulation time: 00 hr 14 min 36 sec)
Heartbeat CPU 0 instructions: 220000001 cycles: 76282747 heartbeat IPC: 2.672 cumulative IPC: 2.681 (Simulation time: 00 hr 15 min 22 sec)
Heartbeat CPU 0 instructions: 230000004 cycles: 79964905 heartbeat IPC: 2.716 cumulative IPC: 2.683 (Simulation time: 00 hr 16 min 07 sec)
Heartbeat CPU 0 instructions: 240000002 cycles: 83641249 heartbeat IPC: 2.72 cumulative IPC: 2.685 (Simulation time: 00 hr 16 min 52 sec)
Heartbeat CPU 0 instructions: 250000002 cycles: 87406711 heartbeat IPC: 2.656 cumulative IPC: 2.684 (Simulation time: 00 hr 17 min 38 sec)
Heartbeat CPU 0 instructions: 260000002 cycles: 90905418 heartbeat IPC: 2.858 cumulative IPC: 2.691 (Simulation time: 00 hr 18 min 22 sec)
Heartbeat CPU 0 instructions: 270000003 cycles: 94679941 heartbeat IPC: 2.649 cumulative IPC: 2.69 (Simulation time: 00 hr 19 min 09 sec)
Heartbeat CPU 0 instructions: 280000003 cycles: 98317063 heartbeat IPC: 2.749 cumulative IPC: 2.692 (Simulation time: 00 hr 19 min 53 sec)
Heartbeat CPU 0 instructions: 290000001 cycles: 155470112 heartbeat IPC: 0.175 cumulative IPC: 1.683 (Simulation time: 00 hr 26 min 00 sec)
Heartbeat CPU 0 instructions: 300000002 cycles: 157975216 heartbeat IPC: 3.992 cumulative IPC: 1.723 (Simulation time: 00 hr 26 min 35 sec)
Heartbeat CPU 0 instructions: 310000001 cycles: 160480260 heartbeat IPC: 3.992 cumulative IPC: 1.762 (Simulation time: 00 hr 27 min 11 sec)
Heartbeat CPU 0 instructions: 320000000 cycles: 162985473 heartbeat IPC: 3.992 cumulative IPC: 1.799 (Simulation time: 00 hr 27 min 46 sec)
Heartbeat CPU 0 instructions: 330000003 cycles: 165490511 heartbeat IPC: 3.992 cumulative IPC: 1.835 (Simulation time: 00 hr 28 min 21 sec)
Heartbeat CPU 0 instructions: 340000000 cycles: 167995582 heartbeat IPC: 3.992 cumulative IPC: 1.87 (Simulation time: 00 hr 28 min 57 sec)
Heartbeat CPU 0 instructions: 350000004 cycles: 170500657 heartbeat IPC: 3.992 cumulative IPC: 1.903 (Simulation time: 00 hr 29 min 32 sec)
Heartbeat CPU 0 instructions: 360000004 cycles: 173005732 heartbeat IPC: 3.992 cumulative IPC: 1.936 (Simulation time: 00 hr 30 min 08 sec)
Heartbeat CPU 0 instructions: 370000000 cycles: 175510806 heartbeat IPC: 3.992 cumulative IPC: 1.968 (Simulation time: 00 hr 30 min 44 sec)
Heartbeat CPU 0 instructions: 380000004 cycles: 178015853 heartbeat IPC: 3.992 cumulative IPC: 1.998 (Simulation time: 00 hr 31 min 20 sec)
Heartbeat CPU 0 instructions: 390000001 cycles: 180520926 heartbeat IPC: 3.992 cumulative IPC: 2.028 (Simulation time: 00 hr 31 min 56 sec)
Heartbeat CPU 0 instructions: 400000003 cycles: 183026004 heartbeat IPC: 3.992 cumulative IPC: 2.057 (Simulation time: 00 hr 32 min 32 sec)
Heartbeat CPU 0 instructions: 410000003 cycles: 185531119 heartbeat IPC: 3.992 cumulative IPC: 2.085 (Simulation time: 00 hr 33 min 08 sec)
Heartbeat CPU 0 instructions: 420000002 cycles: 188036194 heartbeat IPC: 3.992 cumulative IPC: 2.112 (Simulation time: 00 hr 33 min 43 sec)
Heartbeat CPU 0 instructions: 430000000 cycles: 190541267 heartbeat IPC: 3.992 cumulative IPC: 2.139 (Simulation time: 00 hr 34 min 19 sec)
Heartbeat CPU 0 instructions: 440000001 cycles: 193046341 heartbeat IPC: 3.992 cumulative IPC: 2.165 (Simulation time: 00 hr 34 min 55 sec)
Heartbeat CPU 0 instructions: 450000000 cycles: 195551388 heartbeat IPC: 3.992 cumulative IPC: 2.19 (Simulation time: 00 hr 35 min 30 sec)
Heartbeat CPU 0 instructions: 460000003 cycles: 198056426 heartbeat IPC: 3.992 cumulative IPC: 2.214 (Simulation time: 00 hr 36 min 06 sec)
Heartbeat CPU 0 instructions: 470000001 cycles: 200561527 heartbeat IPC: 3.992 cumulative IPC: 2.238 (Simulation time: 00 hr 36 min 42 sec)
Heartbeat CPU 0 instructions: 480000003 cycles: 203066629 heartbeat IPC: 3.992 cumulative IPC: 2.261 (Simulation time: 00 hr 37 min 17 sec)
Heartbeat CPU 0 instructions: 490000003 cycles: 205571703 heartbeat IPC: 3.992 cumulative IPC: 2.283 (Simulation time: 00 hr 37 min 53 sec)
Heartbeat CPU 0 instructions: 500000002 cycles: 208076774 heartbeat IPC: 3.992 cumulative IPC: 2.305 (Simulation time: 00 hr 38 min 29 sec)
Heartbeat CPU 0 instructions: 510000003 cycles: 214273655 heartbeat IPC: 1.614 cumulative IPC: 2.284 (Simulation time: 00 hr 39 min 30 sec)
Heartbeat CPU 0 instructions: 520000001 cycles: 314890949 heartbeat IPC: 0.09939 cumulative IPC: 1.556 (Simulation time: 00 hr 51 min 45 sec)
Heartbeat CPU 0 instructions: 530000004 cycles: 393506086 heartbeat IPC: 0.1272 cumulative IPC: 1.261 (Simulation time: 01 hr 01 min 30 sec)
Heartbeat CPU 0 instructions: 540000000 cycles: 421507929 heartbeat IPC: 0.3571 cumulative IPC: 1.199 (Simulation time: 01 hr 05 min 25 sec)
Heartbeat CPU 0 instructions: 550000004 cycles: 449521846 heartbeat IPC: 0.357 cumulative IPC: 1.145 (Simulation time: 01 hr 09 min 14 sec)
Heartbeat CPU 0 instructions: 560000004 cycles: 477651814 heartbeat IPC: 0.3555 cumulative IPC: 1.097 (Simulation time: 01 hr 13 min 16 sec)
Heartbeat CPU 0 instructions: 570000002 cycles: 506292501 heartbeat IPC: 0.3492 cumulative IPC: 1.054 (Simulation time: 01 hr 17 min 15 sec)
Heartbeat CPU 0 instructions: 580000001 cycles: 535946264 heartbeat IPC: 0.3372 cumulative IPC: 1.013 (Simulation time: 01 hr 21 min 25 sec)
Heartbeat CPU 0 instructions: 590000004 cycles: 566054264 heartbeat IPC: 0.3321 cumulative IPC: 0.9762 (Simulation time: 01 hr 25 min 41 sec)
*** Reached end of trace: (0, "traces/sp.A.champsimtrace")
Heartbeat CPU 0 instructions: 600000001 cycles: 596284821 heartbeat IPC: 0.3308 cumulative IPC: 0.9427 (Simulation time: 01 hr 29 min 55 sec)
Heartbeat CPU 0 instructions: 610000000 cycles: 625530064 heartbeat IPC: 0.3419 cumulative IPC: 0.9141 (Simulation time: 01 hr 32 min 58 sec)
Heartbeat CPU 0 instructions: 620000003 cycles: 629952789 heartbeat IPC: 2.261 cumulative IPC: 0.9237 (Simulation time: 01 hr 33 min 56 sec)
Heartbeat CPU 0 instructions: 630000003 cycles: 634456488 heartbeat IPC: 2.22 cumulative IPC: 0.9331 (Simulation time: 01 hr 34 min 59 sec)
Heartbeat CPU 0 instructions: 640000004 cycles: 638963576 heartbeat IPC: 2.219 cumulative IPC: 0.9424 (Simulation time: 01 hr 36 min 03 sec)
Heartbeat CPU 0 instructions: 650000001 cycles: 643487782 heartbeat IPC: 2.21 cumulative IPC: 0.9515 (Simulation time: 01 hr 37 min 03 sec)
Simulation finished CPU 0 instructions: 600000001 cycles: 630606727 cumulative IPC: 0.9515 (Simulation time: 01 hr 37 min 03 sec)
Simulation complete CPU 0 instructions: 600000001 cycles: 630606727 cumulative IPC: 0.9515 (Simulation time: 01 hr 37 min 03 sec)

ChampSim completed all CPUs

=== Simulation ===
CPU 0 runs traces/sp.A.champsimtrace
Region of Interest Statistics

CPU 0 cumulative IPC: 0.9515 instructions: 600000001 cycles: 630606727
CPU 0 Branch Prediction Accuracy: 98.84% MPKI: 0.2406 Average ROB Occupancy at Mispredict: 220.5
Branch type MPKI
BRANCH_DIRECT_JUMP: 5e-06
BRANCH_INDIRECT: 7.5e-05
BRANCH_CONDITIONAL: 0.24
BRANCH_DIRECT_CALL: 2e-05
BRANCH_INDIRECT_CALL: 3.17e-05
BRANCH_RETURN: 3.67e-05

LLC TOTAL        ACCESS:    7580687 HIT:    3761470 MISS:    3819217
LLC LOAD         ACCESS:    2304626 HIT:    1185486 MISS:    1119140
LLC RFO          ACCESS:     922634 HIT:       6833 MISS:     915801
LLC PREFETCH     ACCESS:    2304626 HIT:     522287 MISS:    1782339
LLC WRITE        ACCESS:    2045332 HIT:    2045203 MISS:        129
LLC TRANSLATION  ACCESS:       3469 HIT:       1661 MISS:       1808
LLC PREFETCH REQUESTED:    2304626 ISSUED:    2304626 USEFUL:    1503206 USELESS:      26514
LLC AVERAGE MISS LATENCY: 1176 cycles
cpu0_DTLB TOTAL        ACCESS:  127466321 HIT:  126649255 MISS:     817066
cpu0_DTLB LOAD         ACCESS:  127466321 HIT:  126649255 MISS:     817066
cpu0_DTLB RFO          ACCESS:          0 HIT:          0 MISS:          0
cpu0_DTLB PREFETCH     ACCESS:          0 HIT:          0 MISS:          0
cpu0_DTLB WRITE        ACCESS:          0 HIT:          0 MISS:          0
cpu0_DTLB TRANSLATION  ACCESS:          0 HIT:          0 MISS:          0
cpu0_DTLB PREFETCH REQUESTED:          0 ISSUED:          0 USEFUL:          0 USELESS:          0
cpu0_DTLB AVERAGE MISS LATENCY: 16.67 cycles
cpu0_ITLB TOTAL        ACCESS:     216561 HIT:     216342 MISS:        219
cpu0_ITLB LOAD         ACCESS:     216561 HIT:     216342 MISS:        219
cpu0_ITLB RFO          ACCESS:          0 HIT:          0 MISS:          0
cpu0_ITLB PREFETCH     ACCESS:          0 HIT:          0 MISS:          0
cpu0_ITLB WRITE        ACCESS:          0 HIT:          0 MISS:          0
cpu0_ITLB TRANSLATION  ACCESS:          0 HIT:          0 MISS:          0
cpu0_ITLB PREFETCH REQUESTED:          0 ISSUED:          0 USEFUL:          0 USELESS:          0
cpu0_ITLB AVERAGE MISS LATENCY: 310.2 cycles
cpu0_L1D TOTAL        ACCESS:  193626300 HIT:  179651938 MISS:   13974362
cpu0_L1D LOAD         ACCESS:  158384084 HIT:  148618497 MISS:    9765587
cpu0_L1D RFO          ACCESS:          0 HIT:          0 MISS:          0
cpu0_L1D PREFETCH     ACCESS:          0 HIT:          0 MISS:          0
cpu0_L1D WRITE        ACCESS:   35194337 HIT:   31003881 MISS:    4190456
cpu0_L1D TRANSLATION  ACCESS:      47879 HIT:      29560 MISS:      18319
cpu0_L1D PREFETCH REQUESTED:          0 ISSUED:          0 USEFUL:          0 USELESS:          0
cpu0_L1D AVERAGE MISS LATENCY: 155.1 cycles
cpu0_L1I TOTAL        ACCESS:     224086 HIT:     221307 MISS:       2779
cpu0_L1I LOAD         ACCESS:     224086 HIT:     221307 MISS:       2779
cpu0_L1I RFO          ACCESS:          0 HIT:          0 MISS:          0
cpu0_L1I PREFETCH     ACCESS:          0 HIT:          0 MISS:          0
cpu0_L1I WRITE        ACCESS:          0 HIT:          0 MISS:          0
cpu0_L1I TRANSLATION  ACCESS:          0 HIT:          0 MISS:          0
cpu0_L1I PREFETCH REQUESTED:          0 ISSUED:          0 USEFUL:          0 USELESS:          0
cpu0_L1I AVERAGE MISS LATENCY: 420.7 cycles
cpu0_L2C TOTAL        ACCESS:    5428833 HIT:    2197628 MISS:    3231205
cpu0_L2C LOAD         ACCESS:    2431277 HIT:     126548 MISS:    2304729
cpu0_L2C RFO          ACCESS:     923195 HIT:        561 MISS:     922634
cpu0_L2C PREFETCH     ACCESS:          0 HIT:          0 MISS:          0
cpu0_L2C WRITE        ACCESS:    2056045 HIT:    2055672 MISS:        373
cpu0_L2C TRANSLATION  ACCESS:      18316 HIT:      14847 MISS:       3469
cpu0_L2C PREFETCH REQUESTED:          0 ISSUED:          0 USEFUL:          0 USELESS:          0
cpu0_L2C AVERAGE MISS LATENCY: 906.4 cycles
cpu0_STLB TOTAL        ACCESS:     564402 HIT:     516553 MISS:      47849
cpu0_STLB LOAD         ACCESS:     564402 HIT:     516553 MISS:      47849
cpu0_STLB RFO          ACCESS:          0 HIT:          0 MISS:          0
cpu0_STLB PREFETCH     ACCESS:          0 HIT:          0 MISS:          0
cpu0_STLB WRITE        ACCESS:          0 HIT:          0 MISS:          0
cpu0_STLB TRANSLATION  ACCESS:          0 HIT:          0 MISS:          0
cpu0_STLB PREFETCH REQUESTED:          0 ISSUED:          0 USEFUL:          0 USELESS:          0
cpu0_STLB AVERAGE MISS LATENCY: 299.1 cycles

DRAM Statistics

Channel 0 RQ ROW_BUFFER_HIT:     746490
  ROW_BUFFER_MISS:    1986079
 AVG DBUS CONGESTED CYCLE: 3.979
WQ ROW_BUFFER_HIT: Channel 0 
  ROW_BUFFER_MISS:     467421
  FULL:    1310206
