WARNING: physical memory size is smaller than virtual memory size.

*** ChampSim Multicore Out-of-Order Simulator ***
Warmup Instructions: 50000000
Simulation Instructions: 600000000
Number of CPUs: 1
Page size: 4096

Off-chip DRAM Size: 4 GiB Channels: 1 Width: 64-bit Data Race: 3200 MT/s
Heartbeat CPU 0 instructions: 10000000 cycles: 2881055 heartbeat IPC: 3.471 cumulative IPC: 3.471 (Simulation time: 00 hr 00 min 29 sec)
Heartbeat CPU 0 instructions: 20000000 cycles: 5381055 heartbeat IPC: 4 cumulative IPC: 3.717 (Simulation time: 00 hr 01 min 03 sec)
Heartbeat CPU 0 instructions: 30000000 cycles: 7881055 heartbeat IPC: 4 cumulative IPC: 3.807 (Simulation time: 00 hr 01 min 34 sec)
Heartbeat CPU 0 instructions: 40000000 cycles: 10381055 heartbeat IPC: 4 cumulative IPC: 3.853 (Simulation time: 00 hr 02 min 06 sec)
Heartbeat CPU 0 instructions: 50000000 cycles: 12881055 heartbeat IPC: 4 cumulative IPC: 3.882 (Simulation time: 00 hr 02 min 38 sec)
Warmup finished CPU 0 instructions: 50000000 cycles: 12881056 cumulative IPC: 3.882 (Simulation time: 00 hr 02 min 38 sec)
Warmup complete CPU 0 instructions: 50000000 cycles: 12881056 cumulative IPC: 3.882 (Simulation time: 00 hr 02 min 38 sec)
Heartbeat CPU 0 instructions: 60000000 cycles: 16347742 heartbeat IPC: 2.885 cumulative IPC: 2.885 (Simulation time: 00 hr 03 min 25 sec)
Heartbeat CPU 0 instructions: 70000004 cycles: 19834447 heartbeat IPC: 2.868 cumulative IPC: 2.876 (Simulation time: 00 hr 04 min 14 sec)
Heartbeat CPU 0 instructions: 80000001 cycles: 23310393 heartbeat IPC: 2.877 cumulative IPC: 2.877 (Simulation time: 00 hr 05 min 00 sec)
Heartbeat CPU 0 instructions: 90000003 cycles: 26779424 heartbeat IPC: 2.883 cumulative IPC: 2.878 (Simulation time: 00 hr 05 min 46 sec)
Heartbeat CPU 0 instructions: 100000000 cycles: 32013093 heartbeat IPC: 1.911 cumulative IPC: 2.613 (Simulation time: 00 hr 06 min 43 sec)
Heartbeat CPU 0 instructions: 110000001 cycles: 38624479 heartbeat IPC: 1.513 cumulative IPC: 2.331 (Simulation time: 00 hr 07 min 50 sec)
Heartbeat CPU 0 instructions: 120000003 cycles: 45298479 heartbeat IPC: 1.498 cumulative IPC: 2.159 (Simulation time: 00 hr 08 min 56 sec)
Heartbeat CPU 0 instructions: 130000002 cycles: 51883282 heartbeat IPC: 1.519 cumulative IPC: 2.051 (Simulation time: 00 hr 10 min 02 sec)
Heartbeat CPU 0 instructions: 140000004 cycles: 58553114 heartbeat IPC: 1.499 cumulative IPC: 1.971 (Simulation time: 00 hr 11 min 08 sec)
Heartbeat CPU 0 instructions: 150000000 cycles: 65190673 heartbeat IPC: 1.507 cumulative IPC: 1.912 (Simulation time: 00 hr 12 min 15 sec)
Heartbeat CPU 0 instructions: 160000001 cycles: 71859155 heartbeat IPC: 1.5 cumulative IPC: 1.865 (Simulation time: 00 hr 13 min 22 sec)
Heartbeat CPU 0 instructions: 170000001 cycles: 78509419 heartbeat IPC: 1.504 cumulative IPC: 1.828 (Simulation time: 00 hr 14 min 28 sec)
Heartbeat CPU 0 instructions: 180000002 cycles: 85255187 heartbeat IPC: 1.482 cumulative IPC: 1.796 (Simulation time: 00 hr 15 min 35 sec)
Heartbeat CPU 0 instructions: 190000002 cycles: 91670282 heartbeat IPC: 1.559 cumulative IPC: 1.777 (Simulation time: 00 hr 16 min 40 sec)
Heartbeat CPU 0 instructions: 200000000 cycles: 97499800 heartbeat IPC: 1.715 cumulative IPC: 1.773 (Simulation time: 00 hr 17 min 41 sec)
Heartbeat CPU 0 instructions: 210000001 cycles: 103877379 heartbeat IPC: 1.568 cumulative IPC: 1.758 (Simulation time: 00 hr 18 min 46 sec)
Heartbeat CPU 0 instructions: 220000001 cycles: 110778875 heartbeat IPC: 1.449 cumulative IPC: 1.737 (Simulation time: 00 hr 19 min 55 sec)
Heartbeat CPU 0 instructions: 230000004 cycles: 117727443 heartbeat IPC: 1.439 cumulative IPC: 1.717 (Simulation time: 00 hr 21 min 05 sec)
Heartbeat CPU 0 instructions: 240000003 cycles: 124594100 heartbeat IPC: 1.456 cumulative IPC: 1.701 (Simulation time: 00 hr 22 min 13 sec)
Heartbeat CPU 0 instructions: 250000002 cycles: 131553690 heartbeat IPC: 1.437 cumulative IPC: 1.685 (Simulation time: 00 hr 23 min 23 sec)
Heartbeat CPU 0 instructions: 260000002 cycles: 138475525 heartbeat IPC: 1.445 cumulative IPC: 1.672 (Simulation time: 00 hr 24 min 33 sec)
Heartbeat CPU 0 instructions: 270000003 cycles: 145377013 heartbeat IPC: 1.449 cumulative IPC: 1.66 (Simulation time: 00 hr 25 min 42 sec)
Heartbeat CPU 0 instructions: 280000000 cycles: 152349504 heartbeat IPC: 1.434 cumulative IPC: 1.649 (Simulation time: 00 hr 26 min 52 sec)
Heartbeat CPU 0 instructions: 290000001 cycles: 217619363 heartbeat IPC: 0.1532 cumulative IPC: 1.172 (Simulation time: 00 hr 33 min 52 sec)
Heartbeat CPU 0 instructions: 300000002 cycles: 220124466 heartbeat IPC: 3.992 cumulative IPC: 1.206 (Simulation time: 00 hr 34 min 28 sec)
Heartbeat CPU 0 instructions: 310000001 cycles: 222629510 heartbeat IPC: 3.992 cumulative IPC: 1.24 (Simulation time: 00 hr 35 min 04 sec)
Heartbeat CPU 0 instructions: 320000000 cycles: 225134624 heartbeat IPC: 3.992 cumulative IPC: 1.272 (Simulation time: 00 hr 35 min 40 sec)
Heartbeat CPU 0 instructions: 330000003 cycles: 227639662 heartbeat IPC: 3.992 cumulative IPC: 1.304 (Simulation time: 00 hr 36 min 16 sec)
Heartbeat CPU 0 instructions: 340000000 cycles: 230144732 heartbeat IPC: 3.992 cumulative IPC: 1.335 (Simulation time: 00 hr 36 min 52 sec)
Heartbeat CPU 0 instructions: 350000004 cycles: 232649807 heartbeat IPC: 3.992 cumulative IPC: 1.365 (Simulation time: 00 hr 37 min 28 sec)
Heartbeat CPU 0 instructions: 360000004 cycles: 235154882 heartbeat IPC: 3.992 cumulative IPC: 1.395 (Simulation time: 00 hr 38 min 04 sec)
Heartbeat CPU 0 instructions: 370000000 cycles: 237659956 heartbeat IPC: 3.992 cumulative IPC: 1.424 (Simulation time: 00 hr 38 min 40 sec)
Heartbeat CPU 0 instructions: 380000004 cycles: 240165003 heartbeat IPC: 3.992 cumulative IPC: 1.452 (Simulation time: 00 hr 39 min 16 sec)
Heartbeat CPU 0 instructions: 390000001 cycles: 242670076 heartbeat IPC: 3.992 cumulative IPC: 1.48 (Simulation time: 00 hr 39 min 51 sec)
Heartbeat CPU 0 instructions: 400000003 cycles: 245175154 heartbeat IPC: 3.992 cumulative IPC: 1.507 (Simulation time: 00 hr 40 min 27 sec)
Heartbeat CPU 0 instructions: 410000003 cycles: 247680269 heartbeat IPC: 3.992 cumulative IPC: 1.533 (Simulation time: 00 hr 41 min 02 sec)
Heartbeat CPU 0 instructions: 420000002 cycles: 250185344 heartbeat IPC: 3.992 cumulative IPC: 1.559 (Simulation time: 00 hr 41 min 38 sec)
Heartbeat CPU 0 instructions: 430000000 cycles: 252690417 heartbeat IPC: 3.992 cumulative IPC: 1.585 (Simulation time: 00 hr 42 min 14 sec)
Heartbeat CPU 0 instructions: 440000001 cycles: 255195576 heartbeat IPC: 3.992 cumulative IPC: 1.609 (Simulation time: 00 hr 42 min 50 sec)
Heartbeat CPU 0 instructions: 450000000 cycles: 257700623 heartbeat IPC: 3.992 cumulative IPC: 1.634 (Simulation time: 00 hr 43 min 26 sec)
Heartbeat CPU 0 instructions: 460000003 cycles: 260205661 heartbeat IPC: 3.992 cumulative IPC: 1.658 (Simulation time: 00 hr 44 min 01 sec)
Heartbeat CPU 0 instructions: 470000001 cycles: 262710735 heartbeat IPC: 3.992 cumulative IPC: 1.681 (Simulation time: 00 hr 44 min 36 sec)
Heartbeat CPU 0 instructions: 480000003 cycles: 265215808 heartbeat IPC: 3.992 cumulative IPC: 1.704 (Simulation time: 00 hr 45 min 12 sec)
Heartbeat CPU 0 instructions: 490000003 cycles: 267720883 heartbeat IPC: 3.992 cumulative IPC: 1.727 (Simulation time: 00 hr 45 min 48 sec)
Heartbeat CPU 0 instructions: 500000002 cycles: 270226053 heartbeat IPC: 3.992 cumulative IPC: 1.749 (Simulation time: 00 hr 46 min 23 sec)
Heartbeat CPU 0 instructions: 510000003 cycles: 276437043 heartbeat IPC: 1.61 cumulative IPC: 1.745 (Simulation time: 00 hr 47 min 25 sec)
Heartbeat CPU 0 instructions: 520000001 cycles: 378458695 heartbeat IPC: 0.09802 cumulative IPC: 1.286 (Simulation time: 01 hr 00 min 23 sec)
Heartbeat CPU 0 instructions: 530000000 cycles: 458055394 heartbeat IPC: 0.1256 cumulative IPC: 1.078 (Simulation time: 01 hr 10 min 19 sec)
Heartbeat CPU 0 instructions: 540000000 cycles: 480746042 heartbeat IPC: 0.4407 cumulative IPC: 1.047 (Simulation time: 01 hr 13 min 29 sec)
Heartbeat CPU 0 instructions: 550000002 cycles: 503452100 heartbeat IPC: 0.4404 cumulative IPC: 1.019 (Simulation time: 01 hr 16 min 53 sec)
Heartbeat CPU 0 instructions: 560000002 cycles: 526312200 heartbeat IPC: 0.4374 cumulative IPC: 0.9933 (Simulation time: 01 hr 20 min 14 sec)
Heartbeat CPU 0 instructions: 570000002 cycles: 548987264 heartbeat IPC: 0.441 cumulative IPC: 0.97 (Simulation time: 01 hr 23 min 33 sec)
Heartbeat CPU 0 instructions: 580000001 cycles: 571336194 heartbeat IPC: 0.4474 cumulative IPC: 0.949 (Simulation time: 01 hr 26 min 50 sec)
Heartbeat CPU 0 instructions: 590000004 cycles: 593942211 heartbeat IPC: 0.4424 cumulative IPC: 0.9293 (Simulation time: 01 hr 29 min 58 sec)
*** Reached end of trace: (0, "traces/sp.A.champsimtrace")
Heartbeat CPU 0 instructions: 600000002 cycles: 616710600 heartbeat IPC: 0.4392 cumulative IPC: 0.9109 (Simulation time: 01 hr 33 min 18 sec)
Heartbeat CPU 0 instructions: 610000000 cycles: 645325282 heartbeat IPC: 0.3495 cumulative IPC: 0.8855 (Simulation time: 01 hr 36 min 45 sec)
Heartbeat CPU 0 instructions: 620000000 cycles: 648820112 heartbeat IPC: 2.861 cumulative IPC: 0.8963 (Simulation time: 01 hr 37 min 40 sec)
Heartbeat CPU 0 instructions: 630000003 cycles: 652292919 heartbeat IPC: 2.88 cumulative IPC: 0.9071 (Simulation time: 01 hr 38 min 35 sec)
Heartbeat CPU 0 instructions: 640000004 cycles: 655753008 heartbeat IPC: 2.89 cumulative IPC: 0.9178 (Simulation time: 01 hr 39 min 32 sec)
Heartbeat CPU 0 instructions: 650000000 cycles: 659224419 heartbeat IPC: 2.881 cumulative IPC: 0.9283 (Simulation time: 01 hr 40 min 38 sec)
Simulation finished CPU 0 instructions: 600000000 cycles: 646343364 cumulative IPC: 0.9283 (Simulation time: 01 hr 40 min 38 sec)
Simulation complete CPU 0 instructions: 600000000 cycles: 646343364 cumulative IPC: 0.9283 (Simulation time: 01 hr 40 min 38 sec)

ChampSim completed all CPUs

=== Simulation ===
CPU 0 runs traces/sp.A.champsimtrace
Region of Interest Statistics

CPU 0 cumulative IPC: 0.9283 instructions: 600000000 cycles: 646343364
CPU 0 Branch Prediction Accuracy: 98.84% MPKI: 0.2406 Average ROB Occupancy at Mispredict: 221.9
Branch type MPKI
BRANCH_DIRECT_JUMP: 5e-06
BRANCH_INDIRECT: 7.5e-05
BRANCH_CONDITIONAL: 0.24
BRANCH_DIRECT_CALL: 2e-05
BRANCH_INDIRECT_CALL: 3.17e-05
BRANCH_RETURN: 3.67e-05

LLC TOTAL        ACCESS:    8126360 HIT:    5090980 MISS:    3035380
LLC LOAD         ACCESS:    2304260 HIT:    1468864 MISS:     835396
LLC RFO          ACCESS:     922636 HIT:       6820 MISS:     915816
LLC PREFETCH     ACCESS:    2850414 HIT:    1568196 MISS:    1282218
LLC WRITE        ACCESS:    2045582 HIT:    2045439 MISS:        143
LLC TRANSLATION  ACCESS:       3468 HIT:       1661 MISS:       1807
LLC PREFETCH REQUESTED:    2850414 ISSUED:    2850414 USEFUL:    1025925 USELESS:      18233
LLC AVERAGE MISS LATENCY: 1398 cycles
cpu0_DTLB TOTAL        ACCESS:  125667430 HIT:  124841286 MISS:     826144
cpu0_DTLB LOAD         ACCESS:  125667430 HIT:  124841286 MISS:     826144
cpu0_DTLB RFO          ACCESS:          0 HIT:          0 MISS:          0
cpu0_DTLB PREFETCH     ACCESS:          0 HIT:          0 MISS:          0
cpu0_DTLB WRITE        ACCESS:          0 HIT:          0 MISS:          0
cpu0_DTLB TRANSLATION  ACCESS:          0 HIT:          0 MISS:          0
cpu0_DTLB PREFETCH REQUESTED:          0 ISSUED:          0 USEFUL:          0 USELESS:          0
cpu0_DTLB AVERAGE MISS LATENCY: 17.61 cycles
cpu0_ITLB TOTAL        ACCESS:     218374 HIT:     218158 MISS:        216
cpu0_ITLB LOAD         ACCESS:     218374 HIT:     218158 MISS:        216
cpu0_ITLB RFO          ACCESS:          0 HIT:          0 MISS:          0
cpu0_ITLB PREFETCH     ACCESS:          0 HIT:          0 MISS:          0
cpu0_ITLB WRITE        ACCESS:          0 HIT:          0 MISS:          0
cpu0_ITLB TRANSLATION  ACCESS:          0 HIT:          0 MISS:          0
cpu0_ITLB PREFETCH REQUESTED:          0 ISSUED:          0 USEFUL:          0 USELESS:          0
cpu0_ITLB AVERAGE MISS LATENCY: 286 cycles
cpu0_L1D TOTAL        ACCESS:  191923934 HIT:  178605917 MISS:   13318017
cpu0_L1D LOAD         ACCESS:  156681702 HIT:  147826637 MISS:    8855065
cpu0_L1D RFO          ACCESS:          0 HIT:          0 MISS:          0
cpu0_L1D PREFETCH     ACCESS:          0 HIT:          0 MISS:          0
cpu0_L1D WRITE        ACCESS:   35194352 HIT:   30749700 MISS:    4444652
cpu0_L1D TRANSLATION  ACCESS:      47880 HIT:      29580 MISS:      18300
cpu0_L1D PREFETCH REQUESTED:          0 ISSUED:          0 USEFUL:          0 USELESS:          0
cpu0_L1D AVERAGE MISS LATENCY: 153.8 cycles
cpu0_L1I TOTAL        ACCESS:     226039 HIT:     223237 MISS:       2802
cpu0_L1I LOAD         ACCESS:     226039 HIT:     223237 MISS:       2802
cpu0_L1I RFO          ACCESS:          0 HIT:          0 MISS:          0
cpu0_L1I PREFETCH     ACCESS:          0 HIT:          0 MISS:          0
cpu0_L1I WRITE        ACCESS:          0 HIT:          0 MISS:          0
cpu0_L1I TRANSLATION  ACCESS:          0 HIT:          0 MISS:          0
cpu0_L1I PREFETCH REQUESTED:          0 ISSUED:          0 USEFUL:          0 USELESS:          0
cpu0_L1I AVERAGE MISS LATENCY: 487.3 cycles
cpu0_L2C TOTAL        ACCESS:    5423941 HIT:    2193122 MISS:    3230819
cpu0_L2C LOAD         ACCESS:    2426367 HIT:     122025 MISS:    2304342
cpu0_L2C RFO          ACCESS:     923195 HIT:        559 MISS:     922636
cpu0_L2C PREFETCH     ACCESS:          0 HIT:          0 MISS:          0
cpu0_L2C WRITE        ACCESS:    2056081 HIT:    2055708 MISS:        373
cpu0_L2C TRANSLATION  ACCESS:      18298 HIT:      14830 MISS:       3468
cpu0_L2C PREFETCH REQUESTED:          0 ISSUED:          0 USEFUL:          0 USELESS:          0
cpu0_L2C AVERAGE MISS LATENCY: 815.4 cycles
cpu0_STLB TOTAL        ACCESS:     573428 HIT:     525578 MISS:      47850
cpu0_STLB LOAD         ACCESS:     573428 HIT:     525578 MISS:      47850
cpu0_STLB RFO          ACCESS:          0 HIT:          0 MISS:          0
cpu0_STLB PREFETCH     ACCESS:          0 HIT:          0 MISS:          0
cpu0_STLB WRITE        ACCESS:          0 HIT:          0 MISS:          0
cpu0_STLB TRANSLATION  ACCESS:          0 HIT:          0 MISS:          0
cpu0_STLB PREFETCH REQUESTED:          0 ISSUED:          0 USEFUL:          0 USELESS:          0
cpu0_STLB AVERAGE MISS LATENCY: 292.8 cycles

DRAM Statistics

Channel 0 RQ ROW_BUFFER_HIT:     894355
  ROW_BUFFER_MISS:    1858429
 AVG DBUS CONGESTED CYCLE: 3.966
WQ ROW_BUFFER_HIT: Channel 0 
  ROW_BUFFER_MISS:     457948
  FULL:    1319205
