WARNING: physical memory size is smaller than virtual memory size.

*** ChampSim Multicore Out-of-Order Simulator ***
Warmup Instructions: 50000000
Simulation Instructions: 600000000
Number of CPUs: 1
Page size: 4096

CPU 0 Tage branch predictor
Off-chip DRAM Size: 4 GiB Channels: 1 Width: 64-bit Data Race: 3200 MT/s
Heartbeat CPU 0 instructions: 10000000 cycles: 2881055 heartbeat IPC: 3.471 cumulative IPC: 3.471 (Simulation time: 00 hr 00 min 43 sec)
Heartbeat CPU 0 instructions: 20000000 cycles: 5381055 heartbeat IPC: 4 cumulative IPC: 3.717 (Simulation time: 00 hr 01 min 25 sec)
Heartbeat CPU 0 instructions: 30000000 cycles: 7881055 heartbeat IPC: 4 cumulative IPC: 3.807 (Simulation time: 00 hr 02 min 03 sec)
Heartbeat CPU 0 instructions: 40000000 cycles: 10381055 heartbeat IPC: 4 cumulative IPC: 3.853 (Simulation time: 00 hr 02 min 42 sec)
Heartbeat CPU 0 instructions: 50000000 cycles: 12881055 heartbeat IPC: 4 cumulative IPC: 3.882 (Simulation time: 00 hr 03 min 23 sec)
Warmup finished CPU 0 instructions: 50000000 cycles: 12881056 cumulative IPC: 3.882 (Simulation time: 00 hr 03 min 23 sec)
Warmup complete CPU 0 instructions: 50000000 cycles: 12881056 cumulative IPC: 3.882 (Simulation time: 00 hr 03 min 23 sec)
Heartbeat CPU 0 instructions: 60000000 cycles: 18865408 heartbeat IPC: 1.671 cumulative IPC: 1.671 (Simulation time: 00 hr 04 min 37 sec)
Heartbeat CPU 0 instructions: 70000000 cycles: 24810315 heartbeat IPC: 1.682 cumulative IPC: 1.677 (Simulation time: 00 hr 05 min 47 sec)
Heartbeat CPU 0 instructions: 80000000 cycles: 30758397 heartbeat IPC: 1.681 cumulative IPC: 1.678 (Simulation time: 00 hr 07 min 01 sec)
Heartbeat CPU 0 instructions: 90000003 cycles: 36764140 heartbeat IPC: 1.665 cumulative IPC: 1.675 (Simulation time: 00 hr 08 min 14 sec)
Heartbeat CPU 0 instructions: 100000000 cycles: 43194430 heartbeat IPC: 1.555 cumulative IPC: 1.649 (Simulation time: 00 hr 09 min 29 sec)
Heartbeat CPU 0 instructions: 110000001 cycles: 49855946 heartbeat IPC: 1.501 cumulative IPC: 1.623 (Simulation time: 00 hr 10 min 45 sec)
Heartbeat CPU 0 instructions: 120000001 cycles: 56595037 heartbeat IPC: 1.484 cumulative IPC: 1.601 (Simulation time: 00 hr 11 min 59 sec)
Heartbeat CPU 0 instructions: 130000002 cycles: 63222505 heartbeat IPC: 1.509 cumulative IPC: 1.589 (Simulation time: 00 hr 13 min 16 sec)
Heartbeat CPU 0 instructions: 140000004 cycles: 69934633 heartbeat IPC: 1.49 cumulative IPC: 1.577 (Simulation time: 00 hr 14 min 35 sec)
Heartbeat CPU 0 instructions: 150000000 cycles: 76570894 heartbeat IPC: 1.507 cumulative IPC: 1.57 (Simulation time: 00 hr 15 min 51 sec)
Heartbeat CPU 0 instructions: 160000001 cycles: 83255825 heartbeat IPC: 1.496 cumulative IPC: 1.563 (Simulation time: 00 hr 17 min 04 sec)
Heartbeat CPU 0 instructions: 170000001 cycles: 89943590 heartbeat IPC: 1.495 cumulative IPC: 1.557 (Simulation time: 00 hr 18 min 19 sec)
Heartbeat CPU 0 instructions: 180000001 cycles: 96677726 heartbeat IPC: 1.485 cumulative IPC: 1.551 (Simulation time: 00 hr 19 min 41 sec)
Heartbeat CPU 0 instructions: 190000002 cycles: 103098163 heartbeat IPC: 1.558 cumulative IPC: 1.552 (Simulation time: 00 hr 20 min 56 sec)
Heartbeat CPU 0 instructions: 200000000 cycles: 108864610 heartbeat IPC: 1.734 cumulative IPC: 1.563 (Simulation time: 00 hr 22 min 12 sec)
Heartbeat CPU 0 instructions: 210000001 cycles: 115241577 heartbeat IPC: 1.568 cumulative IPC: 1.563 (Simulation time: 00 hr 23 min 28 sec)
Heartbeat CPU 0 instructions: 220000001 cycles: 121962176 heartbeat IPC: 1.488 cumulative IPC: 1.558 (Simulation time: 00 hr 24 min 51 sec)
Heartbeat CPU 0 instructions: 230000004 cycles: 128742872 heartbeat IPC: 1.475 cumulative IPC: 1.554 (Simulation time: 00 hr 26 min 13 sec)
Heartbeat CPU 0 instructions: 240000003 cycles: 135476380 heartbeat IPC: 1.485 cumulative IPC: 1.55 (Simulation time: 00 hr 27 min 42 sec)
Heartbeat CPU 0 instructions: 250000002 cycles: 142216012 heartbeat IPC: 1.484 cumulative IPC: 1.546 (Simulation time: 00 hr 29 min 03 sec)
Heartbeat CPU 0 instructions: 260000002 cycles: 148898605 heartbeat IPC: 1.496 cumulative IPC: 1.544 (Simulation time: 00 hr 30 min 22 sec)
Heartbeat CPU 0 instructions: 270000003 cycles: 155568239 heartbeat IPC: 1.499 cumulative IPC: 1.542 (Simulation time: 00 hr 31 min 43 sec)
Heartbeat CPU 0 instructions: 280000000 cycles: 162311031 heartbeat IPC: 1.483 cumulative IPC: 1.539 (Simulation time: 00 hr 33 min 02 sec)
Heartbeat CPU 0 instructions: 290000001 cycles: 219183820 heartbeat IPC: 0.1758 cumulative IPC: 1.163 (Simulation time: 00 hr 39 min 32 sec)
Heartbeat CPU 0 instructions: 300000002 cycles: 221683948 heartbeat IPC: 4 cumulative IPC: 1.197 (Simulation time: 00 hr 40 min 15 sec)
Heartbeat CPU 0 instructions: 310000001 cycles: 224184043 heartbeat IPC: 4 cumulative IPC: 1.23 (Simulation time: 00 hr 40 min 57 sec)
Heartbeat CPU 0 instructions: 320000001 cycles: 226684670 heartbeat IPC: 3.999 cumulative IPC: 1.263 (Simulation time: 00 hr 41 min 40 sec)
Heartbeat CPU 0 instructions: 330000003 cycles: 229185348 heartbeat IPC: 3.999 cumulative IPC: 1.294 (Simulation time: 00 hr 42 min 27 sec)
Heartbeat CPU 0 instructions: 340000000 cycles: 231685432 heartbeat IPC: 4 cumulative IPC: 1.325 (Simulation time: 00 hr 43 min 11 sec)
Heartbeat CPU 0 instructions: 350000004 cycles: 234185519 heartbeat IPC: 4 cumulative IPC: 1.356 (Simulation time: 00 hr 44 min 02 sec)
Heartbeat CPU 0 instructions: 360000004 cycles: 236685606 heartbeat IPC: 4 cumulative IPC: 1.385 (Simulation time: 00 hr 44 min 53 sec)
Heartbeat CPU 0 instructions: 370000000 cycles: 239185691 heartbeat IPC: 4 cumulative IPC: 1.414 (Simulation time: 00 hr 45 min 41 sec)
Heartbeat CPU 0 instructions: 380000004 cycles: 241685778 heartbeat IPC: 4 cumulative IPC: 1.442 (Simulation time: 00 hr 46 min 28 sec)
Heartbeat CPU 0 instructions: 390000001 cycles: 244185863 heartbeat IPC: 4 cumulative IPC: 1.47 (Simulation time: 00 hr 47 min 16 sec)
Heartbeat CPU 0 instructions: 400000003 cycles: 246685949 heartbeat IPC: 4 cumulative IPC: 1.497 (Simulation time: 00 hr 48 min 02 sec)
Heartbeat CPU 0 instructions: 410000003 cycles: 249186077 heartbeat IPC: 4 cumulative IPC: 1.523 (Simulation time: 00 hr 48 min 51 sec)
Heartbeat CPU 0 instructions: 420000002 cycles: 251686164 heartbeat IPC: 4 cumulative IPC: 1.549 (Simulation time: 00 hr 49 min 47 sec)
Heartbeat CPU 0 instructions: 430000000 cycles: 254186250 heartbeat IPC: 4 cumulative IPC: 1.575 (Simulation time: 00 hr 50 min 38 sec)
Heartbeat CPU 0 instructions: 440000001 cycles: 256686336 heartbeat IPC: 4 cumulative IPC: 1.6 (Simulation time: 00 hr 51 min 27 sec)
Heartbeat CPU 0 instructions: 450000000 cycles: 259186421 heartbeat IPC: 4 cumulative IPC: 1.624 (Simulation time: 00 hr 52 min 15 sec)
Heartbeat CPU 0 instructions: 460000003 cycles: 261686465 heartbeat IPC: 4 cumulative IPC: 1.648 (Simulation time: 00 hr 53 min 01 sec)
Heartbeat CPU 0 instructions: 470000001 cycles: 264186552 heartbeat IPC: 4 cumulative IPC: 1.671 (Simulation time: 00 hr 53 min 46 sec)
Heartbeat CPU 0 instructions: 480000003 cycles: 266686636 heartbeat IPC: 4 cumulative IPC: 1.694 (Simulation time: 00 hr 54 min 31 sec)
Heartbeat CPU 0 instructions: 490000003 cycles: 269186723 heartbeat IPC: 4 cumulative IPC: 1.717 (Simulation time: 00 hr 55 min 17 sec)
Heartbeat CPU 0 instructions: 500000002 cycles: 271686927 heartbeat IPC: 4 cumulative IPC: 1.739 (Simulation time: 00 hr 56 min 03 sec)
Heartbeat CPU 0 instructions: 510000003 cycles: 277865276 heartbeat IPC: 1.619 cumulative IPC: 1.736 (Simulation time: 00 hr 57 min 20 sec)
Heartbeat CPU 0 instructions: 520000004 cycles: 379363964 heartbeat IPC: 0.09852 cumulative IPC: 1.282 (Simulation time: 01 hr 11 min 33 sec)
Heartbeat CPU 0 instructions: 530000004 cycles: 456275531 heartbeat IPC: 0.13 cumulative IPC: 1.083 (Simulation time: 01 hr 21 min 34 sec)
Heartbeat CPU 0 instructions: 540000000 cycles: 485490211 heartbeat IPC: 0.3423 cumulative IPC: 1.037 (Simulation time: 01 hr 25 min 56 sec)
Heartbeat CPU 0 instructions: 550000002 cycles: 514625458 heartbeat IPC: 0.3432 cumulative IPC: 0.9965 (Simulation time: 01 hr 30 min 09 sec)
Heartbeat CPU 0 instructions: 560000004 cycles: 544014234 heartbeat IPC: 0.3403 cumulative IPC: 0.9602 (Simulation time: 01 hr 34 min 57 sec)
Heartbeat CPU 0 instructions: 570000000 cycles: 573712857 heartbeat IPC: 0.3367 cumulative IPC: 0.9272 (Simulation time: 01 hr 39 min 30 sec)
Heartbeat CPU 0 instructions: 580000003 cycles: 603925776 heartbeat IPC: 0.331 cumulative IPC: 0.8967 (Simulation time: 01 hr 44 min 07 sec)
Heartbeat CPU 0 instructions: 590000004 cycles: 634665090 heartbeat IPC: 0.3253 cumulative IPC: 0.8685 (Simulation time: 01 hr 48 min 46 sec)
*** Reached end of trace: (0, "traces/sp.A.champsimtrace")
Heartbeat CPU 0 instructions: 600000002 cycles: 665491536 heartbeat IPC: 0.3244 cumulative IPC: 0.8428 (Simulation time: 01 hr 53 min 28 sec)
Heartbeat CPU 0 instructions: 610000000 cycles: 696201063 heartbeat IPC: 0.3256 cumulative IPC: 0.8195 (Simulation time: 01 hr 56 min 59 sec)
Heartbeat CPU 0 instructions: 620000001 cycles: 702129512 heartbeat IPC: 1.687 cumulative IPC: 0.827 (Simulation time: 01 hr 58 min 12 sec)
Heartbeat CPU 0 instructions: 630000003 cycles: 708119933 heartbeat IPC: 1.669 cumulative IPC: 0.8342 (Simulation time: 01 hr 59 min 25 sec)
Heartbeat CPU 0 instructions: 640000004 cycles: 714102419 heartbeat IPC: 1.672 cumulative IPC: 0.8414 (Simulation time: 02 hr 00 min 36 sec)
Heartbeat CPU 0 instructions: 650000001 cycles: 720214292 heartbeat IPC: 1.636 cumulative IPC: 0.8483 (Simulation time: 02 hr 01 min 46 sec)
Simulation finished CPU 0 instructions: 600000001 cycles: 707333237 cumulative IPC: 0.8483 (Simulation time: 02 hr 01 min 46 sec)
Simulation complete CPU 0 instructions: 600000001 cycles: 707333237 cumulative IPC: 0.8483 (Simulation time: 02 hr 01 min 46 sec)

ChampSim completed all CPUs

=== Simulation ===
CPU 0 runs traces/sp.A.champsimtrace
Region of Interest Statistics

CPU 0 cumulative IPC: 0.8483 instructions: 600000001 cycles: 707333237
CPU 0 Branch Prediction Accuracy: 99.98% MPKI: 0.003913 Average ROB Occupancy at Mispredict: 106.7
Branch type MPKI
BRANCH_DIRECT_JUMP: 5e-06
BRANCH_INDIRECT: 7.5e-05
BRANCH_CONDITIONAL: 0.00374
BRANCH_DIRECT_CALL: 2e-05
BRANCH_INDIRECT_CALL: 3.17e-05
BRANCH_RETURN: 3.67e-05

LLC TOTAL        ACCESS:    5276798 HIT:    2571024 MISS:    2705774
LLC LOAD         ACCESS:    2304979 HIT:     516969 MISS:    1788010
LLC RFO          ACCESS:     922635 HIT:       6813 MISS:     915822
LLC PREFETCH     ACCESS:          0 HIT:          0 MISS:          0
LLC WRITE        ACCESS:    2045706 HIT:    2045563 MISS:        143
LLC TRANSLATION  ACCESS:       3478 HIT:       1679 MISS:       1799
LLC PREFETCH REQUESTED:          0 ISSUED:          0 USEFUL:          0 USELESS:          0
LLC AVERAGE MISS LATENCY: 1246 cycles
cpu0_DTLB TOTAL        ACCESS:  127406171 HIT:  126420246 MISS:     985925
cpu0_DTLB LOAD         ACCESS:  127406171 HIT:  126420246 MISS:     985925
cpu0_DTLB RFO          ACCESS:          0 HIT:          0 MISS:          0
cpu0_DTLB PREFETCH     ACCESS:          0 HIT:          0 MISS:          0
cpu0_DTLB WRITE        ACCESS:          0 HIT:          0 MISS:          0
cpu0_DTLB TRANSLATION  ACCESS:          0 HIT:          0 MISS:          0
cpu0_DTLB PREFETCH REQUESTED:          0 ISSUED:          0 USEFUL:          0 USELESS:          0
cpu0_DTLB AVERAGE MISS LATENCY: 16.57 cycles
cpu0_ITLB TOTAL        ACCESS:     233637 HIT:     233385 MISS:        252
cpu0_ITLB LOAD         ACCESS:     233637 HIT:     233385 MISS:        252
cpu0_ITLB RFO          ACCESS:          0 HIT:          0 MISS:          0
cpu0_ITLB PREFETCH     ACCESS:          0 HIT:          0 MISS:          0
cpu0_ITLB WRITE        ACCESS:          0 HIT:          0 MISS:          0
cpu0_ITLB TRANSLATION  ACCESS:          0 HIT:          0 MISS:          0
cpu0_ITLB PREFETCH REQUESTED:          0 ISSUED:          0 USEFUL:          0 USELESS:          0
cpu0_ITLB AVERAGE MISS LATENCY: 286.2 cycles
cpu0_L1D TOTAL        ACCESS:  193536790 HIT:  179074392 MISS:   14462398
cpu0_L1D LOAD         ACCESS:  158294586 HIT:  147967340 MISS:   10327246
cpu0_L1D RFO          ACCESS:          0 HIT:          0 MISS:          0
cpu0_L1D PREFETCH     ACCESS:          0 HIT:          0 MISS:          0
cpu0_L1D WRITE        ACCESS:   35194327 HIT:   31077490 MISS:    4116837
cpu0_L1D TRANSLATION  ACCESS:      47877 HIT:      29562 MISS:      18315
cpu0_L1D PREFETCH REQUESTED:          0 ISSUED:          0 USEFUL:          0 USELESS:          0
cpu0_L1D AVERAGE MISS LATENCY: 170.8 cycles
cpu0_L1I TOTAL        ACCESS:     244459 HIT:     241443 MISS:       3016
cpu0_L1I LOAD         ACCESS:     244459 HIT:     241443 MISS:       3016
cpu0_L1I RFO          ACCESS:          0 HIT:          0 MISS:          0
cpu0_L1I PREFETCH     ACCESS:          0 HIT:          0 MISS:          0
cpu0_L1I WRITE        ACCESS:          0 HIT:          0 MISS:          0
cpu0_L1I TRANSLATION  ACCESS:          0 HIT:          0 MISS:          0
cpu0_L1I PREFETCH REQUESTED:          0 ISSUED:          0 USEFUL:          0 USELESS:          0
cpu0_L1I AVERAGE MISS LATENCY: 461.1 cycles
cpu0_L2C TOTAL        ACCESS:    5443833 HIT:    2212182 MISS:    3231651
cpu0_L2C LOAD         ACCESS:    2445623 HIT:     140456 MISS:    2305167
cpu0_L2C RFO          ACCESS:     923516 HIT:        881 MISS:     922635
cpu0_L2C PREFETCH     ACCESS:          0 HIT:          0 MISS:          0
cpu0_L2C WRITE        ACCESS:    2056382 HIT:    2056011 MISS:        371
cpu0_L2C TRANSLATION  ACCESS:      18312 HIT:      14834 MISS:       3478
cpu0_L2C PREFETCH REQUESTED:          0 ISSUED:          0 USEFUL:          0 USELESS:          0
cpu0_L2C AVERAGE MISS LATENCY: 1064 cycles
cpu0_STLB TOTAL        ACCESS:     737602 HIT:     689754 MISS:      47848
cpu0_STLB LOAD         ACCESS:     737602 HIT:     689754 MISS:      47848
cpu0_STLB RFO          ACCESS:          0 HIT:          0 MISS:          0
cpu0_STLB PREFETCH     ACCESS:          0 HIT:          0 MISS:          0
cpu0_STLB WRITE        ACCESS:          0 HIT:          0 MISS:          0
cpu0_STLB TRANSLATION  ACCESS:          0 HIT:          0 MISS:          0
cpu0_STLB PREFETCH REQUESTED:          0 ISSUED:          0 USEFUL:          0 USELESS:          0
cpu0_STLB AVERAGE MISS LATENCY: 306.3 cycles

DRAM Statistics

Channel 0 RQ ROW_BUFFER_HIT:     714065
  ROW_BUFFER_MISS:    1991562
 AVG DBUS CONGESTED CYCLE: 3.973
WQ ROW_BUFFER_HIT: Channel 0 
  ROW_BUFFER_MISS:     412697
  FULL:    1364520
