WARNING: physical memory size is smaller than virtual memory size.

*** ChampSim Multicore Out-of-Order Simulator ***
Warmup Instructions: 50000000
Simulation Instructions: 600000000
Number of CPUs: 1
Page size: 4096

CPU 0 Tage branch predictor
Off-chip DRAM Size: 4 GiB Channels: 1 Width: 64-bit Data Race: 3200 MT/s
Heartbeat CPU 0 instructions: 10000001 cycles: 2881056 heartbeat IPC: 3.471 cumulative IPC: 3.471 (Simulation time: 00 hr 00 min 57 sec)
Heartbeat CPU 0 instructions: 20000001 cycles: 5381056 heartbeat IPC: 4 cumulative IPC: 3.717 (Simulation time: 00 hr 01 min 50 sec)
Heartbeat CPU 0 instructions: 30000001 cycles: 7881056 heartbeat IPC: 4 cumulative IPC: 3.807 (Simulation time: 00 hr 02 min 43 sec)
Heartbeat CPU 0 instructions: 40000001 cycles: 10381056 heartbeat IPC: 4 cumulative IPC: 3.853 (Simulation time: 00 hr 03 min 36 sec)
Heartbeat CPU 0 instructions: 50000001 cycles: 12881056 heartbeat IPC: 4 cumulative IPC: 3.882 (Simulation time: 00 hr 04 min 29 sec)
Warmup finished CPU 0 instructions: 50000001 cycles: 12881057 cumulative IPC: 3.882 (Simulation time: 00 hr 04 min 29 sec)
Warmup complete CPU 0 instructions: 50000001 cycles: 12881057 cumulative IPC: 3.882 (Simulation time: 00 hr 04 min 29 sec)
Heartbeat CPU 0 instructions: 60000000 cycles: 18794484 heartbeat IPC: 1.691 cumulative IPC: 1.691 (Simulation time: 00 hr 06 min 09 sec)
Heartbeat CPU 0 instructions: 70000002 cycles: 24712964 heartbeat IPC: 1.69 cumulative IPC: 1.69 (Simulation time: 00 hr 07 min 48 sec)
Heartbeat CPU 0 instructions: 80000001 cycles: 30620940 heartbeat IPC: 1.693 cumulative IPC: 1.691 (Simulation time: 00 hr 09 min 27 sec)
Heartbeat CPU 0 instructions: 90000003 cycles: 36534894 heartbeat IPC: 1.691 cumulative IPC: 1.691 (Simulation time: 00 hr 11 min 04 sec)
Heartbeat CPU 0 instructions: 100000000 cycles: 40654848 heartbeat IPC: 2.427 cumulative IPC: 1.8 (Simulation time: 00 hr 12 min 23 sec)
Heartbeat CPU 0 instructions: 110000004 cycles: 43167363 heartbeat IPC: 3.98 cumulative IPC: 1.981 (Simulation time: 00 hr 13 min 21 sec)
Heartbeat CPU 0 instructions: 120000000 cycles: 45680215 heartbeat IPC: 3.98 cumulative IPC: 2.134 (Simulation time: 00 hr 14 min 20 sec)
Heartbeat CPU 0 instructions: 130000000 cycles: 49075382 heartbeat IPC: 2.945 cumulative IPC: 2.21 (Simulation time: 00 hr 15 min 30 sec)
Heartbeat CPU 0 instructions: 140000004 cycles: 55725973 heartbeat IPC: 1.504 cumulative IPC: 2.101 (Simulation time: 00 hr 17 min 16 sec)
Heartbeat CPU 0 instructions: 150000001 cycles: 62878481 heartbeat IPC: 1.398 cumulative IPC: 2 (Simulation time: 00 hr 19 min 09 sec)
Heartbeat CPU 0 instructions: 160000002 cycles: 69719176 heartbeat IPC: 1.462 cumulative IPC: 1.935 (Simulation time: 00 hr 20 min 58 sec)
Heartbeat CPU 0 instructions: 170000000 cycles: 76846376 heartbeat IPC: 1.403 cumulative IPC: 1.876 (Simulation time: 00 hr 22 min 51 sec)
Heartbeat CPU 0 instructions: 180000000 cycles: 83869943 heartbeat IPC: 1.424 cumulative IPC: 1.831 (Simulation time: 00 hr 24 min 43 sec)
Heartbeat CPU 0 instructions: 190000000 cycles: 90271650 heartbeat IPC: 1.562 cumulative IPC: 1.809 (Simulation time: 00 hr 26 min 27 sec)
Heartbeat CPU 0 instructions: 200000003 cycles: 95099532 heartbeat IPC: 2.071 cumulative IPC: 1.824 (Simulation time: 00 hr 27 min 56 sec)
Heartbeat CPU 0 instructions: 210000001 cycles: 99947503 heartbeat IPC: 2.063 cumulative IPC: 1.838 (Simulation time: 00 hr 29 min 27 sec)
Heartbeat CPU 0 instructions: 220000004 cycles: 104854320 heartbeat IPC: 2.038 cumulative IPC: 1.848 (Simulation time: 00 hr 30 min 54 sec)
Heartbeat CPU 0 instructions: 230000000 cycles: 109748389 heartbeat IPC: 2.043 cumulative IPC: 1.858 (Simulation time: 00 hr 32 min 23 sec)
Heartbeat CPU 0 instructions: 240000003 cycles: 114640234 heartbeat IPC: 2.044 cumulative IPC: 1.867 (Simulation time: 00 hr 33 min 50 sec)
Heartbeat CPU 0 instructions: 250000002 cycles: 119532498 heartbeat IPC: 2.044 cumulative IPC: 1.875 (Simulation time: 00 hr 35 min 18 sec)
Heartbeat CPU 0 instructions: 260000002 cycles: 124434421 heartbeat IPC: 2.04 cumulative IPC: 1.883 (Simulation time: 00 hr 36 min 45 sec)
Heartbeat CPU 0 instructions: 270000003 cycles: 129320510 heartbeat IPC: 2.047 cumulative IPC: 1.889 (Simulation time: 00 hr 38 min 13 sec)
Heartbeat CPU 0 instructions: 280000003 cycles: 134214233 heartbeat IPC: 2.043 cumulative IPC: 1.896 (Simulation time: 00 hr 39 min 41 sec)
Heartbeat CPU 0 instructions: 290000000 cycles: 178909184 heartbeat IPC: 0.2237 cumulative IPC: 1.446 (Simulation time: 00 hr 47 min 15 sec)
Heartbeat CPU 0 instructions: 300000001 cycles: 181409452 heartbeat IPC: 4 cumulative IPC: 1.483 (Simulation time: 00 hr 48 min 26 sec)
Heartbeat CPU 0 instructions: 310000000 cycles: 183910408 heartbeat IPC: 3.998 cumulative IPC: 1.52 (Simulation time: 00 hr 49 min 24 sec)
Heartbeat CPU 0 instructions: 320000002 cycles: 186412648 heartbeat IPC: 3.996 cumulative IPC: 1.556 (Simulation time: 00 hr 50 min 22 sec)
Heartbeat CPU 0 instructions: 330000004 cycles: 188913297 heartbeat IPC: 3.999 cumulative IPC: 1.591 (Simulation time: 00 hr 51 min 19 sec)
Heartbeat CPU 0 instructions: 340000004 cycles: 191413721 heartbeat IPC: 3.999 cumulative IPC: 1.624 (Simulation time: 00 hr 52 min 18 sec)
Heartbeat CPU 0 instructions: 350000003 cycles: 193914995 heartbeat IPC: 3.998 cumulative IPC: 1.657 (Simulation time: 00 hr 53 min 15 sec)
Heartbeat CPU 0 instructions: 360000002 cycles: 196415872 heartbeat IPC: 3.999 cumulative IPC: 1.689 (Simulation time: 00 hr 54 min 14 sec)
Heartbeat CPU 0 instructions: 370000004 cycles: 198916265 heartbeat IPC: 3.999 cumulative IPC: 1.72 (Simulation time: 00 hr 55 min 12 sec)
Heartbeat CPU 0 instructions: 380000003 cycles: 201417516 heartbeat IPC: 3.998 cumulative IPC: 1.75 (Simulation time: 00 hr 56 min 09 sec)
Heartbeat CPU 0 instructions: 390000000 cycles: 203917650 heartbeat IPC: 4 cumulative IPC: 1.78 (Simulation time: 00 hr 57 min 08 sec)
Heartbeat CPU 0 instructions: 400000002 cycles: 206417756 heartbeat IPC: 4 cumulative IPC: 1.808 (Simulation time: 00 hr 58 min 05 sec)
Heartbeat CPU 0 instructions: 410000002 cycles: 208918496 heartbeat IPC: 3.999 cumulative IPC: 1.836 (Simulation time: 00 hr 59 min 03 sec)
Heartbeat CPU 0 instructions: 420000000 cycles: 211419240 heartbeat IPC: 3.999 cumulative IPC: 1.864 (Simulation time: 01 hr 00 min 01 sec)
Heartbeat CPU 0 instructions: 430000001 cycles: 213919427 heartbeat IPC: 4 cumulative IPC: 1.89 (Simulation time: 01 hr 00 min 58 sec)
Heartbeat CPU 0 instructions: 440000002 cycles: 216420714 heartbeat IPC: 3.998 cumulative IPC: 1.916 (Simulation time: 01 hr 01 min 56 sec)
Heartbeat CPU 0 instructions: 450000001 cycles: 218920787 heartbeat IPC: 4 cumulative IPC: 1.941 (Simulation time: 01 hr 02 min 55 sec)
Heartbeat CPU 0 instructions: 460000002 cycles: 221423012 heartbeat IPC: 3.996 cumulative IPC: 1.966 (Simulation time: 01 hr 03 min 52 sec)
Heartbeat CPU 0 instructions: 470000001 cycles: 223924410 heartbeat IPC: 3.998 cumulative IPC: 1.99 (Simulation time: 01 hr 04 min 51 sec)
Heartbeat CPU 0 instructions: 480000000 cycles: 226424974 heartbeat IPC: 3.999 cumulative IPC: 2.014 (Simulation time: 01 hr 05 min 50 sec)
Heartbeat CPU 0 instructions: 490000001 cycles: 228925189 heartbeat IPC: 4 cumulative IPC: 2.037 (Simulation time: 01 hr 06 min 48 sec)
Heartbeat CPU 0 instructions: 500000004 cycles: 231426684 heartbeat IPC: 3.998 cumulative IPC: 2.059 (Simulation time: 01 hr 07 min 47 sec)
Heartbeat CPU 0 instructions: 510000000 cycles: 239444364 heartbeat IPC: 1.247 cumulative IPC: 2.03 (Simulation time: 01 hr 09 min 42 sec)
Heartbeat CPU 0 instructions: 520000002 cycles: 338261014 heartbeat IPC: 0.1012 cumulative IPC: 1.444 (Simulation time: 01 hr 27 min 36 sec)
Heartbeat CPU 0 instructions: 530000001 cycles: 414216403 heartbeat IPC: 0.1317 cumulative IPC: 1.196 (Simulation time: 01 hr 41 min 40 sec)
Heartbeat CPU 0 instructions: 540000000 cycles: 453295037 heartbeat IPC: 0.2559 cumulative IPC: 1.113 (Simulation time: 01 hr 49 min 21 sec)
Heartbeat CPU 0 instructions: 550000001 cycles: 492071259 heartbeat IPC: 0.2579 cumulative IPC: 1.043 (Simulation time: 01 hr 56 min 59 sec)
Heartbeat CPU 0 instructions: 560000003 cycles: 530488518 heartbeat IPC: 0.2603 cumulative IPC: 0.9853 (Simulation time: 02 hr 04 min 35 sec)
Heartbeat CPU 0 instructions: 570000003 cycles: 569954372 heartbeat IPC: 0.2534 cumulative IPC: 0.9334 (Simulation time: 02 hr 12 min 16 sec)
Heartbeat CPU 0 instructions: 580000000 cycles: 608358335 heartbeat IPC: 0.2604 cumulative IPC: 0.89 (Simulation time: 02 hr 19 min 47 sec)
Heartbeat CPU 0 instructions: 590000001 cycles: 647707161 heartbeat IPC: 0.2541 cumulative IPC: 0.8506 (Simulation time: 02 hr 27 min 27 sec)
*** Reached end of trace: (0, "traces/sp.A.champsimtrace")
Heartbeat CPU 0 instructions: 600000002 cycles: 686519359 heartbeat IPC: 0.2577 cumulative IPC: 0.8165 (Simulation time: 02 hr 35 min 04 sec)
Heartbeat CPU 0 instructions: 610000004 cycles: 706254472 heartbeat IPC: 0.5067 cumulative IPC: 0.8076 (Simulation time: 02 hr 38 min 29 sec)
Heartbeat CPU 0 instructions: 620000002 cycles: 708757093 heartbeat IPC: 3.996 cumulative IPC: 0.8191 (Simulation time: 02 hr 39 min 29 sec)
Heartbeat CPU 0 instructions: 630000001 cycles: 711262546 heartbeat IPC: 3.991 cumulative IPC: 0.8305 (Simulation time: 02 hr 40 min 28 sec)
Heartbeat CPU 0 instructions: 640000000 cycles: 715345235 heartbeat IPC: 2.449 cumulative IPC: 0.8399 (Simulation time: 02 hr 41 min 45 sec)
Heartbeat CPU 0 instructions: 650000003 cycles: 721237838 heartbeat IPC: 1.697 cumulative IPC: 0.847 (Simulation time: 02 hr 43 min 23 sec)
Simulation finished CPU 0 instructions: 600000002 cycles: 708356782 cumulative IPC: 0.847 (Simulation time: 02 hr 43 min 23 sec)
Simulation complete CPU 0 instructions: 600000002 cycles: 708356782 cumulative IPC: 0.847 (Simulation time: 02 hr 43 min 23 sec)

ChampSim completed all CPUs

=== Simulation ===
CPU 0 runs traces/sp.A.champsimtrace
Region of Interest Statistics

CPU 0 cumulative IPC: 0.847 instructions: 600000002 cycles: 708356782
CPU 0 Branch Prediction Accuracy: 99.98% MPKI: 0.004213 Average ROB Occupancy at Mispredict: 118.3
Branch type MPKI
BRANCH_DIRECT_JUMP: 5e-06
BRANCH_INDIRECT: 7.67e-05
BRANCH_CONDITIONAL: 0.00404
BRANCH_DIRECT_CALL: 2e-05
BRANCH_INDIRECT_CALL: 3.33e-05
BRANCH_RETURN: 3.67e-05

LLC TOTAL        ACCESS:    5280461 HIT:    1173934 MISS:    4106527
LLC LOAD         ACCESS:    2308149 HIT:     519381 MISS:    1788768
LLC RFO          ACCESS:     922676 HIT:      60857 MISS:     861819
LLC PREFETCH     ACCESS:          0 HIT:          0 MISS:          0
LLC WRITE        ACCESS:    2046167 HIT:     593503 MISS:    1452664
LLC TRANSLATION  ACCESS:       3469 HIT:        193 MISS:       3276
LLC PREFETCH REQUESTED:          0 ISSUED:          0 USEFUL:          0 USELESS:          0
LLC AVERAGE MISS LATENCY: 834.1 cycles
cpu0_DTLB TOTAL        ACCESS:  127633009 HIT:  126574573 MISS:    1058436
cpu0_DTLB LOAD         ACCESS:  127633009 HIT:  126574573 MISS:    1058436
cpu0_DTLB RFO          ACCESS:          0 HIT:          0 MISS:          0
cpu0_DTLB PREFETCH     ACCESS:          0 HIT:          0 MISS:          0
cpu0_DTLB WRITE        ACCESS:          0 HIT:          0 MISS:          0
cpu0_DTLB TRANSLATION  ACCESS:          0 HIT:          0 MISS:          0
cpu0_DTLB PREFETCH REQUESTED:          0 ISSUED:          0 USEFUL:          0 USELESS:          0
cpu0_DTLB AVERAGE MISS LATENCY: 16.83 cycles
cpu0_ITLB TOTAL        ACCESS:     238132 HIT:     237881 MISS:        251
cpu0_ITLB LOAD         ACCESS:     238132 HIT:     237881 MISS:        251
cpu0_ITLB RFO          ACCESS:          0 HIT:          0 MISS:          0
cpu0_ITLB PREFETCH     ACCESS:          0 HIT:          0 MISS:          0
cpu0_ITLB WRITE        ACCESS:          0 HIT:          0 MISS:          0
cpu0_ITLB TRANSLATION  ACCESS:          0 HIT:          0 MISS:          0
cpu0_ITLB PREFETCH REQUESTED:          0 ISSUED:          0 USEFUL:          0 USELESS:          0
cpu0_ITLB AVERAGE MISS LATENCY: 257.1 cycles
cpu0_L1D TOTAL        ACCESS:  193069877 HIT:  178428512 MISS:   14641365
cpu0_L1D LOAD         ACCESS:  157827785 HIT:  147353636 MISS:   10474149
cpu0_L1D RFO          ACCESS:          0 HIT:          0 MISS:          0
cpu0_L1D PREFETCH     ACCESS:          0 HIT:          0 MISS:          0
cpu0_L1D WRITE        ACCESS:   35194219 HIT:   31045270 MISS:    4148949
cpu0_L1D TRANSLATION  ACCESS:      47873 HIT:      29606 MISS:      18267
cpu0_L1D PREFETCH REQUESTED:          0 ISSUED:          0 USEFUL:          0 USELESS:          0
cpu0_L1D AVERAGE MISS LATENCY: 170.2 cycles
cpu0_L1I TOTAL        ACCESS:     248656 HIT:     245653 MISS:       3003
cpu0_L1I LOAD         ACCESS:     248656 HIT:     245653 MISS:       3003
cpu0_L1I RFO          ACCESS:          0 HIT:          0 MISS:          0
cpu0_L1I PREFETCH     ACCESS:          0 HIT:          0 MISS:          0
cpu0_L1I WRITE        ACCESS:          0 HIT:          0 MISS:          0
cpu0_L1I TRANSLATION  ACCESS:          0 HIT:          0 MISS:          0
cpu0_L1I PREFETCH REQUESTED:          0 ISSUED:          0 USEFUL:          0 USELESS:          0
cpu0_L1I AVERAGE MISS LATENCY: 469.3 cycles
cpu0_L2C TOTAL        ACCESS:    5442280 HIT:    2207642 MISS:    3234638
cpu0_L2C LOAD         ACCESS:    2441314 HIT:     133164 MISS:    2308150
cpu0_L2C RFO          ACCESS:     924378 HIT:       1702 MISS:     922676
cpu0_L2C PREFETCH     ACCESS:          0 HIT:          0 MISS:          0
cpu0_L2C WRITE        ACCESS:    2058325 HIT:    2057982 MISS:        343
cpu0_L2C TRANSLATION  ACCESS:      18263 HIT:      14794 MISS:       3469
cpu0_L2C PREFETCH REQUESTED:          0 ISSUED:          0 USEFUL:          0 USELESS:          0
cpu0_L2C AVERAGE MISS LATENCY: 1080 cycles
cpu0_STLB TOTAL        ACCESS:     804144 HIT:     756297 MISS:      47847
cpu0_STLB LOAD         ACCESS:     804144 HIT:     756297 MISS:      47847
cpu0_STLB RFO          ACCESS:          0 HIT:          0 MISS:          0
cpu0_STLB PREFETCH     ACCESS:          0 HIT:          0 MISS:          0
cpu0_STLB WRITE        ACCESS:          0 HIT:          0 MISS:          0
cpu0_STLB TRANSLATION  ACCESS:          0 HIT:          0 MISS:          0
cpu0_STLB PREFETCH REQUESTED:          0 ISSUED:          0 USEFUL:          0 USELESS:          0
cpu0_STLB AVERAGE MISS LATENCY: 355.7 cycles

DRAM Statistics

Channel 0 RQ ROW_BUFFER_HIT:     712366
  ROW_BUFFER_MISS:    1941074
 AVG DBUS CONGESTED CYCLE: 3.971
WQ ROW_BUFFER_HIT: Channel 0 
  ROW_BUFFER_MISS:     659995
  FULL:    1090030
