WARNING: physical memory size is smaller than virtual memory size.

*** ChampSim Multicore Out-of-Order Simulator ***
Warmup Instructions: 50000000
Simulation Instructions: 600000000
Number of CPUs: 1
Page size: 4096

Off-chip DRAM Size: 4 GiB Channels: 1 Width: 64-bit Data Race: 3200 MT/s
Heartbeat CPU 0 instructions: 10000001 cycles: 2881056 heartbeat IPC: 3.471 cumulative IPC: 3.471 (Simulation time: 00 hr 01 min 16 sec)
Heartbeat CPU 0 instructions: 20000001 cycles: 5381056 heartbeat IPC: 4 cumulative IPC: 3.717 (Simulation time: 00 hr 02 min 09 sec)
Heartbeat CPU 0 instructions: 30000001 cycles: 7881056 heartbeat IPC: 4 cumulative IPC: 3.807 (Simulation time: 00 hr 03 min 04 sec)
Heartbeat CPU 0 instructions: 40000001 cycles: 10381056 heartbeat IPC: 4 cumulative IPC: 3.853 (Simulation time: 00 hr 04 min 00 sec)
Heartbeat CPU 0 instructions: 50000001 cycles: 12881056 heartbeat IPC: 4 cumulative IPC: 3.882 (Simulation time: 00 hr 04 min 55 sec)
Warmup finished CPU 0 instructions: 50000001 cycles: 12881057 cumulative IPC: 3.882 (Simulation time: 00 hr 04 min 55 sec)
Warmup complete CPU 0 instructions: 50000001 cycles: 12881057 cumulative IPC: 3.882 (Simulation time: 00 hr 04 min 55 sec)
Heartbeat CPU 0 instructions: 60000000 cycles: 17453673 heartbeat IPC: 2.187 cumulative IPC: 2.187 (Simulation time: 00 hr 06 min 27 sec)
Heartbeat CPU 0 instructions: 70000002 cycles: 22025334 heartbeat IPC: 2.187 cumulative IPC: 2.187 (Simulation time: 00 hr 07 min 57 sec)
Heartbeat CPU 0 instructions: 80000001 cycles: 26517597 heartbeat IPC: 2.226 cumulative IPC: 2.2 (Simulation time: 00 hr 09 min 26 sec)
Heartbeat CPU 0 instructions: 90000004 cycles: 31081786 heartbeat IPC: 2.191 cumulative IPC: 2.198 (Simulation time: 00 hr 10 min 55 sec)
Heartbeat CPU 0 instructions: 100000000 cycles: 34743336 heartbeat IPC: 2.731 cumulative IPC: 2.287 (Simulation time: 00 hr 12 min 11 sec)
Heartbeat CPU 0 instructions: 110000004 cycles: 37305114 heartbeat IPC: 3.904 cumulative IPC: 2.457 (Simulation time: 00 hr 13 min 14 sec)
Heartbeat CPU 0 instructions: 120000000 cycles: 39881847 heartbeat IPC: 3.881 cumulative IPC: 2.593 (Simulation time: 00 hr 14 min 15 sec)
Heartbeat CPU 0 instructions: 130000002 cycles: 42556635 heartbeat IPC: 3.739 cumulative IPC: 2.696 (Simulation time: 00 hr 15 min 18 sec)
Heartbeat CPU 0 instructions: 140000004 cycles: 45712059 heartbeat IPC: 3.169 cumulative IPC: 2.741 (Simulation time: 00 hr 16 min 27 sec)
Heartbeat CPU 0 instructions: 150000001 cycles: 49513297 heartbeat IPC: 2.631 cumulative IPC: 2.73 (Simulation time: 00 hr 17 min 44 sec)
Heartbeat CPU 0 instructions: 160000002 cycles: 53051178 heartbeat IPC: 2.827 cumulative IPC: 2.738 (Simulation time: 00 hr 18 min 58 sec)
Heartbeat CPU 0 instructions: 170000000 cycles: 56785092 heartbeat IPC: 2.678 cumulative IPC: 2.733 (Simulation time: 00 hr 20 min 13 sec)
Heartbeat CPU 0 instructions: 180000000 cycles: 60520470 heartbeat IPC: 2.677 cumulative IPC: 2.729 (Simulation time: 00 hr 21 min 31 sec)
Heartbeat CPU 0 instructions: 190000000 cycles: 64070116 heartbeat IPC: 2.817 cumulative IPC: 2.735 (Simulation time: 00 hr 22 min 45 sec)
Heartbeat CPU 0 instructions: 200000004 cycles: 66858659 heartbeat IPC: 3.586 cumulative IPC: 2.779 (Simulation time: 00 hr 23 min 50 sec)
Heartbeat CPU 0 instructions: 210000001 cycles: 69658687 heartbeat IPC: 3.571 cumulative IPC: 2.818 (Simulation time: 00 hr 24 min 54 sec)
Heartbeat CPU 0 instructions: 220000004 cycles: 72740674 heartbeat IPC: 3.245 cumulative IPC: 2.84 (Simulation time: 00 hr 26 min 02 sec)
Heartbeat CPU 0 instructions: 230000000 cycles: 76145850 heartbeat IPC: 2.937 cumulative IPC: 2.845 (Simulation time: 00 hr 27 min 15 sec)
Heartbeat CPU 0 instructions: 240000001 cycles: 80001149 heartbeat IPC: 2.594 cumulative IPC: 2.831 (Simulation time: 00 hr 28 min 33 sec)
Heartbeat CPU 0 instructions: 250000002 cycles: 83980425 heartbeat IPC: 2.513 cumulative IPC: 2.813 (Simulation time: 00 hr 29 min 54 sec)
Heartbeat CPU 0 instructions: 260000000 cycles: 87978506 heartbeat IPC: 2.501 cumulative IPC: 2.796 (Simulation time: 00 hr 31 min 15 sec)
Heartbeat CPU 0 instructions: 270000002 cycles: 91893994 heartbeat IPC: 2.554 cumulative IPC: 2.784 (Simulation time: 00 hr 32 min 35 sec)
Heartbeat CPU 0 instructions: 280000003 cycles: 95898860 heartbeat IPC: 2.497 cumulative IPC: 2.77 (Simulation time: 00 hr 33 min 55 sec)
Heartbeat CPU 0 instructions: 290000000 cycles: 149877919 heartbeat IPC: 0.1853 cumulative IPC: 1.752 (Simulation time: 00 hr 44 min 16 sec)
Heartbeat CPU 0 instructions: 300000001 cycles: 152380307 heartbeat IPC: 3.996 cumulative IPC: 1.792 (Simulation time: 00 hr 45 min 16 sec)
Heartbeat CPU 0 instructions: 310000000 cycles: 154882684 heartbeat IPC: 3.996 cumulative IPC: 1.831 (Simulation time: 00 hr 46 min 16 sec)
Heartbeat CPU 0 instructions: 320000002 cycles: 157385115 heartbeat IPC: 3.996 cumulative IPC: 1.868 (Simulation time: 00 hr 47 min 15 sec)
Heartbeat CPU 0 instructions: 330000004 cycles: 159887452 heartbeat IPC: 3.996 cumulative IPC: 1.905 (Simulation time: 00 hr 48 min 14 sec)
Heartbeat CPU 0 instructions: 340000004 cycles: 162389840 heartbeat IPC: 3.996 cumulative IPC: 1.94 (Simulation time: 00 hr 49 min 13 sec)
Heartbeat CPU 0 instructions: 350000003 cycles: 164892233 heartbeat IPC: 3.996 cumulative IPC: 1.974 (Simulation time: 00 hr 50 min 12 sec)
Heartbeat CPU 0 instructions: 360000002 cycles: 167394623 heartbeat IPC: 3.996 cumulative IPC: 2.006 (Simulation time: 00 hr 51 min 11 sec)
Heartbeat CPU 0 instructions: 370000004 cycles: 169896972 heartbeat IPC: 3.996 cumulative IPC: 2.038 (Simulation time: 00 hr 52 min 10 sec)
Heartbeat CPU 0 instructions: 380000003 cycles: 172399513 heartbeat IPC: 3.996 cumulative IPC: 2.069 (Simulation time: 00 hr 53 min 10 sec)
Heartbeat CPU 0 instructions: 390000000 cycles: 174902419 heartbeat IPC: 3.995 cumulative IPC: 2.098 (Simulation time: 00 hr 54 min 11 sec)
Heartbeat CPU 0 instructions: 400000002 cycles: 177404981 heartbeat IPC: 3.996 cumulative IPC: 2.127 (Simulation time: 00 hr 55 min 10 sec)
Heartbeat CPU 0 instructions: 410000002 cycles: 179907369 heartbeat IPC: 3.996 cumulative IPC: 2.155 (Simulation time: 00 hr 56 min 10 sec)
Heartbeat CPU 0 instructions: 420000000 cycles: 182411037 heartbeat IPC: 3.994 cumulative IPC: 2.183 (Simulation time: 00 hr 57 min 09 sec)
Heartbeat CPU 0 instructions: 430000001 cycles: 184913804 heartbeat IPC: 3.996 cumulative IPC: 2.209 (Simulation time: 00 hr 58 min 09 sec)
Heartbeat CPU 0 instructions: 440000000 cycles: 187416247 heartbeat IPC: 3.996 cumulative IPC: 2.235 (Simulation time: 00 hr 59 min 09 sec)
Heartbeat CPU 0 instructions: 450000001 cycles: 189918584 heartbeat IPC: 3.996 cumulative IPC: 2.259 (Simulation time: 01 hr 00 min 08 sec)
Heartbeat CPU 0 instructions: 460000002 cycles: 192421374 heartbeat IPC: 3.996 cumulative IPC: 2.284 (Simulation time: 01 hr 01 min 09 sec)
Heartbeat CPU 0 instructions: 470000001 cycles: 194924581 heartbeat IPC: 3.995 cumulative IPC: 2.307 (Simulation time: 01 hr 02 min 08 sec)
Heartbeat CPU 0 instructions: 480000000 cycles: 197426968 heartbeat IPC: 3.996 cumulative IPC: 2.33 (Simulation time: 01 hr 03 min 08 sec)
Heartbeat CPU 0 instructions: 490000001 cycles: 199930207 heartbeat IPC: 3.995 cumulative IPC: 2.352 (Simulation time: 01 hr 04 min 07 sec)
Heartbeat CPU 0 instructions: 500000004 cycles: 202433891 heartbeat IPC: 3.994 cumulative IPC: 2.374 (Simulation time: 01 hr 05 min 07 sec)
Heartbeat CPU 0 instructions: 510000000 cycles: 208520622 heartbeat IPC: 1.643 cumulative IPC: 2.351 (Simulation time: 01 hr 06 min 50 sec)
Heartbeat CPU 0 instructions: 520000001 cycles: 319334928 heartbeat IPC: 0.09024 cumulative IPC: 1.534 (Simulation time: 01 hr 29 min 54 sec)
Heartbeat CPU 0 instructions: 530000001 cycles: 401405566 heartbeat IPC: 0.1218 cumulative IPC: 1.235 (Simulation time: 01 hr 47 min 22 sec)
Heartbeat CPU 0 instructions: 540000000 cycles: 428378284 heartbeat IPC: 0.3707 cumulative IPC: 1.179 (Simulation time: 01 hr 53 min 40 sec)
Heartbeat CPU 0 instructions: 550000003 cycles: 458488389 heartbeat IPC: 0.3321 cumulative IPC: 1.122 (Simulation time: 02 hr 00 min 35 sec)
Heartbeat CPU 0 instructions: 560000000 cycles: 487917625 heartbeat IPC: 0.3398 cumulative IPC: 1.074 (Simulation time: 02 hr 07 min 20 sec)
Heartbeat CPU 0 instructions: 570000003 cycles: 519896415 heartbeat IPC: 0.3127 cumulative IPC: 1.026 (Simulation time: 02 hr 14 min 38 sec)
Heartbeat CPU 0 instructions: 580000002 cycles: 550040232 heartbeat IPC: 0.3317 cumulative IPC: 0.9867 (Simulation time: 02 hr 21 min 36 sec)
Heartbeat CPU 0 instructions: 590000001 cycles: 580208247 heartbeat IPC: 0.3315 cumulative IPC: 0.9518 (Simulation time: 02 hr 28 min 38 sec)
*** Reached end of trace: (0, "traces/sp.A.champsimtrace")
Heartbeat CPU 0 instructions: 600000001 cycles: 611556811 heartbeat IPC: 0.319 cumulative IPC: 0.9187 (Simulation time: 02 hr 36 min 15 sec)
Heartbeat CPU 0 instructions: 610000004 cycles: 642870069 heartbeat IPC: 0.3194 cumulative IPC: 0.8889 (Simulation time: 02 hr 42 min 05 sec)
Heartbeat CPU 0 instructions: 620000002 cycles: 647349317 heartbeat IPC: 2.233 cumulative IPC: 0.8984 (Simulation time: 02 hr 43 min 34 sec)
Heartbeat CPU 0 instructions: 630000001 cycles: 651914096 heartbeat IPC: 2.191 cumulative IPC: 0.9076 (Simulation time: 02 hr 45 min 04 sec)
Heartbeat CPU 0 instructions: 640000000 cycles: 656547059 heartbeat IPC: 2.158 cumulative IPC: 0.9166 (Simulation time: 02 hr 46 min 35 sec)
Heartbeat CPU 0 instructions: 650000002 cycles: 661172670 heartbeat IPC: 2.162 cumulative IPC: 0.9255 (Simulation time: 02 hr 48 min 06 sec)
Simulation finished CPU 0 instructions: 600000001 cycles: 648291614 cumulative IPC: 0.9255 (Simulation time: 02 hr 48 min 06 sec)
Simulation complete CPU 0 instructions: 600000001 cycles: 648291614 cumulative IPC: 0.9255 (Simulation time: 02 hr 48 min 06 sec)

ChampSim completed all CPUs

=== Simulation ===
CPU 0 runs traces/sp.A.champsimtrace
Region of Interest Statistics

CPU 0 cumulative IPC: 0.9255 instructions: 600000001 cycles: 648291614
CPU 0 Branch Prediction Accuracy: 98.91% MPKI: 0.226 Average ROB Occupancy at Mispredict: 232
Branch type MPKI
BRANCH_DIRECT_JUMP: 5e-06
BRANCH_INDIRECT: 7.67e-05
BRANCH_CONDITIONAL: 0.226
BRANCH_DIRECT_CALL: 2e-05
BRANCH_INDIRECT_CALL: 3.33e-05
BRANCH_RETURN: 3.67e-05

LLC TOTAL        ACCESS:    7588599 HIT:    3052425 MISS:    4536174
LLC LOAD         ACCESS:    2308142 HIT:    1224889 MISS:    1083253
LLC RFO          ACCESS:     922678 HIT:      50151 MISS:     872527
LLC PREFETCH     ACCESS:    2308142 HIT:     622402 MISS:    1685740
LLC WRITE        ACCESS:    2046167 HIT:    1154791 MISS:     891376
LLC TRANSLATION  ACCESS:       3470 HIT:        192 MISS:       3278
LLC PREFETCH REQUESTED:    2308142 ISSUED:    2308142 USEFUL:    1421121 USELESS:      20030
LLC AVERAGE MISS LATENCY: 994.6 cycles
cpu0_DTLB TOTAL        ACCESS:  127345249 HIT:  126471184 MISS:     874065
cpu0_DTLB LOAD         ACCESS:  127345249 HIT:  126471184 MISS:     874065
cpu0_DTLB RFO          ACCESS:          0 HIT:          0 MISS:          0
cpu0_DTLB PREFETCH     ACCESS:          0 HIT:          0 MISS:          0
cpu0_DTLB WRITE        ACCESS:          0 HIT:          0 MISS:          0
cpu0_DTLB TRANSLATION  ACCESS:          0 HIT:          0 MISS:          0
cpu0_DTLB PREFETCH REQUESTED:          0 ISSUED:          0 USEFUL:          0 USELESS:          0
cpu0_DTLB AVERAGE MISS LATENCY: 18.79 cycles
cpu0_ITLB TOTAL        ACCESS:     216900 HIT:     216653 MISS:        247
cpu0_ITLB LOAD         ACCESS:     216900 HIT:     216653 MISS:        247
cpu0_ITLB RFO          ACCESS:          0 HIT:          0 MISS:          0
cpu0_ITLB PREFETCH     ACCESS:          0 HIT:          0 MISS:          0
cpu0_ITLB WRITE        ACCESS:          0 HIT:          0 MISS:          0
cpu0_ITLB TRANSLATION  ACCESS:          0 HIT:          0 MISS:          0
cpu0_ITLB PREFETCH REQUESTED:          0 ISSUED:          0 USEFUL:          0 USELESS:          0
cpu0_ITLB AVERAGE MISS LATENCY: 270.5 cycles
cpu0_L1D TOTAL        ACCESS:  192921041 HIT:  179094435 MISS:   13826606
cpu0_L1D LOAD         ACCESS:  157678907 HIT:  147969511 MISS:    9709396
cpu0_L1D RFO          ACCESS:          0 HIT:          0 MISS:          0
cpu0_L1D PREFETCH     ACCESS:          0 HIT:          0 MISS:          0
cpu0_L1D WRITE        ACCESS:   35194257 HIT:   31095314 MISS:    4098943
cpu0_L1D TRANSLATION  ACCESS:      47877 HIT:      29610 MISS:      18267
cpu0_L1D PREFETCH REQUESTED:          0 ISSUED:          0 USEFUL:          0 USELESS:          0
cpu0_L1D AVERAGE MISS LATENCY: 161 cycles
cpu0_L1I TOTAL        ACCESS:     224446 HIT:     221636 MISS:       2810
cpu0_L1I LOAD         ACCESS:     224446 HIT:     221636 MISS:       2810
cpu0_L1I RFO          ACCESS:          0 HIT:          0 MISS:          0
cpu0_L1I PREFETCH     ACCESS:          0 HIT:          0 MISS:          0
cpu0_L1I WRITE        ACCESS:          0 HIT:          0 MISS:          0
cpu0_L1I TRANSLATION  ACCESS:          0 HIT:          0 MISS:          0
cpu0_L1I PREFETCH REQUESTED:          0 ISSUED:          0 USEFUL:          0 USELESS:          0
cpu0_L1I AVERAGE MISS LATENCY: 497.5 cycles
cpu0_L2C TOTAL        ACCESS:    5430731 HIT:    2196098 MISS:    3234633
cpu0_L2C LOAD         ACCESS:    2430498 HIT:     122355 MISS:    2308143
cpu0_L2C RFO          ACCESS:     924057 HIT:       1379 MISS:     922678
cpu0_L2C PREFETCH     ACCESS:          0 HIT:          0 MISS:          0
cpu0_L2C WRITE        ACCESS:    2057911 HIT:    2057569 MISS:        342
cpu0_L2C TRANSLATION  ACCESS:      18265 HIT:      14795 MISS:       3470
cpu0_L2C PREFETCH REQUESTED:          0 ISSUED:          0 USEFUL:          0 USELESS:          0
cpu0_L2C AVERAGE MISS LATENCY: 928.4 cycles
cpu0_STLB TOTAL        ACCESS:     612051 HIT:     564202 MISS:      47849
cpu0_STLB LOAD         ACCESS:     612051 HIT:     564202 MISS:      47849
cpu0_STLB RFO          ACCESS:          0 HIT:          0 MISS:          0
cpu0_STLB PREFETCH     ACCESS:          0 HIT:          0 MISS:          0
cpu0_STLB WRITE        ACCESS:          0 HIT:          0 MISS:          0
cpu0_STLB TRANSLATION  ACCESS:          0 HIT:          0 MISS:          0
cpu0_STLB PREFETCH REQUESTED:          0 ISSUED:          0 USEFUL:          0 USELESS:          0
cpu0_STLB AVERAGE MISS LATENCY: 385.3 cycles

DRAM Statistics

Channel 0 RQ ROW_BUFFER_HIT:     747769
  ROW_BUFFER_MISS:    1844257
 AVG DBUS CONGESTED CYCLE: 3.979
WQ ROW_BUFFER_HIT: Channel 0 
  ROW_BUFFER_MISS:     401399
  FULL:    1264544
Final OPTGen Hits: 32556
Final OPTGen Access: 54350
Final OPTGEN Hit Rate: 59.9007
