WARNING: physical memory size is smaller than virtual memory size.

*** ChampSim Multicore Out-of-Order Simulator ***
Warmup Instructions: 50000000
Simulation Instructions: 600000000
Number of CPUs: 1
Page size: 4096

Off-chip DRAM Size: 4 GiB Channels: 1 Width: 64-bit Data Race: 3200 MT/s
Heartbeat CPU 0 instructions: 10000002 cycles: 2881056 heartbeat IPC: 3.471 cumulative IPC: 3.471 (Simulation time: 00 hr 00 min 29 sec)
Heartbeat CPU 0 instructions: 20000002 cycles: 5381056 heartbeat IPC: 4 cumulative IPC: 3.717 (Simulation time: 00 hr 01 min 04 sec)
Heartbeat CPU 0 instructions: 30000002 cycles: 7881056 heartbeat IPC: 4 cumulative IPC: 3.807 (Simulation time: 00 hr 01 min 43 sec)
Heartbeat CPU 0 instructions: 40000002 cycles: 10381056 heartbeat IPC: 4 cumulative IPC: 3.853 (Simulation time: 00 hr 02 min 25 sec)
Heartbeat CPU 0 instructions: 50000002 cycles: 12881056 heartbeat IPC: 4 cumulative IPC: 3.882 (Simulation time: 00 hr 03 min 09 sec)
Warmup finished CPU 0 instructions: 50000002 cycles: 12881057 cumulative IPC: 3.882 (Simulation time: 00 hr 03 min 09 sec)
Warmup complete CPU 0 instructions: 50000002 cycles: 12881057 cumulative IPC: 3.882 (Simulation time: 00 hr 03 min 09 sec)
Heartbeat CPU 0 instructions: 60000000 cycles: 17291537 heartbeat IPC: 2.267 cumulative IPC: 2.267 (Simulation time: 00 hr 04 min 22 sec)
Heartbeat CPU 0 instructions: 70000000 cycles: 21713910 heartbeat IPC: 2.261 cumulative IPC: 2.264 (Simulation time: 00 hr 05 min 30 sec)
Heartbeat CPU 0 instructions: 80000001 cycles: 26117340 heartbeat IPC: 2.271 cumulative IPC: 2.266 (Simulation time: 00 hr 06 min 33 sec)
Heartbeat CPU 0 instructions: 90000003 cycles: 30542284 heartbeat IPC: 2.26 cumulative IPC: 2.265 (Simulation time: 00 hr 07 min 34 sec)
Heartbeat CPU 0 instructions: 100000000 cycles: 33966084 heartbeat IPC: 2.921 cumulative IPC: 2.371 (Simulation time: 00 hr 08 min 30 sec)
Heartbeat CPU 0 instructions: 110000001 cycles: 36515368 heartbeat IPC: 3.923 cumulative IPC: 2.539 (Simulation time: 00 hr 09 min 31 sec)
Heartbeat CPU 0 instructions: 120000001 cycles: 39084857 heartbeat IPC: 3.892 cumulative IPC: 2.671 (Simulation time: 00 hr 10 min 31 sec)
Heartbeat CPU 0 instructions: 130000000 cycles: 41778395 heartbeat IPC: 3.713 cumulative IPC: 2.768 (Simulation time: 00 hr 11 min 36 sec)
Heartbeat CPU 0 instructions: 140000004 cycles: 45211169 heartbeat IPC: 2.913 cumulative IPC: 2.784 (Simulation time: 00 hr 12 min 48 sec)
Heartbeat CPU 0 instructions: 150000000 cycles: 48564193 heartbeat IPC: 2.982 cumulative IPC: 2.802 (Simulation time: 00 hr 13 min 54 sec)
Heartbeat CPU 0 instructions: 160000000 cycles: 51815503 heartbeat IPC: 3.076 cumulative IPC: 2.825 (Simulation time: 00 hr 15 min 02 sec)
Heartbeat CPU 0 instructions: 170000000 cycles: 54930081 heartbeat IPC: 3.211 cumulative IPC: 2.854 (Simulation time: 00 hr 16 min 05 sec)
Heartbeat CPU 0 instructions: 180000002 cycles: 58138709 heartbeat IPC: 3.117 cumulative IPC: 2.872 (Simulation time: 00 hr 17 min 08 sec)
Heartbeat CPU 0 instructions: 190000002 cycles: 60927222 heartbeat IPC: 3.586 cumulative IPC: 2.914 (Simulation time: 00 hr 18 min 07 sec)
Heartbeat CPU 0 instructions: 200000000 cycles: 63700893 heartbeat IPC: 3.605 cumulative IPC: 2.952 (Simulation time: 00 hr 19 min 07 sec)
Heartbeat CPU 0 instructions: 210000000 cycles: 66427044 heartbeat IPC: 3.668 cumulative IPC: 2.988 (Simulation time: 00 hr 20 min 10 sec)
Heartbeat CPU 0 instructions: 220000001 cycles: 69361330 heartbeat IPC: 3.408 cumulative IPC: 3.01 (Simulation time: 00 hr 21 min 15 sec)
Heartbeat CPU 0 instructions: 230000004 cycles: 72439228 heartbeat IPC: 3.249 cumulative IPC: 3.022 (Simulation time: 00 hr 22 min 21 sec)
Heartbeat CPU 0 instructions: 240000002 cycles: 75643535 heartbeat IPC: 3.121 cumulative IPC: 3.027 (Simulation time: 00 hr 23 min 29 sec)
Heartbeat CPU 0 instructions: 250000002 cycles: 78796993 heartbeat IPC: 3.171 cumulative IPC: 3.034 (Simulation time: 00 hr 24 min 35 sec)
Heartbeat CPU 0 instructions: 260000002 cycles: 82151599 heartbeat IPC: 2.981 cumulative IPC: 3.032 (Simulation time: 00 hr 25 min 40 sec)
Heartbeat CPU 0 instructions: 270000003 cycles: 85334878 heartbeat IPC: 3.141 cumulative IPC: 3.036 (Simulation time: 00 hr 26 min 42 sec)
Heartbeat CPU 0 instructions: 280000003 cycles: 88606306 heartbeat IPC: 3.057 cumulative IPC: 3.037 (Simulation time: 00 hr 27 min 47 sec)
Heartbeat CPU 0 instructions: 290000001 cycles: 143558907 heartbeat IPC: 0.182 cumulative IPC: 1.837 (Simulation time: 00 hr 36 min 08 sec)
Heartbeat CPU 0 instructions: 300000002 cycles: 146064310 heartbeat IPC: 3.991 cumulative IPC: 1.877 (Simulation time: 00 hr 37 min 01 sec)
Heartbeat CPU 0 instructions: 310000001 cycles: 148569355 heartbeat IPC: 3.992 cumulative IPC: 1.916 (Simulation time: 00 hr 37 min 51 sec)
Heartbeat CPU 0 instructions: 320000000 cycles: 151074469 heartbeat IPC: 3.992 cumulative IPC: 1.954 (Simulation time: 00 hr 38 min 41 sec)
Heartbeat CPU 0 instructions: 330000003 cycles: 153579507 heartbeat IPC: 3.992 cumulative IPC: 1.99 (Simulation time: 00 hr 39 min 33 sec)
Heartbeat CPU 0 instructions: 340000000 cycles: 156084577 heartbeat IPC: 3.992 cumulative IPC: 2.025 (Simulation time: 00 hr 40 min 28 sec)
Heartbeat CPU 0 instructions: 350000004 cycles: 158589652 heartbeat IPC: 3.992 cumulative IPC: 2.059 (Simulation time: 00 hr 41 min 23 sec)
Heartbeat CPU 0 instructions: 360000004 cycles: 161094727 heartbeat IPC: 3.992 cumulative IPC: 2.092 (Simulation time: 00 hr 42 min 17 sec)
Heartbeat CPU 0 instructions: 370000000 cycles: 163599801 heartbeat IPC: 3.992 cumulative IPC: 2.123 (Simulation time: 00 hr 43 min 11 sec)
Heartbeat CPU 0 instructions: 380000004 cycles: 166105352 heartbeat IPC: 3.991 cumulative IPC: 2.154 (Simulation time: 00 hr 44 min 07 sec)
Heartbeat CPU 0 instructions: 390000001 cycles: 168610479 heartbeat IPC: 3.992 cumulative IPC: 2.183 (Simulation time: 00 hr 45 min 03 sec)
Heartbeat CPU 0 instructions: 400000003 cycles: 171115558 heartbeat IPC: 3.992 cumulative IPC: 2.212 (Simulation time: 00 hr 45 min 56 sec)
Heartbeat CPU 0 instructions: 410000003 cycles: 173620674 heartbeat IPC: 3.992 cumulative IPC: 2.24 (Simulation time: 00 hr 46 min 47 sec)
Heartbeat CPU 0 instructions: 420000002 cycles: 176125749 heartbeat IPC: 3.992 cumulative IPC: 2.267 (Simulation time: 00 hr 47 min 38 sec)
Heartbeat CPU 0 instructions: 430000000 cycles: 178630822 heartbeat IPC: 3.992 cumulative IPC: 2.293 (Simulation time: 00 hr 48 min 33 sec)
Heartbeat CPU 0 instructions: 440000001 cycles: 181135896 heartbeat IPC: 3.992 cumulative IPC: 2.318 (Simulation time: 00 hr 49 min 24 sec)
Heartbeat CPU 0 instructions: 450000000 cycles: 183640943 heartbeat IPC: 3.992 cumulative IPC: 2.342 (Simulation time: 00 hr 50 min 14 sec)
Heartbeat CPU 0 instructions: 460000003 cycles: 186145981 heartbeat IPC: 3.992 cumulative IPC: 2.366 (Simulation time: 00 hr 51 min 05 sec)
Heartbeat CPU 0 instructions: 470000001 cycles: 188651055 heartbeat IPC: 3.992 cumulative IPC: 2.389 (Simulation time: 00 hr 52 min 00 sec)
Heartbeat CPU 0 instructions: 480000003 cycles: 191156128 heartbeat IPC: 3.992 cumulative IPC: 2.412 (Simulation time: 00 hr 52 min 54 sec)
Heartbeat CPU 0 instructions: 490000003 cycles: 193661203 heartbeat IPC: 3.992 cumulative IPC: 2.434 (Simulation time: 00 hr 53 min 45 sec)
Heartbeat CPU 0 instructions: 500000002 cycles: 196166832 heartbeat IPC: 3.991 cumulative IPC: 2.455 (Simulation time: 00 hr 54 min 37 sec)
Heartbeat CPU 0 instructions: 510000003 cycles: 202907291 heartbeat IPC: 1.484 cumulative IPC: 2.421 (Simulation time: 00 hr 56 min 14 sec)
Heartbeat CPU 0 instructions: 520000001 cycles: 314316542 heartbeat IPC: 0.08976 cumulative IPC: 1.559 (Simulation time: 01 hr 14 min 58 sec)
Heartbeat CPU 0 instructions: 530000004 cycles: 401362700 heartbeat IPC: 0.1149 cumulative IPC: 1.236 (Simulation time: 01 hr 29 min 34 sec)
Heartbeat CPU 0 instructions: 540000000 cycles: 431051979 heartbeat IPC: 0.3368 cumulative IPC: 1.172 (Simulation time: 01 hr 35 min 07 sec)
Heartbeat CPU 0 instructions: 550000004 cycles: 460104202 heartbeat IPC: 0.3442 cumulative IPC: 1.118 (Simulation time: 01 hr 40 min 52 sec)
Heartbeat CPU 0 instructions: 560000004 cycles: 488043273 heartbeat IPC: 0.3579 cumulative IPC: 1.073 (Simulation time: 01 hr 46 min 33 sec)
Heartbeat CPU 0 instructions: 570000000 cycles: 518330152 heartbeat IPC: 0.3302 cumulative IPC: 1.029 (Simulation time: 01 hr 52 min 41 sec)
Heartbeat CPU 0 instructions: 580000001 cycles: 547037360 heartbeat IPC: 0.3483 cumulative IPC: 0.9922 (Simulation time: 01 hr 58 min 34 sec)
Heartbeat CPU 0 instructions: 590000000 cycles: 576242982 heartbeat IPC: 0.3424 cumulative IPC: 0.9585 (Simulation time: 02 hr 04 min 27 sec)
*** Reached end of trace: (0, "traces/sp.A.champsimtrace")
Heartbeat CPU 0 instructions: 600000001 cycles: 605091783 heartbeat IPC: 0.3466 cumulative IPC: 0.9287 (Simulation time: 02 hr 10 min 20 sec)
Heartbeat CPU 0 instructions: 610000000 cycles: 635389345 heartbeat IPC: 0.3301 cumulative IPC: 0.8996 (Simulation time: 02 hr 14 min 44 sec)
Heartbeat CPU 0 instructions: 620000003 cycles: 639798284 heartbeat IPC: 2.268 cumulative IPC: 0.9092 (Simulation time: 02 hr 15 min 59 sec)
Heartbeat CPU 0 instructions: 630000003 cycles: 644198403 heartbeat IPC: 2.273 cumulative IPC: 0.9187 (Simulation time: 02 hr 17 min 14 sec)
Heartbeat CPU 0 instructions: 640000004 cycles: 648625963 heartbeat IPC: 2.259 cumulative IPC: 0.928 (Simulation time: 02 hr 18 min 43 sec)
Heartbeat CPU 0 instructions: 650000001 cycles: 653053690 heartbeat IPC: 2.258 cumulative IPC: 0.9372 (Simulation time: 02 hr 20 min 09 sec)
Simulation finished CPU 0 instructions: 600000004 cycles: 640172635 cumulative IPC: 0.9372 (Simulation time: 02 hr 20 min 09 sec)
Simulation complete CPU 0 instructions: 600000004 cycles: 640172635 cumulative IPC: 0.9372 (Simulation time: 02 hr 20 min 09 sec)

ChampSim completed all CPUs

=== Simulation ===
CPU 0 runs traces/sp.A.champsimtrace
Region of Interest Statistics

CPU 0 cumulative IPC: 0.9372 instructions: 600000004 cycles: 640172635
CPU 0 Branch Prediction Accuracy: 98.84% MPKI: 0.2406 Average ROB Occupancy at Mispredict: 220.4
Branch type MPKI
BRANCH_DIRECT_JUMP: 5e-06
BRANCH_INDIRECT: 7.5e-05
BRANCH_CONDITIONAL: 0.24
BRANCH_DIRECT_CALL: 2e-05
BRANCH_INDIRECT_CALL: 3.17e-05
BRANCH_RETURN: 3.67e-05

LLC TOTAL        ACCESS:    7580551 HIT:    3650596 MISS:    3929955
LLC LOAD         ACCESS:    2304579 HIT:    1211535 MISS:    1093044
LLC RFO          ACCESS:     922635 HIT:       3398 MISS:     919237
LLC PREFETCH     ACCESS:    2304579 HIT:     616317 MISS:    1688262
LLC WRITE        ACCESS:    2045285 HIT:    1818200 MISS:     227085
LLC TRANSLATION  ACCESS:       3473 HIT:       1146 MISS:       2327
LLC PREFETCH REQUESTED:    2304579 ISSUED:    2304579 USEFUL:    1422201 USELESS:      26702
LLC AVERAGE MISS LATENCY: 1052 cycles
cpu0_DTLB TOTAL        ACCESS:  127597950 HIT:  126782459 MISS:     815491
cpu0_DTLB LOAD         ACCESS:  127597950 HIT:  126782459 MISS:     815491
cpu0_DTLB RFO          ACCESS:          0 HIT:          0 MISS:          0
cpu0_DTLB PREFETCH     ACCESS:          0 HIT:          0 MISS:          0
cpu0_DTLB WRITE        ACCESS:          0 HIT:          0 MISS:          0
cpu0_DTLB TRANSLATION  ACCESS:          0 HIT:          0 MISS:          0
cpu0_DTLB PREFETCH REQUESTED:          0 ISSUED:          0 USEFUL:          0 USELESS:          0
cpu0_DTLB AVERAGE MISS LATENCY: 18.37 cycles
cpu0_ITLB TOTAL        ACCESS:     216173 HIT:     215951 MISS:        222
cpu0_ITLB LOAD         ACCESS:     216173 HIT:     215951 MISS:        222
cpu0_ITLB RFO          ACCESS:          0 HIT:          0 MISS:          0
cpu0_ITLB PREFETCH     ACCESS:          0 HIT:          0 MISS:          0
cpu0_ITLB WRITE        ACCESS:          0 HIT:          0 MISS:          0
cpu0_ITLB TRANSLATION  ACCESS:          0 HIT:          0 MISS:          0
cpu0_ITLB PREFETCH REQUESTED:          0 ISSUED:          0 USEFUL:          0 USELESS:          0
cpu0_ITLB AVERAGE MISS LATENCY: 369.8 cycles
cpu0_L1D TOTAL        ACCESS:  193732202 HIT:  179780948 MISS:   13951254
cpu0_L1D LOAD         ACCESS:  158489983 HIT:  148752356 MISS:    9737627
cpu0_L1D RFO          ACCESS:          0 HIT:          0 MISS:          0
cpu0_L1D PREFETCH     ACCESS:          0 HIT:          0 MISS:          0
cpu0_L1D WRITE        ACCESS:   35194341 HIT:   30999021 MISS:    4195320
cpu0_L1D TRANSLATION  ACCESS:      47878 HIT:      29571 MISS:      18307
cpu0_L1D PREFETCH REQUESTED:          0 ISSUED:          0 USEFUL:          0 USELESS:          0
cpu0_L1D AVERAGE MISS LATENCY: 160 cycles
cpu0_L1I TOTAL        ACCESS:     223676 HIT:     220885 MISS:       2791
cpu0_L1I LOAD         ACCESS:     223676 HIT:     220885 MISS:       2791
cpu0_L1I RFO          ACCESS:          0 HIT:          0 MISS:          0
cpu0_L1I PREFETCH     ACCESS:          0 HIT:          0 MISS:          0
cpu0_L1I WRITE        ACCESS:          0 HIT:          0 MISS:          0
cpu0_L1I TRANSLATION  ACCESS:          0 HIT:          0 MISS:          0
cpu0_L1I PREFETCH REQUESTED:          0 ISSUED:          0 USEFUL:          0 USELESS:          0
cpu0_L1I AVERAGE MISS LATENCY: 479.8 cycles
cpu0_L2C TOTAL        ACCESS:    5428677 HIT:    2197503 MISS:    3231174
cpu0_L2C LOAD         ACCESS:    2431138 HIT:     126445 MISS:    2304693
cpu0_L2C RFO          ACCESS:     923194 HIT:        559 MISS:     922635
cpu0_L2C PREFETCH     ACCESS:          0 HIT:          0 MISS:          0
cpu0_L2C WRITE        ACCESS:    2056041 HIT:    2055668 MISS:        373
cpu0_L2C TRANSLATION  ACCESS:      18304 HIT:      14831 MISS:       3473
cpu0_L2C PREFETCH REQUESTED:          0 ISSUED:          0 USEFUL:          0 USELESS:          0
cpu0_L2C AVERAGE MISS LATENCY: 936.4 cycles
cpu0_STLB TOTAL        ACCESS:     563790 HIT:     515942 MISS:      47848
cpu0_STLB LOAD         ACCESS:     563790 HIT:     515942 MISS:      47848
cpu0_STLB RFO          ACCESS:          0 HIT:          0 MISS:          0
cpu0_STLB PREFETCH     ACCESS:          0 HIT:          0 MISS:          0
cpu0_STLB WRITE        ACCESS:          0 HIT:          0 MISS:          0
cpu0_STLB TRANSLATION  ACCESS:          0 HIT:          0 MISS:          0
cpu0_STLB PREFETCH REQUESTED:          0 ISSUED:          0 USEFUL:          0 USELESS:          0
cpu0_STLB AVERAGE MISS LATENCY: 343.5 cycles

DRAM Statistics

Channel 0 RQ ROW_BUFFER_HIT:     737196
  ROW_BUFFER_MISS:    1903488
 AVG DBUS CONGESTED CYCLE: 3.976
WQ ROW_BUFFER_HIT: Channel 0 
  ROW_BUFFER_MISS:     449480
  FULL:    1292117
