WARNING: physical memory size is smaller than virtual memory size.

*** ChampSim Multicore Out-of-Order Simulator ***
Warmup Instructions: 50000000
Simulation Instructions: 600000000
Number of CPUs: 1
Page size: 4096

Off-chip DRAM Size: 4 GiB Channels: 1 Width: 64-bit Data Race: 3200 MT/s
Heartbeat CPU 0 instructions: 10000000 cycles: 2881055 heartbeat IPC: 3.471 cumulative IPC: 3.471 (Simulation time: 00 hr 00 min 52 sec)
Heartbeat CPU 0 instructions: 20000000 cycles: 5381055 heartbeat IPC: 4 cumulative IPC: 3.717 (Simulation time: 00 hr 01 min 47 sec)
Heartbeat CPU 0 instructions: 30000000 cycles: 7881055 heartbeat IPC: 4 cumulative IPC: 3.807 (Simulation time: 00 hr 02 min 38 sec)
Heartbeat CPU 0 instructions: 40000000 cycles: 10381055 heartbeat IPC: 4 cumulative IPC: 3.853 (Simulation time: 00 hr 03 min 32 sec)
Heartbeat CPU 0 instructions: 50000000 cycles: 12881055 heartbeat IPC: 4 cumulative IPC: 3.882 (Simulation time: 00 hr 04 min 35 sec)
Warmup finished CPU 0 instructions: 50000000 cycles: 12881056 cumulative IPC: 3.882 (Simulation time: 00 hr 04 min 35 sec)
Warmup complete CPU 0 instructions: 50000000 cycles: 12881056 cumulative IPC: 3.882 (Simulation time: 00 hr 04 min 35 sec)
Heartbeat CPU 0 instructions: 60000000 cycles: 16390771 heartbeat IPC: 2.849 cumulative IPC: 2.849 (Simulation time: 00 hr 05 min 57 sec)
Heartbeat CPU 0 instructions: 70000000 cycles: 19931730 heartbeat IPC: 2.824 cumulative IPC: 2.837 (Simulation time: 00 hr 07 min 13 sec)
Heartbeat CPU 0 instructions: 80000001 cycles: 23500128 heartbeat IPC: 2.802 cumulative IPC: 2.825 (Simulation time: 00 hr 08 min 31 sec)
Heartbeat CPU 0 instructions: 90000003 cycles: 27033509 heartbeat IPC: 2.83 cumulative IPC: 2.826 (Simulation time: 00 hr 09 min 49 sec)
Heartbeat CPU 0 instructions: 100000000 cycles: 32359063 heartbeat IPC: 1.878 cumulative IPC: 2.567 (Simulation time: 00 hr 11 min 26 sec)
Heartbeat CPU 0 instructions: 110000001 cycles: 39014829 heartbeat IPC: 1.502 cumulative IPC: 2.296 (Simulation time: 00 hr 13 min 12 sec)
Heartbeat CPU 0 instructions: 120000001 cycles: 45745869 heartbeat IPC: 1.486 cumulative IPC: 2.13 (Simulation time: 00 hr 14 min 56 sec)
Heartbeat CPU 0 instructions: 130000002 cycles: 52474157 heartbeat IPC: 1.486 cumulative IPC: 2.021 (Simulation time: 00 hr 16 min 41 sec)
Heartbeat CPU 0 instructions: 140000004 cycles: 59181326 heartbeat IPC: 1.491 cumulative IPC: 1.944 (Simulation time: 00 hr 18 min 29 sec)
Heartbeat CPU 0 instructions: 150000000 cycles: 65830689 heartbeat IPC: 1.504 cumulative IPC: 1.889 (Simulation time: 00 hr 20 min 13 sec)
Heartbeat CPU 0 instructions: 160000001 cycles: 72512685 heartbeat IPC: 1.497 cumulative IPC: 1.845 (Simulation time: 00 hr 21 min 57 sec)
Heartbeat CPU 0 instructions: 170000001 cycles: 79161554 heartbeat IPC: 1.504 cumulative IPC: 1.81 (Simulation time: 00 hr 23 min 41 sec)
Heartbeat CPU 0 instructions: 180000002 cycles: 85861060 heartbeat IPC: 1.493 cumulative IPC: 1.781 (Simulation time: 00 hr 25 min 26 sec)
Heartbeat CPU 0 instructions: 190000002 cycles: 92230247 heartbeat IPC: 1.57 cumulative IPC: 1.764 (Simulation time: 00 hr 27 min 07 sec)
Heartbeat CPU 0 instructions: 200000000 cycles: 98057075 heartbeat IPC: 1.716 cumulative IPC: 1.761 (Simulation time: 00 hr 28 min 42 sec)
Heartbeat CPU 0 instructions: 210000001 cycles: 104352014 heartbeat IPC: 1.589 cumulative IPC: 1.749 (Simulation time: 00 hr 30 min 25 sec)
Heartbeat CPU 0 instructions: 220000001 cycles: 111320603 heartbeat IPC: 1.435 cumulative IPC: 1.727 (Simulation time: 00 hr 32 min 13 sec)
Heartbeat CPU 0 instructions: 230000004 cycles: 118291354 heartbeat IPC: 1.435 cumulative IPC: 1.708 (Simulation time: 00 hr 34 min 02 sec)
Heartbeat CPU 0 instructions: 240000003 cycles: 125151675 heartbeat IPC: 1.458 cumulative IPC: 1.692 (Simulation time: 00 hr 35 min 50 sec)
Heartbeat CPU 0 instructions: 250000002 cycles: 132090285 heartbeat IPC: 1.441 cumulative IPC: 1.678 (Simulation time: 00 hr 37 min 38 sec)
Heartbeat CPU 0 instructions: 260000002 cycles: 139001880 heartbeat IPC: 1.447 cumulative IPC: 1.665 (Simulation time: 00 hr 39 min 25 sec)
Heartbeat CPU 0 instructions: 270000003 cycles: 145903373 heartbeat IPC: 1.449 cumulative IPC: 1.654 (Simulation time: 00 hr 41 min 14 sec)
Heartbeat CPU 0 instructions: 280000000 cycles: 152869999 heartbeat IPC: 1.435 cumulative IPC: 1.643 (Simulation time: 00 hr 43 min 05 sec)
Heartbeat CPU 0 instructions: 290000001 cycles: 219070609 heartbeat IPC: 0.1511 cumulative IPC: 1.164 (Simulation time: 00 hr 54 min 11 sec)
Heartbeat CPU 0 instructions: 300000002 cycles: 221572998 heartbeat IPC: 3.996 cumulative IPC: 1.198 (Simulation time: 00 hr 55 min 07 sec)
Heartbeat CPU 0 instructions: 310000001 cycles: 224075375 heartbeat IPC: 3.996 cumulative IPC: 1.231 (Simulation time: 00 hr 56 min 04 sec)
Heartbeat CPU 0 instructions: 320000001 cycles: 226577804 heartbeat IPC: 3.996 cumulative IPC: 1.263 (Simulation time: 00 hr 57 min 01 sec)
Heartbeat CPU 0 instructions: 330000003 cycles: 229080141 heartbeat IPC: 3.996 cumulative IPC: 1.295 (Simulation time: 00 hr 57 min 58 sec)
Heartbeat CPU 0 instructions: 340000000 cycles: 231582527 heartbeat IPC: 3.996 cumulative IPC: 1.326 (Simulation time: 00 hr 58 min 55 sec)
Heartbeat CPU 0 instructions: 350000004 cycles: 234084915 heartbeat IPC: 3.996 cumulative IPC: 1.356 (Simulation time: 00 hr 59 min 51 sec)
Heartbeat CPU 0 instructions: 360000004 cycles: 236587305 heartbeat IPC: 3.996 cumulative IPC: 1.386 (Simulation time: 01 hr 00 min 48 sec)
Heartbeat CPU 0 instructions: 370000000 cycles: 239089693 heartbeat IPC: 3.996 cumulative IPC: 1.415 (Simulation time: 01 hr 01 min 44 sec)
Heartbeat CPU 0 instructions: 380000004 cycles: 241592068 heartbeat IPC: 3.996 cumulative IPC: 1.443 (Simulation time: 01 hr 02 min 40 sec)
Heartbeat CPU 0 instructions: 390000001 cycles: 244094456 heartbeat IPC: 3.996 cumulative IPC: 1.471 (Simulation time: 01 hr 03 min 38 sec)
Heartbeat CPU 0 instructions: 400000003 cycles: 246596834 heartbeat IPC: 3.996 cumulative IPC: 1.498 (Simulation time: 01 hr 04 min 35 sec)
Heartbeat CPU 0 instructions: 410000003 cycles: 249099263 heartbeat IPC: 3.996 cumulative IPC: 1.524 (Simulation time: 01 hr 05 min 32 sec)
Heartbeat CPU 0 instructions: 420000002 cycles: 251601653 heartbeat IPC: 3.996 cumulative IPC: 1.55 (Simulation time: 01 hr 06 min 29 sec)
Heartbeat CPU 0 instructions: 430000000 cycles: 254104041 heartbeat IPC: 3.996 cumulative IPC: 1.575 (Simulation time: 01 hr 07 min 26 sec)
Heartbeat CPU 0 instructions: 440000001 cycles: 256606430 heartbeat IPC: 3.996 cumulative IPC: 1.6 (Simulation time: 01 hr 08 min 22 sec)
Heartbeat CPU 0 instructions: 450000000 cycles: 259108805 heartbeat IPC: 3.996 cumulative IPC: 1.625 (Simulation time: 01 hr 09 min 18 sec)
Heartbeat CPU 0 instructions: 460000003 cycles: 261611141 heartbeat IPC: 3.996 cumulative IPC: 1.648 (Simulation time: 01 hr 10 min 15 sec)
Heartbeat CPU 0 instructions: 470000001 cycles: 264113531 heartbeat IPC: 3.996 cumulative IPC: 1.672 (Simulation time: 01 hr 11 min 11 sec)
Heartbeat CPU 0 instructions: 480000003 cycles: 266615918 heartbeat IPC: 3.996 cumulative IPC: 1.695 (Simulation time: 01 hr 12 min 07 sec)
Heartbeat CPU 0 instructions: 490000003 cycles: 269118306 heartbeat IPC: 3.996 cumulative IPC: 1.717 (Simulation time: 01 hr 13 min 04 sec)
Heartbeat CPU 0 instructions: 500000002 cycles: 271620789 heartbeat IPC: 3.996 cumulative IPC: 1.739 (Simulation time: 01 hr 14 min 00 sec)
Heartbeat CPU 0 instructions: 510000003 cycles: 277802664 heartbeat IPC: 1.618 cumulative IPC: 1.736 (Simulation time: 01 hr 15 min 36 sec)
Heartbeat CPU 0 instructions: 520000001 cycles: 382091995 heartbeat IPC: 0.09589 cumulative IPC: 1.273 (Simulation time: 01 hr 34 min 45 sec)
Heartbeat CPU 0 instructions: 530000000 cycles: 463900363 heartbeat IPC: 0.1222 cumulative IPC: 1.064 (Simulation time: 01 hr 49 min 59 sec)
Heartbeat CPU 0 instructions: 540000000 cycles: 487413689 heartbeat IPC: 0.4253 cumulative IPC: 1.033 (Simulation time: 01 hr 54 min 50 sec)
Heartbeat CPU 0 instructions: 550000002 cycles: 510847458 heartbeat IPC: 0.4267 cumulative IPC: 1.004 (Simulation time: 01 hr 59 min 36 sec)
Heartbeat CPU 0 instructions: 560000002 cycles: 534274430 heartbeat IPC: 0.4269 cumulative IPC: 0.9781 (Simulation time: 02 hr 04 min 26 sec)
Heartbeat CPU 0 instructions: 570000002 cycles: 557458116 heartbeat IPC: 0.4313 cumulative IPC: 0.9549 (Simulation time: 02 hr 09 min 13 sec)
Heartbeat CPU 0 instructions: 580000001 cycles: 580039389 heartbeat IPC: 0.4428 cumulative IPC: 0.9345 (Simulation time: 02 hr 14 min 00 sec)
Heartbeat CPU 0 instructions: 590000004 cycles: 602876502 heartbeat IPC: 0.4379 cumulative IPC: 0.9153 (Simulation time: 02 hr 19 min 03 sec)
*** Reached end of trace: (0, "traces/sp.A.champsimtrace")
Heartbeat CPU 0 instructions: 600000002 cycles: 625636372 heartbeat IPC: 0.4394 cumulative IPC: 0.8976 (Simulation time: 02 hr 23 min 52 sec)
Heartbeat CPU 0 instructions: 610000000 cycles: 654567747 heartbeat IPC: 0.3456 cumulative IPC: 0.8727 (Simulation time: 02 hr 28 min 26 sec)
Heartbeat CPU 0 instructions: 620000000 cycles: 658060522 heartbeat IPC: 2.863 cumulative IPC: 0.8835 (Simulation time: 02 hr 29 min 34 sec)
Heartbeat CPU 0 instructions: 630000003 cycles: 661593914 heartbeat IPC: 2.83 cumulative IPC: 0.8941 (Simulation time: 02 hr 30 min 43 sec)
Heartbeat CPU 0 instructions: 640000004 cycles: 665098848 heartbeat IPC: 2.853 cumulative IPC: 0.9046 (Simulation time: 02 hr 31 min 52 sec)
Heartbeat CPU 0 instructions: 650000000 cycles: 668671221 heartbeat IPC: 2.799 cumulative IPC: 0.9149 (Simulation time: 02 hr 33 min 04 sec)
Simulation finished CPU 0 instructions: 600000000 cycles: 655790166 cumulative IPC: 0.9149 (Simulation time: 02 hr 33 min 04 sec)
Simulation complete CPU 0 instructions: 600000000 cycles: 655790166 cumulative IPC: 0.9149 (Simulation time: 02 hr 33 min 04 sec)

ChampSim completed all CPUs

=== Simulation ===
CPU 0 runs traces/sp.A.champsimtrace
Region of Interest Statistics

CPU 0 cumulative IPC: 0.9149 instructions: 600000000 cycles: 655790166
CPU 0 Branch Prediction Accuracy: 98.91% MPKI: 0.226 Average ROB Occupancy at Mispredict: 233.2
Branch type MPKI
BRANCH_DIRECT_JUMP: 5e-06
BRANCH_INDIRECT: 7.5e-05
BRANCH_CONDITIONAL: 0.226
BRANCH_DIRECT_CALL: 2e-05
BRANCH_INDIRECT_CALL: 3.17e-05
BRANCH_RETURN: 3.67e-05

LLC TOTAL        ACCESS:    8126323 HIT:    5090066 MISS:    3036257
LLC LOAD         ACCESS:    2304252 HIT:    1468463 MISS:     835789
LLC RFO          ACCESS:     922634 HIT:       6816 MISS:     915818
LLC PREFETCH     ACCESS:    2850375 HIT:    1567804 MISS:    1282571
LLC WRITE        ACCESS:    2045587 HIT:    2045350 MISS:        237
LLC TRANSLATION  ACCESS:       3475 HIT:       1633 MISS:       1842
LLC PREFETCH REQUESTED:    2850375 ISSUED:    2850375 USEFUL:    1025904 USELESS:      18281
LLC AVERAGE MISS LATENCY: 1432 cycles
cpu0_DTLB TOTAL        ACCESS:  125732638 HIT:  124906299 MISS:     826339
cpu0_DTLB LOAD         ACCESS:  125732638 HIT:  124906299 MISS:     826339
cpu0_DTLB RFO          ACCESS:          0 HIT:          0 MISS:          0
cpu0_DTLB PREFETCH     ACCESS:          0 HIT:          0 MISS:          0
cpu0_DTLB WRITE        ACCESS:          0 HIT:          0 MISS:          0
cpu0_DTLB TRANSLATION  ACCESS:          0 HIT:          0 MISS:          0
cpu0_DTLB PREFETCH REQUESTED:          0 ISSUED:          0 USEFUL:          0 USELESS:          0
cpu0_DTLB AVERAGE MISS LATENCY: 17.56 cycles
cpu0_ITLB TOTAL        ACCESS:     218425 HIT:     218186 MISS:        239
cpu0_ITLB LOAD         ACCESS:     218425 HIT:     218186 MISS:        239
cpu0_ITLB RFO          ACCESS:          0 HIT:          0 MISS:          0
cpu0_ITLB PREFETCH     ACCESS:          0 HIT:          0 MISS:          0
cpu0_ITLB WRITE        ACCESS:          0 HIT:          0 MISS:          0
cpu0_ITLB TRANSLATION  ACCESS:          0 HIT:          0 MISS:          0
cpu0_ITLB PREFETCH REQUESTED:          0 ISSUED:          0 USEFUL:          0 USELESS:          0
cpu0_ITLB AVERAGE MISS LATENCY: 300.9 cycles
cpu0_L1D TOTAL        ACCESS:  191935263 HIT:  178622297 MISS:   13312966
cpu0_L1D LOAD         ACCESS:  156693045 HIT:  147842837 MISS:    8850208
cpu0_L1D RFO          ACCESS:          0 HIT:          0 MISS:          0
cpu0_L1D PREFETCH     ACCESS:          0 HIT:          0 MISS:          0
cpu0_L1D WRITE        ACCESS:   35194338 HIT:   30749885 MISS:    4444453
cpu0_L1D TRANSLATION  ACCESS:      47880 HIT:      29575 MISS:      18305
cpu0_L1D PREFETCH REQUESTED:          0 ISSUED:          0 USEFUL:          0 USELESS:          0
cpu0_L1D AVERAGE MISS LATENCY: 157.1 cycles
cpu0_L1I TOTAL        ACCESS:     226050 HIT:     223239 MISS:       2811
cpu0_L1I LOAD         ACCESS:     226050 HIT:     223239 MISS:       2811
cpu0_L1I RFO          ACCESS:          0 HIT:          0 MISS:          0
cpu0_L1I PREFETCH     ACCESS:          0 HIT:          0 MISS:          0
cpu0_L1I WRITE        ACCESS:          0 HIT:          0 MISS:          0
cpu0_L1I TRANSLATION  ACCESS:          0 HIT:          0 MISS:          0
cpu0_L1I PREFETCH REQUESTED:          0 ISSUED:          0 USEFUL:          0 USELESS:          0
cpu0_L1I AVERAGE MISS LATENCY: 515.6 cycles
cpu0_L2C TOTAL        ACCESS:    5423893 HIT:    2193079 MISS:    3230814
cpu0_L2C LOAD         ACCESS:    2426313 HIT:     121981 MISS:    2304332
cpu0_L2C RFO          ACCESS:     923193 HIT:        559 MISS:     922634
cpu0_L2C PREFETCH     ACCESS:          0 HIT:          0 MISS:          0
cpu0_L2C WRITE        ACCESS:    2056084 HIT:    2055711 MISS:        373
cpu0_L2C TRANSLATION  ACCESS:      18303 HIT:      14828 MISS:       3475
cpu0_L2C PREFETCH REQUESTED:          0 ISSUED:          0 USEFUL:          0 USELESS:          0
cpu0_L2C AVERAGE MISS LATENCY: 832.4 cycles
cpu0_STLB TOTAL        ACCESS:     573366 HIT:     525516 MISS:      47850
cpu0_STLB LOAD         ACCESS:     573366 HIT:     525516 MISS:      47850
cpu0_STLB RFO          ACCESS:          0 HIT:          0 MISS:          0
cpu0_STLB PREFETCH     ACCESS:          0 HIT:          0 MISS:          0
cpu0_STLB WRITE        ACCESS:          0 HIT:          0 MISS:          0
cpu0_STLB TRANSLATION  ACCESS:          0 HIT:          0 MISS:          0
cpu0_STLB PREFETCH REQUESTED:          0 ISSUED:          0 USEFUL:          0 USELESS:          0
cpu0_STLB AVERAGE MISS LATENCY: 295.9 cycles

DRAM Statistics

Channel 0 RQ ROW_BUFFER_HIT:     890282
  ROW_BUFFER_MISS:    1861861
 AVG DBUS CONGESTED CYCLE: 3.967
WQ ROW_BUFFER_HIT: Channel 0 
  ROW_BUFFER_MISS:     379642
  FULL:    1397452
