WARNING: physical memory size is smaller than virtual memory size.

*** ChampSim Multicore Out-of-Order Simulator ***
Warmup Instructions: 50000000
Simulation Instructions: 600000000
Number of CPUs: 1
Page size: 4096

CPU 0 Tage branch predictor
Off-chip DRAM Size: 4 GiB Channels: 1 Width: 64-bit Data Race: 3200 MT/s
Heartbeat CPU 0 instructions: 10000000 cycles: 2881055 heartbeat IPC: 3.471 cumulative IPC: 3.471 (Simulation time: 00 hr 00 min 40 sec)
Heartbeat CPU 0 instructions: 20000000 cycles: 5381055 heartbeat IPC: 4 cumulative IPC: 3.717 (Simulation time: 00 hr 01 min 19 sec)
Heartbeat CPU 0 instructions: 30000000 cycles: 7881055 heartbeat IPC: 4 cumulative IPC: 3.807 (Simulation time: 00 hr 01 min 56 sec)
Heartbeat CPU 0 instructions: 40000000 cycles: 10381055 heartbeat IPC: 4 cumulative IPC: 3.853 (Simulation time: 00 hr 02 min 34 sec)
Heartbeat CPU 0 instructions: 50000000 cycles: 12881055 heartbeat IPC: 4 cumulative IPC: 3.882 (Simulation time: 00 hr 03 min 11 sec)
Warmup finished CPU 0 instructions: 50000000 cycles: 12881056 cumulative IPC: 3.882 (Simulation time: 00 hr 03 min 11 sec)
Warmup complete CPU 0 instructions: 50000000 cycles: 12881056 cumulative IPC: 3.882 (Simulation time: 00 hr 03 min 11 sec)
Heartbeat CPU 0 instructions: 60000000 cycles: 17074683 heartbeat IPC: 2.385 cumulative IPC: 2.385 (Simulation time: 00 hr 04 min 10 sec)
Heartbeat CPU 0 instructions: 70000004 cycles: 21278152 heartbeat IPC: 2.379 cumulative IPC: 2.382 (Simulation time: 00 hr 05 min 08 sec)
Heartbeat CPU 0 instructions: 80000000 cycles: 25453917 heartbeat IPC: 2.395 cumulative IPC: 2.386 (Simulation time: 00 hr 06 min 05 sec)
Heartbeat CPU 0 instructions: 90000003 cycles: 29616962 heartbeat IPC: 2.402 cumulative IPC: 2.39 (Simulation time: 00 hr 07 min 02 sec)
Heartbeat CPU 0 instructions: 100000000 cycles: 35443430 heartbeat IPC: 1.716 cumulative IPC: 2.216 (Simulation time: 00 hr 08 min 12 sec)
Heartbeat CPU 0 instructions: 110000001 cycles: 42563009 heartbeat IPC: 1.405 cumulative IPC: 2.021 (Simulation time: 00 hr 09 min 36 sec)
Heartbeat CPU 0 instructions: 120000001 cycles: 49701602 heartbeat IPC: 1.401 cumulative IPC: 1.901 (Simulation time: 00 hr 10 min 57 sec)
Heartbeat CPU 0 instructions: 130000002 cycles: 56819392 heartbeat IPC: 1.405 cumulative IPC: 1.821 (Simulation time: 00 hr 12 min 16 sec)
Heartbeat CPU 0 instructions: 140000004 cycles: 63994758 heartbeat IPC: 1.394 cumulative IPC: 1.761 (Simulation time: 00 hr 13 min 35 sec)
Heartbeat CPU 0 instructions: 150000000 cycles: 71118541 heartbeat IPC: 1.404 cumulative IPC: 1.717 (Simulation time: 00 hr 14 min 52 sec)
Heartbeat CPU 0 instructions: 160000003 cycles: 78204394 heartbeat IPC: 1.411 cumulative IPC: 1.684 (Simulation time: 00 hr 16 min 10 sec)
Heartbeat CPU 0 instructions: 170000001 cycles: 85301196 heartbeat IPC: 1.409 cumulative IPC: 1.657 (Simulation time: 00 hr 17 min 30 sec)
Heartbeat CPU 0 instructions: 180000002 cycles: 92402934 heartbeat IPC: 1.408 cumulative IPC: 1.635 (Simulation time: 00 hr 18 min 49 sec)
Heartbeat CPU 0 instructions: 190000002 cycles: 99204368 heartbeat IPC: 1.47 cumulative IPC: 1.622 (Simulation time: 00 hr 20 min 04 sec)
Heartbeat CPU 0 instructions: 200000000 cycles: 105505112 heartbeat IPC: 1.587 cumulative IPC: 1.619 (Simulation time: 00 hr 21 min 15 sec)
Heartbeat CPU 0 instructions: 210000001 cycles: 112170028 heartbeat IPC: 1.5 cumulative IPC: 1.611 (Simulation time: 00 hr 22 min 30 sec)
Heartbeat CPU 0 instructions: 220000001 cycles: 119081932 heartbeat IPC: 1.447 cumulative IPC: 1.601 (Simulation time: 00 hr 23 min 45 sec)
Heartbeat CPU 0 instructions: 230000004 cycles: 126069258 heartbeat IPC: 1.431 cumulative IPC: 1.59 (Simulation time: 00 hr 25 min 00 sec)
Heartbeat CPU 0 instructions: 240000003 cycles: 133101890 heartbeat IPC: 1.422 cumulative IPC: 1.58 (Simulation time: 00 hr 26 min 16 sec)
Heartbeat CPU 0 instructions: 250000002 cycles: 140303412 heartbeat IPC: 1.389 cumulative IPC: 1.57 (Simulation time: 00 hr 27 min 33 sec)
Heartbeat CPU 0 instructions: 260000002 cycles: 147427993 heartbeat IPC: 1.404 cumulative IPC: 1.561 (Simulation time: 00 hr 28 min 50 sec)
Heartbeat CPU 0 instructions: 270000003 cycles: 154498181 heartbeat IPC: 1.414 cumulative IPC: 1.553 (Simulation time: 00 hr 30 min 06 sec)
Heartbeat CPU 0 instructions: 280000000 cycles: 161670714 heartbeat IPC: 1.394 cumulative IPC: 1.546 (Simulation time: 00 hr 31 min 23 sec)
Heartbeat CPU 0 instructions: 290000001 cycles: 234141795 heartbeat IPC: 0.138 cumulative IPC: 1.085 (Simulation time: 00 hr 39 min 26 sec)
Heartbeat CPU 0 instructions: 300000002 cycles: 236643580 heartbeat IPC: 3.997 cumulative IPC: 1.117 (Simulation time: 00 hr 40 min 07 sec)
Heartbeat CPU 0 instructions: 310000001 cycles: 239145078 heartbeat IPC: 3.998 cumulative IPC: 1.149 (Simulation time: 00 hr 40 min 48 sec)
Heartbeat CPU 0 instructions: 320000001 cycles: 241645387 heartbeat IPC: 4 cumulative IPC: 1.18 (Simulation time: 00 hr 41 min 33 sec)
Heartbeat CPU 0 instructions: 330000003 cycles: 244146712 heartbeat IPC: 3.998 cumulative IPC: 1.211 (Simulation time: 00 hr 42 min 14 sec)
Heartbeat CPU 0 instructions: 340000000 cycles: 246648340 heartbeat IPC: 3.997 cumulative IPC: 1.241 (Simulation time: 00 hr 42 min 55 sec)
Heartbeat CPU 0 instructions: 350000004 cycles: 249148428 heartbeat IPC: 4 cumulative IPC: 1.27 (Simulation time: 00 hr 43 min 36 sec)
Heartbeat CPU 0 instructions: 360000004 cycles: 251649941 heartbeat IPC: 3.998 cumulative IPC: 1.298 (Simulation time: 00 hr 44 min 17 sec)
Heartbeat CPU 0 instructions: 370000000 cycles: 254150843 heartbeat IPC: 3.999 cumulative IPC: 1.326 (Simulation time: 00 hr 44 min 57 sec)
Heartbeat CPU 0 instructions: 380000004 cycles: 256651758 heartbeat IPC: 3.999 cumulative IPC: 1.354 (Simulation time: 00 hr 45 min 39 sec)
Heartbeat CPU 0 instructions: 390000001 cycles: 259152851 heartbeat IPC: 3.998 cumulative IPC: 1.381 (Simulation time: 00 hr 46 min 22 sec)
Heartbeat CPU 0 instructions: 400000003 cycles: 261653173 heartbeat IPC: 3.999 cumulative IPC: 1.407 (Simulation time: 00 hr 47 min 03 sec)
Heartbeat CPU 0 instructions: 410000003 cycles: 264154171 heartbeat IPC: 3.998 cumulative IPC: 1.433 (Simulation time: 00 hr 47 min 43 sec)
Heartbeat CPU 0 instructions: 420000002 cycles: 266654599 heartbeat IPC: 3.999 cumulative IPC: 1.458 (Simulation time: 00 hr 48 min 24 sec)
Heartbeat CPU 0 instructions: 430000000 cycles: 269154692 heartbeat IPC: 4 cumulative IPC: 1.483 (Simulation time: 00 hr 49 min 05 sec)
Heartbeat CPU 0 instructions: 440000001 cycles: 271655664 heartbeat IPC: 3.998 cumulative IPC: 1.507 (Simulation time: 00 hr 49 min 46 sec)
Heartbeat CPU 0 instructions: 450000000 cycles: 274156207 heartbeat IPC: 3.999 cumulative IPC: 1.531 (Simulation time: 00 hr 50 min 26 sec)
Heartbeat CPU 0 instructions: 460000003 cycles: 276656603 heartbeat IPC: 3.999 cumulative IPC: 1.554 (Simulation time: 00 hr 51 min 07 sec)
Heartbeat CPU 0 instructions: 470000001 cycles: 279157042 heartbeat IPC: 3.999 cumulative IPC: 1.577 (Simulation time: 00 hr 51 min 51 sec)
Heartbeat CPU 0 instructions: 480000003 cycles: 281657239 heartbeat IPC: 4 cumulative IPC: 1.6 (Simulation time: 00 hr 52 min 34 sec)
Heartbeat CPU 0 instructions: 490000003 cycles: 284158107 heartbeat IPC: 3.999 cumulative IPC: 1.622 (Simulation time: 00 hr 53 min 18 sec)
Heartbeat CPU 0 instructions: 500000002 cycles: 286660014 heartbeat IPC: 3.997 cumulative IPC: 1.644 (Simulation time: 00 hr 54 min 01 sec)
Heartbeat CPU 0 instructions: 510000003 cycles: 293000577 heartbeat IPC: 1.577 cumulative IPC: 1.642 (Simulation time: 00 hr 55 min 11 sec)
Heartbeat CPU 0 instructions: 520000001 cycles: 409120508 heartbeat IPC: 0.08612 cumulative IPC: 1.186 (Simulation time: 01 hr 09 min 27 sec)
Heartbeat CPU 0 instructions: 530000000 cycles: 501235267 heartbeat IPC: 0.1086 cumulative IPC: 0.9829 (Simulation time: 01 hr 20 min 47 sec)
Heartbeat CPU 0 instructions: 540000000 cycles: 526642835 heartbeat IPC: 0.3936 cumulative IPC: 0.9537 (Simulation time: 01 hr 24 min 51 sec)
Heartbeat CPU 0 instructions: 550000002 cycles: 552121863 heartbeat IPC: 0.3925 cumulative IPC: 0.9272 (Simulation time: 01 hr 28 min 48 sec)
Heartbeat CPU 0 instructions: 560000002 cycles: 577448285 heartbeat IPC: 0.3948 cumulative IPC: 0.9033 (Simulation time: 01 hr 32 min 25 sec)
Heartbeat CPU 0 instructions: 570000002 cycles: 602522695 heartbeat IPC: 0.3988 cumulative IPC: 0.8819 (Simulation time: 01 hr 35 min 53 sec)
Heartbeat CPU 0 instructions: 580000003 cycles: 627174296 heartbeat IPC: 0.4057 cumulative IPC: 0.8628 (Simulation time: 01 hr 39 min 14 sec)
Heartbeat CPU 0 instructions: 590000004 cycles: 652239841 heartbeat IPC: 0.399 cumulative IPC: 0.8446 (Simulation time: 01 hr 42 min 42 sec)
*** Reached end of trace: (0, "traces/sp.A.champsimtrace")
Heartbeat CPU 0 instructions: 600000002 cycles: 677223016 heartbeat IPC: 0.4003 cumulative IPC: 0.8279 (Simulation time: 01 hr 46 min 11 sec)
Heartbeat CPU 0 instructions: 610000000 cycles: 709837907 heartbeat IPC: 0.3066 cumulative IPC: 0.8035 (Simulation time: 01 hr 49 min 35 sec)
Heartbeat CPU 0 instructions: 620000003 cycles: 714058503 heartbeat IPC: 2.369 cumulative IPC: 0.8129 (Simulation time: 01 hr 50 min 30 sec)
Heartbeat CPU 0 instructions: 630000003 cycles: 718246997 heartbeat IPC: 2.387 cumulative IPC: 0.8223 (Simulation time: 01 hr 51 min 25 sec)
Heartbeat CPU 0 instructions: 640000004 cycles: 722450009 heartbeat IPC: 2.379 cumulative IPC: 0.8315 (Simulation time: 01 hr 52 min 20 sec)
Heartbeat CPU 0 instructions: 650000000 cycles: 726616462 heartbeat IPC: 2.4 cumulative IPC: 0.8406 (Simulation time: 01 hr 53 min 14 sec)
Simulation finished CPU 0 instructions: 600000000 cycles: 713735407 cumulative IPC: 0.8406 (Simulation time: 01 hr 53 min 14 sec)
Simulation complete CPU 0 instructions: 600000000 cycles: 713735407 cumulative IPC: 0.8406 (Simulation time: 01 hr 53 min 14 sec)

ChampSim completed all CPUs

=== Simulation ===
CPU 0 runs traces/sp.A.champsimtrace
Region of Interest Statistics

CPU 0 cumulative IPC: 0.8406 instructions: 600000000 cycles: 713735407
CPU 0 Branch Prediction Accuracy: 99.98% MPKI: 0.003913 Average ROB Occupancy at Mispredict: 103.1
Branch type MPKI
BRANCH_DIRECT_JUMP: 5e-06
BRANCH_INDIRECT: 7.5e-05
BRANCH_CONDITIONAL: 0.00375
BRANCH_DIRECT_CALL: 2e-05
BRANCH_INDIRECT_CALL: 3.17e-05
BRANCH_RETURN: 3.67e-05

LLC TOTAL        ACCESS:    8170983 HIT:    4811306 MISS:    3359677
LLC LOAD         ACCESS:    2304077 HIT:    1446915 MISS:     857162
LLC RFO          ACCESS:     922635 HIT:       6242 MISS:     916393
LLC PREFETCH     ACCESS:    2895413 HIT:    1554394 MISS:    1341019
LLC WRITE        ACCESS:    2045385 HIT:    1802451 MISS:     242934
LLC TRANSLATION  ACCESS:       3473 HIT:       1304 MISS:       2169
LLC PREFETCH REQUESTED:    2895413 ISSUED:    2895413 USEFUL:    1044031 USELESS:      20727
LLC AVERAGE MISS LATENCY: 1453 cycles
cpu0_DTLB TOTAL        ACCESS:  126696429 HIT:  125712876 MISS:     983553
cpu0_DTLB LOAD         ACCESS:  126696429 HIT:  125712876 MISS:     983553
cpu0_DTLB RFO          ACCESS:          0 HIT:          0 MISS:          0
cpu0_DTLB PREFETCH     ACCESS:          0 HIT:          0 MISS:          0
cpu0_DTLB WRITE        ACCESS:          0 HIT:          0 MISS:          0
cpu0_DTLB TRANSLATION  ACCESS:          0 HIT:          0 MISS:          0
cpu0_DTLB PREFETCH REQUESTED:          0 ISSUED:          0 USEFUL:          0 USELESS:          0
cpu0_DTLB AVERAGE MISS LATENCY: 17.85 cycles
cpu0_ITLB TOTAL        ACCESS:     238234 HIT:     237978 MISS:        256
cpu0_ITLB LOAD         ACCESS:     238234 HIT:     237978 MISS:        256
cpu0_ITLB RFO          ACCESS:          0 HIT:          0 MISS:          0
cpu0_ITLB PREFETCH     ACCESS:          0 HIT:          0 MISS:          0
cpu0_ITLB WRITE        ACCESS:          0 HIT:          0 MISS:          0
cpu0_ITLB TRANSLATION  ACCESS:          0 HIT:          0 MISS:          0
cpu0_ITLB PREFETCH REQUESTED:          0 ISSUED:          0 USEFUL:          0 USELESS:          0
cpu0_ITLB AVERAGE MISS LATENCY: 245.2 cycles
cpu0_L1D TOTAL        ACCESS:  193407195 HIT:  180208892 MISS:   13198303
cpu0_L1D LOAD         ACCESS:  158164996 HIT:  149419659 MISS:    8745337
cpu0_L1D RFO          ACCESS:          0 HIT:          0 MISS:          0
cpu0_L1D PREFETCH     ACCESS:          0 HIT:          0 MISS:          0
cpu0_L1D WRITE        ACCESS:   35194321 HIT:   30759648 MISS:    4434673
cpu0_L1D TRANSLATION  ACCESS:      47878 HIT:      29585 MISS:      18293
cpu0_L1D PREFETCH REQUESTED:          0 ISSUED:          0 USEFUL:          0 USELESS:          0
cpu0_L1D AVERAGE MISS LATENCY: 178.3 cycles
cpu0_L1I TOTAL        ACCESS:     248567 HIT:     245602 MISS:       2965
cpu0_L1I LOAD         ACCESS:     248567 HIT:     245602 MISS:       2965
cpu0_L1I RFO          ACCESS:          0 HIT:          0 MISS:          0
cpu0_L1I PREFETCH     ACCESS:          0 HIT:          0 MISS:          0
cpu0_L1I WRITE        ACCESS:          0 HIT:          0 MISS:          0
cpu0_L1I TRANSLATION  ACCESS:          0 HIT:          0 MISS:          0
cpu0_L1I PREFETCH REQUESTED:          0 ISSUED:          0 USEFUL:          0 USELESS:          0
cpu0_L1I AVERAGE MISS LATENCY: 423.9 cycles
cpu0_L2C TOTAL        ACCESS:    5424729 HIT:    2194100 MISS:    3230629
cpu0_L2C LOAD         ACCESS:    2426504 HIT:     122353 MISS:    2304151
cpu0_L2C RFO          ACCESS:     923509 HIT:        874 MISS:     922635
cpu0_L2C PREFETCH     ACCESS:          0 HIT:          0 MISS:          0
cpu0_L2C WRITE        ACCESS:    2056427 HIT:    2056057 MISS:        370
cpu0_L2C TRANSLATION  ACCESS:      18289 HIT:      14816 MISS:       3473
cpu0_L2C PREFETCH REQUESTED:          0 ISSUED:          0 USEFUL:          0 USELESS:          0
cpu0_L2C AVERAGE MISS LATENCY: 929.1 cycles
cpu0_STLB TOTAL        ACCESS:     736209 HIT:     688362 MISS:      47847
cpu0_STLB LOAD         ACCESS:     736209 HIT:     688362 MISS:      47847
cpu0_STLB RFO          ACCESS:          0 HIT:          0 MISS:          0
cpu0_STLB PREFETCH     ACCESS:          0 HIT:          0 MISS:          0
cpu0_STLB WRITE        ACCESS:          0 HIT:          0 MISS:          0
cpu0_STLB TRANSLATION  ACCESS:          0 HIT:          0 MISS:          0
cpu0_STLB PREFETCH REQUESTED:          0 ISSUED:          0 USEFUL:          0 USELESS:          0
cpu0_STLB AVERAGE MISS LATENCY: 348.5 cycles

DRAM Statistics

Channel 0 RQ ROW_BUFFER_HIT:     880475
  ROW_BUFFER_MISS:    1902163
 AVG DBUS CONGESTED CYCLE: 3.98
WQ ROW_BUFFER_HIT: Channel 0 
  ROW_BUFFER_MISS:      39727
  FULL:    1758882
