WARNING: physical memory size is smaller than virtual memory size.

*** ChampSim Multicore Out-of-Order Simulator ***
Warmup Instructions: 50000000
Simulation Instructions: 600000000
Number of CPUs: 1
Page size: 4096

Off-chip DRAM Size: 4 GiB Channels: 1 Width: 64-bit Data Race: 3200 MT/s
Heartbeat CPU 0 instructions: 10000000 cycles: 2881055 heartbeat IPC: 3.471 cumulative IPC: 3.471 (Simulation time: 00 hr 00 min 27 sec)
Heartbeat CPU 0 instructions: 20000000 cycles: 5381055 heartbeat IPC: 4 cumulative IPC: 3.717 (Simulation time: 00 hr 00 min 58 sec)
Heartbeat CPU 0 instructions: 30000000 cycles: 7881055 heartbeat IPC: 4 cumulative IPC: 3.807 (Simulation time: 00 hr 01 min 29 sec)
Heartbeat CPU 0 instructions: 40000000 cycles: 10381055 heartbeat IPC: 4 cumulative IPC: 3.853 (Simulation time: 00 hr 02 min 01 sec)
Heartbeat CPU 0 instructions: 50000000 cycles: 12881055 heartbeat IPC: 4 cumulative IPC: 3.882 (Simulation time: 00 hr 02 min 35 sec)
Warmup finished CPU 0 instructions: 50000000 cycles: 12881056 cumulative IPC: 3.882 (Simulation time: 00 hr 02 min 35 sec)
Warmup complete CPU 0 instructions: 50000000 cycles: 12881056 cumulative IPC: 3.882 (Simulation time: 00 hr 02 min 35 sec)
Heartbeat CPU 0 instructions: 60000000 cycles: 16347742 heartbeat IPC: 2.885 cumulative IPC: 2.885 (Simulation time: 00 hr 03 min 23 sec)
Heartbeat CPU 0 instructions: 70000004 cycles: 19834447 heartbeat IPC: 2.868 cumulative IPC: 2.876 (Simulation time: 00 hr 04 min 12 sec)
Heartbeat CPU 0 instructions: 80000001 cycles: 23310393 heartbeat IPC: 2.877 cumulative IPC: 2.877 (Simulation time: 00 hr 05 min 00 sec)
Heartbeat CPU 0 instructions: 90000003 cycles: 26779424 heartbeat IPC: 2.883 cumulative IPC: 2.878 (Simulation time: 00 hr 05 min 45 sec)
Heartbeat CPU 0 instructions: 100000000 cycles: 32022588 heartbeat IPC: 1.907 cumulative IPC: 2.612 (Simulation time: 00 hr 06 min 41 sec)
Heartbeat CPU 0 instructions: 110000001 cycles: 38633974 heartbeat IPC: 1.513 cumulative IPC: 2.33 (Simulation time: 00 hr 07 min 48 sec)
Heartbeat CPU 0 instructions: 120000003 cycles: 45307974 heartbeat IPC: 1.498 cumulative IPC: 2.159 (Simulation time: 00 hr 08 min 56 sec)
Heartbeat CPU 0 instructions: 130000002 cycles: 51892777 heartbeat IPC: 1.519 cumulative IPC: 2.051 (Simulation time: 00 hr 10 min 02 sec)
Heartbeat CPU 0 instructions: 140000004 cycles: 58562609 heartbeat IPC: 1.499 cumulative IPC: 1.97 (Simulation time: 00 hr 11 min 08 sec)
Heartbeat CPU 0 instructions: 150000000 cycles: 65200168 heartbeat IPC: 1.507 cumulative IPC: 1.911 (Simulation time: 00 hr 12 min 13 sec)
Heartbeat CPU 0 instructions: 160000001 cycles: 71868650 heartbeat IPC: 1.5 cumulative IPC: 1.865 (Simulation time: 00 hr 13 min 20 sec)
Heartbeat CPU 0 instructions: 170000001 cycles: 78518914 heartbeat IPC: 1.504 cumulative IPC: 1.828 (Simulation time: 00 hr 14 min 27 sec)
Heartbeat CPU 0 instructions: 180000002 cycles: 85264682 heartbeat IPC: 1.482 cumulative IPC: 1.796 (Simulation time: 00 hr 15 min 35 sec)
Heartbeat CPU 0 instructions: 190000002 cycles: 91679352 heartbeat IPC: 1.559 cumulative IPC: 1.777 (Simulation time: 00 hr 16 min 41 sec)
Heartbeat CPU 0 instructions: 200000000 cycles: 97508870 heartbeat IPC: 1.715 cumulative IPC: 1.772 (Simulation time: 00 hr 17 min 43 sec)
Heartbeat CPU 0 instructions: 210000001 cycles: 103886449 heartbeat IPC: 1.568 cumulative IPC: 1.758 (Simulation time: 00 hr 18 min 50 sec)
Heartbeat CPU 0 instructions: 220000001 cycles: 110787945 heartbeat IPC: 1.449 cumulative IPC: 1.736 (Simulation time: 00 hr 19 min 59 sec)
Heartbeat CPU 0 instructions: 230000004 cycles: 117736513 heartbeat IPC: 1.439 cumulative IPC: 1.717 (Simulation time: 00 hr 21 min 08 sec)
Heartbeat CPU 0 instructions: 240000003 cycles: 124603170 heartbeat IPC: 1.456 cumulative IPC: 1.701 (Simulation time: 00 hr 22 min 17 sec)
Heartbeat CPU 0 instructions: 250000002 cycles: 131562760 heartbeat IPC: 1.437 cumulative IPC: 1.685 (Simulation time: 00 hr 23 min 26 sec)
Heartbeat CPU 0 instructions: 260000002 cycles: 138484595 heartbeat IPC: 1.445 cumulative IPC: 1.672 (Simulation time: 00 hr 24 min 36 sec)
Heartbeat CPU 0 instructions: 270000003 cycles: 145386083 heartbeat IPC: 1.449 cumulative IPC: 1.66 (Simulation time: 00 hr 25 min 45 sec)
Heartbeat CPU 0 instructions: 280000000 cycles: 152358574 heartbeat IPC: 1.434 cumulative IPC: 1.649 (Simulation time: 00 hr 26 min 55 sec)
Heartbeat CPU 0 instructions: 290000001 cycles: 217598923 heartbeat IPC: 0.1533 cumulative IPC: 1.172 (Simulation time: 00 hr 33 min 55 sec)
Heartbeat CPU 0 instructions: 300000002 cycles: 220101312 heartbeat IPC: 3.996 cumulative IPC: 1.206 (Simulation time: 00 hr 34 min 30 sec)
Heartbeat CPU 0 instructions: 310000001 cycles: 222603689 heartbeat IPC: 3.996 cumulative IPC: 1.24 (Simulation time: 00 hr 35 min 06 sec)
Heartbeat CPU 0 instructions: 320000001 cycles: 225106181 heartbeat IPC: 3.996 cumulative IPC: 1.272 (Simulation time: 00 hr 35 min 42 sec)
Heartbeat CPU 0 instructions: 330000003 cycles: 227609150 heartbeat IPC: 3.995 cumulative IPC: 1.304 (Simulation time: 00 hr 36 min 18 sec)
Heartbeat CPU 0 instructions: 340000000 cycles: 230111537 heartbeat IPC: 3.996 cumulative IPC: 1.335 (Simulation time: 00 hr 36 min 54 sec)
Heartbeat CPU 0 instructions: 350000004 cycles: 232614129 heartbeat IPC: 3.996 cumulative IPC: 1.365 (Simulation time: 00 hr 37 min 31 sec)
Heartbeat CPU 0 instructions: 360000004 cycles: 235116519 heartbeat IPC: 3.996 cumulative IPC: 1.395 (Simulation time: 00 hr 38 min 07 sec)
Heartbeat CPU 0 instructions: 370000000 cycles: 237618907 heartbeat IPC: 3.996 cumulative IPC: 1.424 (Simulation time: 00 hr 38 min 43 sec)
Heartbeat CPU 0 instructions: 380000004 cycles: 240122272 heartbeat IPC: 3.995 cumulative IPC: 1.452 (Simulation time: 00 hr 39 min 19 sec)
Heartbeat CPU 0 instructions: 390000001 cycles: 242624661 heartbeat IPC: 3.996 cumulative IPC: 1.48 (Simulation time: 00 hr 39 min 55 sec)
Heartbeat CPU 0 instructions: 400000003 cycles: 245127039 heartbeat IPC: 3.996 cumulative IPC: 1.507 (Simulation time: 00 hr 40 min 31 sec)
Heartbeat CPU 0 instructions: 410000003 cycles: 247629468 heartbeat IPC: 3.996 cumulative IPC: 1.534 (Simulation time: 00 hr 41 min 07 sec)
Heartbeat CPU 0 instructions: 420000002 cycles: 250131858 heartbeat IPC: 3.996 cumulative IPC: 1.56 (Simulation time: 00 hr 41 min 43 sec)
Heartbeat CPU 0 instructions: 430000000 cycles: 252634246 heartbeat IPC: 3.996 cumulative IPC: 1.585 (Simulation time: 00 hr 42 min 19 sec)
Heartbeat CPU 0 instructions: 440000001 cycles: 255136635 heartbeat IPC: 3.996 cumulative IPC: 1.61 (Simulation time: 00 hr 42 min 56 sec)
Heartbeat CPU 0 instructions: 450000000 cycles: 257639010 heartbeat IPC: 3.996 cumulative IPC: 1.634 (Simulation time: 00 hr 43 min 33 sec)
Heartbeat CPU 0 instructions: 460000003 cycles: 260141346 heartbeat IPC: 3.996 cumulative IPC: 1.658 (Simulation time: 00 hr 44 min 09 sec)
Heartbeat CPU 0 instructions: 470000001 cycles: 262643736 heartbeat IPC: 3.996 cumulative IPC: 1.682 (Simulation time: 00 hr 44 min 45 sec)
Heartbeat CPU 0 instructions: 480000003 cycles: 265146123 heartbeat IPC: 3.996 cumulative IPC: 1.705 (Simulation time: 00 hr 45 min 21 sec)
Heartbeat CPU 0 instructions: 490000003 cycles: 267648511 heartbeat IPC: 3.996 cumulative IPC: 1.727 (Simulation time: 00 hr 45 min 58 sec)
Heartbeat CPU 0 instructions: 500000002 cycles: 270150994 heartbeat IPC: 3.996 cumulative IPC: 1.749 (Simulation time: 00 hr 46 min 35 sec)
Heartbeat CPU 0 instructions: 510000003 cycles: 276351461 heartbeat IPC: 1.613 cumulative IPC: 1.746 (Simulation time: 00 hr 47 min 37 sec)
Heartbeat CPU 0 instructions: 520000001 cycles: 378349988 heartbeat IPC: 0.09804 cumulative IPC: 1.286 (Simulation time: 01 hr 00 min 15 sec)
Heartbeat CPU 0 instructions: 530000000 cycles: 457844139 heartbeat IPC: 0.1258 cumulative IPC: 1.079 (Simulation time: 01 hr 10 min 02 sec)
Heartbeat CPU 0 instructions: 540000000 cycles: 480525072 heartbeat IPC: 0.4409 cumulative IPC: 1.048 (Simulation time: 01 hr 13 min 20 sec)
Heartbeat CPU 0 instructions: 550000002 cycles: 503231635 heartbeat IPC: 0.4404 cumulative IPC: 1.02 (Simulation time: 01 hr 16 min 43 sec)
Heartbeat CPU 0 instructions: 560000002 cycles: 526114068 heartbeat IPC: 0.437 cumulative IPC: 0.9937 (Simulation time: 01 hr 20 min 00 sec)
Heartbeat CPU 0 instructions: 570000002 cycles: 548820216 heartbeat IPC: 0.4404 cumulative IPC: 0.9703 (Simulation time: 01 hr 23 min 16 sec)
Heartbeat CPU 0 instructions: 580000001 cycles: 571185557 heartbeat IPC: 0.4471 cumulative IPC: 0.9493 (Simulation time: 01 hr 26 min 31 sec)
Heartbeat CPU 0 instructions: 590000004 cycles: 593821157 heartbeat IPC: 0.4418 cumulative IPC: 0.9295 (Simulation time: 01 hr 29 min 41 sec)
*** Reached end of trace: (0, "traces/sp.A.champsimtrace")
Heartbeat CPU 0 instructions: 600000002 cycles: 616600613 heartbeat IPC: 0.439 cumulative IPC: 0.911 (Simulation time: 01 hr 32 min 53 sec)
Heartbeat CPU 0 instructions: 610000000 cycles: 645226332 heartbeat IPC: 0.3493 cumulative IPC: 0.8856 (Simulation time: 01 hr 36 min 13 sec)
Heartbeat CPU 0 instructions: 620000000 cycles: 648719107 heartbeat IPC: 2.863 cumulative IPC: 0.8965 (Simulation time: 01 hr 37 min 07 sec)
Heartbeat CPU 0 instructions: 630000003 cycles: 652191809 heartbeat IPC: 2.88 cumulative IPC: 0.9072 (Simulation time: 01 hr 37 min 58 sec)
Heartbeat CPU 0 instructions: 640000004 cycles: 655651898 heartbeat IPC: 2.89 cumulative IPC: 0.9179 (Simulation time: 01 hr 38 min 50 sec)
Heartbeat CPU 0 instructions: 650000000 cycles: 659123309 heartbeat IPC: 2.881 cumulative IPC: 0.9284 (Simulation time: 01 hr 39 min 46 sec)
Simulation finished CPU 0 instructions: 600000000 cycles: 646242254 cumulative IPC: 0.9284 (Simulation time: 01 hr 39 min 46 sec)
Simulation complete CPU 0 instructions: 600000000 cycles: 646242254 cumulative IPC: 0.9284 (Simulation time: 01 hr 39 min 46 sec)

ChampSim completed all CPUs

=== Simulation ===
CPU 0 runs traces/sp.A.champsimtrace
Region of Interest Statistics

CPU 0 cumulative IPC: 0.9284 instructions: 600000000 cycles: 646242254
CPU 0 Branch Prediction Accuracy: 98.91% MPKI: 0.226 Average ROB Occupancy at Mispredict: 233.2
Branch type MPKI
BRANCH_DIRECT_JUMP: 5e-06
BRANCH_INDIRECT: 7.5e-05
BRANCH_CONDITIONAL: 0.226
BRANCH_DIRECT_CALL: 2e-05
BRANCH_INDIRECT_CALL: 3.17e-05
BRANCH_RETURN: 3.67e-05

LLC TOTAL        ACCESS:    8127332 HIT:    5091871 MISS:    3035461
LLC LOAD         ACCESS:    2304254 HIT:    1469077 MISS:     835177
LLC RFO          ACCESS:     922634 HIT:       6819 MISS:     915815
LLC PREFETCH     ACCESS:    2851390 HIT:    1568874 MISS:    1282516
LLC WRITE        ACCESS:    2045585 HIT:    2045442 MISS:        143
LLC TRANSLATION  ACCESS:       3469 HIT:       1659 MISS:       1810
LLC PREFETCH REQUESTED:    2851390 ISSUED:    2851390 USEFUL:    1026302 USELESS:      18282
LLC AVERAGE MISS LATENCY: 1399 cycles
cpu0_DTLB TOTAL        ACCESS:  125736552 HIT:  124910189 MISS:     826363
cpu0_DTLB LOAD         ACCESS:  125736552 HIT:  124910189 MISS:     826363
cpu0_DTLB RFO          ACCESS:          0 HIT:          0 MISS:          0
cpu0_DTLB PREFETCH     ACCESS:          0 HIT:          0 MISS:          0
cpu0_DTLB WRITE        ACCESS:          0 HIT:          0 MISS:          0
cpu0_DTLB TRANSLATION  ACCESS:          0 HIT:          0 MISS:          0
cpu0_DTLB PREFETCH REQUESTED:          0 ISSUED:          0 USEFUL:          0 USELESS:          0
cpu0_DTLB AVERAGE MISS LATENCY: 17.77 cycles
cpu0_ITLB TOTAL        ACCESS:     218336 HIT:     218098 MISS:        238
cpu0_ITLB LOAD         ACCESS:     218336 HIT:     218098 MISS:        238
cpu0_ITLB RFO          ACCESS:          0 HIT:          0 MISS:          0
cpu0_ITLB PREFETCH     ACCESS:          0 HIT:          0 MISS:          0
cpu0_ITLB WRITE        ACCESS:          0 HIT:          0 MISS:          0
cpu0_ITLB TRANSLATION  ACCESS:          0 HIT:          0 MISS:          0
cpu0_ITLB PREFETCH REQUESTED:          0 ISSUED:          0 USEFUL:          0 USELESS:          0
cpu0_ITLB AVERAGE MISS LATENCY: 297.7 cycles
cpu0_L1D TOTAL        ACCESS:  191939772 HIT:  178622413 MISS:   13317359
cpu0_L1D LOAD         ACCESS:  156697554 HIT:  147843079 MISS:    8854475
cpu0_L1D RFO          ACCESS:          0 HIT:          0 MISS:          0
cpu0_L1D PREFETCH     ACCESS:          0 HIT:          0 MISS:          0
cpu0_L1D WRITE        ACCESS:   35194338 HIT:   30749756 MISS:    4444582
cpu0_L1D TRANSLATION  ACCESS:      47880 HIT:      29578 MISS:      18302
cpu0_L1D PREFETCH REQUESTED:          0 ISSUED:          0 USEFUL:          0 USELESS:          0
cpu0_L1D AVERAGE MISS LATENCY: 153.8 cycles
cpu0_L1I TOTAL        ACCESS:     225965 HIT:     223164 MISS:       2801
cpu0_L1I LOAD         ACCESS:     225965 HIT:     223164 MISS:       2801
cpu0_L1I RFO          ACCESS:          0 HIT:          0 MISS:          0
cpu0_L1I PREFETCH     ACCESS:          0 HIT:          0 MISS:          0
cpu0_L1I WRITE        ACCESS:          0 HIT:          0 MISS:          0
cpu0_L1I TRANSLATION  ACCESS:          0 HIT:          0 MISS:          0
cpu0_L1I PREFETCH REQUESTED:          0 ISSUED:          0 USEFUL:          0 USELESS:          0
cpu0_L1I AVERAGE MISS LATENCY: 486.8 cycles
cpu0_L2C TOTAL        ACCESS:    5424009 HIT:    2193197 MISS:    3230812
cpu0_L2C LOAD         ACCESS:    2426428 HIT:     122092 MISS:    2304336
cpu0_L2C RFO          ACCESS:     923195 HIT:        561 MISS:     922634
cpu0_L2C PREFETCH     ACCESS:          0 HIT:          0 MISS:          0
cpu0_L2C WRITE        ACCESS:    2056086 HIT:    2055713 MISS:        373
cpu0_L2C TRANSLATION  ACCESS:      18300 HIT:      14831 MISS:       3469
cpu0_L2C PREFETCH REQUESTED:          0 ISSUED:          0 USEFUL:          0 USELESS:          0
cpu0_L2C AVERAGE MISS LATENCY: 815.6 cycles
cpu0_STLB TOTAL        ACCESS:     573404 HIT:     525554 MISS:      47850
cpu0_STLB LOAD         ACCESS:     573404 HIT:     525554 MISS:      47850
cpu0_STLB RFO          ACCESS:          0 HIT:          0 MISS:          0
cpu0_STLB PREFETCH     ACCESS:          0 HIT:          0 MISS:          0
cpu0_STLB WRITE        ACCESS:          0 HIT:          0 MISS:          0
cpu0_STLB TRANSLATION  ACCESS:          0 HIT:          0 MISS:          0
cpu0_STLB PREFETCH REQUESTED:          0 ISSUED:          0 USEFUL:          0 USELESS:          0
cpu0_STLB AVERAGE MISS LATENCY: 297.2 cycles

DRAM Statistics

Channel 0 RQ ROW_BUFFER_HIT:     893364
  ROW_BUFFER_MISS:    1859122
 AVG DBUS CONGESTED CYCLE: 3.966
WQ ROW_BUFFER_HIT: Channel 0 
  ROW_BUFFER_MISS:     458534
  FULL:    1318620
