WARNING: physical memory size is smaller than virtual memory size.

*** ChampSim Multicore Out-of-Order Simulator ***
Warmup Instructions: 50000000
Simulation Instructions: 600000000
Number of CPUs: 1
Page size: 4096

Initialize SIGNATURE TABLE
ST_SET: 1
ST_WAY: 256
ST_TAG_BIT: 16
ST_TAG_MASK: ffff

Initialize PATTERN TABLE
PT_SET: 512
PT_WAY: 4
SIG_DELTA_BIT: 7
C_SIG_BIT: 4
C_DELTA_BIT: 4

Initialize PREFETCH FILTER
FILTER_SET: 1024
Off-chip DRAM Size: 4 GiB Channels: 1 Width: 64-bit Data Race: 3200 MT/s
Heartbeat CPU 0 instructions: 10000001 cycles: 2500318 heartbeat IPC: 3.999 cumulative IPC: 3.999 (Simulation time: 00 hr 03 min 59 sec)
Heartbeat CPU 0 instructions: 20000002 cycles: 5037138 heartbeat IPC: 3.942 cumulative IPC: 3.971 (Simulation time: 00 hr 07 min 50 sec)
Heartbeat CPU 0 instructions: 30000002 cycles: 7537138 heartbeat IPC: 4 cumulative IPC: 3.98 (Simulation time: 00 hr 11 min 21 sec)
Heartbeat CPU 0 instructions: 40000002 cycles: 10037138 heartbeat IPC: 4 cumulative IPC: 3.985 (Simulation time: 00 hr 14 min 53 sec)
Heartbeat CPU 0 instructions: 50000002 cycles: 12537138 heartbeat IPC: 4 cumulative IPC: 3.988 (Simulation time: 00 hr 18 min 28 sec)
Warmup finished CPU 0 instructions: 50000002 cycles: 12537139 cumulative IPC: 3.988 (Simulation time: 00 hr 18 min 28 sec)
Warmup complete CPU 0 instructions: 50000002 cycles: 12537139 cumulative IPC: 3.988 (Simulation time: 00 hr 18 min 28 sec)
Heartbeat CPU 0 instructions: 60000000 cycles: 16955759 heartbeat IPC: 2.263 cumulative IPC: 2.263 (Simulation time: 00 hr 23 min 28 sec)
Heartbeat CPU 0 instructions: 70000002 cycles: 21092707 heartbeat IPC: 2.417 cumulative IPC: 2.338 (Simulation time: 00 hr 28 min 23 sec)
Heartbeat CPU 0 instructions: 80000001 cycles: 25586303 heartbeat IPC: 2.225 cumulative IPC: 2.299 (Simulation time: 00 hr 33 min 31 sec)
Heartbeat CPU 0 instructions: 90000003 cycles: 29533387 heartbeat IPC: 2.534 cumulative IPC: 2.353 (Simulation time: 00 hr 38 min 18 sec)
Heartbeat CPU 0 instructions: 100000000 cycles: 33636618 heartbeat IPC: 2.437 cumulative IPC: 2.37 (Simulation time: 00 hr 43 min 12 sec)
Heartbeat CPU 0 instructions: 110000000 cycles: 37757911 heartbeat IPC: 2.426 cumulative IPC: 2.379 (Simulation time: 00 hr 48 min 07 sec)
Heartbeat CPU 0 instructions: 120000001 cycles: 41719831 heartbeat IPC: 2.524 cumulative IPC: 2.399 (Simulation time: 00 hr 52 min 55 sec)
Heartbeat CPU 0 instructions: 130000001 cycles: 45456782 heartbeat IPC: 2.676 cumulative IPC: 2.43 (Simulation time: 00 hr 57 min 39 sec)
Heartbeat CPU 0 instructions: 140000001 cycles: 49599295 heartbeat IPC: 2.414 cumulative IPC: 2.428 (Simulation time: 01 hr 02 min 33 sec)
Heartbeat CPU 0 instructions: 150000001 cycles: 53747240 heartbeat IPC: 2.411 cumulative IPC: 2.427 (Simulation time: 01 hr 07 min 30 sec)
Heartbeat CPU 0 instructions: 160000004 cycles: 57996498 heartbeat IPC: 2.353 cumulative IPC: 2.42 (Simulation time: 01 hr 12 min 30 sec)
Heartbeat CPU 0 instructions: 170000001 cycles: 65907486 heartbeat IPC: 1.264 cumulative IPC: 2.248 (Simulation time: 01 hr 19 min 47 sec)
Heartbeat CPU 0 instructions: 180000004 cycles: 73329896 heartbeat IPC: 1.347 cumulative IPC: 2.138 (Simulation time: 01 hr 27 min 02 sec)
Heartbeat CPU 0 instructions: 190000001 cycles: 79605692 heartbeat IPC: 1.593 cumulative IPC: 2.087 (Simulation time: 01 hr 33 min 31 sec)
Heartbeat CPU 0 instructions: 200000004 cycles: 83183114 heartbeat IPC: 2.795 cumulative IPC: 2.123 (Simulation time: 01 hr 38 min 18 sec)
Heartbeat CPU 0 instructions: 210000001 cycles: 86754553 heartbeat IPC: 2.8 cumulative IPC: 2.156 (Simulation time: 01 hr 42 min 55 sec)
Heartbeat CPU 0 instructions: 220000000 cycles: 90412909 heartbeat IPC: 2.733 cumulative IPC: 2.183 (Simulation time: 01 hr 47 min 31 sec)
Heartbeat CPU 0 instructions: 230000002 cycles: 94482708 heartbeat IPC: 2.457 cumulative IPC: 2.197 (Simulation time: 01 hr 52 min 19 sec)
Heartbeat CPU 0 instructions: 240000002 cycles: 98309031 heartbeat IPC: 2.613 cumulative IPC: 2.215 (Simulation time: 01 hr 57 min 04 sec)
Heartbeat CPU 0 instructions: 250000000 cycles: 102205922 heartbeat IPC: 2.566 cumulative IPC: 2.23 (Simulation time: 02 hr 01 min 48 sec)
Heartbeat CPU 0 instructions: 260000000 cycles: 105942582 heartbeat IPC: 2.676 cumulative IPC: 2.248 (Simulation time: 02 hr 06 min 26 sec)
Heartbeat CPU 0 instructions: 270000002 cycles: 109569975 heartbeat IPC: 2.757 cumulative IPC: 2.267 (Simulation time: 02 hr 11 min 05 sec)
Heartbeat CPU 0 instructions: 280000002 cycles: 113414873 heartbeat IPC: 2.601 cumulative IPC: 2.28 (Simulation time: 02 hr 15 min 54 sec)
Heartbeat CPU 0 instructions: 290000002 cycles: 117042169 heartbeat IPC: 2.757 cumulative IPC: 2.297 (Simulation time: 02 hr 20 min 29 sec)
Heartbeat CPU 0 instructions: 300000003 cycles: 120541277 heartbeat IPC: 2.858 cumulative IPC: 2.315 (Simulation time: 02 hr 25 min 05 sec)
Heartbeat CPU 0 instructions: 310000001 cycles: 124286267 heartbeat IPC: 2.67 cumulative IPC: 2.327 (Simulation time: 02 hr 29 min 43 sec)
Heartbeat CPU 0 instructions: 320000003 cycles: 128043129 heartbeat IPC: 2.662 cumulative IPC: 2.338 (Simulation time: 02 hr 34 min 24 sec)
Heartbeat CPU 0 instructions: 330000003 cycles: 131969335 heartbeat IPC: 2.547 cumulative IPC: 2.344 (Simulation time: 02 hr 39 min 10 sec)
Heartbeat CPU 0 instructions: 340000000 cycles: 138621201 heartbeat IPC: 1.503 cumulative IPC: 2.3 (Simulation time: 02 hr 45 min 48 sec)
Heartbeat CPU 0 instructions: 350000000 cycles: 146079315 heartbeat IPC: 1.341 cumulative IPC: 2.246 (Simulation time: 02 hr 53 min 02 sec)
Heartbeat CPU 0 instructions: 360000004 cycles: 152526498 heartbeat IPC: 1.551 cumulative IPC: 2.214 (Simulation time: 02 hr 59 min 35 sec)
Heartbeat CPU 0 instructions: 370000001 cycles: 155762144 heartbeat IPC: 3.091 cumulative IPC: 2.234 (Simulation time: 03 hr 03 min 58 sec)
Heartbeat CPU 0 instructions: 380000001 cycles: 158940276 heartbeat IPC: 3.147 cumulative IPC: 2.254 (Simulation time: 03 hr 08 min 28 sec)
Heartbeat CPU 0 instructions: 390000004 cycles: 162346089 heartbeat IPC: 2.936 cumulative IPC: 2.27 (Simulation time: 03 hr 13 min 05 sec)
Heartbeat CPU 0 instructions: 400000004 cycles: 165782471 heartbeat IPC: 2.91 cumulative IPC: 2.284 (Simulation time: 03 hr 17 min 35 sec)
Heartbeat CPU 0 instructions: 410000001 cycles: 169282579 heartbeat IPC: 2.857 cumulative IPC: 2.297 (Simulation time: 03 hr 22 min 04 sec)
Heartbeat CPU 0 instructions: 420000002 cycles: 173012803 heartbeat IPC: 2.681 cumulative IPC: 2.306 (Simulation time: 03 hr 26 min 43 sec)
Heartbeat CPU 0 instructions: 430000001 cycles: 176403854 heartbeat IPC: 2.949 cumulative IPC: 2.319 (Simulation time: 03 hr 31 min 13 sec)
Heartbeat CPU 0 instructions: 440000004 cycles: 180041873 heartbeat IPC: 2.749 cumulative IPC: 2.328 (Simulation time: 03 hr 36 min 01 sec)
Heartbeat CPU 0 instructions: 450000002 cycles: 183293687 heartbeat IPC: 3.075 cumulative IPC: 2.343 (Simulation time: 03 hr 40 min 24 sec)
Heartbeat CPU 0 instructions: 460000000 cycles: 186602124 heartbeat IPC: 3.023 cumulative IPC: 2.355 (Simulation time: 03 hr 44 min 49 sec)
Heartbeat CPU 0 instructions: 470000001 cycles: 189880456 heartbeat IPC: 3.05 cumulative IPC: 2.368 (Simulation time: 03 hr 49 min 13 sec)
Heartbeat CPU 0 instructions: 480000003 cycles: 193381698 heartbeat IPC: 2.856 cumulative IPC: 2.378 (Simulation time: 03 hr 53 min 43 sec)
Heartbeat CPU 0 instructions: 490000000 cycles: 196714257 heartbeat IPC: 3.001 cumulative IPC: 2.389 (Simulation time: 03 hr 58 min 08 sec)
Heartbeat CPU 0 instructions: 500000004 cycles: 200189979 heartbeat IPC: 2.877 cumulative IPC: 2.398 (Simulation time: 04 hr 02 min 40 sec)
Heartbeat CPU 0 instructions: 510000003 cycles: 203600318 heartbeat IPC: 2.932 cumulative IPC: 2.408 (Simulation time: 04 hr 07 min 12 sec)
Heartbeat CPU 0 instructions: 520000000 cycles: 206702050 heartbeat IPC: 3.224 cumulative IPC: 2.421 (Simulation time: 04 hr 11 min 35 sec)
Heartbeat CPU 0 instructions: 530000002 cycles: 210178226 heartbeat IPC: 2.877 cumulative IPC: 2.429 (Simulation time: 04 hr 16 min 06 sec)
Heartbeat CPU 0 instructions: 540000000 cycles: 213483327 heartbeat IPC: 3.026 cumulative IPC: 2.438 (Simulation time: 04 hr 20 min 31 sec)
Heartbeat CPU 0 instructions: 550000001 cycles: 216960550 heartbeat IPC: 2.876 cumulative IPC: 2.446 (Simulation time: 04 hr 25 min 06 sec)
Heartbeat CPU 0 instructions: 560000004 cycles: 220532151 heartbeat IPC: 2.8 cumulative IPC: 2.452 (Simulation time: 04 hr 29 min 41 sec)
Heartbeat CPU 0 instructions: 570000004 cycles: 225294327 heartbeat IPC: 2.1 cumulative IPC: 2.444 (Simulation time: 04 hr 35 min 06 sec)
Heartbeat CPU 0 instructions: 580000003 cycles: 232195564 heartbeat IPC: 1.449 cumulative IPC: 2.413 (Simulation time: 04 hr 41 min 57 sec)
Heartbeat CPU 0 instructions: 590000002 cycles: 239904031 heartbeat IPC: 1.297 cumulative IPC: 2.375 (Simulation time: 04 hr 49 min 26 sec)
Heartbeat CPU 0 instructions: 600000000 cycles: 243375468 heartbeat IPC: 2.881 cumulative IPC: 2.383 (Simulation time: 04 hr 53 min 56 sec)
Heartbeat CPU 0 instructions: 610000002 cycles: 246951797 heartbeat IPC: 2.796 cumulative IPC: 2.389 (Simulation time: 04 hr 58 min 42 sec)
Heartbeat CPU 0 instructions: 620000001 cycles: 250232873 heartbeat IPC: 3.048 cumulative IPC: 2.398 (Simulation time: 05 hr 03 min 10 sec)
Heartbeat CPU 0 instructions: 630000002 cycles: 254174229 heartbeat IPC: 2.537 cumulative IPC: 2.4 (Simulation time: 05 hr 07 min 56 sec)
Heartbeat CPU 0 instructions: 640000001 cycles: 257857509 heartbeat IPC: 2.715 cumulative IPC: 2.405 (Simulation time: 05 hr 12 min 39 sec)
Heartbeat CPU 0 instructions: 650000000 cycles: 261440226 heartbeat IPC: 2.791 cumulative IPC: 2.411 (Simulation time: 05 hr 17 min 20 sec)
Simulation finished CPU 0 instructions: 600000001 cycles: 248903089 cumulative IPC: 2.411 (Simulation time: 05 hr 17 min 20 sec)
Simulation complete CPU 0 instructions: 600000001 cycles: 248903089 cumulative IPC: 2.411 (Simulation time: 05 hr 17 min 20 sec)

ChampSim completed all CPUs

=== Simulation ===
CPU 0 runs traces/400.perlbench-41B.champsimtrace.xz
Region of Interest Statistics

CPU 0 cumulative IPC: 2.411 instructions: 600000001 cycles: 248903089
CPU 0 Branch Prediction Accuracy: 96.64% MPKI: 6.948 Average ROB Occupancy at Mispredict: 45.19
Branch type MPKI
BRANCH_DIRECT_JUMP: 0.0123
BRANCH_INDIRECT: 0.323
BRANCH_CONDITIONAL: 6.4
BRANCH_DIRECT_CALL: 0.0043
BRANCH_INDIRECT_CALL: 0.2
BRANCH_RETURN: 0.00828

LLC TOTAL        ACCESS:     924481 HIT:     791227 MISS:     133254
LLC LOAD         ACCESS:     402869 HIT:     370374 MISS:      32495
LLC RFO          ACCESS:      32535 HIT:      28478 MISS:       4057
LLC PREFETCH     ACCESS:     384347 HIT:     294326 MISS:      90021
LLC WRITE        ACCESS:      85697 HIT:      85623 MISS:         74
LLC TRANSLATION  ACCESS:      19033 HIT:      12426 MISS:       6607
LLC PREFETCH REQUESTED:     384347 ISSUED:     384347 USEFUL:        496 USELESS:         10
LLC AVERAGE MISS LATENCY: 171 cycles
cpu0_DTLB TOTAL        ACCESS:  141376621 HIT:  140703044 MISS:     673577
cpu0_DTLB LOAD         ACCESS:  141376621 HIT:  140703044 MISS:     673577
cpu0_DTLB RFO          ACCESS:          0 HIT:          0 MISS:          0
cpu0_DTLB PREFETCH     ACCESS:          0 HIT:          0 MISS:          0
cpu0_DTLB WRITE        ACCESS:          0 HIT:          0 MISS:          0
cpu0_DTLB TRANSLATION  ACCESS:          0 HIT:          0 MISS:          0
cpu0_DTLB PREFETCH REQUESTED:          0 ISSUED:          0 USEFUL:          0 USELESS:          0
cpu0_DTLB AVERAGE MISS LATENCY: 11.73 cycles
cpu0_ITLB TOTAL        ACCESS:    4858559 HIT:    4811895 MISS:      46664
cpu0_ITLB LOAD         ACCESS:    4858559 HIT:    4811895 MISS:      46664
cpu0_ITLB RFO          ACCESS:          0 HIT:          0 MISS:          0
cpu0_ITLB PREFETCH     ACCESS:          0 HIT:          0 MISS:          0
cpu0_ITLB WRITE        ACCESS:          0 HIT:          0 MISS:          0
cpu0_ITLB TRANSLATION  ACCESS:          0 HIT:          0 MISS:          0
cpu0_ITLB PREFETCH REQUESTED:          0 ISSUED:          0 USEFUL:          0 USELESS:          0
cpu0_ITLB AVERAGE MISS LATENCY: 6.342 cycles
cpu0_L1D TOTAL        ACCESS:  188035650 HIT:  186385672 MISS:    1649978
cpu0_L1D LOAD         ACCESS:  104710140 HIT:  103421529 MISS:    1288611
cpu0_L1D RFO          ACCESS:          0 HIT:          0 MISS:          0
cpu0_L1D PREFETCH     ACCESS:          0 HIT:          0 MISS:          0
cpu0_L1D WRITE        ACCESS:   83301044 HIT:   82963081 MISS:     337963
cpu0_L1D TRANSLATION  ACCESS:      24466 HIT:       1062 MISS:      23404
cpu0_L1D PREFETCH REQUESTED:          0 ISSUED:          0 USEFUL:          0 USELESS:          0
cpu0_L1D AVERAGE MISS LATENCY: 22.35 cycles
cpu0_L1I TOTAL        ACCESS:    5596253 HIT:    4876237 MISS:     720016
cpu0_L1I LOAD         ACCESS:    5596253 HIT:    4876237 MISS:     720016
cpu0_L1I RFO          ACCESS:          0 HIT:          0 MISS:          0
cpu0_L1I PREFETCH     ACCESS:          0 HIT:          0 MISS:          0
cpu0_L1I WRITE        ACCESS:          0 HIT:          0 MISS:          0
cpu0_L1I TRANSLATION  ACCESS:          0 HIT:          0 MISS:          0
cpu0_L1I PREFETCH REQUESTED:          0 ISSUED:          0 USEFUL:          0 USELESS:          0
cpu0_L1I AVERAGE MISS LATENCY: 9.327 cycles
cpu0_L2C TOTAL        ACCESS:    1666599 HIT:    1210356 MISS:     456243
cpu0_L2C LOAD         ACCESS:    1316610 HIT:     913741 MISS:     402869
cpu0_L2C RFO          ACCESS:      88033 HIT:      55498 MISS:      32535
cpu0_L2C PREFETCH     ACCESS:          0 HIT:          0 MISS:          0
cpu0_L2C WRITE        ACCESS:     238612 HIT:     236806 MISS:       1806
cpu0_L2C TRANSLATION  ACCESS:      23344 HIT:       4311 MISS:      19033
cpu0_L2C PREFETCH REQUESTED:          0 ISSUED:          0 USEFUL:          0 USELESS:          0
cpu0_L2C AVERAGE MISS LATENCY: 69.18 cycles
cpu0_STLB TOTAL        ACCESS:     505637 HIT:     482847 MISS:      22790
cpu0_STLB LOAD         ACCESS:     505637 HIT:     482847 MISS:      22790
cpu0_STLB RFO          ACCESS:          0 HIT:          0 MISS:          0
cpu0_STLB PREFETCH     ACCESS:          0 HIT:          0 MISS:          0
cpu0_STLB WRITE        ACCESS:          0 HIT:          0 MISS:          0
cpu0_STLB TRANSLATION  ACCESS:          0 HIT:          0 MISS:          0
cpu0_STLB PREFETCH REQUESTED:          0 ISSUED:          0 USEFUL:          0 USELESS:          0
cpu0_STLB AVERAGE MISS LATENCY: 212 cycles

DRAM Statistics

Channel 0 RQ ROW_BUFFER_HIT:      22859
  ROW_BUFFER_MISS:      90747
 AVG DBUS CONGESTED CYCLE: 3.849
WQ ROW_BUFFER_HIT: Channel 0 
  ROW_BUFFER_MISS:        292
  FULL:        354
