WARNING: physical memory size is smaller than virtual memory size.

*** ChampSim Multicore Out-of-Order Simulator ***
Warmup Instructions: 50000000
Simulation Instructions: 600000000
Number of CPUs: 1
Page size: 4096

Off-chip DRAM Size: 4 GiB Channels: 1 Width: 64-bit Data Race: 3200 MT/s
Heartbeat CPU 0 instructions: 10000001 cycles: 2500318 heartbeat IPC: 3.999 cumulative IPC: 3.999 (Simulation time: 00 hr 03 min 46 sec)
Heartbeat CPU 0 instructions: 20000002 cycles: 5037119 heartbeat IPC: 3.942 cumulative IPC: 3.971 (Simulation time: 00 hr 07 min 36 sec)
Heartbeat CPU 0 instructions: 30000002 cycles: 7537119 heartbeat IPC: 4 cumulative IPC: 3.98 (Simulation time: 00 hr 11 min 07 sec)
Heartbeat CPU 0 instructions: 40000002 cycles: 10037119 heartbeat IPC: 4 cumulative IPC: 3.985 (Simulation time: 00 hr 14 min 39 sec)
Heartbeat CPU 0 instructions: 50000002 cycles: 12537119 heartbeat IPC: 4 cumulative IPC: 3.988 (Simulation time: 00 hr 18 min 12 sec)
Warmup finished CPU 0 instructions: 50000002 cycles: 12537120 cumulative IPC: 3.988 (Simulation time: 00 hr 18 min 12 sec)
Warmup complete CPU 0 instructions: 50000002 cycles: 12537120 cumulative IPC: 3.988 (Simulation time: 00 hr 18 min 12 sec)
Heartbeat CPU 0 instructions: 60000000 cycles: 16923259 heartbeat IPC: 2.28 cumulative IPC: 2.28 (Simulation time: 00 hr 23 min 12 sec)
Heartbeat CPU 0 instructions: 70000002 cycles: 21036169 heartbeat IPC: 2.431 cumulative IPC: 2.353 (Simulation time: 00 hr 28 min 07 sec)
Heartbeat CPU 0 instructions: 80000001 cycles: 25509500 heartbeat IPC: 2.235 cumulative IPC: 2.313 (Simulation time: 00 hr 33 min 13 sec)
Heartbeat CPU 0 instructions: 90000003 cycles: 29442247 heartbeat IPC: 2.543 cumulative IPC: 2.366 (Simulation time: 00 hr 38 min 00 sec)
Heartbeat CPU 0 instructions: 100000000 cycles: 33534938 heartbeat IPC: 2.443 cumulative IPC: 2.381 (Simulation time: 00 hr 42 min 52 sec)
Heartbeat CPU 0 instructions: 110000000 cycles: 37639844 heartbeat IPC: 2.436 cumulative IPC: 2.39 (Simulation time: 00 hr 47 min 39 sec)
Heartbeat CPU 0 instructions: 120000001 cycles: 41576783 heartbeat IPC: 2.54 cumulative IPC: 2.41 (Simulation time: 00 hr 52 min 24 sec)
Heartbeat CPU 0 instructions: 130000001 cycles: 45292222 heartbeat IPC: 2.691 cumulative IPC: 2.442 (Simulation time: 00 hr 57 min 20 sec)
Heartbeat CPU 0 instructions: 140000001 cycles: 49413497 heartbeat IPC: 2.426 cumulative IPC: 2.441 (Simulation time: 01 hr 02 min 13 sec)
Heartbeat CPU 0 instructions: 150000001 cycles: 53528958 heartbeat IPC: 2.43 cumulative IPC: 2.44 (Simulation time: 01 hr 07 min 12 sec)
Heartbeat CPU 0 instructions: 160000004 cycles: 57725924 heartbeat IPC: 2.383 cumulative IPC: 2.434 (Simulation time: 01 hr 12 min 09 sec)
Heartbeat CPU 0 instructions: 170000001 cycles: 65560221 heartbeat IPC: 1.276 cumulative IPC: 2.263 (Simulation time: 01 hr 19 min 28 sec)
Heartbeat CPU 0 instructions: 180000004 cycles: 72837830 heartbeat IPC: 1.374 cumulative IPC: 2.156 (Simulation time: 01 hr 26 min 36 sec)
Heartbeat CPU 0 instructions: 190000001 cycles: 79063222 heartbeat IPC: 1.606 cumulative IPC: 2.104 (Simulation time: 01 hr 33 min 14 sec)
Heartbeat CPU 0 instructions: 200000004 cycles: 82635726 heartbeat IPC: 2.799 cumulative IPC: 2.14 (Simulation time: 01 hr 37 min 51 sec)
Heartbeat CPU 0 instructions: 210000001 cycles: 86203463 heartbeat IPC: 2.803 cumulative IPC: 2.172 (Simulation time: 01 hr 42 min 26 sec)
Heartbeat CPU 0 instructions: 220000000 cycles: 89858556 heartbeat IPC: 2.736 cumulative IPC: 2.199 (Simulation time: 01 hr 47 min 03 sec)
Heartbeat CPU 0 instructions: 230000002 cycles: 93921721 heartbeat IPC: 2.461 cumulative IPC: 2.212 (Simulation time: 01 hr 51 min 50 sec)
Heartbeat CPU 0 instructions: 240000002 cycles: 97746725 heartbeat IPC: 2.614 cumulative IPC: 2.23 (Simulation time: 01 hr 56 min 36 sec)
Heartbeat CPU 0 instructions: 250000000 cycles: 101640030 heartbeat IPC: 2.569 cumulative IPC: 2.245 (Simulation time: 02 hr 01 min 22 sec)
Heartbeat CPU 0 instructions: 260000000 cycles: 105376256 heartbeat IPC: 2.676 cumulative IPC: 2.262 (Simulation time: 02 hr 06 min 04 sec)
Heartbeat CPU 0 instructions: 270000002 cycles: 109002654 heartbeat IPC: 2.758 cumulative IPC: 2.281 (Simulation time: 02 hr 10 min 51 sec)
Heartbeat CPU 0 instructions: 280000002 cycles: 112846531 heartbeat IPC: 2.602 cumulative IPC: 2.293 (Simulation time: 02 hr 15 min 34 sec)
Heartbeat CPU 0 instructions: 290000002 cycles: 116471973 heartbeat IPC: 2.758 cumulative IPC: 2.309 (Simulation time: 02 hr 20 min 12 sec)
Heartbeat CPU 0 instructions: 300000003 cycles: 119972486 heartbeat IPC: 2.857 cumulative IPC: 2.327 (Simulation time: 02 hr 24 min 47 sec)
Heartbeat CPU 0 instructions: 310000001 cycles: 123718330 heartbeat IPC: 2.67 cumulative IPC: 2.339 (Simulation time: 02 hr 29 min 28 sec)
Heartbeat CPU 0 instructions: 320000003 cycles: 127471643 heartbeat IPC: 2.664 cumulative IPC: 2.349 (Simulation time: 02 hr 34 min 11 sec)
Heartbeat CPU 0 instructions: 330000003 cycles: 131399866 heartbeat IPC: 2.546 cumulative IPC: 2.356 (Simulation time: 02 hr 38 min 55 sec)
Heartbeat CPU 0 instructions: 340000000 cycles: 138019981 heartbeat IPC: 1.511 cumulative IPC: 2.311 (Simulation time: 02 hr 45 min 30 sec)
Heartbeat CPU 0 instructions: 350000000 cycles: 145362624 heartbeat IPC: 1.362 cumulative IPC: 2.259 (Simulation time: 02 hr 52 min 51 sec)
Heartbeat CPU 0 instructions: 360000004 cycles: 151707478 heartbeat IPC: 1.576 cumulative IPC: 2.227 (Simulation time: 02 hr 59 min 21 sec)
Heartbeat CPU 0 instructions: 370000001 cycles: 154934645 heartbeat IPC: 3.099 cumulative IPC: 2.247 (Simulation time: 03 hr 03 min 45 sec)
Heartbeat CPU 0 instructions: 380000001 cycles: 158109527 heartbeat IPC: 3.15 cumulative IPC: 2.267 (Simulation time: 03 hr 08 min 09 sec)
Heartbeat CPU 0 instructions: 390000004 cycles: 161513260 heartbeat IPC: 2.938 cumulative IPC: 2.282 (Simulation time: 03 hr 12 min 40 sec)
Heartbeat CPU 0 instructions: 400000004 cycles: 164948955 heartbeat IPC: 2.911 cumulative IPC: 2.296 (Simulation time: 03 hr 17 min 10 sec)
Heartbeat CPU 0 instructions: 410000001 cycles: 168446960 heartbeat IPC: 2.859 cumulative IPC: 2.309 (Simulation time: 03 hr 21 min 40 sec)
Heartbeat CPU 0 instructions: 420000002 cycles: 172171792 heartbeat IPC: 2.685 cumulative IPC: 2.318 (Simulation time: 03 hr 26 min 18 sec)
Heartbeat CPU 0 instructions: 430000001 cycles: 175560644 heartbeat IPC: 2.951 cumulative IPC: 2.331 (Simulation time: 03 hr 30 min 50 sec)
Heartbeat CPU 0 instructions: 440000004 cycles: 179201047 heartbeat IPC: 2.747 cumulative IPC: 2.34 (Simulation time: 03 hr 35 min 30 sec)
Heartbeat CPU 0 instructions: 450000002 cycles: 182450520 heartbeat IPC: 3.077 cumulative IPC: 2.354 (Simulation time: 03 hr 39 min 55 sec)
Heartbeat CPU 0 instructions: 460000000 cycles: 185759206 heartbeat IPC: 3.022 cumulative IPC: 2.367 (Simulation time: 03 hr 44 min 21 sec)
Heartbeat CPU 0 instructions: 470000001 cycles: 189035286 heartbeat IPC: 3.052 cumulative IPC: 2.38 (Simulation time: 03 hr 48 min 47 sec)
Heartbeat CPU 0 instructions: 480000003 cycles: 192536026 heartbeat IPC: 2.857 cumulative IPC: 2.389 (Simulation time: 03 hr 53 min 19 sec)
Heartbeat CPU 0 instructions: 490000000 cycles: 195868294 heartbeat IPC: 3.001 cumulative IPC: 2.4 (Simulation time: 03 hr 57 min 45 sec)
Heartbeat CPU 0 instructions: 500000004 cycles: 199342487 heartbeat IPC: 2.878 cumulative IPC: 2.409 (Simulation time: 04 hr 02 min 17 sec)
Heartbeat CPU 0 instructions: 510000003 cycles: 202750537 heartbeat IPC: 2.934 cumulative IPC: 2.418 (Simulation time: 04 hr 06 min 48 sec)
Heartbeat CPU 0 instructions: 520000000 cycles: 205850089 heartbeat IPC: 3.226 cumulative IPC: 2.431 (Simulation time: 04 hr 11 min 21 sec)
Heartbeat CPU 0 instructions: 530000002 cycles: 209328808 heartbeat IPC: 2.875 cumulative IPC: 2.439 (Simulation time: 04 hr 15 min 54 sec)
Heartbeat CPU 0 instructions: 540000000 cycles: 212631757 heartbeat IPC: 3.028 cumulative IPC: 2.449 (Simulation time: 04 hr 20 min 20 sec)
Heartbeat CPU 0 instructions: 550000001 cycles: 216104010 heartbeat IPC: 2.88 cumulative IPC: 2.456 (Simulation time: 04 hr 25 min 00 sec)
Heartbeat CPU 0 instructions: 560000004 cycles: 219676104 heartbeat IPC: 2.799 cumulative IPC: 2.462 (Simulation time: 04 hr 29 min 38 sec)
Heartbeat CPU 0 instructions: 570000004 cycles: 224428952 heartbeat IPC: 2.104 cumulative IPC: 2.454 (Simulation time: 04 hr 35 min 01 sec)
Heartbeat CPU 0 instructions: 580000003 cycles: 231320515 heartbeat IPC: 1.451 cumulative IPC: 2.422 (Simulation time: 04 hr 41 min 50 sec)
Heartbeat CPU 0 instructions: 590000002 cycles: 238888519 heartbeat IPC: 1.321 cumulative IPC: 2.386 (Simulation time: 04 hr 49 min 12 sec)
Heartbeat CPU 0 instructions: 600000000 cycles: 242355981 heartbeat IPC: 2.884 cumulative IPC: 2.393 (Simulation time: 04 hr 53 min 42 sec)
Heartbeat CPU 0 instructions: 610000002 cycles: 245929005 heartbeat IPC: 2.799 cumulative IPC: 2.399 (Simulation time: 04 hr 58 min 10 sec)
Heartbeat CPU 0 instructions: 620000001 cycles: 249207629 heartbeat IPC: 3.05 cumulative IPC: 2.408 (Simulation time: 05 hr 02 min 38 sec)
Heartbeat CPU 0 instructions: 630000002 cycles: 253146660 heartbeat IPC: 2.539 cumulative IPC: 2.411 (Simulation time: 05 hr 07 min 26 sec)
Heartbeat CPU 0 instructions: 640000001 cycles: 256829508 heartbeat IPC: 2.715 cumulative IPC: 2.415 (Simulation time: 05 hr 12 min 06 sec)
Heartbeat CPU 0 instructions: 650000000 cycles: 260411874 heartbeat IPC: 2.791 cumulative IPC: 2.421 (Simulation time: 05 hr 16 min 39 sec)
Simulation finished CPU 0 instructions: 600000001 cycles: 247874756 cumulative IPC: 2.421 (Simulation time: 05 hr 16 min 39 sec)
Simulation complete CPU 0 instructions: 600000001 cycles: 247874756 cumulative IPC: 2.421 (Simulation time: 05 hr 16 min 39 sec)

ChampSim completed all CPUs

=== Simulation ===
CPU 0 runs traces/400.perlbench-41B.champsimtrace.xz
Region of Interest Statistics

CPU 0 cumulative IPC: 2.421 instructions: 600000001 cycles: 247874756
CPU 0 Branch Prediction Accuracy: 96.64% MPKI: 6.948 Average ROB Occupancy at Mispredict: 45.18
Branch type MPKI
BRANCH_DIRECT_JUMP: 0.0123
BRANCH_INDIRECT: 0.323
BRANCH_CONDITIONAL: 6.4
BRANCH_DIRECT_CALL: 0.0043
BRANCH_INDIRECT_CALL: 0.2
BRANCH_RETURN: 0.00828

LLC TOTAL        ACCESS:     595020 HIT:     549162 MISS:      45858
LLC LOAD         ACCESS:     402867 HIT:     372106 MISS:      30761
LLC RFO          ACCESS:      32533 HIT:      28488 MISS:       4045
LLC PREFETCH     ACCESS:      54884 HIT:      50565 MISS:       4319
LLC WRITE        ACCESS:      85699 HIT:      85587 MISS:        112
LLC TRANSLATION  ACCESS:      19037 HIT:      12416 MISS:       6621
LLC PREFETCH REQUESTED:      54884 ISSUED:      54884 USEFUL:       2732 USELESS:        144
LLC AVERAGE MISS LATENCY: 478.3 cycles
cpu0_DTLB TOTAL        ACCESS:  141377714 HIT:  140704153 MISS:     673561
cpu0_DTLB LOAD         ACCESS:  141377714 HIT:  140704153 MISS:     673561
cpu0_DTLB RFO          ACCESS:          0 HIT:          0 MISS:          0
cpu0_DTLB PREFETCH     ACCESS:          0 HIT:          0 MISS:          0
cpu0_DTLB WRITE        ACCESS:          0 HIT:          0 MISS:          0
cpu0_DTLB TRANSLATION  ACCESS:          0 HIT:          0 MISS:          0
cpu0_DTLB PREFETCH REQUESTED:          0 ISSUED:          0 USEFUL:          0 USELESS:          0
cpu0_DTLB AVERAGE MISS LATENCY: 10.55 cycles
cpu0_ITLB TOTAL        ACCESS:    4858596 HIT:    4811932 MISS:      46664
cpu0_ITLB LOAD         ACCESS:    4858596 HIT:    4811932 MISS:      46664
cpu0_ITLB RFO          ACCESS:          0 HIT:          0 MISS:          0
cpu0_ITLB PREFETCH     ACCESS:          0 HIT:          0 MISS:          0
cpu0_ITLB WRITE        ACCESS:          0 HIT:          0 MISS:          0
cpu0_ITLB TRANSLATION  ACCESS:          0 HIT:          0 MISS:          0
cpu0_ITLB PREFETCH REQUESTED:          0 ISSUED:          0 USEFUL:          0 USELESS:          0
cpu0_ITLB AVERAGE MISS LATENCY: 5.784 cycles
cpu0_L1D TOTAL        ACCESS:  188037220 HIT:  186388041 MISS:    1649179
cpu0_L1D LOAD         ACCESS:  104711662 HIT:  103423889 MISS:    1287773
cpu0_L1D RFO          ACCESS:          0 HIT:          0 MISS:          0
cpu0_L1D PREFETCH     ACCESS:          0 HIT:          0 MISS:          0
cpu0_L1D WRITE        ACCESS:   83301090 HIT:   82963090 MISS:     338000
cpu0_L1D TRANSLATION  ACCESS:      24468 HIT:       1062 MISS:      23406
cpu0_L1D PREFETCH REQUESTED:          0 ISSUED:          0 USEFUL:          0 USELESS:          0
cpu0_L1D AVERAGE MISS LATENCY: 20.58 cycles
cpu0_L1I TOTAL        ACCESS:    5596282 HIT:    4876270 MISS:     720012
cpu0_L1I LOAD         ACCESS:    5596282 HIT:    4876270 MISS:     720012
cpu0_L1I RFO          ACCESS:          0 HIT:          0 MISS:          0
cpu0_L1I PREFETCH     ACCESS:          0 HIT:          0 MISS:          0
cpu0_L1I WRITE        ACCESS:          0 HIT:          0 MISS:          0
cpu0_L1I TRANSLATION  ACCESS:          0 HIT:          0 MISS:          0
cpu0_L1I PREFETCH REQUESTED:          0 ISSUED:          0 USEFUL:          0 USELESS:          0
cpu0_L1I AVERAGE MISS LATENCY: 9.34 cycles
cpu0_L2C TOTAL        ACCESS:    1666652 HIT:    1210409 MISS:     456243
cpu0_L2C LOAD         ACCESS:    1316637 HIT:     913770 MISS:     402867
cpu0_L2C RFO          ACCESS:      88035 HIT:      55502 MISS:      32533
cpu0_L2C PREFETCH     ACCESS:          0 HIT:          0 MISS:          0
cpu0_L2C WRITE        ACCESS:     238634 HIT:     236828 MISS:       1806
cpu0_L2C TRANSLATION  ACCESS:      23346 HIT:       4309 MISS:      19037
cpu0_L2C PREFETCH REQUESTED:          0 ISSUED:          0 USEFUL:          0 USELESS:          0
cpu0_L2C AVERAGE MISS LATENCY: 62.53 cycles
cpu0_STLB TOTAL        ACCESS:     505648 HIT:     482857 MISS:      22791
cpu0_STLB LOAD         ACCESS:     505648 HIT:     482857 MISS:      22791
cpu0_STLB RFO          ACCESS:          0 HIT:          0 MISS:          0
cpu0_STLB PREFETCH     ACCESS:          0 HIT:          0 MISS:          0
cpu0_STLB WRITE        ACCESS:          0 HIT:          0 MISS:          0
cpu0_STLB TRANSLATION  ACCESS:          0 HIT:          0 MISS:          0
cpu0_STLB PREFETCH REQUESTED:          0 ISSUED:          0 USEFUL:          0 USELESS:          0
cpu0_STLB AVERAGE MISS LATENCY: 175.5 cycles

DRAM Statistics

Channel 0 RQ ROW_BUFFER_HIT:      13733
  ROW_BUFFER_MISS:      31635
 AVG DBUS CONGESTED CYCLE: 3.692
WQ ROW_BUFFER_HIT: Channel 0 
  ROW_BUFFER_MISS:        242
  FULL:        558
