WARNING: physical memory size is smaller than virtual memory size.

*** ChampSim Multicore Out-of-Order Simulator ***
Warmup Instructions: 50000000
Simulation Instructions: 600000000
Number of CPUs: 1
Page size: 4096

Off-chip DRAM Size: 4 GiB Channels: 1 Width: 64-bit Data Race: 3200 MT/s
Heartbeat CPU 0 instructions: 10000001 cycles: 2500318 heartbeat IPC: 3.999 cumulative IPC: 3.999 (Simulation time: 00 hr 00 min 36 sec)
Heartbeat CPU 0 instructions: 20000002 cycles: 5037128 heartbeat IPC: 3.942 cumulative IPC: 3.971 (Simulation time: 00 hr 01 min 12 sec)
Heartbeat CPU 0 instructions: 30000002 cycles: 7537128 heartbeat IPC: 4 cumulative IPC: 3.98 (Simulation time: 00 hr 01 min 45 sec)
Heartbeat CPU 0 instructions: 40000002 cycles: 10037128 heartbeat IPC: 4 cumulative IPC: 3.985 (Simulation time: 00 hr 02 min 22 sec)
Heartbeat CPU 0 instructions: 50000002 cycles: 12537128 heartbeat IPC: 4 cumulative IPC: 3.988 (Simulation time: 00 hr 02 min 55 sec)
Warmup finished CPU 0 instructions: 50000002 cycles: 12537129 cumulative IPC: 3.988 (Simulation time: 00 hr 02 min 55 sec)
Warmup complete CPU 0 instructions: 50000002 cycles: 12537129 cumulative IPC: 3.988 (Simulation time: 00 hr 02 min 55 sec)
Heartbeat CPU 0 instructions: 60000000 cycles: 17692744 heartbeat IPC: 1.94 cumulative IPC: 1.94 (Simulation time: 00 hr 03 min 48 sec)
Heartbeat CPU 0 instructions: 70000002 cycles: 22578853 heartbeat IPC: 2.047 cumulative IPC: 1.992 (Simulation time: 00 hr 04 min 43 sec)
Heartbeat CPU 0 instructions: 80000001 cycles: 27934579 heartbeat IPC: 1.867 cumulative IPC: 1.948 (Simulation time: 00 hr 05 min 38 sec)
Heartbeat CPU 0 instructions: 90000001 cycles: 32807838 heartbeat IPC: 2.052 cumulative IPC: 1.973 (Simulation time: 00 hr 06 min 26 sec)
Heartbeat CPU 0 instructions: 100000000 cycles: 37910741 heartbeat IPC: 1.96 cumulative IPC: 1.971 (Simulation time: 00 hr 07 min 12 sec)
Heartbeat CPU 0 instructions: 110000000 cycles: 42793252 heartbeat IPC: 2.048 cumulative IPC: 1.983 (Simulation time: 00 hr 07 min 56 sec)
Heartbeat CPU 0 instructions: 120000001 cycles: 47981682 heartbeat IPC: 1.927 cumulative IPC: 1.975 (Simulation time: 00 hr 08 min 42 sec)
Heartbeat CPU 0 instructions: 130000001 cycles: 53128666 heartbeat IPC: 1.943 cumulative IPC: 1.971 (Simulation time: 00 hr 09 min 26 sec)
Heartbeat CPU 0 instructions: 140000001 cycles: 58424501 heartbeat IPC: 1.888 cumulative IPC: 1.961 (Simulation time: 00 hr 10 min 10 sec)
Heartbeat CPU 0 instructions: 150000001 cycles: 63724894 heartbeat IPC: 1.887 cumulative IPC: 1.954 (Simulation time: 00 hr 10 min 55 sec)
Heartbeat CPU 0 instructions: 160000004 cycles: 68909633 heartbeat IPC: 1.929 cumulative IPC: 1.951 (Simulation time: 00 hr 11 min 40 sec)
Heartbeat CPU 0 instructions: 170000000 cycles: 76638911 heartbeat IPC: 1.294 cumulative IPC: 1.872 (Simulation time: 00 hr 12 min 39 sec)
Heartbeat CPU 0 instructions: 180000004 cycles: 83177448 heartbeat IPC: 1.529 cumulative IPC: 1.84 (Simulation time: 00 hr 13 min 35 sec)
Heartbeat CPU 0 instructions: 190000001 cycles: 89224180 heartbeat IPC: 1.654 cumulative IPC: 1.826 (Simulation time: 00 hr 14 min 27 sec)
Heartbeat CPU 0 instructions: 200000003 cycles: 93690989 heartbeat IPC: 2.239 cumulative IPC: 1.848 (Simulation time: 00 hr 15 min 09 sec)
Heartbeat CPU 0 instructions: 210000001 cycles: 98375410 heartbeat IPC: 2.135 cumulative IPC: 1.864 (Simulation time: 00 hr 15 min 52 sec)
Heartbeat CPU 0 instructions: 220000000 cycles: 103061785 heartbeat IPC: 2.134 cumulative IPC: 1.878 (Simulation time: 00 hr 16 min 36 sec)
Heartbeat CPU 0 instructions: 230000002 cycles: 107910477 heartbeat IPC: 2.062 cumulative IPC: 1.887 (Simulation time: 00 hr 17 min 18 sec)
Heartbeat CPU 0 instructions: 240000000 cycles: 112469002 heartbeat IPC: 2.194 cumulative IPC: 1.901 (Simulation time: 00 hr 18 min 00 sec)
Heartbeat CPU 0 instructions: 250000000 cycles: 117280784 heartbeat IPC: 2.078 cumulative IPC: 1.909 (Simulation time: 00 hr 18 min 42 sec)
Heartbeat CPU 0 instructions: 260000000 cycles: 121961235 heartbeat IPC: 2.137 cumulative IPC: 1.919 (Simulation time: 00 hr 19 min 25 sec)
Heartbeat CPU 0 instructions: 270000002 cycles: 126613156 heartbeat IPC: 2.15 cumulative IPC: 1.929 (Simulation time: 00 hr 20 min 07 sec)
Heartbeat CPU 0 instructions: 280000002 cycles: 131261984 heartbeat IPC: 2.151 cumulative IPC: 1.937 (Simulation time: 00 hr 20 min 49 sec)
Heartbeat CPU 0 instructions: 290000001 cycles: 136417840 heartbeat IPC: 1.94 cumulative IPC: 1.937 (Simulation time: 00 hr 21 min 34 sec)
Heartbeat CPU 0 instructions: 300000003 cycles: 141141138 heartbeat IPC: 2.117 cumulative IPC: 1.944 (Simulation time: 00 hr 22 min 17 sec)
Heartbeat CPU 0 instructions: 310000001 cycles: 146065138 heartbeat IPC: 2.031 cumulative IPC: 1.947 (Simulation time: 00 hr 23 min 53 sec)
Heartbeat CPU 0 instructions: 320000003 cycles: 150990729 heartbeat IPC: 2.03 cumulative IPC: 1.95 (Simulation time: 00 hr 25 min 12 sec)
Heartbeat CPU 0 instructions: 330000003 cycles: 155888003 heartbeat IPC: 2.042 cumulative IPC: 1.953 (Simulation time: 00 hr 26 min 34 sec)
Heartbeat CPU 0 instructions: 340000000 cycles: 162187875 heartbeat IPC: 1.587 cumulative IPC: 1.938 (Simulation time: 00 hr 28 min 15 sec)
Heartbeat CPU 0 instructions: 350000000 cycles: 168878018 heartbeat IPC: 1.495 cumulative IPC: 1.919 (Simulation time: 00 hr 30 min 00 sec)
Heartbeat CPU 0 instructions: 360000004 cycles: 175231155 heartbeat IPC: 1.574 cumulative IPC: 1.905 (Simulation time: 00 hr 31 min 22 sec)
Heartbeat CPU 0 instructions: 370000000 cycles: 179421995 heartbeat IPC: 2.386 cumulative IPC: 1.917 (Simulation time: 00 hr 32 min 03 sec)
Heartbeat CPU 0 instructions: 380000001 cycles: 184133382 heartbeat IPC: 2.123 cumulative IPC: 1.923 (Simulation time: 00 hr 32 min 46 sec)
Heartbeat CPU 0 instructions: 390000002 cycles: 188806187 heartbeat IPC: 2.14 cumulative IPC: 1.929 (Simulation time: 00 hr 33 min 29 sec)
Heartbeat CPU 0 instructions: 400000004 cycles: 193643026 heartbeat IPC: 2.067 cumulative IPC: 1.933 (Simulation time: 00 hr 34 min 13 sec)
Heartbeat CPU 0 instructions: 410000000 cycles: 198129926 heartbeat IPC: 2.229 cumulative IPC: 1.94 (Simulation time: 00 hr 34 min 54 sec)
Heartbeat CPU 0 instructions: 420000000 cycles: 202905033 heartbeat IPC: 2.094 cumulative IPC: 1.944 (Simulation time: 00 hr 35 min 37 sec)
Heartbeat CPU 0 instructions: 430000001 cycles: 207182888 heartbeat IPC: 2.338 cumulative IPC: 1.952 (Simulation time: 00 hr 36 min 19 sec)
Heartbeat CPU 0 instructions: 440000000 cycles: 212253866 heartbeat IPC: 1.972 cumulative IPC: 1.953 (Simulation time: 00 hr 37 min 03 sec)
Heartbeat CPU 0 instructions: 450000002 cycles: 216673737 heartbeat IPC: 2.263 cumulative IPC: 1.959 (Simulation time: 00 hr 37 min 44 sec)
Heartbeat CPU 0 instructions: 460000000 cycles: 221249023 heartbeat IPC: 2.186 cumulative IPC: 1.964 (Simulation time: 00 hr 38 min 27 sec)
Heartbeat CPU 0 instructions: 470000000 cycles: 226033922 heartbeat IPC: 2.09 cumulative IPC: 1.967 (Simulation time: 00 hr 39 min 10 sec)
Heartbeat CPU 0 instructions: 480000003 cycles: 230592438 heartbeat IPC: 2.194 cumulative IPC: 1.972 (Simulation time: 00 hr 39 min 52 sec)
Heartbeat CPU 0 instructions: 490000000 cycles: 235055124 heartbeat IPC: 2.241 cumulative IPC: 1.977 (Simulation time: 00 hr 40 min 34 sec)
Heartbeat CPU 0 instructions: 500000000 cycles: 239932767 heartbeat IPC: 2.05 cumulative IPC: 1.979 (Simulation time: 00 hr 41 min 17 sec)
Heartbeat CPU 0 instructions: 510000003 cycles: 245318207 heartbeat IPC: 1.857 cumulative IPC: 1.976 (Simulation time: 00 hr 42 min 03 sec)
Heartbeat CPU 0 instructions: 520000001 cycles: 249746036 heartbeat IPC: 2.258 cumulative IPC: 1.981 (Simulation time: 00 hr 42 min 45 sec)
Heartbeat CPU 0 instructions: 530000002 cycles: 254674495 heartbeat IPC: 2.029 cumulative IPC: 1.982 (Simulation time: 00 hr 43 min 29 sec)
Heartbeat CPU 0 instructions: 540000000 cycles: 259578455 heartbeat IPC: 2.039 cumulative IPC: 1.983 (Simulation time: 00 hr 44 min 12 sec)
Heartbeat CPU 0 instructions: 550000001 cycles: 264210899 heartbeat IPC: 2.159 cumulative IPC: 1.987 (Simulation time: 00 hr 44 min 56 sec)
Heartbeat CPU 0 instructions: 560000000 cycles: 269111974 heartbeat IPC: 2.04 cumulative IPC: 1.988 (Simulation time: 00 hr 45 min 39 sec)
Heartbeat CPU 0 instructions: 570000004 cycles: 274430391 heartbeat IPC: 1.88 cumulative IPC: 1.986 (Simulation time: 00 hr 46 min 26 sec)
Heartbeat CPU 0 instructions: 580000003 cycles: 281156518 heartbeat IPC: 1.487 cumulative IPC: 1.973 (Simulation time: 00 hr 47 min 21 sec)
Heartbeat CPU 0 instructions: 590000002 cycles: 288133461 heartbeat IPC: 1.433 cumulative IPC: 1.959 (Simulation time: 00 hr 48 min 18 sec)
Heartbeat CPU 0 instructions: 600000000 cycles: 292463977 heartbeat IPC: 2.309 cumulative IPC: 1.965 (Simulation time: 00 hr 48 min 57 sec)
Heartbeat CPU 0 instructions: 610000002 cycles: 296762969 heartbeat IPC: 2.326 cumulative IPC: 1.97 (Simulation time: 00 hr 49 min 37 sec)
Heartbeat CPU 0 instructions: 620000000 cycles: 301457321 heartbeat IPC: 2.13 cumulative IPC: 1.973 (Simulation time: 00 hr 50 min 18 sec)
Heartbeat CPU 0 instructions: 630000002 cycles: 306370543 heartbeat IPC: 2.035 cumulative IPC: 1.974 (Simulation time: 00 hr 50 min 59 sec)
Heartbeat CPU 0 instructions: 640000001 cycles: 311150947 heartbeat IPC: 2.092 cumulative IPC: 1.976 (Simulation time: 00 hr 51 min 41 sec)
Heartbeat CPU 0 instructions: 650000000 cycles: 315639502 heartbeat IPC: 2.228 cumulative IPC: 1.98 (Simulation time: 00 hr 52 min 21 sec)
Simulation finished CPU 0 instructions: 600000001 cycles: 303102375 cumulative IPC: 1.98 (Simulation time: 00 hr 52 min 21 sec)
Simulation complete CPU 0 instructions: 600000001 cycles: 303102375 cumulative IPC: 1.98 (Simulation time: 00 hr 52 min 21 sec)

ChampSim completed all CPUs

=== Simulation ===
CPU 0 runs traces/400.perlbench-41B.champsimtrace.xz
Region of Interest Statistics

CPU 0 cumulative IPC: 1.98 instructions: 600000001 cycles: 303102375
CPU 0 Branch Prediction Accuracy: 93.95% MPKI: 12.5 Average ROB Occupancy at Mispredict: 29.27
Branch type MPKI
BRANCH_DIRECT_JUMP: 0.0123
BRANCH_INDIRECT: 0.323
BRANCH_CONDITIONAL: 12
BRANCH_DIRECT_CALL: 0.0043
BRANCH_INDIRECT_CALL: 0.2
BRANCH_RETURN: 0.00828

LLC TOTAL        ACCESS:     541346 HIT:     494986 MISS:      46360
LLC LOAD         ACCESS:     403739 HIT:     368117 MISS:      35622
LLC RFO          ACCESS:      32589 HIT:      28467 MISS:       4122
LLC PREFETCH     ACCESS:          0 HIT:          0 MISS:          0
LLC WRITE        ACCESS:      85817 HIT:      85787 MISS:         30
LLC TRANSLATION  ACCESS:      19201 HIT:      12615 MISS:       6586
LLC PREFETCH REQUESTED:          0 ISSUED:          0 USEFUL:          0 USELESS:          0
LLC AVERAGE MISS LATENCY: 476.1 cycles
cpu0_DTLB TOTAL        ACCESS:  153696840 HIT:  153020286 MISS:     676554
cpu0_DTLB LOAD         ACCESS:  153696840 HIT:  153020286 MISS:     676554
cpu0_DTLB RFO          ACCESS:          0 HIT:          0 MISS:          0
cpu0_DTLB PREFETCH     ACCESS:          0 HIT:          0 MISS:          0
cpu0_DTLB WRITE        ACCESS:          0 HIT:          0 MISS:          0
cpu0_DTLB TRANSLATION  ACCESS:          0 HIT:          0 MISS:          0
cpu0_DTLB PREFETCH REQUESTED:          0 ISSUED:          0 USEFUL:          0 USELESS:          0
cpu0_DTLB AVERAGE MISS LATENCY: 10.63 cycles
cpu0_ITLB TOTAL        ACCESS:    4838958 HIT:    4781105 MISS:      57853
cpu0_ITLB LOAD         ACCESS:    4838958 HIT:    4781105 MISS:      57853
cpu0_ITLB RFO          ACCESS:          0 HIT:          0 MISS:          0
cpu0_ITLB PREFETCH     ACCESS:          0 HIT:          0 MISS:          0
cpu0_ITLB WRITE        ACCESS:          0 HIT:          0 MISS:          0
cpu0_ITLB TRANSLATION  ACCESS:          0 HIT:          0 MISS:          0
cpu0_ITLB PREFETCH REQUESTED:          0 ISSUED:          0 USEFUL:          0 USELESS:          0
cpu0_ITLB AVERAGE MISS LATENCY: 4.372 cycles
cpu0_L1D TOTAL        ACCESS:  200328570 HIT:  198648240 MISS:    1680330
cpu0_L1D LOAD         ACCESS:  117085598 HIT:  115772394 MISS:    1313204
cpu0_L1D RFO          ACCESS:          0 HIT:          0 MISS:          0
cpu0_L1D PREFETCH     ACCESS:          0 HIT:          0 MISS:          0
cpu0_L1D WRITE        ACCESS:   83218504 HIT:   82874800 MISS:     343704
cpu0_L1D TRANSLATION  ACCESS:      24468 HIT:       1046 MISS:      23422
cpu0_L1D PREFETCH REQUESTED:          0 ISSUED:          0 USEFUL:          0 USELESS:          0
cpu0_L1D AVERAGE MISS LATENCY: 21.61 cycles
cpu0_L1I TOTAL        ACCESS:    5581244 HIT:    4819700 MISS:     761544
cpu0_L1I LOAD         ACCESS:    5581244 HIT:    4819700 MISS:     761544
cpu0_L1I RFO          ACCESS:          0 HIT:          0 MISS:          0
cpu0_L1I PREFETCH     ACCESS:          0 HIT:          0 MISS:          0
cpu0_L1I WRITE        ACCESS:          0 HIT:          0 MISS:          0
cpu0_L1I TRANSLATION  ACCESS:          0 HIT:          0 MISS:          0
cpu0_L1I PREFETCH REQUESTED:          0 ISSUED:          0 USEFUL:          0 USELESS:          0
cpu0_L1I AVERAGE MISS LATENCY: 8.715 cycles
cpu0_L2C TOTAL        ACCESS:    1668181 HIT:    1210842 MISS:     457339
cpu0_L2C LOAD         ACCESS:    1317217 HIT:     913478 MISS:     403739
cpu0_L2C RFO          ACCESS:      88568 HIT:      55979 MISS:      32589
cpu0_L2C PREFETCH     ACCESS:          0 HIT:          0 MISS:          0
cpu0_L2C WRITE        ACCESS:     239055 HIT:     237245 MISS:       1810
cpu0_L2C TRANSLATION  ACCESS:      23341 HIT:       4140 MISS:      19201
cpu0_L2C PREFETCH REQUESTED:          0 ISSUED:          0 USEFUL:          0 USELESS:          0
cpu0_L2C AVERAGE MISS LATENCY: 68.29 cycles
cpu0_STLB TOTAL        ACCESS:     505123 HIT:     482334 MISS:      22789
cpu0_STLB LOAD         ACCESS:     505123 HIT:     482334 MISS:      22789
cpu0_STLB RFO          ACCESS:          0 HIT:          0 MISS:          0
cpu0_STLB PREFETCH     ACCESS:          0 HIT:          0 MISS:          0
cpu0_STLB WRITE        ACCESS:          0 HIT:          0 MISS:          0
cpu0_STLB TRANSLATION  ACCESS:          0 HIT:          0 MISS:          0
cpu0_STLB PREFETCH REQUESTED:          0 ISSUED:          0 USEFUL:          0 USELESS:          0
cpu0_STLB AVERAGE MISS LATENCY: 181 cycles

DRAM Statistics

Channel 0 RQ ROW_BUFFER_HIT:      13130
  ROW_BUFFER_MISS:      33200
 AVG DBUS CONGESTED CYCLE: 3.692
WQ ROW_BUFFER_HIT: Channel 0 
  ROW_BUFFER_MISS:        351
  FULL:        683
Final OPTGen Hits: 7445
Final OPTGen Access: 9271
Final OPTGEN Hit Rate: 80.3042
