WARNING: physical memory size is smaller than virtual memory size.

*** ChampSim Multicore Out-of-Order Simulator ***
Warmup Instructions: 50000000
Simulation Instructions: 600000000
Number of CPUs: 1
Page size: 4096

Off-chip DRAM Size: 4 GiB Channels: 1 Width: 64-bit Data Race: 3200 MT/s
Heartbeat CPU 0 instructions: 10000001 cycles: 2500318 heartbeat IPC: 3.999 cumulative IPC: 3.999 (Simulation time: 00 hr 03 min 46 sec)
Heartbeat CPU 0 instructions: 20000002 cycles: 5037136 heartbeat IPC: 3.942 cumulative IPC: 3.971 (Simulation time: 00 hr 07 min 28 sec)
Heartbeat CPU 0 instructions: 30000002 cycles: 7537136 heartbeat IPC: 4 cumulative IPC: 3.98 (Simulation time: 00 hr 10 min 45 sec)
Heartbeat CPU 0 instructions: 40000002 cycles: 10037136 heartbeat IPC: 4 cumulative IPC: 3.985 (Simulation time: 00 hr 14 min 07 sec)
Heartbeat CPU 0 instructions: 50000002 cycles: 12537136 heartbeat IPC: 4 cumulative IPC: 3.988 (Simulation time: 00 hr 17 min 28 sec)
Warmup finished CPU 0 instructions: 50000002 cycles: 12537137 cumulative IPC: 3.988 (Simulation time: 00 hr 17 min 28 sec)
Warmup complete CPU 0 instructions: 50000002 cycles: 12537137 cumulative IPC: 3.988 (Simulation time: 00 hr 17 min 28 sec)
Heartbeat CPU 0 instructions: 60000000 cycles: 17125902 heartbeat IPC: 2.179 cumulative IPC: 2.179 (Simulation time: 00 hr 22 min 20 sec)
Heartbeat CPU 0 instructions: 70000004 cycles: 21380886 heartbeat IPC: 2.35 cumulative IPC: 2.261 (Simulation time: 00 hr 27 min 05 sec)
Heartbeat CPU 0 instructions: 80000001 cycles: 25959305 heartbeat IPC: 2.184 cumulative IPC: 2.235 (Simulation time: 00 hr 31 min 58 sec)
Heartbeat CPU 0 instructions: 90000001 cycles: 30074042 heartbeat IPC: 2.43 cumulative IPC: 2.281 (Simulation time: 00 hr 36 min 37 sec)
Heartbeat CPU 0 instructions: 100000000 cycles: 34112005 heartbeat IPC: 2.476 cumulative IPC: 2.318 (Simulation time: 00 hr 41 min 16 sec)
Heartbeat CPU 0 instructions: 110000000 cycles: 38329736 heartbeat IPC: 2.371 cumulative IPC: 2.326 (Simulation time: 00 hr 45 min 58 sec)
Heartbeat CPU 0 instructions: 120000001 cycles: 42325577 heartbeat IPC: 2.503 cumulative IPC: 2.35 (Simulation time: 00 hr 50 min 35 sec)
Heartbeat CPU 0 instructions: 130000001 cycles: 46043951 heartbeat IPC: 2.689 cumulative IPC: 2.388 (Simulation time: 00 hr 55 min 06 sec)
Heartbeat CPU 0 instructions: 140000001 cycles: 50182401 heartbeat IPC: 2.416 cumulative IPC: 2.391 (Simulation time: 00 hr 59 min 48 sec)
Heartbeat CPU 0 instructions: 150000001 cycles: 54359917 heartbeat IPC: 2.394 cumulative IPC: 2.391 (Simulation time: 01 hr 04 min 31 sec)
Heartbeat CPU 0 instructions: 160000004 cycles: 58750745 heartbeat IPC: 2.277 cumulative IPC: 2.38 (Simulation time: 01 hr 09 min 22 sec)
Heartbeat CPU 0 instructions: 170000000 cycles: 66093666 heartbeat IPC: 1.362 cumulative IPC: 2.241 (Simulation time: 01 hr 16 min 11 sec)
Heartbeat CPU 0 instructions: 180000004 cycles: 72749641 heartbeat IPC: 1.502 cumulative IPC: 2.159 (Simulation time: 01 hr 22 min 43 sec)
Heartbeat CPU 0 instructions: 190000001 cycles: 78628323 heartbeat IPC: 1.701 cumulative IPC: 2.118 (Simulation time: 01 hr 28 min 45 sec)
Heartbeat CPU 0 instructions: 200000004 cycles: 82130311 heartbeat IPC: 2.856 cumulative IPC: 2.155 (Simulation time: 01 hr 33 min 05 sec)
Heartbeat CPU 0 instructions: 210000001 cycles: 85841192 heartbeat IPC: 2.695 cumulative IPC: 2.183 (Simulation time: 01 hr 37 min 33 sec)
Heartbeat CPU 0 instructions: 220000000 cycles: 89671668 heartbeat IPC: 2.611 cumulative IPC: 2.204 (Simulation time: 01 hr 42 min 04 sec)
Heartbeat CPU 0 instructions: 230000002 cycles: 93915884 heartbeat IPC: 2.356 cumulative IPC: 2.212 (Simulation time: 01 hr 46 min 45 sec)
Heartbeat CPU 0 instructions: 240000000 cycles: 97847192 heartbeat IPC: 2.544 cumulative IPC: 2.227 (Simulation time: 01 hr 51 min 20 sec)
Heartbeat CPU 0 instructions: 250000000 cycles: 101842509 heartbeat IPC: 2.503 cumulative IPC: 2.24 (Simulation time: 01 hr 55 min 57 sec)
Heartbeat CPU 0 instructions: 260000000 cycles: 105702938 heartbeat IPC: 2.59 cumulative IPC: 2.254 (Simulation time: 02 hr 00 min 28 sec)
Heartbeat CPU 0 instructions: 270000002 cycles: 109333894 heartbeat IPC: 2.754 cumulative IPC: 2.273 (Simulation time: 02 hr 04 min 42 sec)
Heartbeat CPU 0 instructions: 280000002 cycles: 113261383 heartbeat IPC: 2.546 cumulative IPC: 2.283 (Simulation time: 02 hr 08 min 57 sec)
Heartbeat CPU 0 instructions: 290000001 cycles: 116958378 heartbeat IPC: 2.705 cumulative IPC: 2.298 (Simulation time: 02 hr 13 min 15 sec)
Heartbeat CPU 0 instructions: 300000003 cycles: 120483779 heartbeat IPC: 2.837 cumulative IPC: 2.316 (Simulation time: 02 hr 17 min 27 sec)
Heartbeat CPU 0 instructions: 310000001 cycles: 124267505 heartbeat IPC: 2.643 cumulative IPC: 2.327 (Simulation time: 02 hr 21 min 50 sec)
Heartbeat CPU 0 instructions: 320000003 cycles: 128081416 heartbeat IPC: 2.622 cumulative IPC: 2.337 (Simulation time: 02 hr 26 min 17 sec)
Heartbeat CPU 0 instructions: 330000003 cycles: 132107790 heartbeat IPC: 2.484 cumulative IPC: 2.342 (Simulation time: 02 hr 30 min 51 sec)
Heartbeat CPU 0 instructions: 340000000 cycles: 138099885 heartbeat IPC: 1.669 cumulative IPC: 2.31 (Simulation time: 02 hr 36 min 49 sec)
Heartbeat CPU 0 instructions: 350000000 cycles: 144855719 heartbeat IPC: 1.48 cumulative IPC: 2.267 (Simulation time: 02 hr 43 min 23 sec)
Heartbeat CPU 0 instructions: 360000004 cycles: 150973320 heartbeat IPC: 1.635 cumulative IPC: 2.239 (Simulation time: 02 hr 49 min 31 sec)
Heartbeat CPU 0 instructions: 370000000 cycles: 154213901 heartbeat IPC: 3.086 cumulative IPC: 2.259 (Simulation time: 02 hr 53 min 43 sec)
Heartbeat CPU 0 instructions: 380000001 cycles: 157436296 heartbeat IPC: 3.103 cumulative IPC: 2.277 (Simulation time: 02 hr 57 min 57 sec)
Heartbeat CPU 0 instructions: 390000004 cycles: 161041867 heartbeat IPC: 2.773 cumulative IPC: 2.289 (Simulation time: 03 hr 02 min 22 sec)
Heartbeat CPU 0 instructions: 400000004 cycles: 164770961 heartbeat IPC: 2.682 cumulative IPC: 2.299 (Simulation time: 03 hr 06 min 51 sec)
Heartbeat CPU 0 instructions: 410000001 cycles: 168201543 heartbeat IPC: 2.915 cumulative IPC: 2.313 (Simulation time: 03 hr 11 min 05 sec)
Heartbeat CPU 0 instructions: 420000003 cycles: 171907484 heartbeat IPC: 2.698 cumulative IPC: 2.322 (Simulation time: 03 hr 15 min 29 sec)
Heartbeat CPU 0 instructions: 430000001 cycles: 175400484 heartbeat IPC: 2.863 cumulative IPC: 2.333 (Simulation time: 03 hr 19 min 51 sec)
Heartbeat CPU 0 instructions: 440000004 cycles: 179211604 heartbeat IPC: 2.624 cumulative IPC: 2.34 (Simulation time: 03 hr 24 min 23 sec)
Heartbeat CPU 0 instructions: 450000002 cycles: 182702733 heartbeat IPC: 2.864 cumulative IPC: 2.351 (Simulation time: 03 hr 28 min 44 sec)
Heartbeat CPU 0 instructions: 460000000 cycles: 186166197 heartbeat IPC: 2.887 cumulative IPC: 2.361 (Simulation time: 03 hr 33 min 02 sec)
Heartbeat CPU 0 instructions: 470000000 cycles: 189452028 heartbeat IPC: 3.043 cumulative IPC: 2.374 (Simulation time: 03 hr 37 min 18 sec)
Heartbeat CPU 0 instructions: 480000003 cycles: 193062109 heartbeat IPC: 2.77 cumulative IPC: 2.382 (Simulation time: 03 hr 41 min 39 sec)
Heartbeat CPU 0 instructions: 490000000 cycles: 196552424 heartbeat IPC: 2.865 cumulative IPC: 2.391 (Simulation time: 03 hr 45 min 58 sec)
Heartbeat CPU 0 instructions: 500000000 cycles: 200115035 heartbeat IPC: 2.807 cumulative IPC: 2.399 (Simulation time: 03 hr 50 min 19 sec)
Heartbeat CPU 0 instructions: 510000003 cycles: 203541095 heartbeat IPC: 2.919 cumulative IPC: 2.408 (Simulation time: 03 hr 54 min 44 sec)
Heartbeat CPU 0 instructions: 520000001 cycles: 206714464 heartbeat IPC: 3.151 cumulative IPC: 2.42 (Simulation time: 03 hr 58 min 59 sec)
Heartbeat CPU 0 instructions: 530000002 cycles: 210189640 heartbeat IPC: 2.878 cumulative IPC: 2.429 (Simulation time: 04 hr 03 min 18 sec)
Heartbeat CPU 0 instructions: 540000000 cycles: 213516689 heartbeat IPC: 3.006 cumulative IPC: 2.438 (Simulation time: 04 hr 07 min 35 sec)
Heartbeat CPU 0 instructions: 550000001 cycles: 217045420 heartbeat IPC: 2.834 cumulative IPC: 2.445 (Simulation time: 04 hr 11 min 59 sec)
Heartbeat CPU 0 instructions: 560000000 cycles: 220710463 heartbeat IPC: 2.728 cumulative IPC: 2.45 (Simulation time: 04 hr 16 min 35 sec)
Heartbeat CPU 0 instructions: 570000004 cycles: 225272323 heartbeat IPC: 2.192 cumulative IPC: 2.444 (Simulation time: 04 hr 21 min 42 sec)
Heartbeat CPU 0 instructions: 580000003 cycles: 231967170 heartbeat IPC: 1.494 cumulative IPC: 2.415 (Simulation time: 04 hr 28 min 19 sec)
Heartbeat CPU 0 instructions: 590000002 cycles: 239089452 heartbeat IPC: 1.404 cumulative IPC: 2.384 (Simulation time: 04 hr 35 min 17 sec)
Heartbeat CPU 0 instructions: 600000000 cycles: 242596417 heartbeat IPC: 2.851 cumulative IPC: 2.391 (Simulation time: 04 hr 39 min 44 sec)
Heartbeat CPU 0 instructions: 610000000 cycles: 246275996 heartbeat IPC: 2.718 cumulative IPC: 2.396 (Simulation time: 04 hr 44 min 10 sec)
Heartbeat CPU 0 instructions: 620000001 cycles: 249607130 heartbeat IPC: 3.002 cumulative IPC: 2.404 (Simulation time: 04 hr 48 min 30 sec)
Heartbeat CPU 0 instructions: 630000002 cycles: 253720333 heartbeat IPC: 2.431 cumulative IPC: 2.405 (Simulation time: 04 hr 53 min 25 sec)
Heartbeat CPU 0 instructions: 640000001 cycles: 257549537 heartbeat IPC: 2.612 cumulative IPC: 2.408 (Simulation time: 04 hr 58 min 01 sec)
Heartbeat CPU 0 instructions: 650000000 cycles: 261242635 heartbeat IPC: 2.708 cumulative IPC: 2.412 (Simulation time: 05 hr 02 min 30 sec)
Simulation finished CPU 0 instructions: 600000001 cycles: 248705500 cumulative IPC: 2.412 (Simulation time: 05 hr 02 min 30 sec)
Simulation complete CPU 0 instructions: 600000001 cycles: 248705500 cumulative IPC: 2.412 (Simulation time: 05 hr 02 min 30 sec)

ChampSim completed all CPUs

=== Simulation ===
CPU 0 runs traces/400.perlbench-41B.champsimtrace.xz
Region of Interest Statistics

CPU 0 cumulative IPC: 2.412 instructions: 600000001 cycles: 248705500
CPU 0 Branch Prediction Accuracy: 96.56% MPKI: 7.112 Average ROB Occupancy at Mispredict: 46.69
Branch type MPKI
BRANCH_DIRECT_JUMP: 0.0123
BRANCH_INDIRECT: 0.323
BRANCH_CONDITIONAL: 6.56
BRANCH_DIRECT_CALL: 0.0043
BRANCH_INDIRECT_CALL: 0.2
BRANCH_RETURN: 0.00828

LLC TOTAL        ACCESS:     539775 HIT:     489204 MISS:      50571
LLC LOAD         ACCESS:     402742 HIT:     363158 MISS:      39584
LLC RFO          ACCESS:      32528 HIT:      28191 MISS:       4337
LLC PREFETCH     ACCESS:          0 HIT:          0 MISS:          0
LLC WRITE        ACCESS:      85510 HIT:      85491 MISS:         19
LLC TRANSLATION  ACCESS:      18995 HIT:      12364 MISS:       6631
LLC PREFETCH REQUESTED:          0 ISSUED:          0 USEFUL:          0 USELESS:          0
LLC AVERAGE MISS LATENCY: 489.6 cycles
cpu0_DTLB TOTAL        ACCESS:  141906004 HIT:  141220960 MISS:     685044
cpu0_DTLB LOAD         ACCESS:  141906004 HIT:  141220960 MISS:     685044
cpu0_DTLB RFO          ACCESS:          0 HIT:          0 MISS:          0
cpu0_DTLB PREFETCH     ACCESS:          0 HIT:          0 MISS:          0
cpu0_DTLB WRITE        ACCESS:          0 HIT:          0 MISS:          0
cpu0_DTLB TRANSLATION  ACCESS:          0 HIT:          0 MISS:          0
cpu0_DTLB PREFETCH REQUESTED:          0 ISSUED:          0 USEFUL:          0 USELESS:          0
cpu0_DTLB AVERAGE MISS LATENCY: 10.51 cycles
cpu0_ITLB TOTAL        ACCESS:    4857298 HIT:    4804184 MISS:      53114
cpu0_ITLB LOAD         ACCESS:    4857298 HIT:    4804184 MISS:      53114
cpu0_ITLB RFO          ACCESS:          0 HIT:          0 MISS:          0
cpu0_ITLB PREFETCH     ACCESS:          0 HIT:          0 MISS:          0
cpu0_ITLB WRITE        ACCESS:          0 HIT:          0 MISS:          0
cpu0_ITLB TRANSLATION  ACCESS:          0 HIT:          0 MISS:          0
cpu0_ITLB PREFETCH REQUESTED:          0 ISSUED:          0 USEFUL:          0 USELESS:          0
cpu0_ITLB AVERAGE MISS LATENCY: 5.097 cycles
cpu0_L1D TOTAL        ACCESS:  188591045 HIT:  186911042 MISS:    1680003
cpu0_L1D LOAD         ACCESS:  105224402 HIT:  103909151 MISS:    1315251
cpu0_L1D RFO          ACCESS:          0 HIT:          0 MISS:          0
cpu0_L1D PREFETCH     ACCESS:          0 HIT:          0 MISS:          0
cpu0_L1D WRITE        ACCESS:   83342178 HIT:   83000826 MISS:     341352
cpu0_L1D TRANSLATION  ACCESS:      24465 HIT:       1065 MISS:      23400
cpu0_L1D PREFETCH REQUESTED:          0 ISSUED:          0 USEFUL:          0 USELESS:          0
cpu0_L1D AVERAGE MISS LATENCY: 23.03 cycles
cpu0_L1I TOTAL        ACCESS:    5595323 HIT:    4852087 MISS:     743236
cpu0_L1I LOAD         ACCESS:    5595323 HIT:    4852087 MISS:     743236
cpu0_L1I RFO          ACCESS:          0 HIT:          0 MISS:          0
cpu0_L1I PREFETCH     ACCESS:          0 HIT:          0 MISS:          0
cpu0_L1I WRITE        ACCESS:          0 HIT:          0 MISS:          0
cpu0_L1I TRANSLATION  ACCESS:          0 HIT:          0 MISS:          0
cpu0_L1I PREFETCH REQUESTED:          0 ISSUED:          0 USEFUL:          0 USELESS:          0
cpu0_L1I AVERAGE MISS LATENCY: 9.121 cycles
cpu0_L2C TOTAL        ACCESS:    1666214 HIT:    1210158 MISS:     456056
cpu0_L2C LOAD         ACCESS:    1316039 HIT:     913297 MISS:     402742
cpu0_L2C RFO          ACCESS:      88297 HIT:      55769 MISS:      32528
cpu0_L2C PREFETCH     ACCESS:          0 HIT:          0 MISS:          0
cpu0_L2C WRITE        ACCESS:     238547 HIT:     236756 MISS:       1791
cpu0_L2C TRANSLATION  ACCESS:      23331 HIT:       4336 MISS:      18995
cpu0_L2C PREFETCH REQUESTED:          0 ISSUED:          0 USEFUL:          0 USELESS:          0
cpu0_L2C AVERAGE MISS LATENCY: 74.33 cycles
cpu0_STLB TOTAL        ACCESS:     506644 HIT:     483850 MISS:      22794
cpu0_STLB LOAD         ACCESS:     506644 HIT:     483850 MISS:      22794
cpu0_STLB RFO          ACCESS:          0 HIT:          0 MISS:          0
cpu0_STLB PREFETCH     ACCESS:          0 HIT:          0 MISS:          0
cpu0_STLB WRITE        ACCESS:          0 HIT:          0 MISS:          0
cpu0_STLB TRANSLATION  ACCESS:          0 HIT:          0 MISS:          0
cpu0_STLB PREFETCH REQUESTED:          0 ISSUED:          0 USEFUL:          0 USELESS:          0
cpu0_STLB AVERAGE MISS LATENCY: 184.5 cycles

DRAM Statistics

Channel 0 RQ ROW_BUFFER_HIT:      13150
  ROW_BUFFER_MISS:      37402
 AVG DBUS CONGESTED CYCLE: 3.696
WQ ROW_BUFFER_HIT: Channel 0 
  ROW_BUFFER_MISS:        628
  FULL:       1114
