WARNING: physical memory size is smaller than virtual memory size.

*** ChampSim Multicore Out-of-Order Simulator ***
Warmup Instructions: 50000000
Simulation Instructions: 600000000
Number of CPUs: 1
Page size: 4096

Off-chip DRAM Size: 4 GiB Channels: 1 Width: 64-bit Data Race: 3200 MT/s
Heartbeat CPU 0 instructions: 10000001 cycles: 2500318 heartbeat IPC: 3.999 cumulative IPC: 3.999 (Simulation time: 00 hr 00 min 37 sec)
Heartbeat CPU 0 instructions: 20000002 cycles: 5037110 heartbeat IPC: 3.942 cumulative IPC: 3.971 (Simulation time: 00 hr 01 min 13 sec)
Heartbeat CPU 0 instructions: 30000002 cycles: 7537110 heartbeat IPC: 4 cumulative IPC: 3.98 (Simulation time: 00 hr 01 min 48 sec)
Heartbeat CPU 0 instructions: 40000002 cycles: 10037110 heartbeat IPC: 4 cumulative IPC: 3.985 (Simulation time: 00 hr 02 min 24 sec)
Heartbeat CPU 0 instructions: 50000002 cycles: 12537110 heartbeat IPC: 4 cumulative IPC: 3.988 (Simulation time: 00 hr 03 min 00 sec)
Warmup finished CPU 0 instructions: 50000002 cycles: 12537111 cumulative IPC: 3.988 (Simulation time: 00 hr 03 min 00 sec)
Warmup complete CPU 0 instructions: 50000002 cycles: 12537111 cumulative IPC: 3.988 (Simulation time: 00 hr 03 min 00 sec)
Heartbeat CPU 0 instructions: 60000000 cycles: 17678454 heartbeat IPC: 1.945 cumulative IPC: 1.945 (Simulation time: 00 hr 03 min 51 sec)
Heartbeat CPU 0 instructions: 70000002 cycles: 22551878 heartbeat IPC: 2.052 cumulative IPC: 1.997 (Simulation time: 00 hr 04 min 40 sec)
Heartbeat CPU 0 instructions: 80000001 cycles: 27893077 heartbeat IPC: 1.872 cumulative IPC: 1.954 (Simulation time: 00 hr 05 min 29 sec)
Heartbeat CPU 0 instructions: 90000001 cycles: 32754913 heartbeat IPC: 2.057 cumulative IPC: 1.978 (Simulation time: 00 hr 06 min 14 sec)
Heartbeat CPU 0 instructions: 100000000 cycles: 37848071 heartbeat IPC: 1.963 cumulative IPC: 1.975 (Simulation time: 00 hr 07 min 00 sec)
Heartbeat CPU 0 instructions: 110000000 cycles: 42717292 heartbeat IPC: 2.054 cumulative IPC: 1.988 (Simulation time: 00 hr 07 min 44 sec)
Heartbeat CPU 0 instructions: 120000001 cycles: 47888667 heartbeat IPC: 1.934 cumulative IPC: 1.98 (Simulation time: 00 hr 08 min 30 sec)
Heartbeat CPU 0 instructions: 130000001 cycles: 53018736 heartbeat IPC: 1.949 cumulative IPC: 1.976 (Simulation time: 00 hr 09 min 16 sec)
Heartbeat CPU 0 instructions: 140000001 cycles: 58295955 heartbeat IPC: 1.895 cumulative IPC: 1.967 (Simulation time: 00 hr 10 min 01 sec)
Heartbeat CPU 0 instructions: 150000001 cycles: 63585674 heartbeat IPC: 1.89 cumulative IPC: 1.959 (Simulation time: 00 hr 10 min 47 sec)
Heartbeat CPU 0 instructions: 160000004 cycles: 68749091 heartbeat IPC: 1.937 cumulative IPC: 1.957 (Simulation time: 00 hr 11 min 32 sec)
Heartbeat CPU 0 instructions: 170000000 cycles: 76404338 heartbeat IPC: 1.306 cumulative IPC: 1.879 (Simulation time: 00 hr 12 min 30 sec)
Heartbeat CPU 0 instructions: 180000004 cycles: 82940243 heartbeat IPC: 1.53 cumulative IPC: 1.847 (Simulation time: 00 hr 13 min 25 sec)
Heartbeat CPU 0 instructions: 190000001 cycles: 89072682 heartbeat IPC: 1.631 cumulative IPC: 1.829 (Simulation time: 00 hr 14 min 18 sec)
Heartbeat CPU 0 instructions: 200000003 cycles: 93546144 heartbeat IPC: 2.235 cumulative IPC: 1.852 (Simulation time: 00 hr 15 min 00 sec)
Heartbeat CPU 0 instructions: 210000001 cycles: 98235009 heartbeat IPC: 2.133 cumulative IPC: 1.867 (Simulation time: 00 hr 15 min 43 sec)
Heartbeat CPU 0 instructions: 220000000 cycles: 102923556 heartbeat IPC: 2.133 cumulative IPC: 1.881 (Simulation time: 00 hr 16 min 27 sec)
Heartbeat CPU 0 instructions: 230000002 cycles: 107778098 heartbeat IPC: 2.06 cumulative IPC: 1.89 (Simulation time: 00 hr 17 min 10 sec)
Heartbeat CPU 0 instructions: 240000000 cycles: 112339521 heartbeat IPC: 2.192 cumulative IPC: 1.904 (Simulation time: 00 hr 17 min 53 sec)
Heartbeat CPU 0 instructions: 250000000 cycles: 117152484 heartbeat IPC: 2.078 cumulative IPC: 1.912 (Simulation time: 00 hr 18 min 37 sec)
Heartbeat CPU 0 instructions: 260000000 cycles: 121836795 heartbeat IPC: 2.135 cumulative IPC: 1.921 (Simulation time: 00 hr 19 min 20 sec)
Heartbeat CPU 0 instructions: 270000002 cycles: 126490001 heartbeat IPC: 2.149 cumulative IPC: 1.931 (Simulation time: 00 hr 20 min 03 sec)
Heartbeat CPU 0 instructions: 280000002 cycles: 131138332 heartbeat IPC: 2.151 cumulative IPC: 1.939 (Simulation time: 00 hr 20 min 46 sec)
Heartbeat CPU 0 instructions: 290000001 cycles: 136295231 heartbeat IPC: 1.939 cumulative IPC: 1.939 (Simulation time: 00 hr 21 min 31 sec)
Heartbeat CPU 0 instructions: 300000003 cycles: 141021138 heartbeat IPC: 2.116 cumulative IPC: 1.946 (Simulation time: 00 hr 22 min 14 sec)
Heartbeat CPU 0 instructions: 310000001 cycles: 145947296 heartbeat IPC: 2.03 cumulative IPC: 1.949 (Simulation time: 00 hr 22 min 58 sec)
Heartbeat CPU 0 instructions: 320000003 cycles: 150870972 heartbeat IPC: 2.031 cumulative IPC: 1.952 (Simulation time: 00 hr 23 min 43 sec)
Heartbeat CPU 0 instructions: 330000003 cycles: 155770637 heartbeat IPC: 2.041 cumulative IPC: 1.955 (Simulation time: 00 hr 24 min 26 sec)
Heartbeat CPU 0 instructions: 340000000 cycles: 162036255 heartbeat IPC: 1.596 cumulative IPC: 1.94 (Simulation time: 00 hr 25 min 20 sec)
Heartbeat CPU 0 instructions: 350000000 cycles: 168725433 heartbeat IPC: 1.495 cumulative IPC: 1.921 (Simulation time: 00 hr 26 min 17 sec)
Heartbeat CPU 0 instructions: 360000004 cycles: 175026977 heartbeat IPC: 1.587 cumulative IPC: 1.908 (Simulation time: 00 hr 27 min 11 sec)
Heartbeat CPU 0 instructions: 370000000 cycles: 179223007 heartbeat IPC: 2.383 cumulative IPC: 1.92 (Simulation time: 00 hr 27 min 52 sec)
Heartbeat CPU 0 instructions: 380000001 cycles: 183933147 heartbeat IPC: 2.123 cumulative IPC: 1.925 (Simulation time: 00 hr 28 min 36 sec)
Heartbeat CPU 0 instructions: 390000002 cycles: 188607188 heartbeat IPC: 2.139 cumulative IPC: 1.931 (Simulation time: 00 hr 29 min 19 sec)
Heartbeat CPU 0 instructions: 400000004 cycles: 193440509 heartbeat IPC: 2.069 cumulative IPC: 1.935 (Simulation time: 00 hr 30 min 03 sec)
Heartbeat CPU 0 instructions: 410000000 cycles: 197923389 heartbeat IPC: 2.231 cumulative IPC: 1.942 (Simulation time: 00 hr 30 min 45 sec)
Heartbeat CPU 0 instructions: 420000000 cycles: 202696647 heartbeat IPC: 2.095 cumulative IPC: 1.946 (Simulation time: 00 hr 31 min 29 sec)
Heartbeat CPU 0 instructions: 430000001 cycles: 206976492 heartbeat IPC: 2.337 cumulative IPC: 1.954 (Simulation time: 00 hr 32 min 12 sec)
Heartbeat CPU 0 instructions: 440000000 cycles: 212046288 heartbeat IPC: 1.972 cumulative IPC: 1.955 (Simulation time: 00 hr 32 min 57 sec)
Heartbeat CPU 0 instructions: 450000002 cycles: 216464438 heartbeat IPC: 2.263 cumulative IPC: 1.961 (Simulation time: 00 hr 33 min 39 sec)
Heartbeat CPU 0 instructions: 460000000 cycles: 221038568 heartbeat IPC: 2.186 cumulative IPC: 1.966 (Simulation time: 00 hr 34 min 22 sec)
Heartbeat CPU 0 instructions: 470000000 cycles: 225825832 heartbeat IPC: 2.089 cumulative IPC: 1.969 (Simulation time: 00 hr 35 min 05 sec)
Heartbeat CPU 0 instructions: 480000003 cycles: 230383531 heartbeat IPC: 2.194 cumulative IPC: 1.974 (Simulation time: 00 hr 35 min 47 sec)
Heartbeat CPU 0 instructions: 490000000 cycles: 234838308 heartbeat IPC: 2.245 cumulative IPC: 1.979 (Simulation time: 00 hr 36 min 29 sec)
Heartbeat CPU 0 instructions: 500000000 cycles: 239714847 heartbeat IPC: 2.051 cumulative IPC: 1.981 (Simulation time: 00 hr 37 min 14 sec)
Heartbeat CPU 0 instructions: 510000003 cycles: 245093035 heartbeat IPC: 1.859 cumulative IPC: 1.978 (Simulation time: 00 hr 38 min 00 sec)
Heartbeat CPU 0 instructions: 520000001 cycles: 249514383 heartbeat IPC: 2.262 cumulative IPC: 1.983 (Simulation time: 00 hr 38 min 43 sec)
Heartbeat CPU 0 instructions: 530000002 cycles: 254443140 heartbeat IPC: 2.029 cumulative IPC: 1.984 (Simulation time: 00 hr 39 min 27 sec)
Heartbeat CPU 0 instructions: 540000000 cycles: 259339943 heartbeat IPC: 2.042 cumulative IPC: 1.985 (Simulation time: 00 hr 40 min 11 sec)
Heartbeat CPU 0 instructions: 550000001 cycles: 263966150 heartbeat IPC: 2.162 cumulative IPC: 1.989 (Simulation time: 00 hr 40 min 54 sec)
Heartbeat CPU 0 instructions: 560000000 cycles: 268856461 heartbeat IPC: 2.045 cumulative IPC: 1.99 (Simulation time: 00 hr 41 min 36 sec)
Heartbeat CPU 0 instructions: 570000004 cycles: 274145903 heartbeat IPC: 1.891 cumulative IPC: 1.988 (Simulation time: 00 hr 42 min 22 sec)
Heartbeat CPU 0 instructions: 580000003 cycles: 280856104 heartbeat IPC: 1.49 cumulative IPC: 1.975 (Simulation time: 00 hr 43 min 16 sec)
Heartbeat CPU 0 instructions: 590000002 cycles: 287819516 heartbeat IPC: 1.436 cumulative IPC: 1.962 (Simulation time: 00 hr 44 min 10 sec)
Heartbeat CPU 0 instructions: 600000000 cycles: 292150567 heartbeat IPC: 2.309 cumulative IPC: 1.967 (Simulation time: 00 hr 44 min 48 sec)
Heartbeat CPU 0 instructions: 610000002 cycles: 296448284 heartbeat IPC: 2.327 cumulative IPC: 1.972 (Simulation time: 00 hr 45 min 23 sec)
Heartbeat CPU 0 instructions: 620000000 cycles: 301142654 heartbeat IPC: 2.13 cumulative IPC: 1.975 (Simulation time: 00 hr 46 min 01 sec)
Heartbeat CPU 0 instructions: 630000002 cycles: 306054724 heartbeat IPC: 2.036 cumulative IPC: 1.976 (Simulation time: 00 hr 46 min 37 sec)
Heartbeat CPU 0 instructions: 640000001 cycles: 310831937 heartbeat IPC: 2.093 cumulative IPC: 1.978 (Simulation time: 00 hr 47 min 05 sec)
Heartbeat CPU 0 instructions: 650000000 cycles: 315316419 heartbeat IPC: 2.23 cumulative IPC: 1.982 (Simulation time: 00 hr 47 min 32 sec)
Simulation finished CPU 0 instructions: 600000001 cycles: 302779310 cumulative IPC: 1.982 (Simulation time: 00 hr 47 min 32 sec)
Simulation complete CPU 0 instructions: 600000001 cycles: 302779310 cumulative IPC: 1.982 (Simulation time: 00 hr 47 min 32 sec)

ChampSim completed all CPUs

=== Simulation ===
CPU 0 runs traces/400.perlbench-41B.champsimtrace.xz
Region of Interest Statistics

CPU 0 cumulative IPC: 1.982 instructions: 600000001 cycles: 302779310
CPU 0 Branch Prediction Accuracy: 93.95% MPKI: 12.5 Average ROB Occupancy at Mispredict: 29.26
Branch type MPKI
BRANCH_DIRECT_JUMP: 0.0123
BRANCH_INDIRECT: 0.323
BRANCH_CONDITIONAL: 12
BRANCH_DIRECT_CALL: 0.0043
BRANCH_INDIRECT_CALL: 0.2
BRANCH_RETURN: 0.00828

LLC TOTAL        ACCESS:     595631 HIT:     547339 MISS:      48292
LLC LOAD         ACCESS:     403722 HIT:     370970 MISS:      32752
LLC RFO          ACCESS:      32585 HIT:      28416 MISS:       4169
LLC PREFETCH     ACCESS:      54304 HIT:      49664 MISS:       4640
LLC WRITE        ACCESS:      85815 HIT:      85687 MISS:        128
LLC TRANSLATION  ACCESS:      19205 HIT:      12602 MISS:       6603
LLC PREFETCH REQUESTED:      54304 ISSUED:      54304 USEFUL:       2983 USELESS:        130
LLC AVERAGE MISS LATENCY: 491 cycles
cpu0_DTLB TOTAL        ACCESS:  153697546 HIT:  153021078 MISS:     676468
cpu0_DTLB LOAD         ACCESS:  153697546 HIT:  153021078 MISS:     676468
cpu0_DTLB RFO          ACCESS:          0 HIT:          0 MISS:          0
cpu0_DTLB PREFETCH     ACCESS:          0 HIT:          0 MISS:          0
cpu0_DTLB WRITE        ACCESS:          0 HIT:          0 MISS:          0
cpu0_DTLB TRANSLATION  ACCESS:          0 HIT:          0 MISS:          0
cpu0_DTLB PREFETCH REQUESTED:          0 ISSUED:          0 USEFUL:          0 USELESS:          0
cpu0_DTLB AVERAGE MISS LATENCY: 10.63 cycles
cpu0_ITLB TOTAL        ACCESS:    4838999 HIT:    4781148 MISS:      57851
cpu0_ITLB LOAD         ACCESS:    4838999 HIT:    4781148 MISS:      57851
cpu0_ITLB RFO          ACCESS:          0 HIT:          0 MISS:          0
cpu0_ITLB PREFETCH     ACCESS:          0 HIT:          0 MISS:          0
cpu0_ITLB WRITE        ACCESS:          0 HIT:          0 MISS:          0
cpu0_ITLB TRANSLATION  ACCESS:          0 HIT:          0 MISS:          0
cpu0_ITLB PREFETCH REQUESTED:          0 ISSUED:          0 USEFUL:          0 USELESS:          0
cpu0_ITLB AVERAGE MISS LATENCY: 4.382 cycles
cpu0_L1D TOTAL        ACCESS:  200329936 HIT:  198650010 MISS:    1679926
cpu0_L1D LOAD         ACCESS:  117086902 HIT:  115774267 MISS:    1312635
cpu0_L1D RFO          ACCESS:          0 HIT:          0 MISS:          0
cpu0_L1D PREFETCH     ACCESS:          0 HIT:          0 MISS:          0
cpu0_L1D WRITE        ACCESS:   83218566 HIT:   82874699 MISS:     343867
cpu0_L1D TRANSLATION  ACCESS:      24468 HIT:       1044 MISS:      23424
cpu0_L1D PREFETCH REQUESTED:          0 ISSUED:          0 USEFUL:          0 USELESS:          0
cpu0_L1D AVERAGE MISS LATENCY: 20.97 cycles
cpu0_L1I TOTAL        ACCESS:    5581279 HIT:    4819746 MISS:     761533
cpu0_L1I LOAD         ACCESS:    5581279 HIT:    4819746 MISS:     761533
cpu0_L1I RFO          ACCESS:          0 HIT:          0 MISS:          0
cpu0_L1I PREFETCH     ACCESS:          0 HIT:          0 MISS:          0
cpu0_L1I WRITE        ACCESS:          0 HIT:          0 MISS:          0
cpu0_L1I TRANSLATION  ACCESS:          0 HIT:          0 MISS:          0
cpu0_L1I PREFETCH REQUESTED:          0 ISSUED:          0 USEFUL:          0 USELESS:          0
cpu0_L1I AVERAGE MISS LATENCY: 8.726 cycles
cpu0_L2C TOTAL        ACCESS:    1668145 HIT:    1210823 MISS:     457322
cpu0_L2C LOAD         ACCESS:    1317191 HIT:     913469 MISS:     403722
cpu0_L2C RFO          ACCESS:      88573 HIT:      55988 MISS:      32585
cpu0_L2C PREFETCH     ACCESS:          0 HIT:          0 MISS:          0
cpu0_L2C WRITE        ACCESS:     239036 HIT:     237226 MISS:       1810
cpu0_L2C TRANSLATION  ACCESS:      23345 HIT:       4140 MISS:      19205
cpu0_L2C PREFETCH REQUESTED:          0 ISSUED:          0 USEFUL:          0 USELESS:          0
cpu0_L2C AVERAGE MISS LATENCY: 65.69 cycles
cpu0_STLB TOTAL        ACCESS:     505103 HIT:     482314 MISS:      22789
cpu0_STLB LOAD         ACCESS:     505103 HIT:     482314 MISS:      22789
cpu0_STLB RFO          ACCESS:          0 HIT:          0 MISS:          0
cpu0_STLB PREFETCH     ACCESS:          0 HIT:          0 MISS:          0
cpu0_STLB WRITE        ACCESS:          0 HIT:          0 MISS:          0
cpu0_STLB TRANSLATION  ACCESS:          0 HIT:          0 MISS:          0
cpu0_STLB PREFETCH REQUESTED:          0 ISSUED:          0 USEFUL:          0 USELESS:          0
cpu0_STLB AVERAGE MISS LATENCY: 181.2 cycles

DRAM Statistics

Channel 0 RQ ROW_BUFFER_HIT:      13632
  ROW_BUFFER_MISS:      34010
 AVG DBUS CONGESTED CYCLE: 3.729
WQ ROW_BUFFER_HIT: Channel 0 
  ROW_BUFFER_MISS:        419
  FULL:        925
