WARNING: physical memory size is smaller than virtual memory size.

*** ChampSim Multicore Out-of-Order Simulator ***
Warmup Instructions: 50000000
Simulation Instructions: 600000000
Number of CPUs: 1
Page size: 4096

CPU 0 Tage branch predictor
Off-chip DRAM Size: 4 GiB Channels: 1 Width: 64-bit Data Race: 3200 MT/s
Heartbeat CPU 0 instructions: 10000001 cycles: 2500318 heartbeat IPC: 3.999 cumulative IPC: 3.999 (Simulation time: 00 hr 00 min 41 sec)
Heartbeat CPU 0 instructions: 20000002 cycles: 5037121 heartbeat IPC: 3.942 cumulative IPC: 3.971 (Simulation time: 00 hr 01 min 26 sec)
Heartbeat CPU 0 instructions: 30000002 cycles: 7537121 heartbeat IPC: 4 cumulative IPC: 3.98 (Simulation time: 00 hr 02 min 06 sec)
Heartbeat CPU 0 instructions: 40000002 cycles: 10037121 heartbeat IPC: 4 cumulative IPC: 3.985 (Simulation time: 00 hr 02 min 46 sec)
Heartbeat CPU 0 instructions: 50000002 cycles: 12537121 heartbeat IPC: 4 cumulative IPC: 3.988 (Simulation time: 00 hr 03 min 27 sec)
Warmup finished CPU 0 instructions: 50000002 cycles: 12537122 cumulative IPC: 3.988 (Simulation time: 00 hr 03 min 27 sec)
Warmup complete CPU 0 instructions: 50000002 cycles: 12537122 cumulative IPC: 3.988 (Simulation time: 00 hr 03 min 27 sec)
Heartbeat CPU 0 instructions: 60000001 cycles: 15535261 heartbeat IPC: 3.335 cumulative IPC: 3.335 (Simulation time: 00 hr 04 min 15 sec)
Heartbeat CPU 0 instructions: 70000004 cycles: 18611695 heartbeat IPC: 3.251 cumulative IPC: 3.292 (Simulation time: 00 hr 05 min 04 sec)
Heartbeat CPU 0 instructions: 80000001 cycles: 21661089 heartbeat IPC: 3.279 cumulative IPC: 3.288 (Simulation time: 00 hr 05 min 53 sec)
Heartbeat CPU 0 instructions: 90000001 cycles: 24608298 heartbeat IPC: 3.393 cumulative IPC: 3.314 (Simulation time: 00 hr 06 min 41 sec)
Heartbeat CPU 0 instructions: 100000000 cycles: 27519840 heartbeat IPC: 3.435 cumulative IPC: 3.337 (Simulation time: 00 hr 07 min 28 sec)
Heartbeat CPU 0 instructions: 110000000 cycles: 30461588 heartbeat IPC: 3.399 cumulative IPC: 3.347 (Simulation time: 00 hr 08 min 16 sec)
Heartbeat CPU 0 instructions: 120000001 cycles: 33437951 heartbeat IPC: 3.36 cumulative IPC: 3.349 (Simulation time: 00 hr 09 min 04 sec)
Heartbeat CPU 0 instructions: 130000001 cycles: 36296454 heartbeat IPC: 3.498 cumulative IPC: 3.367 (Simulation time: 00 hr 09 min 52 sec)
Heartbeat CPU 0 instructions: 140000001 cycles: 39354668 heartbeat IPC: 3.27 cumulative IPC: 3.356 (Simulation time: 00 hr 10 min 41 sec)
Heartbeat CPU 0 instructions: 150000001 cycles: 42370460 heartbeat IPC: 3.316 cumulative IPC: 3.352 (Simulation time: 00 hr 11 min 27 sec)
Heartbeat CPU 0 instructions: 160000004 cycles: 45391732 heartbeat IPC: 3.31 cumulative IPC: 3.348 (Simulation time: 00 hr 12 min 14 sec)
Heartbeat CPU 0 instructions: 170000000 cycles: 50714100 heartbeat IPC: 1.879 cumulative IPC: 3.143 (Simulation time: 00 hr 13 min 14 sec)
Heartbeat CPU 0 instructions: 180000004 cycles: 55550401 heartbeat IPC: 2.068 cumulative IPC: 3.022 (Simulation time: 00 hr 14 min 13 sec)
Heartbeat CPU 0 instructions: 190000001 cycles: 60381015 heartbeat IPC: 2.07 cumulative IPC: 2.926 (Simulation time: 00 hr 15 min 11 sec)
Heartbeat CPU 0 instructions: 200000004 cycles: 63165479 heartbeat IPC: 3.591 cumulative IPC: 2.963 (Simulation time: 00 hr 15 min 56 sec)
Heartbeat CPU 0 instructions: 210000001 cycles: 65987305 heartbeat IPC: 3.544 cumulative IPC: 2.993 (Simulation time: 00 hr 16 min 41 sec)
Heartbeat CPU 0 instructions: 220000000 cycles: 68803027 heartbeat IPC: 3.551 cumulative IPC: 3.021 (Simulation time: 00 hr 17 min 26 sec)
Heartbeat CPU 0 instructions: 230000002 cycles: 71587245 heartbeat IPC: 3.592 cumulative IPC: 3.048 (Simulation time: 00 hr 18 min 11 sec)
Heartbeat CPU 0 instructions: 240000003 cycles: 74469743 heartbeat IPC: 3.469 cumulative IPC: 3.068 (Simulation time: 00 hr 18 min 57 sec)
Heartbeat CPU 0 instructions: 250000000 cycles: 77312316 heartbeat IPC: 3.518 cumulative IPC: 3.088 (Simulation time: 00 hr 19 min 42 sec)
Heartbeat CPU 0 instructions: 260000002 cycles: 80092764 heartbeat IPC: 3.597 cumulative IPC: 3.109 (Simulation time: 00 hr 20 min 27 sec)
Heartbeat CPU 0 instructions: 270000002 cycles: 82870224 heartbeat IPC: 3.6 cumulative IPC: 3.128 (Simulation time: 00 hr 21 min 11 sec)
Heartbeat CPU 0 instructions: 280000002 cycles: 85620391 heartbeat IPC: 3.636 cumulative IPC: 3.147 (Simulation time: 00 hr 21 min 55 sec)
Heartbeat CPU 0 instructions: 290000002 cycles: 88464621 heartbeat IPC: 3.516 cumulative IPC: 3.161 (Simulation time: 00 hr 22 min 40 sec)
Heartbeat CPU 0 instructions: 300000003 cycles: 91188470 heartbeat IPC: 3.671 cumulative IPC: 3.179 (Simulation time: 00 hr 23 min 25 sec)
Heartbeat CPU 0 instructions: 310000001 cycles: 94017243 heartbeat IPC: 3.535 cumulative IPC: 3.191 (Simulation time: 00 hr 24 min 09 sec)
Heartbeat CPU 0 instructions: 320000003 cycles: 96878513 heartbeat IPC: 3.495 cumulative IPC: 3.201 (Simulation time: 00 hr 24 min 55 sec)
Heartbeat CPU 0 instructions: 330000003 cycles: 99640021 heartbeat IPC: 3.621 cumulative IPC: 3.215 (Simulation time: 00 hr 25 min 40 sec)
Heartbeat CPU 0 instructions: 340000000 cycles: 104250585 heartbeat IPC: 2.169 cumulative IPC: 3.162 (Simulation time: 00 hr 26 min 36 sec)
Heartbeat CPU 0 instructions: 350000000 cycles: 109176436 heartbeat IPC: 2.03 cumulative IPC: 3.104 (Simulation time: 00 hr 27 min 36 sec)
Heartbeat CPU 0 instructions: 360000004 cycles: 114121127 heartbeat IPC: 2.022 cumulative IPC: 3.052 (Simulation time: 00 hr 28 min 35 sec)
Heartbeat CPU 0 instructions: 370000000 cycles: 116948050 heartbeat IPC: 3.537 cumulative IPC: 3.065 (Simulation time: 00 hr 29 min 21 sec)
Heartbeat CPU 0 instructions: 380000003 cycles: 119731987 heartbeat IPC: 3.592 cumulative IPC: 3.079 (Simulation time: 00 hr 30 min 08 sec)
Heartbeat CPU 0 instructions: 390000002 cycles: 122616380 heartbeat IPC: 3.467 cumulative IPC: 3.089 (Simulation time: 00 hr 30 min 56 sec)
Heartbeat CPU 0 instructions: 400000004 cycles: 125465182 heartbeat IPC: 3.51 cumulative IPC: 3.099 (Simulation time: 00 hr 31 min 43 sec)
Heartbeat CPU 0 instructions: 410000002 cycles: 128263933 heartbeat IPC: 3.573 cumulative IPC: 3.111 (Simulation time: 00 hr 32 min 29 sec)
Heartbeat CPU 0 instructions: 420000003 cycles: 131160144 heartbeat IPC: 3.453 cumulative IPC: 3.119 (Simulation time: 00 hr 33 min 17 sec)
Heartbeat CPU 0 instructions: 430000001 cycles: 134063804 heartbeat IPC: 3.444 cumulative IPC: 3.127 (Simulation time: 00 hr 34 min 04 sec)
Heartbeat CPU 0 instructions: 440000004 cycles: 137036417 heartbeat IPC: 3.364 cumulative IPC: 3.133 (Simulation time: 00 hr 34 min 52 sec)
Heartbeat CPU 0 instructions: 450000002 cycles: 139816069 heartbeat IPC: 3.598 cumulative IPC: 3.143 (Simulation time: 00 hr 35 min 39 sec)
Heartbeat CPU 0 instructions: 460000000 cycles: 142617387 heartbeat IPC: 3.57 cumulative IPC: 3.152 (Simulation time: 00 hr 36 min 26 sec)
Heartbeat CPU 0 instructions: 470000001 cycles: 145360617 heartbeat IPC: 3.645 cumulative IPC: 3.162 (Simulation time: 00 hr 37 min 12 sec)
Heartbeat CPU 0 instructions: 480000003 cycles: 148271994 heartbeat IPC: 3.435 cumulative IPC: 3.168 (Simulation time: 00 hr 38 min 00 sec)
Heartbeat CPU 0 instructions: 490000004 cycles: 151021629 heartbeat IPC: 3.637 cumulative IPC: 3.177 (Simulation time: 00 hr 38 min 46 sec)
Heartbeat CPU 0 instructions: 500000004 cycles: 153920701 heartbeat IPC: 3.449 cumulative IPC: 3.183 (Simulation time: 00 hr 39 min 34 sec)
Heartbeat CPU 0 instructions: 510000003 cycles: 156798250 heartbeat IPC: 3.475 cumulative IPC: 3.189 (Simulation time: 00 hr 40 min 22 sec)
Heartbeat CPU 0 instructions: 520000001 cycles: 159534037 heartbeat IPC: 3.655 cumulative IPC: 3.197 (Simulation time: 00 hr 41 min 09 sec)
Heartbeat CPU 0 instructions: 530000001 cycles: 162407663 heartbeat IPC: 3.48 cumulative IPC: 3.203 (Simulation time: 00 hr 41 min 57 sec)
Heartbeat CPU 0 instructions: 540000000 cycles: 165239088 heartbeat IPC: 3.532 cumulative IPC: 3.209 (Simulation time: 00 hr 42 min 45 sec)
Heartbeat CPU 0 instructions: 550000001 cycles: 168123726 heartbeat IPC: 3.467 cumulative IPC: 3.214 (Simulation time: 00 hr 43 min 34 sec)
Heartbeat CPU 0 instructions: 560000000 cycles: 171004576 heartbeat IPC: 3.471 cumulative IPC: 3.218 (Simulation time: 00 hr 44 min 24 sec)
Heartbeat CPU 0 instructions: 570000004 cycles: 174738413 heartbeat IPC: 2.678 cumulative IPC: 3.206 (Simulation time: 00 hr 45 min 19 sec)
Heartbeat CPU 0 instructions: 580000003 cycles: 179843179 heartbeat IPC: 1.959 cumulative IPC: 3.168 (Simulation time: 00 hr 46 min 24 sec)
Heartbeat CPU 0 instructions: 590000002 cycles: 185526818 heartbeat IPC: 1.759 cumulative IPC: 3.122 (Simulation time: 00 hr 47 min 35 sec)
Heartbeat CPU 0 instructions: 600000004 cycles: 188419893 heartbeat IPC: 3.457 cumulative IPC: 3.127 (Simulation time: 00 hr 48 min 22 sec)
Heartbeat CPU 0 instructions: 610000002 cycles: 191269442 heartbeat IPC: 3.509 cumulative IPC: 3.133 (Simulation time: 00 hr 49 min 10 sec)
Heartbeat CPU 0 instructions: 620000001 cycles: 193978820 heartbeat IPC: 3.691 cumulative IPC: 3.142 (Simulation time: 00 hr 50 min 00 sec)
Heartbeat CPU 0 instructions: 630000002 cycles: 196843880 heartbeat IPC: 3.49 cumulative IPC: 3.147 (Simulation time: 00 hr 50 min 45 sec)
Heartbeat CPU 0 instructions: 640000004 cycles: 199750968 heartbeat IPC: 3.44 cumulative IPC: 3.151 (Simulation time: 00 hr 51 min 33 sec)
Heartbeat CPU 0 instructions: 650000000 cycles: 202461480 heartbeat IPC: 3.689 cumulative IPC: 3.159 (Simulation time: 00 hr 52 min 22 sec)
Simulation finished CPU 0 instructions: 600000001 cycles: 189924360 cumulative IPC: 3.159 (Simulation time: 00 hr 52 min 22 sec)
Simulation complete CPU 0 instructions: 600000001 cycles: 189924360 cumulative IPC: 3.159 (Simulation time: 00 hr 52 min 22 sec)

ChampSim completed all CPUs

=== Simulation ===
CPU 0 runs traces/400.perlbench-41B.champsimtrace.xz
Region of Interest Statistics

CPU 0 cumulative IPC: 3.159 instructions: 600000001 cycles: 189924360
CPU 0 Branch Prediction Accuracy: 99.19% MPKI: 1.684 Average ROB Occupancy at Mispredict: 100.6
Branch type MPKI
BRANCH_DIRECT_JUMP: 0.0123
BRANCH_INDIRECT: 0.323
BRANCH_CONDITIONAL: 1.14
BRANCH_DIRECT_CALL: 0.0043
BRANCH_INDIRECT_CALL: 0.2
BRANCH_RETURN: 0.00828

LLC TOTAL        ACCESS:     939636 HIT:     836321 MISS:     103315
LLC LOAD         ACCESS:     401477 HIT:     356738 MISS:      44739
LLC RFO          ACCESS:      32510 HIT:      27062 MISS:       5448
LLC PREFETCH     ACCESS:     401477 HIT:     355640 MISS:      45837
LLC WRITE        ACCESS:      85100 HIT:      85053 MISS:         47
LLC TRANSLATION  ACCESS:      19072 HIT:      11828 MISS:       7244
LLC PREFETCH REQUESTED:     401477 ISSUED:     401477 USEFUL:      12651 USELESS:      15604
LLC AVERAGE MISS LATENCY: 543.2 cycles
cpu0_DTLB TOTAL        ACCESS:  129751886 HIT:  129050533 MISS:     701353
cpu0_DTLB LOAD         ACCESS:  129751886 HIT:  129050533 MISS:     701353
cpu0_DTLB RFO          ACCESS:          0 HIT:          0 MISS:          0
cpu0_DTLB PREFETCH     ACCESS:          0 HIT:          0 MISS:          0
cpu0_DTLB WRITE        ACCESS:          0 HIT:          0 MISS:          0
cpu0_DTLB TRANSLATION  ACCESS:          0 HIT:          0 MISS:          0
cpu0_DTLB PREFETCH REQUESTED:          0 ISSUED:          0 USEFUL:          0 USELESS:          0
cpu0_DTLB AVERAGE MISS LATENCY: 11.03 cycles
cpu0_ITLB TOTAL        ACCESS:    4862040 HIT:    4799861 MISS:      62179
cpu0_ITLB LOAD         ACCESS:    4862040 HIT:    4799861 MISS:      62179
cpu0_ITLB RFO          ACCESS:          0 HIT:          0 MISS:          0
cpu0_ITLB PREFETCH     ACCESS:          0 HIT:          0 MISS:          0
cpu0_ITLB WRITE        ACCESS:          0 HIT:          0 MISS:          0
cpu0_ITLB TRANSLATION  ACCESS:          0 HIT:          0 MISS:          0
cpu0_ITLB PREFETCH REQUESTED:          0 ISSUED:          0 USEFUL:          0 USELESS:          0
cpu0_ITLB AVERAGE MISS LATENCY: 4.581 cycles
cpu0_L1D TOTAL        ACCESS:  174380724 HIT:  172646961 MISS:    1733763
cpu0_L1D LOAD         ACCESS:   91357346 HIT:   90008818 MISS:    1348528
cpu0_L1D RFO          ACCESS:          0 HIT:          0 MISS:          0
cpu0_L1D PREFETCH     ACCESS:          0 HIT:          0 MISS:          0
cpu0_L1D WRITE        ACCESS:   82998909 HIT:   82637070 MISS:     361839
cpu0_L1D TRANSLATION  ACCESS:      24469 HIT:       1073 MISS:      23396
cpu0_L1D PREFETCH REQUESTED:          0 ISSUED:          0 USEFUL:          0 USELESS:          0
cpu0_L1D AVERAGE MISS LATENCY: 27.26 cycles
cpu0_L1I TOTAL        ACCESS:    5641957 HIT:    4838001 MISS:     803956
cpu0_L1I LOAD         ACCESS:    5641957 HIT:    4838001 MISS:     803956
cpu0_L1I RFO          ACCESS:          0 HIT:          0 MISS:          0
cpu0_L1I PREFETCH     ACCESS:          0 HIT:          0 MISS:          0
cpu0_L1I WRITE        ACCESS:          0 HIT:          0 MISS:          0
cpu0_L1I TRANSLATION  ACCESS:          0 HIT:          0 MISS:          0
cpu0_L1I PREFETCH REQUESTED:          0 ISSUED:          0 USEFUL:          0 USELESS:          0
cpu0_L1I AVERAGE MISS LATENCY: 8.097 cycles
cpu0_L2C TOTAL        ACCESS:    1668282 HIT:    1213409 MISS:     454873
cpu0_L2C LOAD         ACCESS:    1315346 HIT:     913869 MISS:     401477
cpu0_L2C RFO          ACCESS:      89523 HIT:      57013 MISS:      32510
cpu0_L2C PREFETCH     ACCESS:          0 HIT:          0 MISS:          0
cpu0_L2C WRITE        ACCESS:     240095 HIT:     238281 MISS:       1814
cpu0_L2C TRANSLATION  ACCESS:      23318 HIT:       4246 MISS:      19072
cpu0_L2C PREFETCH REQUESTED:          0 ISSUED:          0 USEFUL:          0 USELESS:          0
cpu0_L2C AVERAGE MISS LATENCY: 96.77 cycles
cpu0_STLB TOTAL        ACCESS:     508000 HIT:     485212 MISS:      22788
cpu0_STLB LOAD         ACCESS:     508000 HIT:     485212 MISS:      22788
cpu0_STLB RFO          ACCESS:          0 HIT:          0 MISS:          0
cpu0_STLB PREFETCH     ACCESS:          0 HIT:          0 MISS:          0
cpu0_STLB WRITE        ACCESS:          0 HIT:          0 MISS:          0
cpu0_STLB TRANSLATION  ACCESS:          0 HIT:          0 MISS:          0
cpu0_STLB PREFETCH REQUESTED:          0 ISSUED:          0 USEFUL:          0 USELESS:          0
cpu0_STLB AVERAGE MISS LATENCY: 217.4 cycles

DRAM Statistics

Channel 0 RQ ROW_BUFFER_HIT:      19756
  ROW_BUFFER_MISS:      67013
 AVG DBUS CONGESTED CYCLE: 3.839
WQ ROW_BUFFER_HIT: Channel 0 
  ROW_BUFFER_MISS:       2026
  FULL:       3027
