WARNING: physical memory size is smaller than virtual memory size.

*** ChampSim Multicore Out-of-Order Simulator ***
Warmup Instructions: 50000000
Simulation Instructions: 600000000
Number of CPUs: 1
Page size: 4096

CPU 0 Tage branch predictor
Off-chip DRAM Size: 4 GiB Channels: 1 Width: 64-bit Data Race: 3200 MT/s
Heartbeat CPU 0 instructions: 10000001 cycles: 2500318 heartbeat IPC: 3.999 cumulative IPC: 3.999 (Simulation time: 00 hr 00 min 43 sec)
Heartbeat CPU 0 instructions: 20000002 cycles: 5037133 heartbeat IPC: 3.942 cumulative IPC: 3.971 (Simulation time: 00 hr 01 min 28 sec)
Heartbeat CPU 0 instructions: 30000002 cycles: 7537133 heartbeat IPC: 4 cumulative IPC: 3.98 (Simulation time: 00 hr 02 min 09 sec)
Heartbeat CPU 0 instructions: 40000002 cycles: 10037133 heartbeat IPC: 4 cumulative IPC: 3.985 (Simulation time: 00 hr 02 min 52 sec)
Heartbeat CPU 0 instructions: 50000002 cycles: 12537133 heartbeat IPC: 4 cumulative IPC: 3.988 (Simulation time: 00 hr 03 min 35 sec)
Warmup finished CPU 0 instructions: 50000002 cycles: 12537134 cumulative IPC: 3.988 (Simulation time: 00 hr 03 min 35 sec)
Warmup complete CPU 0 instructions: 50000002 cycles: 12537134 cumulative IPC: 3.988 (Simulation time: 00 hr 03 min 35 sec)
Heartbeat CPU 0 instructions: 60000001 cycles: 15497933 heartbeat IPC: 3.377 cumulative IPC: 3.377 (Simulation time: 00 hr 04 min 22 sec)
Heartbeat CPU 0 instructions: 70000004 cycles: 18555730 heartbeat IPC: 3.27 cumulative IPC: 3.323 (Simulation time: 00 hr 05 min 06 sec)
Heartbeat CPU 0 instructions: 80000001 cycles: 21588864 heartbeat IPC: 3.297 cumulative IPC: 3.314 (Simulation time: 00 hr 05 min 49 sec)
Heartbeat CPU 0 instructions: 90000001 cycles: 24522196 heartbeat IPC: 3.409 cumulative IPC: 3.337 (Simulation time: 00 hr 06 min 31 sec)
Heartbeat CPU 0 instructions: 100000000 cycles: 27421486 heartbeat IPC: 3.449 cumulative IPC: 3.359 (Simulation time: 00 hr 07 min 12 sec)
Heartbeat CPU 0 instructions: 110000000 cycles: 30352979 heartbeat IPC: 3.411 cumulative IPC: 3.368 (Simulation time: 00 hr 07 min 52 sec)
Heartbeat CPU 0 instructions: 120000001 cycles: 33315290 heartbeat IPC: 3.376 cumulative IPC: 3.369 (Simulation time: 00 hr 08 min 34 sec)
Heartbeat CPU 0 instructions: 130000001 cycles: 36158299 heartbeat IPC: 3.517 cumulative IPC: 3.387 (Simulation time: 00 hr 09 min 16 sec)
Heartbeat CPU 0 instructions: 140000001 cycles: 39181889 heartbeat IPC: 3.307 cumulative IPC: 3.378 (Simulation time: 00 hr 09 min 59 sec)
Heartbeat CPU 0 instructions: 150000001 cycles: 42173487 heartbeat IPC: 3.343 cumulative IPC: 3.374 (Simulation time: 00 hr 10 min 43 sec)
Heartbeat CPU 0 instructions: 160000004 cycles: 45162623 heartbeat IPC: 3.345 cumulative IPC: 3.372 (Simulation time: 00 hr 11 min 26 sec)
Heartbeat CPU 0 instructions: 170000000 cycles: 50622338 heartbeat IPC: 1.832 cumulative IPC: 3.151 (Simulation time: 00 hr 12 min 21 sec)
Heartbeat CPU 0 instructions: 180000004 cycles: 55316018 heartbeat IPC: 2.131 cumulative IPC: 3.039 (Simulation time: 00 hr 13 min 15 sec)
Heartbeat CPU 0 instructions: 190000001 cycles: 59533916 heartbeat IPC: 2.371 cumulative IPC: 2.979 (Simulation time: 00 hr 14 min 05 sec)
Heartbeat CPU 0 instructions: 200000004 cycles: 62280146 heartbeat IPC: 3.641 cumulative IPC: 3.015 (Simulation time: 00 hr 14 min 47 sec)
Heartbeat CPU 0 instructions: 210000001 cycles: 65070266 heartbeat IPC: 3.584 cumulative IPC: 3.046 (Simulation time: 00 hr 15 min 28 sec)
Heartbeat CPU 0 instructions: 220000000 cycles: 67861107 heartbeat IPC: 3.583 cumulative IPC: 3.073 (Simulation time: 00 hr 16 min 08 sec)
Heartbeat CPU 0 instructions: 230000002 cycles: 70551565 heartbeat IPC: 3.717 cumulative IPC: 3.103 (Simulation time: 00 hr 16 min 48 sec)
Heartbeat CPU 0 instructions: 240000003 cycles: 73373207 heartbeat IPC: 3.544 cumulative IPC: 3.123 (Simulation time: 00 hr 17 min 29 sec)
Heartbeat CPU 0 instructions: 250000000 cycles: 76148875 heartbeat IPC: 3.603 cumulative IPC: 3.144 (Simulation time: 00 hr 18 min 09 sec)
Heartbeat CPU 0 instructions: 260000002 cycles: 78865476 heartbeat IPC: 3.681 cumulative IPC: 3.166 (Simulation time: 00 hr 18 min 50 sec)
Heartbeat CPU 0 instructions: 270000002 cycles: 81605293 heartbeat IPC: 3.65 cumulative IPC: 3.185 (Simulation time: 00 hr 19 min 30 sec)
Heartbeat CPU 0 instructions: 280000002 cycles: 84304637 heartbeat IPC: 3.705 cumulative IPC: 3.205 (Simulation time: 00 hr 20 min 11 sec)
Heartbeat CPU 0 instructions: 290000002 cycles: 87112303 heartbeat IPC: 3.562 cumulative IPC: 3.218 (Simulation time: 00 hr 21 min 42 sec)
Heartbeat CPU 0 instructions: 300000003 cycles: 89772977 heartbeat IPC: 3.758 cumulative IPC: 3.237 (Simulation time: 00 hr 22 min 56 sec)
Heartbeat CPU 0 instructions: 310000001 cycles: 92543505 heartbeat IPC: 3.609 cumulative IPC: 3.25 (Simulation time: 00 hr 24 min 12 sec)
Heartbeat CPU 0 instructions: 320000003 cycles: 95350423 heartbeat IPC: 3.563 cumulative IPC: 3.26 (Simulation time: 00 hr 25 min 31 sec)
Heartbeat CPU 0 instructions: 330000003 cycles: 98056993 heartbeat IPC: 3.695 cumulative IPC: 3.274 (Simulation time: 00 hr 26 min 48 sec)
Heartbeat CPU 0 instructions: 340000000 cycles: 102384675 heartbeat IPC: 2.311 cumulative IPC: 3.228 (Simulation time: 00 hr 28 min 24 sec)
Heartbeat CPU 0 instructions: 350000000 cycles: 107101620 heartbeat IPC: 2.12 cumulative IPC: 3.172 (Simulation time: 00 hr 29 min 32 sec)
Heartbeat CPU 0 instructions: 360000004 cycles: 111588898 heartbeat IPC: 2.229 cumulative IPC: 3.13 (Simulation time: 00 hr 30 min 24 sec)
Heartbeat CPU 0 instructions: 370000000 cycles: 114391869 heartbeat IPC: 3.568 cumulative IPC: 3.142 (Simulation time: 00 hr 31 min 05 sec)
Heartbeat CPU 0 instructions: 380000003 cycles: 117150248 heartbeat IPC: 3.625 cumulative IPC: 3.154 (Simulation time: 00 hr 31 min 46 sec)
Heartbeat CPU 0 instructions: 390000002 cycles: 120014500 heartbeat IPC: 3.491 cumulative IPC: 3.163 (Simulation time: 00 hr 32 min 27 sec)
Heartbeat CPU 0 instructions: 400000004 cycles: 122846502 heartbeat IPC: 3.531 cumulative IPC: 3.173 (Simulation time: 00 hr 33 min 08 sec)
Heartbeat CPU 0 instructions: 410000002 cycles: 125608792 heartbeat IPC: 3.62 cumulative IPC: 3.184 (Simulation time: 00 hr 33 min 48 sec)
Heartbeat CPU 0 instructions: 420000003 cycles: 128447287 heartbeat IPC: 3.523 cumulative IPC: 3.192 (Simulation time: 00 hr 34 min 29 sec)
Heartbeat CPU 0 instructions: 430000001 cycles: 131314396 heartbeat IPC: 3.488 cumulative IPC: 3.199 (Simulation time: 00 hr 35 min 11 sec)
Heartbeat CPU 0 instructions: 440000004 cycles: 134237830 heartbeat IPC: 3.421 cumulative IPC: 3.205 (Simulation time: 00 hr 35 min 53 sec)
Heartbeat CPU 0 instructions: 450000002 cycles: 136971319 heartbeat IPC: 3.658 cumulative IPC: 3.215 (Simulation time: 00 hr 36 min 33 sec)
Heartbeat CPU 0 instructions: 460000000 cycles: 139736667 heartbeat IPC: 3.616 cumulative IPC: 3.223 (Simulation time: 00 hr 37 min 14 sec)
Heartbeat CPU 0 instructions: 470000001 cycles: 142447540 heartbeat IPC: 3.689 cumulative IPC: 3.233 (Simulation time: 00 hr 37 min 55 sec)
Heartbeat CPU 0 instructions: 480000003 cycles: 145323395 heartbeat IPC: 3.477 cumulative IPC: 3.238 (Simulation time: 00 hr 38 min 36 sec)
Heartbeat CPU 0 instructions: 490000004 cycles: 148039422 heartbeat IPC: 3.682 cumulative IPC: 3.247 (Simulation time: 00 hr 39 min 16 sec)
Heartbeat CPU 0 instructions: 500000004 cycles: 150915975 heartbeat IPC: 3.476 cumulative IPC: 3.252 (Simulation time: 00 hr 39 min 58 sec)
Heartbeat CPU 0 instructions: 510000003 cycles: 153756240 heartbeat IPC: 3.521 cumulative IPC: 3.257 (Simulation time: 00 hr 40 min 40 sec)
Heartbeat CPU 0 instructions: 520000001 cycles: 156449317 heartbeat IPC: 3.713 cumulative IPC: 3.266 (Simulation time: 00 hr 41 min 21 sec)
Heartbeat CPU 0 instructions: 530000001 cycles: 159290776 heartbeat IPC: 3.519 cumulative IPC: 3.271 (Simulation time: 00 hr 42 min 01 sec)
Heartbeat CPU 0 instructions: 540000000 cycles: 162088407 heartbeat IPC: 3.574 cumulative IPC: 3.276 (Simulation time: 00 hr 42 min 42 sec)
Heartbeat CPU 0 instructions: 550000001 cycles: 164939648 heartbeat IPC: 3.507 cumulative IPC: 3.281 (Simulation time: 00 hr 43 min 24 sec)
Heartbeat CPU 0 instructions: 560000000 cycles: 167784277 heartbeat IPC: 3.515 cumulative IPC: 3.285 (Simulation time: 00 hr 44 min 05 sec)
Heartbeat CPU 0 instructions: 570000004 cycles: 171381631 heartbeat IPC: 2.78 cumulative IPC: 3.274 (Simulation time: 00 hr 44 min 51 sec)
Heartbeat CPU 0 instructions: 580000003 cycles: 175977187 heartbeat IPC: 2.176 cumulative IPC: 3.243 (Simulation time: 00 hr 45 min 43 sec)
Heartbeat CPU 0 instructions: 590000002 cycles: 180967423 heartbeat IPC: 2.004 cumulative IPC: 3.206 (Simulation time: 00 hr 46 min 37 sec)
Heartbeat CPU 0 instructions: 600000004 cycles: 183837211 heartbeat IPC: 3.485 cumulative IPC: 3.211 (Simulation time: 00 hr 47 min 17 sec)
Heartbeat CPU 0 instructions: 610000002 cycles: 186661661 heartbeat IPC: 3.541 cumulative IPC: 3.216 (Simulation time: 00 hr 47 min 56 sec)
Heartbeat CPU 0 instructions: 620000001 cycles: 189356662 heartbeat IPC: 3.711 cumulative IPC: 3.224 (Simulation time: 00 hr 48 min 34 sec)
Heartbeat CPU 0 instructions: 630000002 cycles: 192204994 heartbeat IPC: 3.511 cumulative IPC: 3.228 (Simulation time: 00 hr 49 min 14 sec)
Heartbeat CPU 0 instructions: 640000004 cycles: 195102518 heartbeat IPC: 3.451 cumulative IPC: 3.232 (Simulation time: 00 hr 49 min 53 sec)
Heartbeat CPU 0 instructions: 650000000 cycles: 197803584 heartbeat IPC: 3.702 cumulative IPC: 3.239 (Simulation time: 00 hr 50 min 32 sec)
Simulation finished CPU 0 instructions: 600000001 cycles: 185266452 cumulative IPC: 3.239 (Simulation time: 00 hr 50 min 32 sec)
Simulation complete CPU 0 instructions: 600000001 cycles: 185266452 cumulative IPC: 3.239 (Simulation time: 00 hr 50 min 32 sec)

ChampSim completed all CPUs

=== Simulation ===
CPU 0 runs traces/400.perlbench-41B.champsimtrace.xz
Region of Interest Statistics

CPU 0 cumulative IPC: 3.239 instructions: 600000001 cycles: 185266452
CPU 0 Branch Prediction Accuracy: 99.19% MPKI: 1.684 Average ROB Occupancy at Mispredict: 100.3
Branch type MPKI
BRANCH_DIRECT_JUMP: 0.0123
BRANCH_INDIRECT: 0.323
BRANCH_CONDITIONAL: 1.14
BRANCH_DIRECT_CALL: 0.0043
BRANCH_INDIRECT_CALL: 0.2
BRANCH_RETURN: 0.00828

LLC TOTAL        ACCESS:     541146 HIT:     494800 MISS:      46346
LLC LOAD         ACCESS:     403794 HIT:     368177 MISS:      35617
LLC RFO          ACCESS:      32551 HIT:      28435 MISS:       4116
LLC PREFETCH     ACCESS:          0 HIT:          0 MISS:          0
LLC WRITE        ACCESS:      85645 HIT:      85615 MISS:         30
LLC TRANSLATION  ACCESS:      19156 HIT:      12573 MISS:       6583
LLC PREFETCH REQUESTED:          0 ISSUED:          0 USEFUL:          0 USELESS:          0
LLC AVERAGE MISS LATENCY: 543.9 cycles
cpu0_DTLB TOTAL        ACCESS:  129750861 HIT:  129049973 MISS:     700888
cpu0_DTLB LOAD         ACCESS:  129750861 HIT:  129049973 MISS:     700888
cpu0_DTLB RFO          ACCESS:          0 HIT:          0 MISS:          0
cpu0_DTLB PREFETCH     ACCESS:          0 HIT:          0 MISS:          0
cpu0_DTLB WRITE        ACCESS:          0 HIT:          0 MISS:          0
cpu0_DTLB TRANSLATION  ACCESS:          0 HIT:          0 MISS:          0
cpu0_DTLB PREFETCH REQUESTED:          0 ISSUED:          0 USEFUL:          0 USELESS:          0
cpu0_DTLB AVERAGE MISS LATENCY: 10.13 cycles
cpu0_ITLB TOTAL        ACCESS:    4860116 HIT:    4798010 MISS:      62106
cpu0_ITLB LOAD         ACCESS:    4860116 HIT:    4798010 MISS:      62106
cpu0_ITLB RFO          ACCESS:          0 HIT:          0 MISS:          0
cpu0_ITLB PREFETCH     ACCESS:          0 HIT:          0 MISS:          0
cpu0_ITLB WRITE        ACCESS:          0 HIT:          0 MISS:          0
cpu0_ITLB TRANSLATION  ACCESS:          0 HIT:          0 MISS:          0
cpu0_ITLB PREFETCH REQUESTED:          0 ISSUED:          0 USEFUL:          0 USELESS:          0
cpu0_ITLB AVERAGE MISS LATENCY: 3.91 cycles
cpu0_L1D TOTAL        ACCESS:  174382007 HIT:  172654507 MISS:    1727500
cpu0_L1D LOAD         ACCESS:   91359541 HIT:   90012600 MISS:    1346941
cpu0_L1D RFO          ACCESS:          0 HIT:          0 MISS:          0
cpu0_L1D PREFETCH     ACCESS:          0 HIT:          0 MISS:          0
cpu0_L1D WRITE        ACCESS:   82998001 HIT:   82640842 MISS:     357159
cpu0_L1D TRANSLATION  ACCESS:      24465 HIT:       1065 MISS:      23400
cpu0_L1D PREFETCH REQUESTED:          0 ISSUED:          0 USEFUL:          0 USELESS:          0
cpu0_L1D AVERAGE MISS LATENCY: 21.91 cycles
cpu0_L1I TOTAL        ACCESS:    5640128 HIT:    4836088 MISS:     804040
cpu0_L1I LOAD         ACCESS:    5640128 HIT:    4836088 MISS:     804040
cpu0_L1I RFO          ACCESS:          0 HIT:          0 MISS:          0
cpu0_L1I PREFETCH     ACCESS:          0 HIT:          0 MISS:          0
cpu0_L1I WRITE        ACCESS:          0 HIT:          0 MISS:          0
cpu0_L1I TRANSLATION  ACCESS:          0 HIT:          0 MISS:          0
cpu0_L1I PREFETCH REQUESTED:          0 ISSUED:          0 USEFUL:          0 USELESS:          0
cpu0_L1I AVERAGE MISS LATENCY: 8.063 cycles
cpu0_L2C TOTAL        ACCESS:    1668541 HIT:    1211214 MISS:     457327
cpu0_L2C LOAD         ACCESS:    1315376 HIT:     911582 MISS:     403794
cpu0_L2C RFO          ACCESS:      89539 HIT:      56987 MISS:      32552
cpu0_L2C PREFETCH     ACCESS:          0 HIT:          0 MISS:          0
cpu0_L2C WRITE        ACCESS:     240306 HIT:     238481 MISS:       1825
cpu0_L2C TRANSLATION  ACCESS:      23320 HIT:       4164 MISS:      19156
cpu0_L2C PREFETCH REQUESTED:          0 ISSUED:          0 USEFUL:          0 USELESS:          0
cpu0_L2C AVERAGE MISS LATENCY: 75.15 cycles
cpu0_STLB TOTAL        ACCESS:     507821 HIT:     485033 MISS:      22788
cpu0_STLB LOAD         ACCESS:     507821 HIT:     485033 MISS:      22788
cpu0_STLB RFO          ACCESS:          0 HIT:          0 MISS:          0
cpu0_STLB PREFETCH     ACCESS:          0 HIT:          0 MISS:          0
cpu0_STLB WRITE        ACCESS:          0 HIT:          0 MISS:          0
cpu0_STLB TRANSLATION  ACCESS:          0 HIT:          0 MISS:          0
cpu0_STLB PREFETCH REQUESTED:          0 ISSUED:          0 USEFUL:          0 USELESS:          0
cpu0_STLB AVERAGE MISS LATENCY: 185.2 cycles

DRAM Statistics

Channel 0 RQ ROW_BUFFER_HIT:      12756
  ROW_BUFFER_MISS:      33560
 AVG DBUS CONGESTED CYCLE: 3.757
WQ ROW_BUFFER_HIT: Channel 0 
  ROW_BUFFER_MISS:        353
  FULL:        670
Final OPTGen Hits: 7423
Final OPTGen Access: 9257
Final OPTGEN Hit Rate: 80.188
