WARNING: physical memory size is smaller than virtual memory size.

*** ChampSim Multicore Out-of-Order Simulator ***
Warmup Instructions: 50000000
Simulation Instructions: 600000000
Number of CPUs: 1
Page size: 4096

Off-chip DRAM Size: 4 GiB Channels: 1 Width: 64-bit Data Race: 3200 MT/s
Heartbeat CPU 0 instructions: 10000001 cycles: 2500318 heartbeat IPC: 3.999 cumulative IPC: 3.999 (Simulation time: 00 hr 00 min 38 sec)
Heartbeat CPU 0 instructions: 20000002 cycles: 5037122 heartbeat IPC: 3.942 cumulative IPC: 3.971 (Simulation time: 00 hr 01 min 14 sec)
Heartbeat CPU 0 instructions: 30000002 cycles: 7537122 heartbeat IPC: 4 cumulative IPC: 3.98 (Simulation time: 00 hr 01 min 47 sec)
Heartbeat CPU 0 instructions: 40000002 cycles: 10037122 heartbeat IPC: 4 cumulative IPC: 3.985 (Simulation time: 00 hr 02 min 20 sec)
Heartbeat CPU 0 instructions: 50000002 cycles: 12537122 heartbeat IPC: 4 cumulative IPC: 3.988 (Simulation time: 00 hr 02 min 53 sec)
Warmup finished CPU 0 instructions: 50000002 cycles: 12537123 cumulative IPC: 3.988 (Simulation time: 00 hr 02 min 53 sec)
Warmup complete CPU 0 instructions: 50000002 cycles: 12537123 cumulative IPC: 3.988 (Simulation time: 00 hr 02 min 53 sec)
Heartbeat CPU 0 instructions: 60000000 cycles: 17119892 heartbeat IPC: 2.182 cumulative IPC: 2.182 (Simulation time: 00 hr 03 min 39 sec)
Heartbeat CPU 0 instructions: 70000004 cycles: 21367531 heartbeat IPC: 2.354 cumulative IPC: 2.265 (Simulation time: 00 hr 04 min 24 sec)
Heartbeat CPU 0 instructions: 80000001 cycles: 25933260 heartbeat IPC: 2.19 cumulative IPC: 2.239 (Simulation time: 00 hr 05 min 11 sec)
Heartbeat CPU 0 instructions: 90000001 cycles: 30037887 heartbeat IPC: 2.436 cumulative IPC: 2.286 (Simulation time: 00 hr 05 min 55 sec)
Heartbeat CPU 0 instructions: 100000000 cycles: 34067170 heartbeat IPC: 2.482 cumulative IPC: 2.322 (Simulation time: 00 hr 06 min 40 sec)
Heartbeat CPU 0 instructions: 110000000 cycles: 38286355 heartbeat IPC: 2.37 cumulative IPC: 2.33 (Simulation time: 00 hr 07 min 25 sec)
Heartbeat CPU 0 instructions: 120000001 cycles: 42276364 heartbeat IPC: 2.506 cumulative IPC: 2.354 (Simulation time: 00 hr 08 min 09 sec)
Heartbeat CPU 0 instructions: 130000001 cycles: 45984956 heartbeat IPC: 2.696 cumulative IPC: 2.392 (Simulation time: 00 hr 08 min 53 sec)
Heartbeat CPU 0 instructions: 140000001 cycles: 50113021 heartbeat IPC: 2.422 cumulative IPC: 2.395 (Simulation time: 00 hr 09 min 37 sec)
Heartbeat CPU 0 instructions: 150000001 cycles: 54279278 heartbeat IPC: 2.4 cumulative IPC: 2.396 (Simulation time: 00 hr 10 min 22 sec)
Heartbeat CPU 0 instructions: 160000004 cycles: 58653406 heartbeat IPC: 2.286 cumulative IPC: 2.385 (Simulation time: 00 hr 11 min 08 sec)
Heartbeat CPU 0 instructions: 170000000 cycles: 65926334 heartbeat IPC: 1.375 cumulative IPC: 2.248 (Simulation time: 00 hr 12 min 10 sec)
Heartbeat CPU 0 instructions: 180000004 cycles: 72528197 heartbeat IPC: 1.515 cumulative IPC: 2.167 (Simulation time: 00 hr 13 min 11 sec)
Heartbeat CPU 0 instructions: 190000001 cycles: 78469188 heartbeat IPC: 1.683 cumulative IPC: 2.123 (Simulation time: 00 hr 14 min 08 sec)
Heartbeat CPU 0 instructions: 200000004 cycles: 81978619 heartbeat IPC: 2.849 cumulative IPC: 2.16 (Simulation time: 00 hr 14 min 51 sec)
Heartbeat CPU 0 instructions: 210000001 cycles: 85692669 heartbeat IPC: 2.692 cumulative IPC: 2.187 (Simulation time: 00 hr 15 min 36 sec)
Heartbeat CPU 0 instructions: 220000000 cycles: 89524318 heartbeat IPC: 2.61 cumulative IPC: 2.208 (Simulation time: 00 hr 16 min 21 sec)
Heartbeat CPU 0 instructions: 230000002 cycles: 93774717 heartbeat IPC: 2.353 cumulative IPC: 2.216 (Simulation time: 00 hr 17 min 08 sec)
Heartbeat CPU 0 instructions: 240000000 cycles: 97713677 heartbeat IPC: 2.539 cumulative IPC: 2.231 (Simulation time: 00 hr 17 min 54 sec)
Heartbeat CPU 0 instructions: 250000000 cycles: 101713665 heartbeat IPC: 2.5 cumulative IPC: 2.243 (Simulation time: 00 hr 18 min 41 sec)
Heartbeat CPU 0 instructions: 260000000 cycles: 105578517 heartbeat IPC: 2.587 cumulative IPC: 2.257 (Simulation time: 00 hr 19 min 26 sec)
Heartbeat CPU 0 instructions: 270000002 cycles: 109214419 heartbeat IPC: 2.75 cumulative IPC: 2.276 (Simulation time: 00 hr 20 min 11 sec)
Heartbeat CPU 0 instructions: 280000002 cycles: 113146721 heartbeat IPC: 2.543 cumulative IPC: 2.286 (Simulation time: 00 hr 20 min 55 sec)
Heartbeat CPU 0 instructions: 290000001 cycles: 116847103 heartbeat IPC: 2.702 cumulative IPC: 2.301 (Simulation time: 00 hr 21 min 37 sec)
Heartbeat CPU 0 instructions: 300000003 cycles: 120374596 heartbeat IPC: 2.835 cumulative IPC: 2.318 (Simulation time: 00 hr 22 min 20 sec)
Heartbeat CPU 0 instructions: 310000001 cycles: 124163628 heartbeat IPC: 2.639 cumulative IPC: 2.329 (Simulation time: 00 hr 23 min 04 sec)
Heartbeat CPU 0 instructions: 320000003 cycles: 127984909 heartbeat IPC: 2.617 cumulative IPC: 2.339 (Simulation time: 00 hr 23 min 46 sec)
Heartbeat CPU 0 instructions: 330000003 cycles: 132015091 heartbeat IPC: 2.481 cumulative IPC: 2.344 (Simulation time: 00 hr 24 min 30 sec)
Heartbeat CPU 0 instructions: 340000000 cycles: 137959619 heartbeat IPC: 1.682 cumulative IPC: 2.312 (Simulation time: 00 hr 25 min 25 sec)
Heartbeat CPU 0 instructions: 350000000 cycles: 144670752 heartbeat IPC: 1.49 cumulative IPC: 2.27 (Simulation time: 00 hr 26 min 25 sec)
Heartbeat CPU 0 instructions: 360000004 cycles: 150726844 heartbeat IPC: 1.651 cumulative IPC: 2.243 (Simulation time: 00 hr 27 min 22 sec)
Heartbeat CPU 0 instructions: 370000000 cycles: 153967541 heartbeat IPC: 3.086 cumulative IPC: 2.263 (Simulation time: 00 hr 28 min 02 sec)
Heartbeat CPU 0 instructions: 380000001 cycles: 157189654 heartbeat IPC: 3.104 cumulative IPC: 2.281 (Simulation time: 00 hr 28 min 43 sec)
Heartbeat CPU 0 instructions: 390000004 cycles: 160794570 heartbeat IPC: 2.774 cumulative IPC: 2.293 (Simulation time: 00 hr 29 min 25 sec)
Heartbeat CPU 0 instructions: 400000004 cycles: 164519742 heartbeat IPC: 2.684 cumulative IPC: 2.303 (Simulation time: 00 hr 30 min 08 sec)
Heartbeat CPU 0 instructions: 410000001 cycles: 167948489 heartbeat IPC: 2.917 cumulative IPC: 2.316 (Simulation time: 00 hr 30 min 48 sec)
Heartbeat CPU 0 instructions: 420000003 cycles: 171659110 heartbeat IPC: 2.695 cumulative IPC: 2.325 (Simulation time: 00 hr 31 min 30 sec)
Heartbeat CPU 0 instructions: 430000001 cycles: 175150152 heartbeat IPC: 2.864 cumulative IPC: 2.337 (Simulation time: 00 hr 32 min 12 sec)
Heartbeat CPU 0 instructions: 440000004 cycles: 178965690 heartbeat IPC: 2.621 cumulative IPC: 2.343 (Simulation time: 00 hr 32 min 54 sec)
Heartbeat CPU 0 instructions: 450000002 cycles: 182457538 heartbeat IPC: 2.864 cumulative IPC: 2.354 (Simulation time: 00 hr 33 min 36 sec)
Heartbeat CPU 0 instructions: 460000000 cycles: 185922072 heartbeat IPC: 2.886 cumulative IPC: 2.365 (Simulation time: 00 hr 34 min 17 sec)
Heartbeat CPU 0 instructions: 470000000 cycles: 189209295 heartbeat IPC: 3.042 cumulative IPC: 2.377 (Simulation time: 00 hr 34 min 59 sec)
Heartbeat CPU 0 instructions: 480000003 cycles: 192820013 heartbeat IPC: 2.77 cumulative IPC: 2.385 (Simulation time: 00 hr 35 min 41 sec)
Heartbeat CPU 0 instructions: 490000000 cycles: 196311362 heartbeat IPC: 2.864 cumulative IPC: 2.394 (Simulation time: 00 hr 36 min 23 sec)
Heartbeat CPU 0 instructions: 500000000 cycles: 199872921 heartbeat IPC: 2.808 cumulative IPC: 2.402 (Simulation time: 00 hr 37 min 05 sec)
Heartbeat CPU 0 instructions: 510000003 cycles: 203297351 heartbeat IPC: 2.92 cumulative IPC: 2.411 (Simulation time: 00 hr 37 min 47 sec)
Heartbeat CPU 0 instructions: 520000001 cycles: 206465677 heartbeat IPC: 3.156 cumulative IPC: 2.424 (Simulation time: 00 hr 38 min 28 sec)
Heartbeat CPU 0 instructions: 530000002 cycles: 209942308 heartbeat IPC: 2.876 cumulative IPC: 2.432 (Simulation time: 00 hr 39 min 09 sec)
Heartbeat CPU 0 instructions: 540000000 cycles: 213267513 heartbeat IPC: 3.007 cumulative IPC: 2.441 (Simulation time: 00 hr 39 min 51 sec)
Heartbeat CPU 0 instructions: 550000001 cycles: 216798917 heartbeat IPC: 2.832 cumulative IPC: 2.448 (Simulation time: 00 hr 40 min 34 sec)
Heartbeat CPU 0 instructions: 560000000 cycles: 220463309 heartbeat IPC: 2.729 cumulative IPC: 2.453 (Simulation time: 00 hr 41 min 18 sec)
Heartbeat CPU 0 instructions: 570000004 cycles: 224996795 heartbeat IPC: 2.206 cumulative IPC: 2.448 (Simulation time: 00 hr 42 min 09 sec)
Heartbeat CPU 0 instructions: 580000003 cycles: 231509583 heartbeat IPC: 1.535 cumulative IPC: 2.42 (Simulation time: 00 hr 43 min 12 sec)
Heartbeat CPU 0 instructions: 590000002 cycles: 238569885 heartbeat IPC: 1.416 cumulative IPC: 2.389 (Simulation time: 00 hr 44 min 16 sec)
Heartbeat CPU 0 instructions: 600000000 cycles: 242071026 heartbeat IPC: 2.856 cumulative IPC: 2.396 (Simulation time: 00 hr 45 min 01 sec)
Heartbeat CPU 0 instructions: 610000000 cycles: 245746551 heartbeat IPC: 2.721 cumulative IPC: 2.401 (Simulation time: 00 hr 45 min 47 sec)
Heartbeat CPU 0 instructions: 620000001 cycles: 249078520 heartbeat IPC: 3.001 cumulative IPC: 2.41 (Simulation time: 00 hr 46 min 32 sec)
Heartbeat CPU 0 instructions: 630000002 cycles: 253192913 heartbeat IPC: 2.43 cumulative IPC: 2.41 (Simulation time: 00 hr 47 min 19 sec)
Heartbeat CPU 0 instructions: 640000001 cycles: 257021289 heartbeat IPC: 2.612 cumulative IPC: 2.413 (Simulation time: 00 hr 48 min 03 sec)
Heartbeat CPU 0 instructions: 650000000 cycles: 260714433 heartbeat IPC: 2.708 cumulative IPC: 2.418 (Simulation time: 00 hr 48 min 45 sec)
Simulation finished CPU 0 instructions: 600000001 cycles: 248177312 cumulative IPC: 2.418 (Simulation time: 00 hr 48 min 45 sec)
Simulation complete CPU 0 instructions: 600000001 cycles: 248177312 cumulative IPC: 2.418 (Simulation time: 00 hr 48 min 45 sec)

ChampSim completed all CPUs

=== Simulation ===
CPU 0 runs traces/400.perlbench-41B.champsimtrace.xz
Region of Interest Statistics

CPU 0 cumulative IPC: 2.418 instructions: 600000001 cycles: 248177312
CPU 0 Branch Prediction Accuracy: 96.56% MPKI: 7.112 Average ROB Occupancy at Mispredict: 46.67
Branch type MPKI
BRANCH_DIRECT_JUMP: 0.0123
BRANCH_INDIRECT: 0.323
BRANCH_CONDITIONAL: 6.56
BRANCH_DIRECT_CALL: 0.0043
BRANCH_INDIRECT_CALL: 0.2
BRANCH_RETURN: 0.00828

LLC TOTAL        ACCESS:     593781 HIT:     542214 MISS:      51567
LLC LOAD         ACCESS:     403228 HIT:     366905 MISS:      36323
LLC RFO          ACCESS:      32497 HIT:      28290 MISS:       4207
LLC PREFETCH     ACCESS:      53333 HIT:      48910 MISS:       4423
LLC WRITE        ACCESS:      85515 HIT:      85493 MISS:         22
LLC TRANSLATION  ACCESS:      19208 HIT:      12616 MISS:       6592
LLC PREFETCH REQUESTED:      53333 ISSUED:      53333 USEFUL:       2689 USELESS:        272
LLC AVERAGE MISS LATENCY: 505.3 cycles
cpu0_DTLB TOTAL        ACCESS:  141909046 HIT:  141224147 MISS:     684899
cpu0_DTLB LOAD         ACCESS:  141909046 HIT:  141224147 MISS:     684899
cpu0_DTLB RFO          ACCESS:          0 HIT:          0 MISS:          0
cpu0_DTLB PREFETCH     ACCESS:          0 HIT:          0 MISS:          0
cpu0_DTLB WRITE        ACCESS:          0 HIT:          0 MISS:          0
cpu0_DTLB TRANSLATION  ACCESS:          0 HIT:          0 MISS:          0
cpu0_DTLB PREFETCH REQUESTED:          0 ISSUED:          0 USEFUL:          0 USELESS:          0
cpu0_DTLB AVERAGE MISS LATENCY: 10.46 cycles
cpu0_ITLB TOTAL        ACCESS:    4857674 HIT:    4804567 MISS:      53107
cpu0_ITLB LOAD         ACCESS:    4857674 HIT:    4804567 MISS:      53107
cpu0_ITLB RFO          ACCESS:          0 HIT:          0 MISS:          0
cpu0_ITLB PREFETCH     ACCESS:          0 HIT:          0 MISS:          0
cpu0_ITLB WRITE        ACCESS:          0 HIT:          0 MISS:          0
cpu0_ITLB TRANSLATION  ACCESS:          0 HIT:          0 MISS:          0
cpu0_ITLB PREFETCH REQUESTED:          0 ISSUED:          0 USEFUL:          0 USELESS:          0
cpu0_ITLB AVERAGE MISS LATENCY: 5.028 cycles
cpu0_L1D TOTAL        ACCESS:  188595188 HIT:  186916772 MISS:    1678416
cpu0_L1D LOAD         ACCESS:  105228453 HIT:  103914241 MISS:    1314212
cpu0_L1D RFO          ACCESS:          0 HIT:          0 MISS:          0
cpu0_L1D PREFETCH     ACCESS:          0 HIT:          0 MISS:          0
cpu0_L1D WRITE        ACCESS:   83342269 HIT:   83001465 MISS:     340804
cpu0_L1D TRANSLATION  ACCESS:      24466 HIT:       1066 MISS:      23400
cpu0_L1D PREFETCH REQUESTED:          0 ISSUED:          0 USEFUL:          0 USELESS:          0
cpu0_L1D AVERAGE MISS LATENCY: 22.3 cycles
cpu0_L1I TOTAL        ACCESS:    5595691 HIT:    4852435 MISS:     743256
cpu0_L1I LOAD         ACCESS:    5595691 HIT:    4852435 MISS:     743256
cpu0_L1I RFO          ACCESS:          0 HIT:          0 MISS:          0
cpu0_L1I PREFETCH     ACCESS:          0 HIT:          0 MISS:          0
cpu0_L1I WRITE        ACCESS:          0 HIT:          0 MISS:          0
cpu0_L1I TRANSLATION  ACCESS:          0 HIT:          0 MISS:          0
cpu0_L1I PREFETCH REQUESTED:          0 ISSUED:          0 USEFUL:          0 USELESS:          0
cpu0_L1I AVERAGE MISS LATENCY: 9.001 cycles
cpu0_L2C TOTAL        ACCESS:    1666237 HIT:    1209494 MISS:     456743
cpu0_L2C LOAD         ACCESS:    1316065 HIT:     912837 MISS:     403228
cpu0_L2C RFO          ACCESS:      88290 HIT:      55793 MISS:      32497
cpu0_L2C PREFETCH     ACCESS:          0 HIT:          0 MISS:          0
cpu0_L2C WRITE        ACCESS:     238552 HIT:     236742 MISS:       1810
cpu0_L2C TRANSLATION  ACCESS:      23330 HIT:       4122 MISS:      19208
cpu0_L2C PREFETCH REQUESTED:          0 ISSUED:          0 USEFUL:          0 USELESS:          0
cpu0_L2C AVERAGE MISS LATENCY: 71.15 cycles
cpu0_STLB TOTAL        ACCESS:     506616 HIT:     483822 MISS:      22794
cpu0_STLB LOAD         ACCESS:     506616 HIT:     483822 MISS:      22794
cpu0_STLB RFO          ACCESS:          0 HIT:          0 MISS:          0
cpu0_STLB PREFETCH     ACCESS:          0 HIT:          0 MISS:          0
cpu0_STLB WRITE        ACCESS:          0 HIT:          0 MISS:          0
cpu0_STLB TRANSLATION  ACCESS:          0 HIT:          0 MISS:          0
cpu0_STLB PREFETCH REQUESTED:          0 ISSUED:          0 USEFUL:          0 USELESS:          0
cpu0_STLB AVERAGE MISS LATENCY: 182.3 cycles

DRAM Statistics

Channel 0 RQ ROW_BUFFER_HIT:      13972
  ROW_BUFFER_MISS:      37108
 AVG DBUS CONGESTED CYCLE: 3.724
WQ ROW_BUFFER_HIT: Channel 0 
  ROW_BUFFER_MISS:        448
  FULL:        933
