WARNING: physical memory size is smaller than virtual memory size.

*** ChampSim Multicore Out-of-Order Simulator ***
Warmup Instructions: 50000000
Simulation Instructions: 600000000
Number of CPUs: 1
Page size: 4096

Off-chip DRAM Size: 4 GiB Channels: 1 Width: 64-bit Data Race: 3200 MT/s
Heartbeat CPU 0 instructions: 10000001 cycles: 2500318 heartbeat IPC: 3.999 cumulative IPC: 3.999 (Simulation time: 00 hr 03 min 41 sec)
Heartbeat CPU 0 instructions: 20000002 cycles: 5037138 heartbeat IPC: 3.942 cumulative IPC: 3.971 (Simulation time: 00 hr 07 min 32 sec)
Heartbeat CPU 0 instructions: 30000002 cycles: 7537138 heartbeat IPC: 4 cumulative IPC: 3.98 (Simulation time: 00 hr 11 min 03 sec)
Heartbeat CPU 0 instructions: 40000002 cycles: 10037138 heartbeat IPC: 4 cumulative IPC: 3.985 (Simulation time: 00 hr 14 min 34 sec)
Heartbeat CPU 0 instructions: 50000002 cycles: 12537138 heartbeat IPC: 4 cumulative IPC: 3.988 (Simulation time: 00 hr 18 min 04 sec)
Warmup finished CPU 0 instructions: 50000002 cycles: 12537139 cumulative IPC: 3.988 (Simulation time: 00 hr 18 min 04 sec)
Warmup complete CPU 0 instructions: 50000002 cycles: 12537139 cumulative IPC: 3.988 (Simulation time: 00 hr 18 min 04 sec)
Heartbeat CPU 0 instructions: 60000000 cycles: 16940376 heartbeat IPC: 2.271 cumulative IPC: 2.271 (Simulation time: 00 hr 23 min 04 sec)
Heartbeat CPU 0 instructions: 70000002 cycles: 21064799 heartbeat IPC: 2.425 cumulative IPC: 2.345 (Simulation time: 00 hr 27 min 57 sec)
Heartbeat CPU 0 instructions: 80000001 cycles: 25550695 heartbeat IPC: 2.229 cumulative IPC: 2.305 (Simulation time: 00 hr 32 min 59 sec)
Heartbeat CPU 0 instructions: 90000003 cycles: 29492182 heartbeat IPC: 2.537 cumulative IPC: 2.359 (Simulation time: 00 hr 37 min 45 sec)
Heartbeat CPU 0 instructions: 100000000 cycles: 33593508 heartbeat IPC: 2.438 cumulative IPC: 2.375 (Simulation time: 00 hr 42 min 37 sec)
Heartbeat CPU 0 instructions: 110000000 cycles: 37704270 heartbeat IPC: 2.433 cumulative IPC: 2.384 (Simulation time: 00 hr 47 min 27 sec)
Heartbeat CPU 0 instructions: 120000001 cycles: 41652869 heartbeat IPC: 2.533 cumulative IPC: 2.404 (Simulation time: 00 hr 52 min 14 sec)
Heartbeat CPU 0 instructions: 130000001 cycles: 45378447 heartbeat IPC: 2.684 cumulative IPC: 2.436 (Simulation time: 00 hr 56 min 56 sec)
Heartbeat CPU 0 instructions: 140000001 cycles: 49513291 heartbeat IPC: 2.418 cumulative IPC: 2.434 (Simulation time: 01 hr 01 min 48 sec)
Heartbeat CPU 0 instructions: 150000001 cycles: 53645758 heartbeat IPC: 2.42 cumulative IPC: 2.433 (Simulation time: 01 hr 06 min 40 sec)
Heartbeat CPU 0 instructions: 160000004 cycles: 57864726 heartbeat IPC: 2.37 cumulative IPC: 2.427 (Simulation time: 01 hr 11 min 34 sec)
Heartbeat CPU 0 instructions: 170000001 cycles: 65709021 heartbeat IPC: 1.275 cumulative IPC: 2.257 (Simulation time: 01 hr 18 min 51 sec)
Heartbeat CPU 0 instructions: 180000004 cycles: 72985904 heartbeat IPC: 1.374 cumulative IPC: 2.151 (Simulation time: 01 hr 26 min 08 sec)
Heartbeat CPU 0 instructions: 190000001 cycles: 79210807 heartbeat IPC: 1.606 cumulative IPC: 2.1 (Simulation time: 01 hr 32 min 35 sec)
Heartbeat CPU 0 instructions: 200000004 cycles: 82782683 heartbeat IPC: 2.8 cumulative IPC: 2.135 (Simulation time: 01 hr 37 min 06 sec)
Heartbeat CPU 0 instructions: 210000001 cycles: 86350098 heartbeat IPC: 2.803 cumulative IPC: 2.168 (Simulation time: 01 hr 41 min 41 sec)
Heartbeat CPU 0 instructions: 220000000 cycles: 90005191 heartbeat IPC: 2.736 cumulative IPC: 2.194 (Simulation time: 01 hr 46 min 17 sec)
Heartbeat CPU 0 instructions: 230000002 cycles: 94067907 heartbeat IPC: 2.461 cumulative IPC: 2.208 (Simulation time: 01 hr 51 min 04 sec)
Heartbeat CPU 0 instructions: 240000002 cycles: 97892420 heartbeat IPC: 2.615 cumulative IPC: 2.226 (Simulation time: 01 hr 55 min 43 sec)
Heartbeat CPU 0 instructions: 250000000 cycles: 101784907 heartbeat IPC: 2.569 cumulative IPC: 2.241 (Simulation time: 02 hr 00 min 27 sec)
Heartbeat CPU 0 instructions: 260000000 cycles: 105519165 heartbeat IPC: 2.678 cumulative IPC: 2.259 (Simulation time: 02 hr 05 min 05 sec)
Heartbeat CPU 0 instructions: 270000002 cycles: 109144613 heartbeat IPC: 2.758 cumulative IPC: 2.277 (Simulation time: 02 hr 09 min 40 sec)
Heartbeat CPU 0 instructions: 280000002 cycles: 112988509 heartbeat IPC: 2.602 cumulative IPC: 2.29 (Simulation time: 02 hr 14 min 42 sec)
Heartbeat CPU 0 instructions: 290000002 cycles: 116614439 heartbeat IPC: 2.758 cumulative IPC: 2.306 (Simulation time: 02 hr 19 min 04 sec)
Heartbeat CPU 0 instructions: 300000003 cycles: 120114504 heartbeat IPC: 2.857 cumulative IPC: 2.324 (Simulation time: 02 hr 23 min 39 sec)
Heartbeat CPU 0 instructions: 310000001 cycles: 123857064 heartbeat IPC: 2.672 cumulative IPC: 2.336 (Simulation time: 02 hr 28 min 17 sec)
Heartbeat CPU 0 instructions: 320000003 cycles: 127608697 heartbeat IPC: 2.666 cumulative IPC: 2.346 (Simulation time: 02 hr 32 min 56 sec)
Heartbeat CPU 0 instructions: 330000003 cycles: 131534092 heartbeat IPC: 2.548 cumulative IPC: 2.353 (Simulation time: 02 hr 37 min 41 sec)
Heartbeat CPU 0 instructions: 340000000 cycles: 138114091 heartbeat IPC: 1.52 cumulative IPC: 2.309 (Simulation time: 02 hr 44 min 25 sec)
Heartbeat CPU 0 instructions: 350000000 cycles: 145444319 heartbeat IPC: 1.364 cumulative IPC: 2.257 (Simulation time: 02 hr 51 min 35 sec)
Heartbeat CPU 0 instructions: 360000004 cycles: 151838338 heartbeat IPC: 1.564 cumulative IPC: 2.225 (Simulation time: 02 hr 58 min 10 sec)
Heartbeat CPU 0 instructions: 370000001 cycles: 155065505 heartbeat IPC: 3.099 cumulative IPC: 2.245 (Simulation time: 03 hr 02 min 34 sec)
Heartbeat CPU 0 instructions: 380000001 cycles: 158240107 heartbeat IPC: 3.15 cumulative IPC: 2.265 (Simulation time: 03 hr 06 min 58 sec)
Heartbeat CPU 0 instructions: 390000004 cycles: 161642530 heartbeat IPC: 2.939 cumulative IPC: 2.28 (Simulation time: 03 hr 11 min 40 sec)
Heartbeat CPU 0 instructions: 400000004 cycles: 165078225 heartbeat IPC: 2.911 cumulative IPC: 2.294 (Simulation time: 03 hr 16 min 09 sec)
Heartbeat CPU 0 instructions: 410000001 cycles: 168576725 heartbeat IPC: 2.858 cumulative IPC: 2.307 (Simulation time: 03 hr 20 min 39 sec)
Heartbeat CPU 0 instructions: 420000002 cycles: 172301807 heartbeat IPC: 2.685 cumulative IPC: 2.316 (Simulation time: 03 hr 25 min 16 sec)
Heartbeat CPU 0 instructions: 430000001 cycles: 175690659 heartbeat IPC: 2.951 cumulative IPC: 2.329 (Simulation time: 03 hr 29 min 50 sec)
Heartbeat CPU 0 instructions: 440000004 cycles: 179330206 heartbeat IPC: 2.748 cumulative IPC: 2.338 (Simulation time: 03 hr 34 min 26 sec)
Heartbeat CPU 0 instructions: 450000002 cycles: 182579680 heartbeat IPC: 3.077 cumulative IPC: 2.352 (Simulation time: 03 hr 38 min 51 sec)
Heartbeat CPU 0 instructions: 460000000 cycles: 185886730 heartbeat IPC: 3.024 cumulative IPC: 2.365 (Simulation time: 03 hr 43 min 16 sec)
Heartbeat CPU 0 instructions: 470000001 cycles: 189163274 heartbeat IPC: 3.052 cumulative IPC: 2.378 (Simulation time: 03 hr 47 min 42 sec)
Heartbeat CPU 0 instructions: 480000003 cycles: 192662199 heartbeat IPC: 2.858 cumulative IPC: 2.387 (Simulation time: 03 hr 52 min 12 sec)
Heartbeat CPU 0 instructions: 490000000 cycles: 195994469 heartbeat IPC: 3.001 cumulative IPC: 2.398 (Simulation time: 03 hr 56 min 37 sec)
Heartbeat CPU 0 instructions: 500000004 cycles: 199468584 heartbeat IPC: 2.878 cumulative IPC: 2.407 (Simulation time: 04 hr 01 min 09 sec)
Heartbeat CPU 0 instructions: 510000003 cycles: 202877063 heartbeat IPC: 2.934 cumulative IPC: 2.417 (Simulation time: 04 hr 05 min 42 sec)
Heartbeat CPU 0 instructions: 520000000 cycles: 205975237 heartbeat IPC: 3.228 cumulative IPC: 2.43 (Simulation time: 04 hr 10 min 05 sec)
Heartbeat CPU 0 instructions: 530000002 cycles: 209451641 heartbeat IPC: 2.877 cumulative IPC: 2.438 (Simulation time: 04 hr 14 min 37 sec)
Heartbeat CPU 0 instructions: 540000000 cycles: 212754100 heartbeat IPC: 3.028 cumulative IPC: 2.447 (Simulation time: 04 hr 19 min 04 sec)
Heartbeat CPU 0 instructions: 550000001 cycles: 216224711 heartbeat IPC: 2.881 cumulative IPC: 2.455 (Simulation time: 04 hr 23 min 36 sec)
Heartbeat CPU 0 instructions: 560000004 cycles: 219795558 heartbeat IPC: 2.8 cumulative IPC: 2.461 (Simulation time: 04 hr 28 min 11 sec)
Heartbeat CPU 0 instructions: 570000004 cycles: 224531647 heartbeat IPC: 2.111 cumulative IPC: 2.453 (Simulation time: 04 hr 33 min 42 sec)
Heartbeat CPU 0 instructions: 580000003 cycles: 231385060 heartbeat IPC: 1.459 cumulative IPC: 2.422 (Simulation time: 04 hr 40 min 32 sec)
Heartbeat CPU 0 instructions: 590000002 cycles: 238948024 heartbeat IPC: 1.322 cumulative IPC: 2.385 (Simulation time: 04 hr 47 min 53 sec)
Heartbeat CPU 0 instructions: 600000000 cycles: 242413191 heartbeat IPC: 2.886 cumulative IPC: 2.393 (Simulation time: 04 hr 52 min 22 sec)
Heartbeat CPU 0 instructions: 610000002 cycles: 245986215 heartbeat IPC: 2.799 cumulative IPC: 2.399 (Simulation time: 04 hr 56 min 53 sec)
Heartbeat CPU 0 instructions: 620000001 cycles: 249264232 heartbeat IPC: 3.051 cumulative IPC: 2.408 (Simulation time: 05 hr 01 min 20 sec)
Heartbeat CPU 0 instructions: 630000002 cycles: 253202806 heartbeat IPC: 2.539 cumulative IPC: 2.41 (Simulation time: 05 hr 06 min 06 sec)
Heartbeat CPU 0 instructions: 640000001 cycles: 256885654 heartbeat IPC: 2.715 cumulative IPC: 2.415 (Simulation time: 05 hr 10 min 45 sec)
Heartbeat CPU 0 instructions: 650000000 cycles: 260468020 heartbeat IPC: 2.791 cumulative IPC: 2.42 (Simulation time: 05 hr 15 min 20 sec)
Simulation finished CPU 0 instructions: 600000001 cycles: 247930883 cumulative IPC: 2.42 (Simulation time: 05 hr 15 min 20 sec)
Simulation complete CPU 0 instructions: 600000001 cycles: 247930883 cumulative IPC: 2.42 (Simulation time: 05 hr 15 min 20 sec)

ChampSim completed all CPUs

=== Simulation ===
CPU 0 runs traces/400.perlbench-41B.champsimtrace.xz
Region of Interest Statistics

CPU 0 cumulative IPC: 2.42 instructions: 600000001 cycles: 247930883
CPU 0 Branch Prediction Accuracy: 96.64% MPKI: 6.948 Average ROB Occupancy at Mispredict: 45.19
Branch type MPKI
BRANCH_DIRECT_JUMP: 0.0123
BRANCH_INDIRECT: 0.323
BRANCH_CONDITIONAL: 6.4
BRANCH_DIRECT_CALL: 0.0043
BRANCH_INDIRECT_CALL: 0.2
BRANCH_RETURN: 0.00828

LLC TOTAL        ACCESS:     540150 HIT:     496466 MISS:      43684
LLC LOAD         ACCESS:     402871 HIT:     369862 MISS:      33009
LLC RFO          ACCESS:      32536 HIT:      28538 MISS:       3998
LLC PREFETCH     ACCESS:          0 HIT:          0 MISS:          0
LLC WRITE        ACCESS:      85710 HIT:      85618 MISS:         92
LLC TRANSLATION  ACCESS:      19033 HIT:      12448 MISS:       6585
LLC PREFETCH REQUESTED:          0 ISSUED:          0 USEFUL:          0 USELESS:          0
LLC AVERAGE MISS LATENCY: 466.5 cycles
cpu0_DTLB TOTAL        ACCESS:  141376991 HIT:  140703375 MISS:     673616
cpu0_DTLB LOAD         ACCESS:  141376991 HIT:  140703375 MISS:     673616
cpu0_DTLB RFO          ACCESS:          0 HIT:          0 MISS:          0
cpu0_DTLB PREFETCH     ACCESS:          0 HIT:          0 MISS:          0
cpu0_DTLB WRITE        ACCESS:          0 HIT:          0 MISS:          0
cpu0_DTLB TRANSLATION  ACCESS:          0 HIT:          0 MISS:          0
cpu0_DTLB PREFETCH REQUESTED:          0 ISSUED:          0 USEFUL:          0 USELESS:          0
cpu0_DTLB AVERAGE MISS LATENCY: 10.46 cycles
cpu0_ITLB TOTAL        ACCESS:    4858637 HIT:    4811973 MISS:      46664
cpu0_ITLB LOAD         ACCESS:    4858637 HIT:    4811973 MISS:      46664
cpu0_ITLB RFO          ACCESS:          0 HIT:          0 MISS:          0
cpu0_ITLB PREFETCH     ACCESS:          0 HIT:          0 MISS:          0
cpu0_ITLB WRITE        ACCESS:          0 HIT:          0 MISS:          0
cpu0_ITLB TRANSLATION  ACCESS:          0 HIT:          0 MISS:          0
cpu0_ITLB PREFETCH REQUESTED:          0 ISSUED:          0 USEFUL:          0 USELESS:          0
cpu0_ITLB AVERAGE MISS LATENCY: 5.745 cycles
cpu0_L1D TOTAL        ACCESS:  188035986 HIT:  186386109 MISS:    1649877
cpu0_L1D LOAD         ACCESS:  104710523 HIT:  103421872 MISS:    1288651
cpu0_L1D RFO          ACCESS:          0 HIT:          0 MISS:          0
cpu0_L1D PREFETCH     ACCESS:          0 HIT:          0 MISS:          0
cpu0_L1D WRITE        ACCESS:   83300995 HIT:   82963175 MISS:     337820
cpu0_L1D TRANSLATION  ACCESS:      24468 HIT:       1062 MISS:      23406
cpu0_L1D PREFETCH REQUESTED:          0 ISSUED:          0 USEFUL:          0 USELESS:          0
cpu0_L1D AVERAGE MISS LATENCY: 21.1 cycles
cpu0_L1I TOTAL        ACCESS:    5596318 HIT:    4876298 MISS:     720020
cpu0_L1I LOAD         ACCESS:    5596318 HIT:    4876298 MISS:     720020
cpu0_L1I RFO          ACCESS:          0 HIT:          0 MISS:          0
cpu0_L1I PREFETCH     ACCESS:          0 HIT:          0 MISS:          0
cpu0_L1I WRITE        ACCESS:          0 HIT:          0 MISS:          0
cpu0_L1I TRANSLATION  ACCESS:          0 HIT:          0 MISS:          0
cpu0_L1I PREFETCH REQUESTED:          0 ISSUED:          0 USEFUL:          0 USELESS:          0
cpu0_L1I AVERAGE MISS LATENCY: 9.335 cycles
cpu0_L2C TOTAL        ACCESS:    1666662 HIT:    1210415 MISS:     456247
cpu0_L2C LOAD         ACCESS:    1316639 HIT:     913768 MISS:     402871
cpu0_L2C RFO          ACCESS:      88035 HIT:      55499 MISS:      32536
cpu0_L2C PREFETCH     ACCESS:          0 HIT:          0 MISS:          0
cpu0_L2C WRITE        ACCESS:     238642 HIT:     236835 MISS:       1807
cpu0_L2C TRANSLATION  ACCESS:      23346 HIT:       4313 MISS:      19033
cpu0_L2C PREFETCH REQUESTED:          0 ISSUED:          0 USEFUL:          0 USELESS:          0
cpu0_L2C AVERAGE MISS LATENCY: 64.69 cycles
cpu0_STLB TOTAL        ACCESS:     505660 HIT:     482869 MISS:      22791
cpu0_STLB LOAD         ACCESS:     505660 HIT:     482869 MISS:      22791
cpu0_STLB RFO          ACCESS:          0 HIT:          0 MISS:          0
cpu0_STLB PREFETCH     ACCESS:          0 HIT:          0 MISS:          0
cpu0_STLB WRITE        ACCESS:          0 HIT:          0 MISS:          0
cpu0_STLB TRANSLATION  ACCESS:          0 HIT:          0 MISS:          0
cpu0_STLB PREFETCH REQUESTED:          0 ISSUED:          0 USEFUL:          0 USELESS:          0
cpu0_STLB AVERAGE MISS LATENCY: 172.8 cycles

DRAM Statistics

Channel 0 RQ ROW_BUFFER_HIT:      13010
  ROW_BUFFER_MISS:      30582
 AVG DBUS CONGESTED CYCLE: 3.66
WQ ROW_BUFFER_HIT: Channel 0 
  ROW_BUFFER_MISS:        223
  FULL:        417
