WARNING: physical memory size is smaller than virtual memory size.

*** ChampSim Multicore Out-of-Order Simulator ***
Warmup Instructions: 50000000
Simulation Instructions: 600000000
Number of CPUs: 1
Page size: 4096

CPU 0 Tage branch predictor
Off-chip DRAM Size: 4 GiB Channels: 1 Width: 64-bit Data Race: 3200 MT/s
Heartbeat CPU 0 instructions: 10000001 cycles: 2500318 heartbeat IPC: 3.999 cumulative IPC: 3.999 (Simulation time: 00 hr 04 min 23 sec)
Heartbeat CPU 0 instructions: 20000002 cycles: 5037121 heartbeat IPC: 3.942 cumulative IPC: 3.971 (Simulation time: 00 hr 08 min 54 sec)
Heartbeat CPU 0 instructions: 30000002 cycles: 7537121 heartbeat IPC: 4 cumulative IPC: 3.98 (Simulation time: 00 hr 13 min 16 sec)
Heartbeat CPU 0 instructions: 40000002 cycles: 10037121 heartbeat IPC: 4 cumulative IPC: 3.985 (Simulation time: 00 hr 17 min 28 sec)
Heartbeat CPU 0 instructions: 50000002 cycles: 12537121 heartbeat IPC: 4 cumulative IPC: 3.988 (Simulation time: 00 hr 21 min 40 sec)
Warmup finished CPU 0 instructions: 50000002 cycles: 12537122 cumulative IPC: 3.988 (Simulation time: 00 hr 21 min 40 sec)
Warmup complete CPU 0 instructions: 50000002 cycles: 12537122 cumulative IPC: 3.988 (Simulation time: 00 hr 21 min 40 sec)
Heartbeat CPU 0 instructions: 60000001 cycles: 15535261 heartbeat IPC: 3.335 cumulative IPC: 3.335 (Simulation time: 00 hr 26 min 41 sec)
Heartbeat CPU 0 instructions: 70000004 cycles: 18611695 heartbeat IPC: 3.251 cumulative IPC: 3.292 (Simulation time: 00 hr 31 min 44 sec)
Heartbeat CPU 0 instructions: 80000001 cycles: 21660604 heartbeat IPC: 3.28 cumulative IPC: 3.288 (Simulation time: 00 hr 36 min 45 sec)
Heartbeat CPU 0 instructions: 90000001 cycles: 24608098 heartbeat IPC: 3.393 cumulative IPC: 3.314 (Simulation time: 00 hr 41 min 43 sec)
Heartbeat CPU 0 instructions: 100000000 cycles: 27519665 heartbeat IPC: 3.435 cumulative IPC: 3.337 (Simulation time: 00 hr 46 min 38 sec)
Heartbeat CPU 0 instructions: 110000000 cycles: 30461039 heartbeat IPC: 3.4 cumulative IPC: 3.347 (Simulation time: 00 hr 51 min 34 sec)
Heartbeat CPU 0 instructions: 120000001 cycles: 33436936 heartbeat IPC: 3.36 cumulative IPC: 3.349 (Simulation time: 00 hr 56 min 46 sec)
Heartbeat CPU 0 instructions: 130000001 cycles: 36294534 heartbeat IPC: 3.499 cumulative IPC: 3.367 (Simulation time: 01 hr 01 min 45 sec)
Heartbeat CPU 0 instructions: 140000001 cycles: 39354158 heartbeat IPC: 3.268 cumulative IPC: 3.356 (Simulation time: 01 hr 06 min 46 sec)
Heartbeat CPU 0 instructions: 150000001 cycles: 42371565 heartbeat IPC: 3.314 cumulative IPC: 3.352 (Simulation time: 01 hr 11 min 49 sec)
Heartbeat CPU 0 instructions: 160000004 cycles: 45392827 heartbeat IPC: 3.31 cumulative IPC: 3.348 (Simulation time: 01 hr 16 min 51 sec)
Heartbeat CPU 0 instructions: 170000000 cycles: 50698255 heartbeat IPC: 1.885 cumulative IPC: 3.145 (Simulation time: 01 hr 23 min 31 sec)
Heartbeat CPU 0 instructions: 180000004 cycles: 55389157 heartbeat IPC: 2.132 cumulative IPC: 3.034 (Simulation time: 01 hr 29 min 53 sec)
Heartbeat CPU 0 instructions: 190000001 cycles: 59680990 heartbeat IPC: 2.33 cumulative IPC: 2.97 (Simulation time: 01 hr 35 min 59 sec)
Heartbeat CPU 0 instructions: 200000004 cycles: 62432066 heartbeat IPC: 3.635 cumulative IPC: 3.006 (Simulation time: 01 hr 40 min 47 sec)
Heartbeat CPU 0 instructions: 210000001 cycles: 65225872 heartbeat IPC: 3.579 cumulative IPC: 3.037 (Simulation time: 01 hr 45 min 39 sec)
Heartbeat CPU 0 instructions: 220000000 cycles: 68018084 heartbeat IPC: 3.581 cumulative IPC: 3.064 (Simulation time: 01 hr 50 min 31 sec)
Heartbeat CPU 0 instructions: 230000002 cycles: 70719824 heartbeat IPC: 3.701 cumulative IPC: 3.094 (Simulation time: 01 hr 55 min 16 sec)
Heartbeat CPU 0 instructions: 240000003 cycles: 73549767 heartbeat IPC: 3.534 cumulative IPC: 3.114 (Simulation time: 02 hr 00 min 07 sec)
Heartbeat CPU 0 instructions: 250000000 cycles: 76335926 heartbeat IPC: 3.589 cumulative IPC: 3.135 (Simulation time: 02 hr 04 min 58 sec)
Heartbeat CPU 0 instructions: 260000002 cycles: 79068939 heartbeat IPC: 3.659 cumulative IPC: 3.156 (Simulation time: 02 hr 09 min 46 sec)
Heartbeat CPU 0 instructions: 270000002 cycles: 81815517 heartbeat IPC: 3.641 cumulative IPC: 3.176 (Simulation time: 02 hr 14 min 34 sec)
Heartbeat CPU 0 instructions: 280000002 cycles: 84528149 heartbeat IPC: 3.686 cumulative IPC: 3.195 (Simulation time: 02 hr 19 min 21 sec)
Heartbeat CPU 0 instructions: 290000002 cycles: 87341971 heartbeat IPC: 3.554 cumulative IPC: 3.208 (Simulation time: 02 hr 24 min 11 sec)
Heartbeat CPU 0 instructions: 300000003 cycles: 90028987 heartbeat IPC: 3.722 cumulative IPC: 3.226 (Simulation time: 02 hr 29 min 04 sec)
Heartbeat CPU 0 instructions: 310000001 cycles: 92827928 heartbeat IPC: 3.573 cumulative IPC: 3.238 (Simulation time: 02 hr 33 min 55 sec)
Heartbeat CPU 0 instructions: 320000003 cycles: 95661027 heartbeat IPC: 3.53 cumulative IPC: 3.248 (Simulation time: 02 hr 39 min 00 sec)
Heartbeat CPU 0 instructions: 330000003 cycles: 98398111 heartbeat IPC: 3.654 cumulative IPC: 3.261 (Simulation time: 02 hr 43 min 48 sec)
Heartbeat CPU 0 instructions: 340000000 cycles: 102998551 heartbeat IPC: 2.174 cumulative IPC: 3.206 (Simulation time: 02 hr 50 min 03 sec)
Heartbeat CPU 0 instructions: 350000000 cycles: 107765881 heartbeat IPC: 2.098 cumulative IPC: 3.15 (Simulation time: 02 hr 56 min 09 sec)
Heartbeat CPU 0 instructions: 360000004 cycles: 112229559 heartbeat IPC: 2.24 cumulative IPC: 3.11 (Simulation time: 03 hr 02 min 17 sec)
Heartbeat CPU 0 instructions: 370000000 cycles: 115033528 heartbeat IPC: 3.566 cumulative IPC: 3.122 (Simulation time: 03 hr 07 min 08 sec)
Heartbeat CPU 0 instructions: 380000003 cycles: 117792618 heartbeat IPC: 3.624 cumulative IPC: 3.135 (Simulation time: 03 hr 11 min 56 sec)
Heartbeat CPU 0 instructions: 390000002 cycles: 120657877 heartbeat IPC: 3.49 cumulative IPC: 3.145 (Simulation time: 03 hr 16 min 48 sec)
Heartbeat CPU 0 instructions: 400000004 cycles: 123485809 heartbeat IPC: 3.536 cumulative IPC: 3.155 (Simulation time: 03 hr 21 min 40 sec)
Heartbeat CPU 0 instructions: 410000002 cycles: 126249239 heartbeat IPC: 3.619 cumulative IPC: 3.166 (Simulation time: 03 hr 26 min 28 sec)
Heartbeat CPU 0 instructions: 420000003 cycles: 129092952 heartbeat IPC: 3.517 cumulative IPC: 3.174 (Simulation time: 03 hr 31 min 20 sec)
Heartbeat CPU 0 instructions: 430000001 cycles: 131964811 heartbeat IPC: 3.482 cumulative IPC: 3.182 (Simulation time: 03 hr 36 min 16 sec)
Heartbeat CPU 0 instructions: 440000004 cycles: 134890825 heartbeat IPC: 3.418 cumulative IPC: 3.187 (Simulation time: 03 hr 41 min 12 sec)
Heartbeat CPU 0 instructions: 450000002 cycles: 137627407 heartbeat IPC: 3.654 cumulative IPC: 3.198 (Simulation time: 03 hr 46 min 00 sec)
Heartbeat CPU 0 instructions: 460000000 cycles: 140404744 heartbeat IPC: 3.601 cumulative IPC: 3.206 (Simulation time: 03 hr 50 min 49 sec)
Heartbeat CPU 0 instructions: 470000001 cycles: 143121682 heartbeat IPC: 3.681 cumulative IPC: 3.216 (Simulation time: 03 hr 55 min 37 sec)
Heartbeat CPU 0 instructions: 480000003 cycles: 146000241 heartbeat IPC: 3.474 cumulative IPC: 3.222 (Simulation time: 04 hr 00 min 28 sec)
Heartbeat CPU 0 instructions: 490000004 cycles: 148726049 heartbeat IPC: 3.669 cumulative IPC: 3.231 (Simulation time: 04 hr 05 min 14 sec)
Heartbeat CPU 0 instructions: 500000004 cycles: 151604437 heartbeat IPC: 3.474 cumulative IPC: 3.236 (Simulation time: 04 hr 10 min 04 sec)
Heartbeat CPU 0 instructions: 510000003 cycles: 154455650 heartbeat IPC: 3.507 cumulative IPC: 3.241 (Simulation time: 04 hr 14 min 59 sec)
Heartbeat CPU 0 instructions: 520000001 cycles: 157166633 heartbeat IPC: 3.689 cumulative IPC: 3.25 (Simulation time: 04 hr 19 min 46 sec)
Heartbeat CPU 0 instructions: 530000001 cycles: 160028368 heartbeat IPC: 3.494 cumulative IPC: 3.254 (Simulation time: 04 hr 24 min 53 sec)
Heartbeat CPU 0 instructions: 540000000 cycles: 162842485 heartbeat IPC: 3.554 cumulative IPC: 3.26 (Simulation time: 04 hr 29 min 49 sec)
Heartbeat CPU 0 instructions: 550000001 cycles: 165706523 heartbeat IPC: 3.492 cumulative IPC: 3.264 (Simulation time: 04 hr 34 min 44 sec)
Heartbeat CPU 0 instructions: 560000000 cycles: 168577990 heartbeat IPC: 3.483 cumulative IPC: 3.268 (Simulation time: 04 hr 39 min 38 sec)
Heartbeat CPU 0 instructions: 570000004 cycles: 172310941 heartbeat IPC: 2.679 cumulative IPC: 3.255 (Simulation time: 04 hr 45 min 12 sec)
Heartbeat CPU 0 instructions: 580000003 cycles: 177045457 heartbeat IPC: 2.112 cumulative IPC: 3.222 (Simulation time: 04 hr 51 min 38 sec)
Heartbeat CPU 0 instructions: 590000002 cycles: 182101948 heartbeat IPC: 1.978 cumulative IPC: 3.185 (Simulation time: 04 hr 58 min 31 sec)
Heartbeat CPU 0 instructions: 600000004 cycles: 184966947 heartbeat IPC: 3.49 cumulative IPC: 3.19 (Simulation time: 05 hr 03 min 20 sec)
Heartbeat CPU 0 instructions: 610000002 cycles: 187790196 heartbeat IPC: 3.542 cumulative IPC: 3.195 (Simulation time: 05 hr 08 min 11 sec)
Heartbeat CPU 0 instructions: 620000001 cycles: 190484867 heartbeat IPC: 3.711 cumulative IPC: 3.203 (Simulation time: 05 hr 12 min 59 sec)
Heartbeat CPU 0 instructions: 630000002 cycles: 193329930 heartbeat IPC: 3.515 cumulative IPC: 3.208 (Simulation time: 05 hr 17 min 52 sec)
Heartbeat CPU 0 instructions: 640000004 cycles: 196225060 heartbeat IPC: 3.454 cumulative IPC: 3.212 (Simulation time: 05 hr 22 min 48 sec)
Heartbeat CPU 0 instructions: 650000000 cycles: 198924864 heartbeat IPC: 3.704 cumulative IPC: 3.219 (Simulation time: 05 hr 27 min 34 sec)
Simulation finished CPU 0 instructions: 600000001 cycles: 186387744 cumulative IPC: 3.219 (Simulation time: 05 hr 27 min 34 sec)
Simulation complete CPU 0 instructions: 600000001 cycles: 186387744 cumulative IPC: 3.219 (Simulation time: 05 hr 27 min 34 sec)

ChampSim completed all CPUs

=== Simulation ===
CPU 0 runs traces/400.perlbench-41B.champsimtrace.xz
Region of Interest Statistics

CPU 0 cumulative IPC: 3.219 instructions: 600000001 cycles: 186387744
CPU 0 Branch Prediction Accuracy: 99.19% MPKI: 1.684 Average ROB Occupancy at Mispredict: 100.3
Branch type MPKI
BRANCH_DIRECT_JUMP: 0.0123
BRANCH_INDIRECT: 0.323
BRANCH_CONDITIONAL: 1.14
BRANCH_DIRECT_CALL: 0.0043
BRANCH_INDIRECT_CALL: 0.2
BRANCH_RETURN: 0.00828

LLC TOTAL        ACCESS:     939715 HIT:     861381 MISS:      78334
LLC LOAD         ACCESS:     401463 HIT:     369231 MISS:      32232
LLC RFO          ACCESS:      32527 HIT:      27678 MISS:       4849
LLC PREFETCH     ACCESS:     401463 HIT:     368063 MISS:      33400
LLC WRITE        ACCESS:      85191 HIT:      84788 MISS:        403
LLC TRANSLATION  ACCESS:      19071 HIT:      11621 MISS:       7450
LLC PREFETCH REQUESTED:     401463 ISSUED:     401463 USEFUL:      10922 USELESS:       7986
LLC AVERAGE MISS LATENCY: 566.9 cycles
cpu0_DTLB TOTAL        ACCESS:  129750803 HIT:  129049869 MISS:     700934
cpu0_DTLB LOAD         ACCESS:  129750803 HIT:  129049869 MISS:     700934
cpu0_DTLB RFO          ACCESS:          0 HIT:          0 MISS:          0
cpu0_DTLB PREFETCH     ACCESS:          0 HIT:          0 MISS:          0
cpu0_DTLB WRITE        ACCESS:          0 HIT:          0 MISS:          0
cpu0_DTLB TRANSLATION  ACCESS:          0 HIT:          0 MISS:          0
cpu0_DTLB PREFETCH REQUESTED:          0 ISSUED:          0 USEFUL:          0 USELESS:          0
cpu0_DTLB AVERAGE MISS LATENCY: 11.01 cycles
cpu0_ITLB TOTAL        ACCESS:    4859218 HIT:    4797038 MISS:      62180
cpu0_ITLB LOAD         ACCESS:    4859218 HIT:    4797038 MISS:      62180
cpu0_ITLB RFO          ACCESS:          0 HIT:          0 MISS:          0
cpu0_ITLB PREFETCH     ACCESS:          0 HIT:          0 MISS:          0
cpu0_ITLB WRITE        ACCESS:          0 HIT:          0 MISS:          0
cpu0_ITLB TRANSLATION  ACCESS:          0 HIT:          0 MISS:          0
cpu0_ITLB PREFETCH REQUESTED:          0 ISSUED:          0 USEFUL:          0 USELESS:          0
cpu0_ITLB AVERAGE MISS LATENCY: 4.406 cycles
cpu0_L1D TOTAL        ACCESS:  174383496 HIT:  172652959 MISS:    1730537
cpu0_L1D LOAD         ACCESS:   91360348 HIT:   90014034 MISS:    1346314
cpu0_L1D RFO          ACCESS:          0 HIT:          0 MISS:          0
cpu0_L1D PREFETCH     ACCESS:          0 HIT:          0 MISS:          0
cpu0_L1D WRITE        ACCESS:   82998681 HIT:   82637854 MISS:     360827
cpu0_L1D TRANSLATION  ACCESS:      24467 HIT:       1071 MISS:      23396
cpu0_L1D PREFETCH REQUESTED:          0 ISSUED:          0 USEFUL:          0 USELESS:          0
cpu0_L1D AVERAGE MISS LATENCY: 23.58 cycles
cpu0_L1I TOTAL        ACCESS:    5639336 HIT:    4835476 MISS:     803860
cpu0_L1I LOAD         ACCESS:    5639336 HIT:    4835476 MISS:     803860
cpu0_L1I RFO          ACCESS:          0 HIT:          0 MISS:          0
cpu0_L1I PREFETCH     ACCESS:          0 HIT:          0 MISS:          0
cpu0_L1I WRITE        ACCESS:          0 HIT:          0 MISS:          0
cpu0_L1I TRANSLATION  ACCESS:          0 HIT:          0 MISS:          0
cpu0_L1I PREFETCH REQUESTED:          0 ISSUED:          0 USEFUL:          0 USELESS:          0
cpu0_L1I AVERAGE MISS LATENCY: 7.98 cycles
cpu0_L2C TOTAL        ACCESS:    1668400 HIT:    1213525 MISS:     454875
cpu0_L2C LOAD         ACCESS:    1315327 HIT:     913864 MISS:     401463
cpu0_L2C RFO          ACCESS:      89548 HIT:      57021 MISS:      32527
cpu0_L2C PREFETCH     ACCESS:          0 HIT:          0 MISS:          0
cpu0_L2C WRITE        ACCESS:     240208 HIT:     238394 MISS:       1814
cpu0_L2C TRANSLATION  ACCESS:      23317 HIT:       4246 MISS:      19071
cpu0_L2C PREFETCH REQUESTED:          0 ISSUED:          0 USEFUL:          0 USELESS:          0
cpu0_L2C AVERAGE MISS LATENCY: 81.73 cycles
cpu0_STLB TOTAL        ACCESS:     507785 HIT:     484999 MISS:      22786
cpu0_STLB LOAD         ACCESS:     507785 HIT:     484999 MISS:      22786
cpu0_STLB RFO          ACCESS:          0 HIT:          0 MISS:          0
cpu0_STLB PREFETCH     ACCESS:          0 HIT:          0 MISS:          0
cpu0_STLB WRITE        ACCESS:          0 HIT:          0 MISS:          0
cpu0_STLB TRANSLATION  ACCESS:          0 HIT:          0 MISS:          0
cpu0_STLB PREFETCH REQUESTED:          0 ISSUED:          0 USEFUL:          0 USELESS:          0
cpu0_STLB AVERAGE MISS LATENCY: 215.8 cycles

DRAM Statistics

Channel 0 RQ ROW_BUFFER_HIT:      15963
  ROW_BUFFER_MISS:      49474
 AVG DBUS CONGESTED CYCLE: 3.848
WQ ROW_BUFFER_HIT: Channel 0 
  ROW_BUFFER_MISS:       1104
  FULL:       2182
