WARNING: physical memory size is smaller than virtual memory size.

*** ChampSim Multicore Out-of-Order Simulator ***
Warmup Instructions: 50000000
Simulation Instructions: 600000000
Number of CPUs: 1
Page size: 4096

Off-chip DRAM Size: 4 GiB Channels: 1 Width: 64-bit Data Race: 3200 MT/s
Heartbeat CPU 0 instructions: 10000000 cycles: 2500061 heartbeat IPC: 4 cumulative IPC: 4 (Simulation time: 00 hr 00 min 34 sec)
Heartbeat CPU 0 instructions: 20000000 cycles: 5000061 heartbeat IPC: 4 cumulative IPC: 4 (Simulation time: 00 hr 01 min 06 sec)
Heartbeat CPU 0 instructions: 30000000 cycles: 7500061 heartbeat IPC: 4 cumulative IPC: 4 (Simulation time: 00 hr 01 min 38 sec)
Heartbeat CPU 0 instructions: 40000000 cycles: 10000061 heartbeat IPC: 4 cumulative IPC: 4 (Simulation time: 00 hr 02 min 10 sec)
Heartbeat CPU 0 instructions: 50000000 cycles: 12500061 heartbeat IPC: 4 cumulative IPC: 4 (Simulation time: 00 hr 02 min 42 sec)
Warmup finished CPU 0 instructions: 50000000 cycles: 12500062 cumulative IPC: 4 (Simulation time: 00 hr 02 min 42 sec)
Warmup complete CPU 0 instructions: 50000000 cycles: 12500062 cumulative IPC: 4 (Simulation time: 00 hr 02 min 42 sec)
Heartbeat CPU 0 instructions: 60000002 cycles: 16444688 heartbeat IPC: 2.535 cumulative IPC: 2.535 (Simulation time: 00 hr 03 min 26 sec)
Heartbeat CPU 0 instructions: 70000003 cycles: 20760893 heartbeat IPC: 2.317 cumulative IPC: 2.421 (Simulation time: 00 hr 04 min 10 sec)
Heartbeat CPU 0 instructions: 80000003 cycles: 25229157 heartbeat IPC: 2.238 cumulative IPC: 2.357 (Simulation time: 00 hr 04 min 55 sec)
Heartbeat CPU 0 instructions: 90000000 cycles: 28920814 heartbeat IPC: 2.709 cumulative IPC: 2.436 (Simulation time: 00 hr 05 min 37 sec)
Heartbeat CPU 0 instructions: 100000003 cycles: 32818788 heartbeat IPC: 2.565 cumulative IPC: 2.461 (Simulation time: 00 hr 06 min 20 sec)
Heartbeat CPU 0 instructions: 110000002 cycles: 36920325 heartbeat IPC: 2.438 cumulative IPC: 2.457 (Simulation time: 00 hr 07 min 04 sec)
Heartbeat CPU 0 instructions: 120000001 cycles: 40635683 heartbeat IPC: 2.692 cumulative IPC: 2.488 (Simulation time: 00 hr 07 min 46 sec)
Heartbeat CPU 0 instructions: 130000003 cycles: 44404658 heartbeat IPC: 2.653 cumulative IPC: 2.507 (Simulation time: 00 hr 08 min 28 sec)
Heartbeat CPU 0 instructions: 140000002 cycles: 48538024 heartbeat IPC: 2.419 cumulative IPC: 2.497 (Simulation time: 00 hr 09 min 12 sec)
Heartbeat CPU 0 instructions: 150000001 cycles: 52589949 heartbeat IPC: 2.468 cumulative IPC: 2.494 (Simulation time: 00 hr 09 min 56 sec)
Heartbeat CPU 0 instructions: 160000000 cycles: 56247531 heartbeat IPC: 2.734 cumulative IPC: 2.514 (Simulation time: 00 hr 10 min 37 sec)
Heartbeat CPU 0 instructions: 170000001 cycles: 60421737 heartbeat IPC: 2.396 cumulative IPC: 2.504 (Simulation time: 00 hr 11 min 21 sec)
Heartbeat CPU 0 instructions: 180000001 cycles: 63882371 heartbeat IPC: 2.89 cumulative IPC: 2.53 (Simulation time: 00 hr 12 min 03 sec)
Heartbeat CPU 0 instructions: 190000002 cycles: 67465761 heartbeat IPC: 2.791 cumulative IPC: 2.547 (Simulation time: 00 hr 12 min 45 sec)
Heartbeat CPU 0 instructions: 200000002 cycles: 71249161 heartbeat IPC: 2.643 cumulative IPC: 2.553 (Simulation time: 00 hr 13 min 28 sec)
Heartbeat CPU 0 instructions: 210000000 cycles: 74888079 heartbeat IPC: 2.748 cumulative IPC: 2.565 (Simulation time: 00 hr 14 min 10 sec)
Heartbeat CPU 0 instructions: 220000001 cycles: 78754029 heartbeat IPC: 2.587 cumulative IPC: 2.566 (Simulation time: 00 hr 14 min 52 sec)
Heartbeat CPU 0 instructions: 230000002 cycles: 82594747 heartbeat IPC: 2.604 cumulative IPC: 2.568 (Simulation time: 00 hr 15 min 36 sec)
Heartbeat CPU 0 instructions: 240000001 cycles: 86801493 heartbeat IPC: 2.377 cumulative IPC: 2.557 (Simulation time: 00 hr 16 min 22 sec)
Heartbeat CPU 0 instructions: 250000003 cycles: 91366485 heartbeat IPC: 2.191 cumulative IPC: 2.536 (Simulation time: 00 hr 17 min 10 sec)
Heartbeat CPU 0 instructions: 260000000 cycles: 95158973 heartbeat IPC: 2.637 cumulative IPC: 2.541 (Simulation time: 00 hr 17 min 55 sec)
Heartbeat CPU 0 instructions: 270000003 cycles: 102228918 heartbeat IPC: 1.414 cumulative IPC: 2.452 (Simulation time: 00 hr 18 min 58 sec)
Heartbeat CPU 0 instructions: 280000000 cycles: 112630929 heartbeat IPC: 0.9614 cumulative IPC: 2.297 (Simulation time: 00 hr 20 min 23 sec)
Heartbeat CPU 0 instructions: 290000000 cycles: 121811002 heartbeat IPC: 1.089 cumulative IPC: 2.196 (Simulation time: 00 hr 21 min 41 sec)
Heartbeat CPU 0 instructions: 300000003 cycles: 129010482 heartbeat IPC: 1.389 cumulative IPC: 2.146 (Simulation time: 00 hr 22 min 49 sec)
Heartbeat CPU 0 instructions: 310000004 cycles: 138982009 heartbeat IPC: 1.003 cumulative IPC: 2.056 (Simulation time: 00 hr 24 min 13 sec)
Heartbeat CPU 0 instructions: 320000004 cycles: 143890277 heartbeat IPC: 2.037 cumulative IPC: 2.055 (Simulation time: 00 hr 25 min 07 sec)
Heartbeat CPU 0 instructions: 330000000 cycles: 147893474 heartbeat IPC: 2.498 cumulative IPC: 2.068 (Simulation time: 00 hr 25 min 54 sec)
Heartbeat CPU 0 instructions: 340000001 cycles: 151747143 heartbeat IPC: 2.595 cumulative IPC: 2.083 (Simulation time: 00 hr 26 min 39 sec)
Heartbeat CPU 0 instructions: 350000004 cycles: 155703414 heartbeat IPC: 2.528 cumulative IPC: 2.095 (Simulation time: 00 hr 27 min 25 sec)
Heartbeat CPU 0 instructions: 360000003 cycles: 159402735 heartbeat IPC: 2.703 cumulative IPC: 2.11 (Simulation time: 00 hr 28 min 10 sec)
Heartbeat CPU 0 instructions: 370000001 cycles: 163083941 heartbeat IPC: 2.717 cumulative IPC: 2.125 (Simulation time: 00 hr 28 min 55 sec)
Heartbeat CPU 0 instructions: 380000004 cycles: 166629465 heartbeat IPC: 2.82 cumulative IPC: 2.141 (Simulation time: 00 hr 29 min 39 sec)
Heartbeat CPU 0 instructions: 390000002 cycles: 170220661 heartbeat IPC: 2.785 cumulative IPC: 2.156 (Simulation time: 00 hr 30 min 24 sec)
Heartbeat CPU 0 instructions: 400000000 cycles: 174095504 heartbeat IPC: 2.581 cumulative IPC: 2.166 (Simulation time: 00 hr 31 min 10 sec)
Heartbeat CPU 0 instructions: 410000000 cycles: 179674807 heartbeat IPC: 1.792 cumulative IPC: 2.153 (Simulation time: 00 hr 32 min 05 sec)
Heartbeat CPU 0 instructions: 420000003 cycles: 186806950 heartbeat IPC: 1.402 cumulative IPC: 2.123 (Simulation time: 00 hr 33 min 07 sec)
Heartbeat CPU 0 instructions: 430000000 cycles: 193278355 heartbeat IPC: 1.545 cumulative IPC: 2.102 (Simulation time: 00 hr 34 min 12 sec)
Heartbeat CPU 0 instructions: 440000004 cycles: 199285270 heartbeat IPC: 1.665 cumulative IPC: 2.088 (Simulation time: 00 hr 35 min 13 sec)
Heartbeat CPU 0 instructions: 450000001 cycles: 205539041 heartbeat IPC: 1.599 cumulative IPC: 2.072 (Simulation time: 00 hr 36 min 15 sec)
Heartbeat CPU 0 instructions: 460000002 cycles: 213150928 heartbeat IPC: 1.314 cumulative IPC: 2.043 (Simulation time: 00 hr 37 min 25 sec)
Heartbeat CPU 0 instructions: 470000003 cycles: 219413581 heartbeat IPC: 1.597 cumulative IPC: 2.03 (Simulation time: 00 hr 38 min 27 sec)
Heartbeat CPU 0 instructions: 480000003 cycles: 223171065 heartbeat IPC: 2.661 cumulative IPC: 2.041 (Simulation time: 00 hr 39 min 11 sec)
Heartbeat CPU 0 instructions: 490000001 cycles: 227036822 heartbeat IPC: 2.587 cumulative IPC: 2.051 (Simulation time: 00 hr 39 min 55 sec)
Heartbeat CPU 0 instructions: 500000002 cycles: 230754299 heartbeat IPC: 2.69 cumulative IPC: 2.062 (Simulation time: 00 hr 40 min 40 sec)
Heartbeat CPU 0 instructions: 510000000 cycles: 234307998 heartbeat IPC: 2.814 cumulative IPC: 2.074 (Simulation time: 00 hr 41 min 23 sec)
Heartbeat CPU 0 instructions: 520000000 cycles: 238013910 heartbeat IPC: 2.698 cumulative IPC: 2.084 (Simulation time: 00 hr 42 min 10 sec)
Heartbeat CPU 0 instructions: 530000001 cycles: 244967157 heartbeat IPC: 1.438 cumulative IPC: 2.065 (Simulation time: 00 hr 43 min 14 sec)
Heartbeat CPU 0 instructions: 540000000 cycles: 251997180 heartbeat IPC: 1.422 cumulative IPC: 2.046 (Simulation time: 00 hr 44 min 21 sec)
Heartbeat CPU 0 instructions: 550000004 cycles: 259359531 heartbeat IPC: 1.358 cumulative IPC: 2.025 (Simulation time: 00 hr 45 min 34 sec)
Heartbeat CPU 0 instructions: 560000004 cycles: 263161093 heartbeat IPC: 2.63 cumulative IPC: 2.035 (Simulation time: 00 hr 46 min 21 sec)
Heartbeat CPU 0 instructions: 570000001 cycles: 266239252 heartbeat IPC: 3.249 cumulative IPC: 2.049 (Simulation time: 00 hr 47 min 03 sec)
Heartbeat CPU 0 instructions: 580000003 cycles: 269680199 heartbeat IPC: 2.906 cumulative IPC: 2.061 (Simulation time: 00 hr 47 min 50 sec)
Heartbeat CPU 0 instructions: 590000002 cycles: 273215155 heartbeat IPC: 2.829 cumulative IPC: 2.071 (Simulation time: 00 hr 48 min 34 sec)
Heartbeat CPU 0 instructions: 600000003 cycles: 276229192 heartbeat IPC: 3.318 cumulative IPC: 2.085 (Simulation time: 00 hr 49 min 17 sec)
Heartbeat CPU 0 instructions: 610000001 cycles: 279675741 heartbeat IPC: 2.901 cumulative IPC: 2.096 (Simulation time: 00 hr 50 min 03 sec)
Heartbeat CPU 0 instructions: 620000000 cycles: 283639469 heartbeat IPC: 2.523 cumulative IPC: 2.102 (Simulation time: 00 hr 50 min 49 sec)
Heartbeat CPU 0 instructions: 630000002 cycles: 286967137 heartbeat IPC: 3.005 cumulative IPC: 2.113 (Simulation time: 00 hr 51 min 33 sec)
Heartbeat CPU 0 instructions: 640000004 cycles: 290933042 heartbeat IPC: 2.521 cumulative IPC: 2.119 (Simulation time: 00 hr 52 min 17 sec)
Heartbeat CPU 0 instructions: 650000001 cycles: 294735257 heartbeat IPC: 2.63 cumulative IPC: 2.126 (Simulation time: 00 hr 52 min 59 sec)
Simulation finished CPU 0 instructions: 600000001 cycles: 282235196 cumulative IPC: 2.126 (Simulation time: 00 hr 52 min 59 sec)
Simulation complete CPU 0 instructions: 600000001 cycles: 282235196 cumulative IPC: 2.126 (Simulation time: 00 hr 52 min 59 sec)

ChampSim completed all CPUs

=== Simulation ===
CPU 0 runs traces/400.perlbench-50B.champsimtrace.xz
Region of Interest Statistics

CPU 0 cumulative IPC: 2.126 instructions: 600000001 cycles: 282235196
CPU 0 Branch Prediction Accuracy: 96.2% MPKI: 7.839 Average ROB Occupancy at Mispredict: 43.11
Branch type MPKI
BRANCH_DIRECT_JUMP: 0.0176
BRANCH_INDIRECT: 0.38
BRANCH_CONDITIONAL: 6.99
BRANCH_DIRECT_CALL: 0.0067
BRANCH_INDIRECT_CALL: 0.431
BRANCH_RETURN: 0.0161

LLC TOTAL        ACCESS:     837757 HIT:     709241 MISS:     128516
LLC LOAD         ACCESS:     576511 HIT:     477449 MISS:      99062
LLC RFO          ACCESS:      47515 HIT:      37920 MISS:       9595
LLC PREFETCH     ACCESS:      64260 HIT:      53541 MISS:      10719
LLC WRITE        ACCESS:     127382 HIT:     127377 MISS:          5
LLC TRANSLATION  ACCESS:      22089 HIT:      12954 MISS:       9135
LLC PREFETCH REQUESTED:      64260 ISSUED:      64260 USEFUL:       6431 USELESS:        518
LLC AVERAGE MISS LATENCY: 472 cycles
cpu0_DTLB TOTAL        ACCESS:  146521142 HIT:  145216379 MISS:    1304763
cpu0_DTLB LOAD         ACCESS:  146521142 HIT:  145216379 MISS:    1304763
cpu0_DTLB RFO          ACCESS:          0 HIT:          0 MISS:          0
cpu0_DTLB PREFETCH     ACCESS:          0 HIT:          0 MISS:          0
cpu0_DTLB WRITE        ACCESS:          0 HIT:          0 MISS:          0
cpu0_DTLB TRANSLATION  ACCESS:          0 HIT:          0 MISS:          0
cpu0_DTLB PREFETCH REQUESTED:          0 ISSUED:          0 USEFUL:          0 USELESS:          0
cpu0_DTLB AVERAGE MISS LATENCY: 9.817 cycles
cpu0_ITLB TOTAL        ACCESS:    8985384 HIT:    8800890 MISS:     184494
cpu0_ITLB LOAD         ACCESS:    8985384 HIT:    8800890 MISS:     184494
cpu0_ITLB RFO          ACCESS:          0 HIT:          0 MISS:          0
cpu0_ITLB PREFETCH     ACCESS:          0 HIT:          0 MISS:          0
cpu0_ITLB WRITE        ACCESS:          0 HIT:          0 MISS:          0
cpu0_ITLB TRANSLATION  ACCESS:          0 HIT:          0 MISS:          0
cpu0_ITLB PREFETCH REQUESTED:          0 ISSUED:          0 USEFUL:          0 USELESS:          0
cpu0_ITLB AVERAGE MISS LATENCY: 2.877 cycles
cpu0_L1D TOTAL        ACCESS:  193320078 HIT:  189692819 MISS:    3627259
cpu0_L1D LOAD         ACCESS:  107474074 HIT:  104482695 MISS:    2991379
cpu0_L1D RFO          ACCESS:          0 HIT:          0 MISS:          0
cpu0_L1D PREFETCH     ACCESS:          0 HIT:          0 MISS:          0
cpu0_L1D WRITE        ACCESS:   85817480 HIT:   85208703 MISS:     608777
cpu0_L1D TRANSLATION  ACCESS:      28524 HIT:       1421 MISS:      27103
cpu0_L1D PREFETCH REQUESTED:          0 ISSUED:          0 USEFUL:          0 USELESS:          0
cpu0_L1D AVERAGE MISS LATENCY: 21.91 cycles
cpu0_L1I TOTAL        ACCESS:   10419838 HIT:    8657982 MISS:    1761856
cpu0_L1I LOAD         ACCESS:   10419838 HIT:    8657982 MISS:    1761856
cpu0_L1I RFO          ACCESS:          0 HIT:          0 MISS:          0
cpu0_L1I PREFETCH     ACCESS:          0 HIT:          0 MISS:          0
cpu0_L1I WRITE        ACCESS:          0 HIT:          0 MISS:          0
cpu0_L1I TRANSLATION  ACCESS:          0 HIT:          0 MISS:          0
cpu0_L1I PREFETCH REQUESTED:          0 ISSUED:          0 USEFUL:          0 USELESS:          0
cpu0_L1I AVERAGE MISS LATENCY: 9.375 cycles
cpu0_L2C TOTAL        ACCESS:    3834894 HIT:    3185613 MISS:     649281
cpu0_L2C LOAD         ACCESS:    3105059 HIT:    2528548 MISS:     576511
cpu0_L2C RFO          ACCESS:     191508 HIT:     143992 MISS:      47516
cpu0_L2C PREFETCH     ACCESS:          0 HIT:          0 MISS:          0
cpu0_L2C WRITE        ACCESS:     511290 HIT:     508125 MISS:       3165
cpu0_L2C TRANSLATION  ACCESS:      27037 HIT:       4948 MISS:      22089
cpu0_L2C PREFETCH REQUESTED:          0 ISSUED:          0 USEFUL:          0 USELESS:          0
cpu0_L2C AVERAGE MISS LATENCY: 105.4 cycles
cpu0_STLB TOTAL        ACCESS:    1008163 HIT:     981469 MISS:      26694
cpu0_STLB LOAD         ACCESS:    1008163 HIT:     981469 MISS:      26694
cpu0_STLB RFO          ACCESS:          0 HIT:          0 MISS:          0
cpu0_STLB PREFETCH     ACCESS:          0 HIT:          0 MISS:          0
cpu0_STLB WRITE        ACCESS:          0 HIT:          0 MISS:          0
cpu0_STLB TRANSLATION  ACCESS:          0 HIT:          0 MISS:          0
cpu0_STLB PREFETCH REQUESTED:          0 ISSUED:          0 USEFUL:          0 USELESS:          0
cpu0_STLB AVERAGE MISS LATENCY: 253 cycles

DRAM Statistics

Channel 0 RQ ROW_BUFFER_HIT:      38644
  ROW_BUFFER_MISS:      87921
 AVG DBUS CONGESTED CYCLE: 3.732
WQ ROW_BUFFER_HIT: Channel 0 
  ROW_BUFFER_MISS:       1189
  FULL:       1435
