WARNING: physical memory size is smaller than virtual memory size.

*** ChampSim Multicore Out-of-Order Simulator ***
Warmup Instructions: 50000000
Simulation Instructions: 600000000
Number of CPUs: 1
Page size: 4096

CPU 0 Tage branch predictor
Off-chip DRAM Size: 4 GiB Channels: 1 Width: 64-bit Data Race: 3200 MT/s
Heartbeat CPU 0 instructions: 10000001 cycles: 2500318 heartbeat IPC: 3.999 cumulative IPC: 3.999 (Simulation time: 00 hr 04 min 31 sec)
Heartbeat CPU 0 instructions: 20000002 cycles: 5037108 heartbeat IPC: 3.942 cumulative IPC: 3.971 (Simulation time: 00 hr 08 min 57 sec)
Heartbeat CPU 0 instructions: 30000002 cycles: 7537108 heartbeat IPC: 4 cumulative IPC: 3.98 (Simulation time: 00 hr 13 min 01 sec)
Heartbeat CPU 0 instructions: 40000002 cycles: 10037108 heartbeat IPC: 4 cumulative IPC: 3.985 (Simulation time: 00 hr 17 min 16 sec)
Heartbeat CPU 0 instructions: 50000002 cycles: 12537108 heartbeat IPC: 4 cumulative IPC: 3.988 (Simulation time: 00 hr 21 min 24 sec)
Warmup finished CPU 0 instructions: 50000002 cycles: 12537109 cumulative IPC: 3.988 (Simulation time: 00 hr 21 min 24 sec)
Warmup complete CPU 0 instructions: 50000002 cycles: 12537109 cumulative IPC: 3.988 (Simulation time: 00 hr 21 min 24 sec)
Heartbeat CPU 0 instructions: 60000001 cycles: 15499494 heartbeat IPC: 3.376 cumulative IPC: 3.376 (Simulation time: 00 hr 26 min 13 sec)
Heartbeat CPU 0 instructions: 70000004 cycles: 18556956 heartbeat IPC: 3.271 cumulative IPC: 3.322 (Simulation time: 00 hr 31 min 19 sec)
Heartbeat CPU 0 instructions: 80000001 cycles: 21591359 heartbeat IPC: 3.296 cumulative IPC: 3.313 (Simulation time: 00 hr 36 min 16 sec)
Heartbeat CPU 0 instructions: 90000001 cycles: 24527121 heartbeat IPC: 3.406 cumulative IPC: 3.336 (Simulation time: 00 hr 41 min 03 sec)
Heartbeat CPU 0 instructions: 100000000 cycles: 27429351 heartbeat IPC: 3.446 cumulative IPC: 3.357 (Simulation time: 00 hr 45 min 50 sec)
Heartbeat CPU 0 instructions: 110000000 cycles: 30365349 heartbeat IPC: 3.406 cumulative IPC: 3.365 (Simulation time: 00 hr 50 min 40 sec)
Heartbeat CPU 0 instructions: 120000001 cycles: 33326104 heartbeat IPC: 3.378 cumulative IPC: 3.367 (Simulation time: 00 hr 55 min 29 sec)
Heartbeat CPU 0 instructions: 130000001 cycles: 36168000 heartbeat IPC: 3.519 cumulative IPC: 3.385 (Simulation time: 01 hr 00 min 19 sec)
Heartbeat CPU 0 instructions: 140000001 cycles: 39190763 heartbeat IPC: 3.308 cumulative IPC: 3.377 (Simulation time: 01 hr 05 min 09 sec)
Heartbeat CPU 0 instructions: 150000001 cycles: 42183393 heartbeat IPC: 3.342 cumulative IPC: 3.373 (Simulation time: 01 hr 10 min 01 sec)
Heartbeat CPU 0 instructions: 160000004 cycles: 45170836 heartbeat IPC: 3.347 cumulative IPC: 3.371 (Simulation time: 01 hr 14 min 52 sec)
Heartbeat CPU 0 instructions: 170000000 cycles: 50671918 heartbeat IPC: 1.818 cumulative IPC: 3.147 (Simulation time: 01 hr 21 min 34 sec)
Heartbeat CPU 0 instructions: 180000004 cycles: 55464135 heartbeat IPC: 2.087 cumulative IPC: 3.028 (Simulation time: 01 hr 27 min 52 sec)
Heartbeat CPU 0 instructions: 190000001 cycles: 59893171 heartbeat IPC: 2.258 cumulative IPC: 2.956 (Simulation time: 01 hr 33 min 54 sec)
Heartbeat CPU 0 instructions: 200000004 cycles: 62654571 heartbeat IPC: 3.621 cumulative IPC: 2.993 (Simulation time: 01 hr 38 min 35 sec)
Heartbeat CPU 0 instructions: 210000001 cycles: 65459467 heartbeat IPC: 3.565 cumulative IPC: 3.023 (Simulation time: 01 hr 43 min 20 sec)
Heartbeat CPU 0 instructions: 220000000 cycles: 68260047 heartbeat IPC: 3.571 cumulative IPC: 3.051 (Simulation time: 01 hr 48 min 01 sec)
Heartbeat CPU 0 instructions: 230000002 cycles: 70969921 heartbeat IPC: 3.69 cumulative IPC: 3.08 (Simulation time: 01 hr 52 min 39 sec)
Heartbeat CPU 0 instructions: 240000003 cycles: 73806190 heartbeat IPC: 3.526 cumulative IPC: 3.101 (Simulation time: 01 hr 57 min 25 sec)
Heartbeat CPU 0 instructions: 250000000 cycles: 76596745 heartbeat IPC: 3.584 cumulative IPC: 3.122 (Simulation time: 02 hr 02 min 09 sec)
Heartbeat CPU 0 instructions: 260000002 cycles: 79326095 heartbeat IPC: 3.664 cumulative IPC: 3.144 (Simulation time: 02 hr 06 min 49 sec)
Heartbeat CPU 0 instructions: 270000002 cycles: 82072646 heartbeat IPC: 3.641 cumulative IPC: 3.164 (Simulation time: 02 hr 11 min 31 sec)
Heartbeat CPU 0 instructions: 280000002 cycles: 84779555 heartbeat IPC: 3.694 cumulative IPC: 3.184 (Simulation time: 02 hr 16 min 10 sec)
Heartbeat CPU 0 instructions: 290000002 cycles: 87592959 heartbeat IPC: 3.554 cumulative IPC: 3.198 (Simulation time: 02 hr 20 min 55 sec)
Heartbeat CPU 0 instructions: 300000003 cycles: 90267008 heartbeat IPC: 3.74 cumulative IPC: 3.216 (Simulation time: 02 hr 25 min 39 sec)
Heartbeat CPU 0 instructions: 310000001 cycles: 93041215 heartbeat IPC: 3.605 cumulative IPC: 3.23 (Simulation time: 02 hr 30 min 24 sec)
Heartbeat CPU 0 instructions: 320000003 cycles: 95856717 heartbeat IPC: 3.552 cumulative IPC: 3.241 (Simulation time: 02 hr 34 min 56 sec)
Heartbeat CPU 0 instructions: 330000003 cycles: 98567161 heartbeat IPC: 3.689 cumulative IPC: 3.255 (Simulation time: 02 hr 39 min 20 sec)
Heartbeat CPU 0 instructions: 340000000 cycles: 103003527 heartbeat IPC: 2.254 cumulative IPC: 3.206 (Simulation time: 02 hr 45 min 03 sec)
Heartbeat CPU 0 instructions: 350000000 cycles: 107869047 heartbeat IPC: 2.055 cumulative IPC: 3.147 (Simulation time: 02 hr 51 min 15 sec)
Heartbeat CPU 0 instructions: 360000004 cycles: 112532078 heartbeat IPC: 2.145 cumulative IPC: 3.1 (Simulation time: 02 hr 57 min 22 sec)
Heartbeat CPU 0 instructions: 370000000 cycles: 115347188 heartbeat IPC: 3.552 cumulative IPC: 3.113 (Simulation time: 03 hr 02 min 03 sec)
Heartbeat CPU 0 instructions: 380000003 cycles: 118113408 heartbeat IPC: 3.615 cumulative IPC: 3.126 (Simulation time: 03 hr 06 min 45 sec)
Heartbeat CPU 0 instructions: 390000002 cycles: 120987809 heartbeat IPC: 3.479 cumulative IPC: 3.135 (Simulation time: 03 hr 11 min 31 sec)
Heartbeat CPU 0 instructions: 400000004 cycles: 123828054 heartbeat IPC: 3.521 cumulative IPC: 3.145 (Simulation time: 03 hr 16 min 14 sec)
Heartbeat CPU 0 instructions: 410000002 cycles: 126595256 heartbeat IPC: 3.614 cumulative IPC: 3.156 (Simulation time: 03 hr 20 min 53 sec)
Heartbeat CPU 0 instructions: 420000003 cycles: 129445110 heartbeat IPC: 3.509 cumulative IPC: 3.165 (Simulation time: 03 hr 25 min 37 sec)
Heartbeat CPU 0 instructions: 430000001 cycles: 132321818 heartbeat IPC: 3.476 cumulative IPC: 3.172 (Simulation time: 03 hr 30 min 25 sec)
Heartbeat CPU 0 instructions: 440000004 cycles: 135259897 heartbeat IPC: 3.404 cumulative IPC: 3.178 (Simulation time: 03 hr 35 min 14 sec)
Heartbeat CPU 0 instructions: 450000002 cycles: 138001909 heartbeat IPC: 3.647 cumulative IPC: 3.188 (Simulation time: 03 hr 39 min 54 sec)
Heartbeat CPU 0 instructions: 460000000 cycles: 140778554 heartbeat IPC: 3.601 cumulative IPC: 3.197 (Simulation time: 03 hr 44 min 35 sec)
Heartbeat CPU 0 instructions: 470000001 cycles: 143495428 heartbeat IPC: 3.681 cumulative IPC: 3.207 (Simulation time: 03 hr 49 min 16 sec)
Heartbeat CPU 0 instructions: 480000003 cycles: 146381516 heartbeat IPC: 3.465 cumulative IPC: 3.213 (Simulation time: 03 hr 54 min 02 sec)
Heartbeat CPU 0 instructions: 490000004 cycles: 149100385 heartbeat IPC: 3.678 cumulative IPC: 3.222 (Simulation time: 03 hr 58 min 43 sec)
Heartbeat CPU 0 instructions: 500000004 cycles: 151978859 heartbeat IPC: 3.474 cumulative IPC: 3.227 (Simulation time: 04 hr 03 min 29 sec)
Heartbeat CPU 0 instructions: 510000003 cycles: 154825934 heartbeat IPC: 3.512 cumulative IPC: 3.233 (Simulation time: 04 hr 08 min 18 sec)
Heartbeat CPU 0 instructions: 520000001 cycles: 157527748 heartbeat IPC: 3.701 cumulative IPC: 3.242 (Simulation time: 04 hr 13 min 01 sec)
Heartbeat CPU 0 instructions: 530000001 cycles: 160375184 heartbeat IPC: 3.512 cumulative IPC: 3.247 (Simulation time: 04 hr 17 min 46 sec)
Heartbeat CPU 0 instructions: 540000000 cycles: 163176616 heartbeat IPC: 3.57 cumulative IPC: 3.253 (Simulation time: 04 hr 22 min 30 sec)
Heartbeat CPU 0 instructions: 550000001 cycles: 166031035 heartbeat IPC: 3.503 cumulative IPC: 3.257 (Simulation time: 04 hr 27 min 18 sec)
Heartbeat CPU 0 instructions: 560000000 cycles: 168881253 heartbeat IPC: 3.509 cumulative IPC: 3.262 (Simulation time: 04 hr 32 min 03 sec)
Heartbeat CPU 0 instructions: 570000004 cycles: 172519707 heartbeat IPC: 2.748 cumulative IPC: 3.25 (Simulation time: 04 hr 37 min 28 sec)
Heartbeat CPU 0 instructions: 580000003 cycles: 177392114 heartbeat IPC: 2.052 cumulative IPC: 3.215 (Simulation time: 04 hr 44 min 00 sec)
Heartbeat CPU 0 instructions: 590000002 cycles: 182688924 heartbeat IPC: 1.888 cumulative IPC: 3.174 (Simulation time: 04 hr 50 min 44 sec)
Heartbeat CPU 0 instructions: 600000004 cycles: 185565610 heartbeat IPC: 3.476 cumulative IPC: 3.179 (Simulation time: 04 hr 55 min 30 sec)
Heartbeat CPU 0 instructions: 610000002 cycles: 188400570 heartbeat IPC: 3.527 cumulative IPC: 3.184 (Simulation time: 05 hr 00 min 14 sec)
Heartbeat CPU 0 instructions: 620000001 cycles: 191100100 heartbeat IPC: 3.704 cumulative IPC: 3.192 (Simulation time: 05 hr 05 min 01 sec)
Heartbeat CPU 0 instructions: 630000002 cycles: 193956659 heartbeat IPC: 3.501 cumulative IPC: 3.197 (Simulation time: 05 hr 09 min 51 sec)
Heartbeat CPU 0 instructions: 640000004 cycles: 196856676 heartbeat IPC: 3.448 cumulative IPC: 3.201 (Simulation time: 05 hr 14 min 41 sec)
Heartbeat CPU 0 instructions: 650000000 cycles: 199561851 heartbeat IPC: 3.697 cumulative IPC: 3.208 (Simulation time: 05 hr 19 min 24 sec)
Simulation finished CPU 0 instructions: 600000001 cycles: 187024744 cumulative IPC: 3.208 (Simulation time: 05 hr 19 min 24 sec)
Simulation complete CPU 0 instructions: 600000001 cycles: 187024744 cumulative IPC: 3.208 (Simulation time: 05 hr 19 min 24 sec)

ChampSim completed all CPUs

=== Simulation ===
CPU 0 runs traces/400.perlbench-41B.champsimtrace.xz
Region of Interest Statistics

CPU 0 cumulative IPC: 3.208 instructions: 600000001 cycles: 187024744
CPU 0 Branch Prediction Accuracy: 99.19% MPKI: 1.684 Average ROB Occupancy at Mispredict: 100.5
Branch type MPKI
BRANCH_DIRECT_JUMP: 0.0123
BRANCH_INDIRECT: 0.323
BRANCH_CONDITIONAL: 1.14
BRANCH_DIRECT_CALL: 0.0043
BRANCH_INDIRECT_CALL: 0.2
BRANCH_RETURN: 0.00828

LLC TOTAL        ACCESS:     593558 HIT:     538150 MISS:      55408
LLC LOAD         ACCESS:     403373 HIT:     364434 MISS:      38939
LLC RFO          ACCESS:      32514 HIT:      28082 MISS:       4432
LLC PREFETCH     ACCESS:      53083 HIT:      47682 MISS:       5401
LLC WRITE        ACCESS:      85517 HIT:      85493 MISS:         24
LLC TRANSLATION  ACCESS:      19071 HIT:      12459 MISS:       6612
LLC PREFETCH REQUESTED:      53083 ISSUED:      53083 USEFUL:       3146 USELESS:        381
LLC AVERAGE MISS LATENCY: 553.8 cycles
cpu0_DTLB TOTAL        ACCESS:  129753463 HIT:  129052173 MISS:     701290
cpu0_DTLB LOAD         ACCESS:  129753463 HIT:  129052173 MISS:     701290
cpu0_DTLB RFO          ACCESS:          0 HIT:          0 MISS:          0
cpu0_DTLB PREFETCH     ACCESS:          0 HIT:          0 MISS:          0
cpu0_DTLB WRITE        ACCESS:          0 HIT:          0 MISS:          0
cpu0_DTLB TRANSLATION  ACCESS:          0 HIT:          0 MISS:          0
cpu0_DTLB PREFETCH REQUESTED:          0 ISSUED:          0 USEFUL:          0 USELESS:          0
cpu0_DTLB AVERAGE MISS LATENCY: 10.29 cycles
cpu0_ITLB TOTAL        ACCESS:    4861150 HIT:    4799051 MISS:      62099
cpu0_ITLB LOAD         ACCESS:    4861150 HIT:    4799051 MISS:      62099
cpu0_ITLB RFO          ACCESS:          0 HIT:          0 MISS:          0
cpu0_ITLB PREFETCH     ACCESS:          0 HIT:          0 MISS:          0
cpu0_ITLB WRITE        ACCESS:          0 HIT:          0 MISS:          0
cpu0_ITLB TRANSLATION  ACCESS:          0 HIT:          0 MISS:          0
cpu0_ITLB PREFETCH REQUESTED:          0 ISSUED:          0 USEFUL:          0 USELESS:          0
cpu0_ITLB AVERAGE MISS LATENCY: 4.039 cycles
cpu0_L1D TOTAL        ACCESS:  174382292 HIT:  172654066 MISS:    1728226
cpu0_L1D LOAD         ACCESS:   91358885 HIT:   90011922 MISS:    1346963
cpu0_L1D RFO          ACCESS:          0 HIT:          0 MISS:          0
cpu0_L1D PREFETCH     ACCESS:          0 HIT:          0 MISS:          0
cpu0_L1D WRITE        ACCESS:   82998945 HIT:   82641079 MISS:     357866
cpu0_L1D TRANSLATION  ACCESS:      24462 HIT:       1065 MISS:      23397
cpu0_L1D PREFETCH REQUESTED:          0 ISSUED:          0 USEFUL:          0 USELESS:          0
cpu0_L1D AVERAGE MISS LATENCY: 23.24 cycles
cpu0_L1I TOTAL        ACCESS:    5641148 HIT:    4837113 MISS:     804035
cpu0_L1I LOAD         ACCESS:    5641148 HIT:    4837113 MISS:     804035
cpu0_L1I RFO          ACCESS:          0 HIT:          0 MISS:          0
cpu0_L1I PREFETCH     ACCESS:          0 HIT:          0 MISS:          0
cpu0_L1I WRITE        ACCESS:          0 HIT:          0 MISS:          0
cpu0_L1I TRANSLATION  ACCESS:          0 HIT:          0 MISS:          0
cpu0_L1I PREFETCH REQUESTED:          0 ISSUED:          0 USEFUL:          0 USELESS:          0
cpu0_L1I AVERAGE MISS LATENCY: 8.239 cycles
cpu0_L2C TOTAL        ACCESS:    1668436 HIT:    1211670 MISS:     456766
cpu0_L2C LOAD         ACCESS:    1315367 HIT:     911993 MISS:     403374
cpu0_L2C RFO          ACCESS:      89514 HIT:      56999 MISS:      32515
cpu0_L2C PREFETCH     ACCESS:          0 HIT:          0 MISS:          0
cpu0_L2C WRITE        ACCESS:     240236 HIT:     238430 MISS:       1806
cpu0_L2C TRANSLATION  ACCESS:      23319 HIT:       4248 MISS:      19071
cpu0_L2C PREFETCH REQUESTED:          0 ISSUED:          0 USEFUL:          0 USELESS:          0
cpu0_L2C AVERAGE MISS LATENCY: 80.28 cycles
cpu0_STLB TOTAL        ACCESS:     507995 HIT:     485209 MISS:      22786
cpu0_STLB LOAD         ACCESS:     507995 HIT:     485209 MISS:      22786
cpu0_STLB RFO          ACCESS:          0 HIT:          0 MISS:          0
cpu0_STLB PREFETCH     ACCESS:          0 HIT:          0 MISS:          0
cpu0_STLB WRITE        ACCESS:          0 HIT:          0 MISS:          0
cpu0_STLB TRANSLATION  ACCESS:          0 HIT:          0 MISS:          0
cpu0_STLB PREFETCH REQUESTED:          0 ISSUED:          0 USEFUL:          0 USELESS:          0
cpu0_STLB AVERAGE MISS LATENCY: 190.8 cycles

DRAM Statistics

Channel 0 RQ ROW_BUFFER_HIT:      14150
  ROW_BUFFER_MISS:      40143
 AVG DBUS CONGESTED CYCLE: 3.782
WQ ROW_BUFFER_HIT: Channel 0 
  ROW_BUFFER_MISS:        884
  FULL:       1246
