WARNING: physical memory size is smaller than virtual memory size.

*** ChampSim Multicore Out-of-Order Simulator ***
Warmup Instructions: 50000000
Simulation Instructions: 600000000
Number of CPUs: 1
Page size: 4096

Off-chip DRAM Size: 4 GiB Channels: 1 Width: 64-bit Data Race: 3200 MT/s
Heartbeat CPU 0 instructions: 10000000 cycles: 2500061 heartbeat IPC: 4 cumulative IPC: 4 (Simulation time: 00 hr 00 min 33 sec)
Heartbeat CPU 0 instructions: 20000000 cycles: 5000061 heartbeat IPC: 4 cumulative IPC: 4 (Simulation time: 00 hr 01 min 15 sec)
Heartbeat CPU 0 instructions: 30000000 cycles: 7500061 heartbeat IPC: 4 cumulative IPC: 4 (Simulation time: 00 hr 02 min 05 sec)
Heartbeat CPU 0 instructions: 40000000 cycles: 10000061 heartbeat IPC: 4 cumulative IPC: 4 (Simulation time: 00 hr 03 min 03 sec)
Heartbeat CPU 0 instructions: 50000000 cycles: 12500061 heartbeat IPC: 4 cumulative IPC: 4 (Simulation time: 00 hr 04 min 04 sec)
Warmup finished CPU 0 instructions: 50000000 cycles: 12500062 cumulative IPC: 4 (Simulation time: 00 hr 04 min 04 sec)
Warmup complete CPU 0 instructions: 50000000 cycles: 12500062 cumulative IPC: 4 (Simulation time: 00 hr 04 min 04 sec)
Heartbeat CPU 0 instructions: 60000002 cycles: 16444688 heartbeat IPC: 2.535 cumulative IPC: 2.535 (Simulation time: 00 hr 05 min 39 sec)
Heartbeat CPU 0 instructions: 70000003 cycles: 20760893 heartbeat IPC: 2.317 cumulative IPC: 2.421 (Simulation time: 00 hr 07 min 18 sec)
Heartbeat CPU 0 instructions: 80000003 cycles: 25229157 heartbeat IPC: 2.238 cumulative IPC: 2.357 (Simulation time: 00 hr 08 min 54 sec)
Heartbeat CPU 0 instructions: 90000000 cycles: 28920814 heartbeat IPC: 2.709 cumulative IPC: 2.436 (Simulation time: 00 hr 10 min 23 sec)
Heartbeat CPU 0 instructions: 100000003 cycles: 32818788 heartbeat IPC: 2.565 cumulative IPC: 2.461 (Simulation time: 00 hr 11 min 54 sec)
Heartbeat CPU 0 instructions: 110000002 cycles: 36920325 heartbeat IPC: 2.438 cumulative IPC: 2.457 (Simulation time: 00 hr 13 min 32 sec)
Heartbeat CPU 0 instructions: 120000001 cycles: 40635683 heartbeat IPC: 2.692 cumulative IPC: 2.488 (Simulation time: 00 hr 15 min 10 sec)
Heartbeat CPU 0 instructions: 130000003 cycles: 44404658 heartbeat IPC: 2.653 cumulative IPC: 2.507 (Simulation time: 00 hr 16 min 32 sec)
Heartbeat CPU 0 instructions: 140000002 cycles: 48538024 heartbeat IPC: 2.419 cumulative IPC: 2.497 (Simulation time: 00 hr 17 min 59 sec)
Heartbeat CPU 0 instructions: 150000001 cycles: 52589949 heartbeat IPC: 2.468 cumulative IPC: 2.494 (Simulation time: 00 hr 19 min 35 sec)
Heartbeat CPU 0 instructions: 160000000 cycles: 56247531 heartbeat IPC: 2.734 cumulative IPC: 2.514 (Simulation time: 00 hr 21 min 06 sec)
Heartbeat CPU 0 instructions: 170000001 cycles: 60421737 heartbeat IPC: 2.396 cumulative IPC: 2.504 (Simulation time: 00 hr 22 min 35 sec)
Heartbeat CPU 0 instructions: 180000001 cycles: 63882371 heartbeat IPC: 2.89 cumulative IPC: 2.53 (Simulation time: 00 hr 24 min 00 sec)
Heartbeat CPU 0 instructions: 190000002 cycles: 67465761 heartbeat IPC: 2.791 cumulative IPC: 2.547 (Simulation time: 00 hr 25 min 27 sec)
Heartbeat CPU 0 instructions: 200000002 cycles: 71249161 heartbeat IPC: 2.643 cumulative IPC: 2.553 (Simulation time: 00 hr 26 min 53 sec)
Heartbeat CPU 0 instructions: 210000000 cycles: 74888079 heartbeat IPC: 2.748 cumulative IPC: 2.565 (Simulation time: 00 hr 28 min 36 sec)
Heartbeat CPU 0 instructions: 220000001 cycles: 78754029 heartbeat IPC: 2.587 cumulative IPC: 2.566 (Simulation time: 00 hr 29 min 46 sec)
Heartbeat CPU 0 instructions: 230000002 cycles: 82594747 heartbeat IPC: 2.604 cumulative IPC: 2.568 (Simulation time: 00 hr 30 min 28 sec)
Heartbeat CPU 0 instructions: 240000001 cycles: 86801493 heartbeat IPC: 2.377 cumulative IPC: 2.557 (Simulation time: 00 hr 31 min 14 sec)
Heartbeat CPU 0 instructions: 250000003 cycles: 91366485 heartbeat IPC: 2.191 cumulative IPC: 2.536 (Simulation time: 00 hr 32 min 01 sec)
Heartbeat CPU 0 instructions: 260000000 cycles: 95158973 heartbeat IPC: 2.637 cumulative IPC: 2.541 (Simulation time: 00 hr 32 min 45 sec)
Heartbeat CPU 0 instructions: 270000003 cycles: 102228918 heartbeat IPC: 1.414 cumulative IPC: 2.452 (Simulation time: 00 hr 33 min 48 sec)
Heartbeat CPU 0 instructions: 280000000 cycles: 112630929 heartbeat IPC: 0.9614 cumulative IPC: 2.297 (Simulation time: 00 hr 35 min 07 sec)
Heartbeat CPU 0 instructions: 290000000 cycles: 121811002 heartbeat IPC: 1.089 cumulative IPC: 2.196 (Simulation time: 00 hr 36 min 19 sec)
Heartbeat CPU 0 instructions: 300000003 cycles: 129011482 heartbeat IPC: 1.389 cumulative IPC: 2.146 (Simulation time: 00 hr 37 min 25 sec)
Heartbeat CPU 0 instructions: 310000004 cycles: 138988722 heartbeat IPC: 1.002 cumulative IPC: 2.056 (Simulation time: 00 hr 38 min 45 sec)
Heartbeat CPU 0 instructions: 320000004 cycles: 143898777 heartbeat IPC: 2.037 cumulative IPC: 2.055 (Simulation time: 00 hr 39 min 35 sec)
Heartbeat CPU 0 instructions: 330000000 cycles: 147901516 heartbeat IPC: 2.498 cumulative IPC: 2.068 (Simulation time: 00 hr 40 min 18 sec)
Heartbeat CPU 0 instructions: 340000001 cycles: 151745532 heartbeat IPC: 2.601 cumulative IPC: 2.083 (Simulation time: 00 hr 41 min 01 sec)
Heartbeat CPU 0 instructions: 350000004 cycles: 155679928 heartbeat IPC: 2.542 cumulative IPC: 2.095 (Simulation time: 00 hr 41 min 44 sec)
Heartbeat CPU 0 instructions: 360000003 cycles: 159346292 heartbeat IPC: 2.727 cumulative IPC: 2.111 (Simulation time: 00 hr 42 min 27 sec)
Heartbeat CPU 0 instructions: 370000001 cycles: 162992523 heartbeat IPC: 2.743 cumulative IPC: 2.126 (Simulation time: 00 hr 43 min 09 sec)
Heartbeat CPU 0 instructions: 380000004 cycles: 166513227 heartbeat IPC: 2.84 cumulative IPC: 2.143 (Simulation time: 00 hr 43 min 50 sec)
Heartbeat CPU 0 instructions: 390000002 cycles: 170059506 heartbeat IPC: 2.82 cumulative IPC: 2.158 (Simulation time: 00 hr 44 min 31 sec)
Heartbeat CPU 0 instructions: 400000000 cycles: 173872407 heartbeat IPC: 2.623 cumulative IPC: 2.169 (Simulation time: 00 hr 45 min 14 sec)
Heartbeat CPU 0 instructions: 410000000 cycles: 179288464 heartbeat IPC: 1.846 cumulative IPC: 2.158 (Simulation time: 00 hr 46 min 06 sec)
Heartbeat CPU 0 instructions: 420000003 cycles: 186012945 heartbeat IPC: 1.487 cumulative IPC: 2.132 (Simulation time: 00 hr 47 min 05 sec)
Heartbeat CPU 0 instructions: 430000000 cycles: 192486818 heartbeat IPC: 1.545 cumulative IPC: 2.111 (Simulation time: 00 hr 48 min 06 sec)
Heartbeat CPU 0 instructions: 440000004 cycles: 198499782 heartbeat IPC: 1.663 cumulative IPC: 2.097 (Simulation time: 00 hr 49 min 06 sec)
Heartbeat CPU 0 instructions: 450000001 cycles: 204736693 heartbeat IPC: 1.603 cumulative IPC: 2.081 (Simulation time: 00 hr 50 min 07 sec)
Heartbeat CPU 0 instructions: 460000002 cycles: 212019143 heartbeat IPC: 1.373 cumulative IPC: 2.055 (Simulation time: 00 hr 51 min 12 sec)
Heartbeat CPU 0 instructions: 470000003 cycles: 217760083 heartbeat IPC: 1.742 cumulative IPC: 2.046 (Simulation time: 00 hr 52 min 10 sec)
Heartbeat CPU 0 instructions: 480000003 cycles: 221500988 heartbeat IPC: 2.673 cumulative IPC: 2.057 (Simulation time: 00 hr 52 min 55 sec)
Heartbeat CPU 0 instructions: 490000001 cycles: 225398903 heartbeat IPC: 2.565 cumulative IPC: 2.067 (Simulation time: 00 hr 53 min 39 sec)
Heartbeat CPU 0 instructions: 500000002 cycles: 229093100 heartbeat IPC: 2.707 cumulative IPC: 2.078 (Simulation time: 00 hr 54 min 22 sec)
Heartbeat CPU 0 instructions: 510000000 cycles: 232614297 heartbeat IPC: 2.84 cumulative IPC: 2.09 (Simulation time: 00 hr 55 min 05 sec)
Heartbeat CPU 0 instructions: 520000000 cycles: 236248649 heartbeat IPC: 2.752 cumulative IPC: 2.101 (Simulation time: 00 hr 55 min 47 sec)
Heartbeat CPU 0 instructions: 530000001 cycles: 243003764 heartbeat IPC: 1.48 cumulative IPC: 2.082 (Simulation time: 00 hr 56 min 49 sec)
Heartbeat CPU 0 instructions: 540000000 cycles: 249836423 heartbeat IPC: 1.464 cumulative IPC: 2.065 (Simulation time: 00 hr 57 min 52 sec)
Heartbeat CPU 0 instructions: 550000004 cycles: 256570078 heartbeat IPC: 1.485 cumulative IPC: 2.049 (Simulation time: 00 hr 58 min 53 sec)
Heartbeat CPU 0 instructions: 560000004 cycles: 260351550 heartbeat IPC: 2.644 cumulative IPC: 2.058 (Simulation time: 00 hr 59 min 36 sec)
Heartbeat CPU 0 instructions: 570000001 cycles: 263425806 heartbeat IPC: 3.253 cumulative IPC: 2.072 (Simulation time: 01 hr 00 min 16 sec)
Heartbeat CPU 0 instructions: 580000003 cycles: 266859754 heartbeat IPC: 2.912 cumulative IPC: 2.084 (Simulation time: 01 hr 00 min 56 sec)
Heartbeat CPU 0 instructions: 590000002 cycles: 270387298 heartbeat IPC: 2.835 cumulative IPC: 2.094 (Simulation time: 01 hr 01 min 37 sec)
Heartbeat CPU 0 instructions: 600000003 cycles: 273398024 heartbeat IPC: 3.321 cumulative IPC: 2.108 (Simulation time: 01 hr 02 min 17 sec)
Heartbeat CPU 0 instructions: 610000001 cycles: 276835218 heartbeat IPC: 2.909 cumulative IPC: 2.119 (Simulation time: 01 hr 02 min 58 sec)
Heartbeat CPU 0 instructions: 620000000 cycles: 280794317 heartbeat IPC: 2.526 cumulative IPC: 2.125 (Simulation time: 01 hr 03 min 40 sec)
Heartbeat CPU 0 instructions: 630000002 cycles: 284121566 heartbeat IPC: 3.005 cumulative IPC: 2.135 (Simulation time: 01 hr 04 min 21 sec)
Heartbeat CPU 0 instructions: 640000004 cycles: 288098525 heartbeat IPC: 2.514 cumulative IPC: 2.141 (Simulation time: 01 hr 05 min 08 sec)
Heartbeat CPU 0 instructions: 650000001 cycles: 291901772 heartbeat IPC: 2.629 cumulative IPC: 2.147 (Simulation time: 01 hr 05 min 52 sec)
Simulation finished CPU 0 instructions: 600000001 cycles: 279401711 cumulative IPC: 2.147 (Simulation time: 01 hr 05 min 52 sec)
Simulation complete CPU 0 instructions: 600000001 cycles: 279401711 cumulative IPC: 2.147 (Simulation time: 01 hr 05 min 52 sec)

ChampSim completed all CPUs

=== Simulation ===
CPU 0 runs traces/400.perlbench-50B.champsimtrace.xz
Region of Interest Statistics

CPU 0 cumulative IPC: 2.147 instructions: 600000001 cycles: 279401711
CPU 0 Branch Prediction Accuracy: 96.2% MPKI: 7.839 Average ROB Occupancy at Mispredict: 43.05
Branch type MPKI
BRANCH_DIRECT_JUMP: 0.0176
BRANCH_INDIRECT: 0.38
BRANCH_CONDITIONAL: 6.99
BRANCH_DIRECT_CALL: 0.0067
BRANCH_INDIRECT_CALL: 0.431
BRANCH_RETURN: 0.0161

LLC TOTAL        ACCESS:     837799 HIT:     718673 MISS:     119126
LLC LOAD         ACCESS:     576513 HIT:     486977 MISS:      89536
LLC RFO          ACCESS:      47514 HIT:      37838 MISS:       9676
LLC PREFETCH     ACCESS:      64290 HIT:      53772 MISS:      10518
LLC WRITE        ACCESS:     127392 HIT:     127183 MISS:        209
LLC TRANSLATION  ACCESS:      22090 HIT:      12903 MISS:       9187
LLC PREFETCH REQUESTED:      64290 ISSUED:      64290 USEFUL:       6516 USELESS:        265
LLC AVERAGE MISS LATENCY: 475 cycles
cpu0_DTLB TOTAL        ACCESS:  146521299 HIT:  145216896 MISS:    1304403
cpu0_DTLB LOAD         ACCESS:  146521299 HIT:  145216896 MISS:    1304403
cpu0_DTLB RFO          ACCESS:          0 HIT:          0 MISS:          0
cpu0_DTLB PREFETCH     ACCESS:          0 HIT:          0 MISS:          0
cpu0_DTLB WRITE        ACCESS:          0 HIT:          0 MISS:          0
cpu0_DTLB TRANSLATION  ACCESS:          0 HIT:          0 MISS:          0
cpu0_DTLB PREFETCH REQUESTED:          0 ISSUED:          0 USEFUL:          0 USELESS:          0
cpu0_DTLB AVERAGE MISS LATENCY: 9.802 cycles
cpu0_ITLB TOTAL        ACCESS:    8984676 HIT:    8800182 MISS:     184494
cpu0_ITLB LOAD         ACCESS:    8984676 HIT:    8800182 MISS:     184494
cpu0_ITLB RFO          ACCESS:          0 HIT:          0 MISS:          0
cpu0_ITLB PREFETCH     ACCESS:          0 HIT:          0 MISS:          0
cpu0_ITLB WRITE        ACCESS:          0 HIT:          0 MISS:          0
cpu0_ITLB TRANSLATION  ACCESS:          0 HIT:          0 MISS:          0
cpu0_ITLB PREFETCH REQUESTED:          0 ISSUED:          0 USEFUL:          0 USELESS:          0
cpu0_ITLB AVERAGE MISS LATENCY: 2.866 cycles
cpu0_L1D TOTAL        ACCESS:  193322672 HIT:  189697149 MISS:    3625523
cpu0_L1D LOAD         ACCESS:  107476797 HIT:  104486826 MISS:    2989971
cpu0_L1D RFO          ACCESS:          0 HIT:          0 MISS:          0
cpu0_L1D PREFETCH     ACCESS:          0 HIT:          0 MISS:          0
cpu0_L1D WRITE        ACCESS:   85817352 HIT:   85208901 MISS:     608451
cpu0_L1D TRANSLATION  ACCESS:      28523 HIT:       1422 MISS:      27101
cpu0_L1D PREFETCH REQUESTED:          0 ISSUED:          0 USEFUL:          0 USELESS:          0
cpu0_L1D AVERAGE MISS LATENCY: 20.82 cycles
cpu0_L1I TOTAL        ACCESS:   10419157 HIT:    8657319 MISS:    1761838
cpu0_L1I LOAD         ACCESS:   10419157 HIT:    8657319 MISS:    1761838
cpu0_L1I RFO          ACCESS:          0 HIT:          0 MISS:          0
cpu0_L1I PREFETCH     ACCESS:          0 HIT:          0 MISS:          0
cpu0_L1I WRITE        ACCESS:          0 HIT:          0 MISS:          0
cpu0_L1I TRANSLATION  ACCESS:          0 HIT:          0 MISS:          0
cpu0_L1I PREFETCH REQUESTED:          0 ISSUED:          0 USEFUL:          0 USELESS:          0
cpu0_L1I AVERAGE MISS LATENCY: 9.376 cycles
cpu0_L2C TOTAL        ACCESS:    3834988 HIT:    3185707 MISS:     649281
cpu0_L2C LOAD         ACCESS:    3105097 HIT:    2528584 MISS:     576513
cpu0_L2C RFO          ACCESS:     191506 HIT:     143990 MISS:      47516
cpu0_L2C PREFETCH     ACCESS:          0 HIT:          0 MISS:          0
cpu0_L2C WRITE        ACCESS:     511353 HIT:     508191 MISS:       3162
cpu0_L2C TRANSLATION  ACCESS:      27032 HIT:       4942 MISS:      22090
cpu0_L2C PREFETCH REQUESTED:          0 ISSUED:          0 USEFUL:          0 USELESS:          0
cpu0_L2C AVERAGE MISS LATENCY: 99.1 cycles
cpu0_STLB TOTAL        ACCESS:    1008101 HIT:     981407 MISS:      26694
cpu0_STLB LOAD         ACCESS:    1008101 HIT:     981407 MISS:      26694
cpu0_STLB RFO          ACCESS:          0 HIT:          0 MISS:          0
cpu0_STLB PREFETCH     ACCESS:          0 HIT:          0 MISS:          0
cpu0_STLB WRITE        ACCESS:          0 HIT:          0 MISS:          0
cpu0_STLB TRANSLATION  ACCESS:          0 HIT:          0 MISS:          0
cpu0_STLB PREFETCH REQUESTED:          0 ISSUED:          0 USEFUL:          0 USELESS:          0
cpu0_STLB AVERAGE MISS LATENCY: 252.1 cycles

DRAM Statistics

Channel 0 RQ ROW_BUFFER_HIT:      36129
  ROW_BUFFER_MISS:      80969
 AVG DBUS CONGESTED CYCLE: 3.739
WQ ROW_BUFFER_HIT: Channel 0 
  ROW_BUFFER_MISS:       1039
  FULL:       2279
