WARNING: physical memory size is smaller than virtual memory size.

*** ChampSim Multicore Out-of-Order Simulator ***
Warmup Instructions: 50000000
Simulation Instructions: 600000000
Number of CPUs: 1
Page size: 4096

Initialize SIGNATURE TABLE
ST_SET: 1
ST_WAY: 256
ST_TAG_BIT: 16
ST_TAG_MASK: ffff

Initialize PATTERN TABLE
PT_SET: 512
PT_WAY: 4
SIG_DELTA_BIT: 7
C_SIG_BIT: 4
C_DELTA_BIT: 4

Initialize PREFETCH FILTER
FILTER_SET: 1024
Off-chip DRAM Size: 4 GiB Channels: 1 Width: 64-bit Data Race: 3200 MT/s
Heartbeat CPU 0 instructions: 10000000 cycles: 2500061 heartbeat IPC: 4 cumulative IPC: 4 (Simulation time: 00 hr 03 min 19 sec)
Heartbeat CPU 0 instructions: 20000000 cycles: 5000061 heartbeat IPC: 4 cumulative IPC: 4 (Simulation time: 00 hr 06 min 40 sec)
Heartbeat CPU 0 instructions: 30000000 cycles: 7500061 heartbeat IPC: 4 cumulative IPC: 4 (Simulation time: 00 hr 09 min 57 sec)
Heartbeat CPU 0 instructions: 40000000 cycles: 10000061 heartbeat IPC: 4 cumulative IPC: 4 (Simulation time: 00 hr 13 min 16 sec)
Heartbeat CPU 0 instructions: 50000000 cycles: 12500061 heartbeat IPC: 4 cumulative IPC: 4 (Simulation time: 00 hr 16 min 37 sec)
Warmup finished CPU 0 instructions: 50000000 cycles: 12500062 cumulative IPC: 4 (Simulation time: 00 hr 16 min 37 sec)
Warmup complete CPU 0 instructions: 50000000 cycles: 12500062 cumulative IPC: 4 (Simulation time: 00 hr 16 min 37 sec)
Heartbeat CPU 0 instructions: 60000002 cycles: 16915466 heartbeat IPC: 2.265 cumulative IPC: 2.265 (Simulation time: 00 hr 21 min 44 sec)
Heartbeat CPU 0 instructions: 70000003 cycles: 21905960 heartbeat IPC: 2.004 cumulative IPC: 2.126 (Simulation time: 00 hr 26 min 52 sec)
Heartbeat CPU 0 instructions: 80000001 cycles: 27262025 heartbeat IPC: 1.867 cumulative IPC: 2.032 (Simulation time: 00 hr 32 min 15 sec)
Heartbeat CPU 0 instructions: 90000000 cycles: 31567241 heartbeat IPC: 2.323 cumulative IPC: 2.098 (Simulation time: 00 hr 37 min 02 sec)
Heartbeat CPU 0 instructions: 100000003 cycles: 36435549 heartbeat IPC: 2.054 cumulative IPC: 2.089 (Simulation time: 00 hr 42 min 10 sec)
Heartbeat CPU 0 instructions: 110000002 cycles: 41312391 heartbeat IPC: 2.051 cumulative IPC: 2.082 (Simulation time: 00 hr 47 min 14 sec)
Heartbeat CPU 0 instructions: 120000001 cycles: 46313135 heartbeat IPC: 2 cumulative IPC: 2.07 (Simulation time: 00 hr 52 min 36 sec)
Heartbeat CPU 0 instructions: 130000003 cycles: 50888248 heartbeat IPC: 2.186 cumulative IPC: 2.084 (Simulation time: 00 hr 57 min 32 sec)
Heartbeat CPU 0 instructions: 140000002 cycles: 55782527 heartbeat IPC: 2.043 cumulative IPC: 2.079 (Simulation time: 01 hr 02 min 38 sec)
Heartbeat CPU 0 instructions: 150000001 cycles: 60455302 heartbeat IPC: 2.14 cumulative IPC: 2.085 (Simulation time: 01 hr 07 min 36 sec)
Heartbeat CPU 0 instructions: 160000000 cycles: 65095755 heartbeat IPC: 2.155 cumulative IPC: 2.091 (Simulation time: 01 hr 12 min 35 sec)
Heartbeat CPU 0 instructions: 170000000 cycles: 70435142 heartbeat IPC: 1.873 cumulative IPC: 2.071 (Simulation time: 01 hr 17 min 57 sec)
Heartbeat CPU 0 instructions: 180000001 cycles: 76160532 heartbeat IPC: 1.747 cumulative IPC: 2.042 (Simulation time: 01 hr 23 min 35 sec)
Heartbeat CPU 0 instructions: 190000002 cycles: 80637534 heartbeat IPC: 2.234 cumulative IPC: 2.055 (Simulation time: 01 hr 28 min 38 sec)
Heartbeat CPU 0 instructions: 200000002 cycles: 85546232 heartbeat IPC: 2.037 cumulative IPC: 2.053 (Simulation time: 01 hr 33 min 47 sec)
Heartbeat CPU 0 instructions: 210000000 cycles: 90556026 heartbeat IPC: 1.996 cumulative IPC: 2.05 (Simulation time: 01 hr 38 min 59 sec)
Heartbeat CPU 0 instructions: 220000001 cycles: 95482420 heartbeat IPC: 2.03 cumulative IPC: 2.049 (Simulation time: 01 hr 44 min 06 sec)
Heartbeat CPU 0 instructions: 230000002 cycles: 100735204 heartbeat IPC: 1.904 cumulative IPC: 2.04 (Simulation time: 01 hr 49 min 25 sec)
Heartbeat CPU 0 instructions: 240000001 cycles: 105705261 heartbeat IPC: 2.012 cumulative IPC: 2.039 (Simulation time: 01 hr 54 min 33 sec)
Heartbeat CPU 0 instructions: 250000003 cycles: 110904735 heartbeat IPC: 1.923 cumulative IPC: 2.032 (Simulation time: 01 hr 59 min 43 sec)
Heartbeat CPU 0 instructions: 260000001 cycles: 115769775 heartbeat IPC: 2.055 cumulative IPC: 2.034 (Simulation time: 02 hr 04 min 47 sec)
Heartbeat CPU 0 instructions: 270000000 cycles: 123515829 heartbeat IPC: 1.291 cumulative IPC: 1.982 (Simulation time: 02 hr 11 min 46 sec)
Heartbeat CPU 0 instructions: 280000000 cycles: 134682853 heartbeat IPC: 0.8955 cumulative IPC: 1.882 (Simulation time: 02 hr 21 min 06 sec)
Heartbeat CPU 0 instructions: 290000001 cycles: 144060216 heartbeat IPC: 1.066 cumulative IPC: 1.824 (Simulation time: 02 hr 29 min 37 sec)
Heartbeat CPU 0 instructions: 300000003 cycles: 151462869 heartbeat IPC: 1.351 cumulative IPC: 1.799 (Simulation time: 02 hr 37 min 00 sec)
Heartbeat CPU 0 instructions: 310000004 cycles: 161889783 heartbeat IPC: 0.9591 cumulative IPC: 1.74 (Simulation time: 02 hr 46 min 05 sec)
Heartbeat CPU 0 instructions: 320000004 cycles: 167487048 heartbeat IPC: 1.787 cumulative IPC: 1.742 (Simulation time: 02 hr 51 min 59 sec)
Heartbeat CPU 0 instructions: 330000000 cycles: 172708779 heartbeat IPC: 1.915 cumulative IPC: 1.748 (Simulation time: 02 hr 57 min 23 sec)
Heartbeat CPU 0 instructions: 340000001 cycles: 177426113 heartbeat IPC: 2.12 cumulative IPC: 1.758 (Simulation time: 03 hr 02 min 24 sec)
Heartbeat CPU 0 instructions: 350000000 cycles: 182334961 heartbeat IPC: 2.037 cumulative IPC: 1.766 (Simulation time: 03 hr 07 min 39 sec)
Heartbeat CPU 0 instructions: 360000003 cycles: 187034760 heartbeat IPC: 2.128 cumulative IPC: 1.776 (Simulation time: 03 hr 12 min 46 sec)
Heartbeat CPU 0 instructions: 370000001 cycles: 191717619 heartbeat IPC: 2.135 cumulative IPC: 1.786 (Simulation time: 03 hr 17 min 47 sec)
Heartbeat CPU 0 instructions: 380000004 cycles: 196683199 heartbeat IPC: 2.014 cumulative IPC: 1.792 (Simulation time: 03 hr 23 min 03 sec)
Heartbeat CPU 0 instructions: 390000002 cycles: 201539330 heartbeat IPC: 2.059 cumulative IPC: 1.799 (Simulation time: 03 hr 28 min 14 sec)
Heartbeat CPU 0 instructions: 400000000 cycles: 206482112 heartbeat IPC: 2.023 cumulative IPC: 1.804 (Simulation time: 03 hr 33 min 26 sec)
Heartbeat CPU 0 instructions: 410000000 cycles: 212477138 heartbeat IPC: 1.668 cumulative IPC: 1.8 (Simulation time: 03 hr 39 min 30 sec)
Heartbeat CPU 0 instructions: 420000001 cycles: 219563750 heartbeat IPC: 1.411 cumulative IPC: 1.787 (Simulation time: 03 hr 46 min 22 sec)
Heartbeat CPU 0 instructions: 430000000 cycles: 226136749 heartbeat IPC: 1.521 cumulative IPC: 1.779 (Simulation time: 03 hr 53 min 05 sec)
Heartbeat CPU 0 instructions: 440000002 cycles: 232621828 heartbeat IPC: 1.542 cumulative IPC: 1.772 (Simulation time: 03 hr 59 min 39 sec)
Heartbeat CPU 0 instructions: 450000000 cycles: 238974476 heartbeat IPC: 1.574 cumulative IPC: 1.766 (Simulation time: 04 hr 06 min 06 sec)
Heartbeat CPU 0 instructions: 460000002 cycles: 246489087 heartbeat IPC: 1.331 cumulative IPC: 1.752 (Simulation time: 04 hr 13 min 30 sec)
Heartbeat CPU 0 instructions: 470000000 cycles: 252883986 heartbeat IPC: 1.564 cumulative IPC: 1.747 (Simulation time: 04 hr 19 min 59 sec)
Heartbeat CPU 0 instructions: 480000000 cycles: 257774419 heartbeat IPC: 2.045 cumulative IPC: 1.753 (Simulation time: 04 hr 25 min 14 sec)
Heartbeat CPU 0 instructions: 490000001 cycles: 262625901 heartbeat IPC: 2.061 cumulative IPC: 1.759 (Simulation time: 04 hr 30 min 26 sec)
Heartbeat CPU 0 instructions: 500000002 cycles: 267458585 heartbeat IPC: 2.069 cumulative IPC: 1.765 (Simulation time: 04 hr 35 min 37 sec)
Heartbeat CPU 0 instructions: 510000000 cycles: 272351708 heartbeat IPC: 2.044 cumulative IPC: 1.77 (Simulation time: 04 hr 40 min 50 sec)
Heartbeat CPU 0 instructions: 520000000 cycles: 277284404 heartbeat IPC: 2.027 cumulative IPC: 1.775 (Simulation time: 04 hr 46 min 14 sec)
Heartbeat CPU 0 instructions: 530000001 cycles: 284096718 heartbeat IPC: 1.468 cumulative IPC: 1.767 (Simulation time: 04 hr 52 min 56 sec)
Heartbeat CPU 0 instructions: 540000000 cycles: 290815682 heartbeat IPC: 1.488 cumulative IPC: 1.761 (Simulation time: 04 hr 59 min 37 sec)
Heartbeat CPU 0 instructions: 550000002 cycles: 297986837 heartbeat IPC: 1.394 cumulative IPC: 1.751 (Simulation time: 05 hr 06 min 36 sec)
Heartbeat CPU 0 instructions: 560000004 cycles: 302381043 heartbeat IPC: 2.276 cumulative IPC: 1.759 (Simulation time: 05 hr 11 min 30 sec)
Heartbeat CPU 0 instructions: 570000001 cycles: 306733981 heartbeat IPC: 2.297 cumulative IPC: 1.767 (Simulation time: 05 hr 16 min 21 sec)
Heartbeat CPU 0 instructions: 580000003 cycles: 310867715 heartbeat IPC: 2.419 cumulative IPC: 1.776 (Simulation time: 05 hr 21 min 03 sec)
Heartbeat CPU 0 instructions: 590000001 cycles: 315675293 heartbeat IPC: 2.08 cumulative IPC: 1.781 (Simulation time: 05 hr 26 min 10 sec)
Heartbeat CPU 0 instructions: 600000003 cycles: 320266370 heartbeat IPC: 2.178 cumulative IPC: 1.787 (Simulation time: 05 hr 31 min 14 sec)
Heartbeat CPU 0 instructions: 610000001 cycles: 325061393 heartbeat IPC: 2.085 cumulative IPC: 1.792 (Simulation time: 05 hr 36 min 22 sec)
Heartbeat CPU 0 instructions: 620000000 cycles: 330072850 heartbeat IPC: 1.995 cumulative IPC: 1.795 (Simulation time: 05 hr 41 min 47 sec)
Heartbeat CPU 0 instructions: 630000002 cycles: 334279031 heartbeat IPC: 2.377 cumulative IPC: 1.802 (Simulation time: 05 hr 46 min 38 sec)
Heartbeat CPU 0 instructions: 640000004 cycles: 339548830 heartbeat IPC: 1.898 cumulative IPC: 1.804 (Simulation time: 05 hr 52 min 03 sec)
Heartbeat CPU 0 instructions: 650000001 cycles: 344289486 heartbeat IPC: 2.109 cumulative IPC: 1.808 (Simulation time: 05 hr 57 min 09 sec)
Simulation finished CPU 0 instructions: 600000001 cycles: 331789425 cumulative IPC: 1.808 (Simulation time: 05 hr 57 min 09 sec)
Simulation complete CPU 0 instructions: 600000001 cycles: 331789425 cumulative IPC: 1.808 (Simulation time: 05 hr 57 min 09 sec)

ChampSim completed all CPUs

=== Simulation ===
CPU 0 runs traces/400.perlbench-50B.champsimtrace.xz
Region of Interest Statistics

CPU 0 cumulative IPC: 1.808 instructions: 600000001 cycles: 331789425
CPU 0 Branch Prediction Accuracy: 93.83% MPKI: 12.71 Average ROB Occupancy at Mispredict: 29.17
Branch type MPKI
BRANCH_DIRECT_JUMP: 0.0176
BRANCH_INDIRECT: 0.38
BRANCH_CONDITIONAL: 11.9
BRANCH_DIRECT_CALL: 0.0067
BRANCH_INDIRECT_CALL: 0.431
BRANCH_RETURN: 0.0161

LLC TOTAL        ACCESS:    1320013 HIT:    1055212 MISS:     264801
LLC LOAD         ACCESS:     587176 HIT:     493246 MISS:      93930
LLC RFO          ACCESS:      47468 HIT:      38147 MISS:       9321
LLC PREFETCH     ACCESS:     535069 HIT:     382860 MISS:     152209
LLC WRITE        ACCESS:     128213 HIT:     128085 MISS:        128
LLC TRANSLATION  ACCESS:      22087 HIT:      12874 MISS:       9213
LLC PREFETCH REQUESTED:     535069 ISSUED:     535069 USEFUL:       1279 USELESS:         13
LLC AVERAGE MISS LATENCY: 217.2 cycles
cpu0_DTLB TOTAL        ACCESS:  156791960 HIT:  155491876 MISS:    1300084
cpu0_DTLB LOAD         ACCESS:  156791960 HIT:  155491876 MISS:    1300084
cpu0_DTLB RFO          ACCESS:          0 HIT:          0 MISS:          0
cpu0_DTLB PREFETCH     ACCESS:          0 HIT:          0 MISS:          0
cpu0_DTLB WRITE        ACCESS:          0 HIT:          0 MISS:          0
cpu0_DTLB TRANSLATION  ACCESS:          0 HIT:          0 MISS:          0
cpu0_DTLB PREFETCH REQUESTED:          0 ISSUED:          0 USEFUL:          0 USELESS:          0
cpu0_DTLB AVERAGE MISS LATENCY: 10.58 cycles
cpu0_ITLB TOTAL        ACCESS:    8932574 HIT:    8733981 MISS:     198593
cpu0_ITLB LOAD         ACCESS:    8932574 HIT:    8733981 MISS:     198593
cpu0_ITLB RFO          ACCESS:          0 HIT:          0 MISS:          0
cpu0_ITLB PREFETCH     ACCESS:          0 HIT:          0 MISS:          0
cpu0_ITLB WRITE        ACCESS:          0 HIT:          0 MISS:          0
cpu0_ITLB TRANSLATION  ACCESS:          0 HIT:          0 MISS:          0
cpu0_ITLB PREFETCH REQUESTED:          0 ISSUED:          0 USEFUL:          0 USELESS:          0
cpu0_ITLB AVERAGE MISS LATENCY: 2.729 cycles
cpu0_L1D TOTAL        ACCESS:  203653651 HIT:  200014216 MISS:    3639435
cpu0_L1D LOAD         ACCESS:  117976602 HIT:  114978725 MISS:    2997877
cpu0_L1D RFO          ACCESS:          0 HIT:          0 MISS:          0
cpu0_L1D PREFETCH     ACCESS:          0 HIT:          0 MISS:          0
cpu0_L1D WRITE        ACCESS:   85648501 HIT:   85034077 MISS:     614424
cpu0_L1D TRANSLATION  ACCESS:      28548 HIT:       1414 MISS:      27134
cpu0_L1D PREFETCH REQUESTED:          0 ISSUED:          0 USEFUL:          0 USELESS:          0
cpu0_L1D AVERAGE MISS LATENCY: 22.28 cycles
cpu0_L1I TOTAL        ACCESS:   10371211 HIT:    8573713 MISS:    1797498
cpu0_L1I LOAD         ACCESS:   10371211 HIT:    8573713 MISS:    1797498
cpu0_L1I RFO          ACCESS:          0 HIT:          0 MISS:          0
cpu0_L1I PREFETCH     ACCESS:          0 HIT:          0 MISS:          0
cpu0_L1I WRITE        ACCESS:          0 HIT:          0 MISS:          0
cpu0_L1I TRANSLATION  ACCESS:          0 HIT:          0 MISS:          0
cpu0_L1I PREFETCH REQUESTED:          0 ISSUED:          0 USEFUL:          0 USELESS:          0
cpu0_L1I AVERAGE MISS LATENCY: 9.123 cycles
cpu0_L2C TOTAL        ACCESS:    3837275 HIT:    3177277 MISS:     659998
cpu0_L2C LOAD         ACCESS:    3106473 HIT:    2519297 MISS:     587176
cpu0_L2C RFO          ACCESS:     191748 HIT:     144280 MISS:      47468
cpu0_L2C PREFETCH     ACCESS:          0 HIT:          0 MISS:          0
cpu0_L2C WRITE        ACCESS:     511993 HIT:     508726 MISS:       3267
cpu0_L2C TRANSLATION  ACCESS:      27061 HIT:       4974 MISS:      22087
cpu0_L2C PREFETCH REQUESTED:          0 ISSUED:          0 USEFUL:          0 USELESS:          0
cpu0_L2C AVERAGE MISS LATENCY: 105.9 cycles
cpu0_STLB TOTAL        ACCESS:    1009170 HIT:     982476 MISS:      26694
cpu0_STLB LOAD         ACCESS:    1009170 HIT:     982476 MISS:      26694
cpu0_STLB RFO          ACCESS:          0 HIT:          0 MISS:          0
cpu0_STLB PREFETCH     ACCESS:          0 HIT:          0 MISS:          0
cpu0_STLB WRITE        ACCESS:          0 HIT:          0 MISS:          0
cpu0_STLB TRANSLATION  ACCESS:          0 HIT:          0 MISS:          0
cpu0_STLB PREFETCH REQUESTED:          0 ISSUED:          0 USEFUL:          0 USELESS:          0
cpu0_STLB AVERAGE MISS LATENCY: 288.9 cycles

DRAM Statistics

Channel 0 RQ ROW_BUFFER_HIT:      53711
  ROW_BUFFER_MISS:     155341
 AVG DBUS CONGESTED CYCLE: 3.819
WQ ROW_BUFFER_HIT: Channel 0 
  ROW_BUFFER_MISS:        665
  FULL:        757
