WARNING: physical memory size is smaller than virtual memory size.

*** ChampSim Multicore Out-of-Order Simulator ***
Warmup Instructions: 50000000
Simulation Instructions: 600000000
Number of CPUs: 1
Page size: 4096

CPU 0 Tage branch predictor
Off-chip DRAM Size: 4 GiB Channels: 1 Width: 64-bit Data Race: 3200 MT/s
Heartbeat CPU 0 instructions: 10000001 cycles: 2500319 heartbeat IPC: 3.999 cumulative IPC: 3.999 (Simulation time: 00 hr 04 min 37 sec)
Heartbeat CPU 0 instructions: 20000002 cycles: 5037107 heartbeat IPC: 3.942 cumulative IPC: 3.971 (Simulation time: 00 hr 09 min 11 sec)
Heartbeat CPU 0 instructions: 30000002 cycles: 7537107 heartbeat IPC: 4 cumulative IPC: 3.98 (Simulation time: 00 hr 13 min 22 sec)
Heartbeat CPU 0 instructions: 40000002 cycles: 10037107 heartbeat IPC: 4 cumulative IPC: 3.985 (Simulation time: 00 hr 17 min 28 sec)
Heartbeat CPU 0 instructions: 50000002 cycles: 12537107 heartbeat IPC: 4 cumulative IPC: 3.988 (Simulation time: 00 hr 21 min 37 sec)
Warmup finished CPU 0 instructions: 50000002 cycles: 12537108 cumulative IPC: 3.988 (Simulation time: 00 hr 21 min 37 sec)
Warmup complete CPU 0 instructions: 50000002 cycles: 12537108 cumulative IPC: 3.988 (Simulation time: 00 hr 21 min 37 sec)
Heartbeat CPU 0 instructions: 60000001 cycles: 15617108 heartbeat IPC: 3.247 cumulative IPC: 3.247 (Simulation time: 00 hr 26 min 37 sec)
Heartbeat CPU 0 instructions: 70000004 cycles: 18755006 heartbeat IPC: 3.187 cumulative IPC: 3.217 (Simulation time: 00 hr 31 min 41 sec)
Heartbeat CPU 0 instructions: 80000001 cycles: 21880023 heartbeat IPC: 3.2 cumulative IPC: 3.211 (Simulation time: 00 hr 36 min 47 sec)
Heartbeat CPU 0 instructions: 90000001 cycles: 24877832 heartbeat IPC: 3.336 cumulative IPC: 3.241 (Simulation time: 00 hr 41 min 57 sec)
Heartbeat CPU 0 instructions: 100000000 cycles: 27841848 heartbeat IPC: 3.374 cumulative IPC: 3.267 (Simulation time: 00 hr 46 min 54 sec)
Heartbeat CPU 0 instructions: 110000000 cycles: 30821045 heartbeat IPC: 3.357 cumulative IPC: 3.282 (Simulation time: 00 hr 51 min 50 sec)
Heartbeat CPU 0 instructions: 120000001 cycles: 33844163 heartbeat IPC: 3.308 cumulative IPC: 3.285 (Simulation time: 00 hr 56 min 51 sec)
Heartbeat CPU 0 instructions: 130000001 cycles: 36746714 heartbeat IPC: 3.445 cumulative IPC: 3.304 (Simulation time: 01 hr 01 min 49 sec)
Heartbeat CPU 0 instructions: 140000001 cycles: 39848608 heartbeat IPC: 3.224 cumulative IPC: 3.295 (Simulation time: 01 hr 07 min 04 sec)
Heartbeat CPU 0 instructions: 150000001 cycles: 42902262 heartbeat IPC: 3.275 cumulative IPC: 3.293 (Simulation time: 01 hr 12 min 06 sec)
Heartbeat CPU 0 instructions: 160000004 cycles: 45974732 heartbeat IPC: 3.255 cumulative IPC: 3.29 (Simulation time: 01 hr 17 min 07 sec)
Heartbeat CPU 0 instructions: 170000000 cycles: 51653489 heartbeat IPC: 1.761 cumulative IPC: 3.068 (Simulation time: 01 hr 24 min 08 sec)
Heartbeat CPU 0 instructions: 180000004 cycles: 56472477 heartbeat IPC: 2.075 cumulative IPC: 2.959 (Simulation time: 01 hr 30 min 43 sec)
Heartbeat CPU 0 instructions: 190000001 cycles: 60787767 heartbeat IPC: 2.317 cumulative IPC: 2.902 (Simulation time: 01 hr 36 min 53 sec)
Heartbeat CPU 0 instructions: 200000004 cycles: 63544689 heartbeat IPC: 3.627 cumulative IPC: 2.941 (Simulation time: 01 hr 41 min 39 sec)
Heartbeat CPU 0 instructions: 210000001 cycles: 66344948 heartbeat IPC: 3.571 cumulative IPC: 2.974 (Simulation time: 01 hr 46 min 36 sec)
Heartbeat CPU 0 instructions: 220000000 cycles: 69141389 heartbeat IPC: 3.576 cumulative IPC: 3.003 (Simulation time: 01 hr 51 min 26 sec)
Heartbeat CPU 0 instructions: 230000002 cycles: 71867776 heartbeat IPC: 3.668 cumulative IPC: 3.034 (Simulation time: 01 hr 56 min 17 sec)
Heartbeat CPU 0 instructions: 240000003 cycles: 74717323 heartbeat IPC: 3.509 cumulative IPC: 3.056 (Simulation time: 02 hr 01 min 11 sec)
Heartbeat CPU 0 instructions: 250000000 cycles: 77535871 heartbeat IPC: 3.548 cumulative IPC: 3.077 (Simulation time: 02 hr 06 min 00 sec)
Heartbeat CPU 0 instructions: 260000002 cycles: 80302539 heartbeat IPC: 3.614 cumulative IPC: 3.099 (Simulation time: 02 hr 10 min 48 sec)
Heartbeat CPU 0 instructions: 270000002 cycles: 83075713 heartbeat IPC: 3.606 cumulative IPC: 3.119 (Simulation time: 02 hr 15 min 32 sec)
Heartbeat CPU 0 instructions: 280000002 cycles: 85811215 heartbeat IPC: 3.656 cumulative IPC: 3.139 (Simulation time: 02 hr 20 min 17 sec)
Heartbeat CPU 0 instructions: 290000002 cycles: 88652441 heartbeat IPC: 3.52 cumulative IPC: 3.153 (Simulation time: 02 hr 25 min 08 sec)
Heartbeat CPU 0 instructions: 300000003 cycles: 91401342 heartbeat IPC: 3.638 cumulative IPC: 3.17 (Simulation time: 02 hr 30 min 00 sec)
Heartbeat CPU 0 instructions: 310000001 cycles: 94236982 heartbeat IPC: 3.527 cumulative IPC: 3.182 (Simulation time: 02 hr 34 min 51 sec)
Heartbeat CPU 0 instructions: 320000003 cycles: 97098343 heartbeat IPC: 3.495 cumulative IPC: 3.193 (Simulation time: 02 hr 39 min 44 sec)
Heartbeat CPU 0 instructions: 330000003 cycles: 99902584 heartbeat IPC: 3.566 cumulative IPC: 3.205 (Simulation time: 02 hr 44 min 34 sec)
Heartbeat CPU 0 instructions: 340000000 cycles: 105055323 heartbeat IPC: 1.941 cumulative IPC: 3.135 (Simulation time: 02 hr 51 min 27 sec)
Heartbeat CPU 0 instructions: 350000000 cycles: 109921449 heartbeat IPC: 2.055 cumulative IPC: 3.081 (Simulation time: 02 hr 58 min 18 sec)
Heartbeat CPU 0 instructions: 360000004 cycles: 114422488 heartbeat IPC: 2.222 cumulative IPC: 3.043 (Simulation time: 03 hr 04 min 34 sec)
Heartbeat CPU 0 instructions: 370000000 cycles: 117235465 heartbeat IPC: 3.555 cumulative IPC: 3.056 (Simulation time: 03 hr 09 min 24 sec)
Heartbeat CPU 0 instructions: 380000003 cycles: 119999489 heartbeat IPC: 3.618 cumulative IPC: 3.071 (Simulation time: 03 hr 14 min 14 sec)
Heartbeat CPU 0 instructions: 390000002 cycles: 122868065 heartbeat IPC: 3.486 cumulative IPC: 3.082 (Simulation time: 03 hr 19 min 06 sec)
Heartbeat CPU 0 instructions: 400000004 cycles: 125700902 heartbeat IPC: 3.53 cumulative IPC: 3.093 (Simulation time: 03 hr 23 min 59 sec)
Heartbeat CPU 0 instructions: 410000002 cycles: 128469407 heartbeat IPC: 3.612 cumulative IPC: 3.105 (Simulation time: 03 hr 28 min 48 sec)
Heartbeat CPU 0 instructions: 420000003 cycles: 131323320 heartbeat IPC: 3.504 cumulative IPC: 3.115 (Simulation time: 03 hr 33 min 42 sec)
Heartbeat CPU 0 instructions: 430000001 cycles: 134202808 heartbeat IPC: 3.473 cumulative IPC: 3.123 (Simulation time: 03 hr 38 min 39 sec)
Heartbeat CPU 0 instructions: 440000004 cycles: 137155166 heartbeat IPC: 3.387 cumulative IPC: 3.13 (Simulation time: 03 hr 43 min 36 sec)
Heartbeat CPU 0 instructions: 450000002 cycles: 139909768 heartbeat IPC: 3.63 cumulative IPC: 3.14 (Simulation time: 03 hr 48 min 24 sec)
Heartbeat CPU 0 instructions: 460000000 cycles: 142703122 heartbeat IPC: 3.58 cumulative IPC: 3.15 (Simulation time: 03 hr 53 min 15 sec)
Heartbeat CPU 0 instructions: 470000001 cycles: 145435488 heartbeat IPC: 3.66 cumulative IPC: 3.16 (Simulation time: 03 hr 58 min 05 sec)
Heartbeat CPU 0 instructions: 480000003 cycles: 148329539 heartbeat IPC: 3.455 cumulative IPC: 3.167 (Simulation time: 04 hr 02 min 59 sec)
Heartbeat CPU 0 instructions: 490000004 cycles: 151068761 heartbeat IPC: 3.651 cumulative IPC: 3.176 (Simulation time: 04 hr 07 min 46 sec)
Heartbeat CPU 0 instructions: 500000004 cycles: 153965252 heartbeat IPC: 3.452 cumulative IPC: 3.182 (Simulation time: 04 hr 12 min 39 sec)
Heartbeat CPU 0 instructions: 510000003 cycles: 156848385 heartbeat IPC: 3.468 cumulative IPC: 3.188 (Simulation time: 04 hr 17 min 36 sec)
Heartbeat CPU 0 instructions: 520000001 cycles: 159594736 heartbeat IPC: 3.641 cumulative IPC: 3.196 (Simulation time: 04 hr 22 min 26 sec)
Heartbeat CPU 0 instructions: 530000001 cycles: 162472152 heartbeat IPC: 3.475 cumulative IPC: 3.201 (Simulation time: 04 hr 27 min 30 sec)
Heartbeat CPU 0 instructions: 540000000 cycles: 165299696 heartbeat IPC: 3.537 cumulative IPC: 3.208 (Simulation time: 04 hr 32 min 22 sec)
Heartbeat CPU 0 instructions: 550000001 cycles: 168185192 heartbeat IPC: 3.466 cumulative IPC: 3.212 (Simulation time: 04 hr 37 min 14 sec)
Heartbeat CPU 0 instructions: 560000000 cycles: 171100879 heartbeat IPC: 3.43 cumulative IPC: 3.216 (Simulation time: 04 hr 42 min 10 sec)
Heartbeat CPU 0 instructions: 570000004 cycles: 175125863 heartbeat IPC: 2.484 cumulative IPC: 3.198 (Simulation time: 04 hr 47 min 56 sec)
Heartbeat CPU 0 instructions: 580000003 cycles: 180345702 heartbeat IPC: 1.916 cumulative IPC: 3.158 (Simulation time: 04 hr 54 min 42 sec)
Heartbeat CPU 0 instructions: 590000002 cycles: 185535937 heartbeat IPC: 1.927 cumulative IPC: 3.121 (Simulation time: 05 hr 01 min 35 sec)
Heartbeat CPU 0 instructions: 600000004 cycles: 188404737 heartbeat IPC: 3.486 cumulative IPC: 3.127 (Simulation time: 05 hr 06 min 36 sec)
Heartbeat CPU 0 instructions: 610000002 cycles: 191233171 heartbeat IPC: 3.536 cumulative IPC: 3.134 (Simulation time: 05 hr 11 min 22 sec)
Heartbeat CPU 0 instructions: 620000001 cycles: 193930574 heartbeat IPC: 3.707 cumulative IPC: 3.142 (Simulation time: 05 hr 16 min 10 sec)
Heartbeat CPU 0 instructions: 630000002 cycles: 196778770 heartbeat IPC: 3.511 cumulative IPC: 3.148 (Simulation time: 05 hr 20 min 59 sec)
Heartbeat CPU 0 instructions: 640000004 cycles: 199677717 heartbeat IPC: 3.45 cumulative IPC: 3.153 (Simulation time: 05 hr 25 min 50 sec)
Heartbeat CPU 0 instructions: 650000000 cycles: 202381365 heartbeat IPC: 3.699 cumulative IPC: 3.16 (Simulation time: 05 hr 30 min 35 sec)
Simulation finished CPU 0 instructions: 600000001 cycles: 189844259 cumulative IPC: 3.16 (Simulation time: 05 hr 30 min 35 sec)
Simulation complete CPU 0 instructions: 600000001 cycles: 189844259 cumulative IPC: 3.16 (Simulation time: 05 hr 30 min 35 sec)

ChampSim completed all CPUs

=== Simulation ===
CPU 0 runs traces/400.perlbench-41B.champsimtrace.xz
Region of Interest Statistics

CPU 0 cumulative IPC: 3.16 instructions: 600000001 cycles: 189844259
CPU 0 Branch Prediction Accuracy: 99.19% MPKI: 1.684 Average ROB Occupancy at Mispredict: 100.6
Branch type MPKI
BRANCH_DIRECT_JUMP: 0.0123
BRANCH_INDIRECT: 0.323
BRANCH_CONDITIONAL: 1.14
BRANCH_DIRECT_CALL: 0.0043
BRANCH_INDIRECT_CALL: 0.2
BRANCH_RETURN: 0.00828

LLC TOTAL        ACCESS:     830263 HIT:     724200 MISS:     106063
LLC LOAD         ACCESS:     398242 HIT:     363203 MISS:      35039
LLC RFO          ACCESS:      31953 HIT:      27092 MISS:       4861
LLC PREFETCH     ACCESS:     297303 HIT:     239868 MISS:      57435
LLC WRITE        ACCESS:      83862 HIT:      83010 MISS:        852
LLC TRANSLATION  ACCESS:      18903 HIT:      11027 MISS:       7876
LLC PREFETCH REQUESTED:     297304 ISSUED:     297303 USEFUL:      14954 USELESS:      27068
LLC AVERAGE MISS LATENCY: 729 cycles
cpu0_DTLB TOTAL        ACCESS:  129751256 HIT:  129049955 MISS:     701301
cpu0_DTLB LOAD         ACCESS:  129751256 HIT:  129049955 MISS:     701301
cpu0_DTLB RFO          ACCESS:          0 HIT:          0 MISS:          0
cpu0_DTLB PREFETCH     ACCESS:          0 HIT:          0 MISS:          0
cpu0_DTLB WRITE        ACCESS:          0 HIT:          0 MISS:          0
cpu0_DTLB TRANSLATION  ACCESS:          0 HIT:          0 MISS:          0
cpu0_DTLB PREFETCH REQUESTED:          0 ISSUED:          0 USEFUL:          0 USELESS:          0
cpu0_DTLB AVERAGE MISS LATENCY: 11.7 cycles
cpu0_ITLB TOTAL        ACCESS:    4860818 HIT:    4798620 MISS:      62198
cpu0_ITLB LOAD         ACCESS:    4860818 HIT:    4798620 MISS:      62198
cpu0_ITLB RFO          ACCESS:          0 HIT:          0 MISS:          0
cpu0_ITLB PREFETCH     ACCESS:          0 HIT:          0 MISS:          0
cpu0_ITLB WRITE        ACCESS:          0 HIT:          0 MISS:          0
cpu0_ITLB TRANSLATION  ACCESS:          0 HIT:          0 MISS:          0
cpu0_ITLB PREFETCH REQUESTED:          0 ISSUED:          0 USEFUL:          0 USELESS:          0
cpu0_ITLB AVERAGE MISS LATENCY: 4.702 cycles
cpu0_L1D TOTAL        ACCESS:  174380224 HIT:  172649137 MISS:    1731087
cpu0_L1D LOAD         ACCESS:   91355426 HIT:   90009715 MISS:    1345711
cpu0_L1D RFO          ACCESS:          0 HIT:          0 MISS:          0
cpu0_L1D PREFETCH     ACCESS:          0 HIT:          0 MISS:          0
cpu0_L1D WRITE        ACCESS:   83000336 HIT:   82638354 MISS:     361982
cpu0_L1D TRANSLATION  ACCESS:      24462 HIT:       1068 MISS:      23394
cpu0_L1D PREFETCH REQUESTED:          0 ISSUED:          0 USEFUL:          0 USELESS:          0
cpu0_L1D AVERAGE MISS LATENCY: 26.93 cycles
cpu0_L1I TOTAL        ACCESS:    5640548 HIT:    4836180 MISS:     804368
cpu0_L1I LOAD         ACCESS:    5640548 HIT:    4836180 MISS:     804368
cpu0_L1I RFO          ACCESS:          0 HIT:          0 MISS:          0
cpu0_L1I PREFETCH     ACCESS:          0 HIT:          0 MISS:          0
cpu0_L1I WRITE        ACCESS:          0 HIT:          0 MISS:          0
cpu0_L1I TRANSLATION  ACCESS:          0 HIT:          0 MISS:          0
cpu0_L1I PREFETCH REQUESTED:          0 ISSUED:          0 USEFUL:          0 USELESS:          0
cpu0_L1I AVERAGE MISS LATENCY: 8.063 cycles
cpu0_L2C TOTAL        ACCESS:    1668527 HIT:    1217837 MISS:     450690
cpu0_L2C LOAD         ACCESS:    1315416 HIT:     917174 MISS:     398242
cpu0_L2C RFO          ACCESS:      89521 HIT:      57568 MISS:      31953
cpu0_L2C PREFETCH     ACCESS:          0 HIT:          0 MISS:          0
cpu0_L2C WRITE        ACCESS:     240272 HIT:     238680 MISS:       1592
cpu0_L2C TRANSLATION  ACCESS:      23318 HIT:       4415 MISS:      18903
cpu0_L2C PREFETCH REQUESTED:          0 ISSUED:          0 USEFUL:          0 USELESS:          0
cpu0_L2C AVERAGE MISS LATENCY: 95.56 cycles
cpu0_STLB TOTAL        ACCESS:     507916 HIT:     485130 MISS:      22786
cpu0_STLB LOAD         ACCESS:     507916 HIT:     485130 MISS:      22786
cpu0_STLB RFO          ACCESS:          0 HIT:          0 MISS:          0
cpu0_STLB PREFETCH     ACCESS:          0 HIT:          0 MISS:          0
cpu0_STLB WRITE        ACCESS:          0 HIT:          0 MISS:          0
cpu0_STLB TRANSLATION  ACCESS:          0 HIT:          0 MISS:          0
cpu0_STLB PREFETCH REQUESTED:          0 ISSUED:          0 USEFUL:          0 USELESS:          0
cpu0_STLB AVERAGE MISS LATENCY: 237.9 cycles

DRAM Statistics

Channel 0 RQ ROW_BUFFER_HIT:      38560
  ROW_BUFFER_MISS:      63390
 AVG DBUS CONGESTED CYCLE: 3.89
WQ ROW_BUFFER_HIT: Channel 0 
  ROW_BUFFER_MISS:       1733
  FULL:       3902
