WARNING: physical memory size is smaller than virtual memory size.

*** ChampSim Multicore Out-of-Order Simulator ***
Warmup Instructions: 50000000
Simulation Instructions: 600000000
Number of CPUs: 1
Page size: 4096

Initialize SIGNATURE TABLE
ST_SET: 1
ST_WAY: 256
ST_TAG_BIT: 16
ST_TAG_MASK: ffff

Initialize PATTERN TABLE
PT_SET: 512
PT_WAY: 4
SIG_DELTA_BIT: 7
C_SIG_BIT: 4
C_DELTA_BIT: 4

Initialize PREFETCH FILTER
FILTER_SET: 1024
Off-chip DRAM Size: 4 GiB Channels: 1 Width: 64-bit Data Race: 3200 MT/s
Heartbeat CPU 0 instructions: 10000000 cycles: 2500061 heartbeat IPC: 4 cumulative IPC: 4 (Simulation time: 00 hr 03 min 22 sec)
Heartbeat CPU 0 instructions: 20000000 cycles: 5000061 heartbeat IPC: 4 cumulative IPC: 4 (Simulation time: 00 hr 06 min 45 sec)
Heartbeat CPU 0 instructions: 30000000 cycles: 7500061 heartbeat IPC: 4 cumulative IPC: 4 (Simulation time: 00 hr 10 min 04 sec)
Heartbeat CPU 0 instructions: 40000000 cycles: 10000061 heartbeat IPC: 4 cumulative IPC: 4 (Simulation time: 00 hr 13 min 36 sec)
Heartbeat CPU 0 instructions: 50000000 cycles: 12500061 heartbeat IPC: 4 cumulative IPC: 4 (Simulation time: 00 hr 16 min 58 sec)
Warmup finished CPU 0 instructions: 50000000 cycles: 12500062 cumulative IPC: 4 (Simulation time: 00 hr 16 min 58 sec)
Warmup complete CPU 0 instructions: 50000000 cycles: 12500062 cumulative IPC: 4 (Simulation time: 00 hr 16 min 58 sec)
Heartbeat CPU 0 instructions: 60000002 cycles: 16452158 heartbeat IPC: 2.53 cumulative IPC: 2.53 (Simulation time: 00 hr 21 min 36 sec)
Heartbeat CPU 0 instructions: 70000003 cycles: 20779588 heartbeat IPC: 2.311 cumulative IPC: 2.416 (Simulation time: 00 hr 26 min 24 sec)
Heartbeat CPU 0 instructions: 80000003 cycles: 25261504 heartbeat IPC: 2.231 cumulative IPC: 2.351 (Simulation time: 00 hr 31 min 16 sec)
Heartbeat CPU 0 instructions: 90000000 cycles: 28958279 heartbeat IPC: 2.705 cumulative IPC: 2.43 (Simulation time: 00 hr 35 min 43 sec)
Heartbeat CPU 0 instructions: 100000003 cycles: 32870349 heartbeat IPC: 2.556 cumulative IPC: 2.455 (Simulation time: 00 hr 40 min 20 sec)
Heartbeat CPU 0 instructions: 110000002 cycles: 36978085 heartbeat IPC: 2.434 cumulative IPC: 2.451 (Simulation time: 00 hr 45 min 01 sec)
Heartbeat CPU 0 instructions: 120000001 cycles: 40704754 heartbeat IPC: 2.683 cumulative IPC: 2.482 (Simulation time: 00 hr 49 min 34 sec)
Heartbeat CPU 0 instructions: 130000003 cycles: 44487646 heartbeat IPC: 2.643 cumulative IPC: 2.501 (Simulation time: 00 hr 54 min 07 sec)
Heartbeat CPU 0 instructions: 140000002 cycles: 48626295 heartbeat IPC: 2.416 cumulative IPC: 2.491 (Simulation time: 00 hr 58 min 49 sec)
Heartbeat CPU 0 instructions: 150000001 cycles: 52685749 heartbeat IPC: 2.463 cumulative IPC: 2.488 (Simulation time: 01 hr 03 min 31 sec)
Heartbeat CPU 0 instructions: 160000000 cycles: 56347143 heartbeat IPC: 2.731 cumulative IPC: 2.509 (Simulation time: 01 hr 07 min 58 sec)
Heartbeat CPU 0 instructions: 170000001 cycles: 60530088 heartbeat IPC: 2.391 cumulative IPC: 2.498 (Simulation time: 01 hr 12 min 41 sec)
Heartbeat CPU 0 instructions: 180000001 cycles: 63999721 heartbeat IPC: 2.882 cumulative IPC: 2.524 (Simulation time: 01 hr 17 min 04 sec)
Heartbeat CPU 0 instructions: 190000002 cycles: 67593511 heartbeat IPC: 2.783 cumulative IPC: 2.541 (Simulation time: 01 hr 21 min 32 sec)
Heartbeat CPU 0 instructions: 200000002 cycles: 71386608 heartbeat IPC: 2.636 cumulative IPC: 2.547 (Simulation time: 01 hr 26 min 02 sec)
Heartbeat CPU 0 instructions: 210000000 cycles: 75036109 heartbeat IPC: 2.74 cumulative IPC: 2.559 (Simulation time: 01 hr 30 min 28 sec)
Heartbeat CPU 0 instructions: 220000001 cycles: 78914558 heartbeat IPC: 2.578 cumulative IPC: 2.56 (Simulation time: 01 hr 35 min 03 sec)
Heartbeat CPU 0 instructions: 230000002 cycles: 82766417 heartbeat IPC: 2.596 cumulative IPC: 2.562 (Simulation time: 01 hr 39 min 38 sec)
Heartbeat CPU 0 instructions: 240000001 cycles: 86986498 heartbeat IPC: 2.37 cumulative IPC: 2.551 (Simulation time: 01 hr 44 min 24 sec)
Heartbeat CPU 0 instructions: 250000003 cycles: 91573887 heartbeat IPC: 2.18 cumulative IPC: 2.529 (Simulation time: 01 hr 49 min 18 sec)
Heartbeat CPU 0 instructions: 260000000 cycles: 95373753 heartbeat IPC: 2.632 cumulative IPC: 2.534 (Simulation time: 01 hr 53 min 59 sec)
Heartbeat CPU 0 instructions: 270000003 cycles: 102522620 heartbeat IPC: 1.399 cumulative IPC: 2.444 (Simulation time: 02 hr 00 min 52 sec)
Heartbeat CPU 0 instructions: 280000000 cycles: 113305271 heartbeat IPC: 0.9274 cumulative IPC: 2.282 (Simulation time: 02 hr 10 min 03 sec)
Heartbeat CPU 0 instructions: 290000000 cycles: 122668568 heartbeat IPC: 1.068 cumulative IPC: 2.178 (Simulation time: 02 hr 18 min 20 sec)
Heartbeat CPU 0 instructions: 300000003 cycles: 129917689 heartbeat IPC: 1.379 cumulative IPC: 2.129 (Simulation time: 02 hr 25 min 28 sec)
Heartbeat CPU 0 instructions: 310000004 cycles: 140162325 heartbeat IPC: 0.9761 cumulative IPC: 2.037 (Simulation time: 02 hr 34 min 33 sec)
Heartbeat CPU 0 instructions: 320000004 cycles: 145108072 heartbeat IPC: 2.022 cumulative IPC: 2.036 (Simulation time: 02 hr 40 min 03 sec)
Heartbeat CPU 0 instructions: 330000000 cycles: 149119489 heartbeat IPC: 2.493 cumulative IPC: 2.049 (Simulation time: 02 hr 44 min 49 sec)
Heartbeat CPU 0 instructions: 340000001 cycles: 152949293 heartbeat IPC: 2.611 cumulative IPC: 2.065 (Simulation time: 02 hr 49 min 27 sec)
Heartbeat CPU 0 instructions: 350000004 cycles: 156901188 heartbeat IPC: 2.53 cumulative IPC: 2.078 (Simulation time: 02 hr 54 min 09 sec)
Heartbeat CPU 0 instructions: 360000003 cycles: 160576671 heartbeat IPC: 2.721 cumulative IPC: 2.094 (Simulation time: 02 hr 58 min 42 sec)
Heartbeat CPU 0 instructions: 370000001 cycles: 164237877 heartbeat IPC: 2.731 cumulative IPC: 2.109 (Simulation time: 03 hr 03 min 14 sec)
Heartbeat CPU 0 instructions: 380000004 cycles: 167759852 heartbeat IPC: 2.839 cumulative IPC: 2.125 (Simulation time: 03 hr 07 min 43 sec)
Heartbeat CPU 0 instructions: 390000002 cycles: 171315358 heartbeat IPC: 2.813 cumulative IPC: 2.141 (Simulation time: 03 hr 12 min 12 sec)
Heartbeat CPU 0 instructions: 400000000 cycles: 175137349 heartbeat IPC: 2.616 cumulative IPC: 2.152 (Simulation time: 03 hr 16 min 51 sec)
Heartbeat CPU 0 instructions: 410000000 cycles: 180578801 heartbeat IPC: 1.838 cumulative IPC: 2.142 (Simulation time: 03 hr 22 min 36 sec)
Heartbeat CPU 0 instructions: 420000003 cycles: 187415204 heartbeat IPC: 1.463 cumulative IPC: 2.115 (Simulation time: 03 hr 29 min 18 sec)
Heartbeat CPU 0 instructions: 430000000 cycles: 193925564 heartbeat IPC: 1.536 cumulative IPC: 2.095 (Simulation time: 03 hr 36 min 11 sec)
Heartbeat CPU 0 instructions: 440000004 cycles: 199942369 heartbeat IPC: 1.662 cumulative IPC: 2.081 (Simulation time: 03 hr 42 min 27 sec)
Heartbeat CPU 0 instructions: 450000001 cycles: 206202796 heartbeat IPC: 1.597 cumulative IPC: 2.065 (Simulation time: 03 hr 48 min 56 sec)
Heartbeat CPU 0 instructions: 460000002 cycles: 213639699 heartbeat IPC: 1.345 cumulative IPC: 2.038 (Simulation time: 03 hr 56 min 09 sec)
Heartbeat CPU 0 instructions: 470000003 cycles: 219501360 heartbeat IPC: 1.706 cumulative IPC: 2.029 (Simulation time: 04 hr 02 min 19 sec)
Heartbeat CPU 0 instructions: 480000003 cycles: 223219399 heartbeat IPC: 2.69 cumulative IPC: 2.041 (Simulation time: 04 hr 06 min 56 sec)
Heartbeat CPU 0 instructions: 490000001 cycles: 227066628 heartbeat IPC: 2.599 cumulative IPC: 2.051 (Simulation time: 04 hr 11 min 46 sec)
Heartbeat CPU 0 instructions: 500000002 cycles: 230738482 heartbeat IPC: 2.723 cumulative IPC: 2.062 (Simulation time: 04 hr 16 min 17 sec)
Heartbeat CPU 0 instructions: 510000000 cycles: 234239353 heartbeat IPC: 2.856 cumulative IPC: 2.075 (Simulation time: 04 hr 20 min 45 sec)
Heartbeat CPU 0 instructions: 520000000 cycles: 237864213 heartbeat IPC: 2.759 cumulative IPC: 2.086 (Simulation time: 04 hr 25 min 16 sec)
Heartbeat CPU 0 instructions: 530000001 cycles: 244585751 heartbeat IPC: 1.488 cumulative IPC: 2.068 (Simulation time: 04 hr 31 min 55 sec)
Heartbeat CPU 0 instructions: 540000000 cycles: 251461302 heartbeat IPC: 1.454 cumulative IPC: 2.051 (Simulation time: 04 hr 38 min 45 sec)
Heartbeat CPU 0 instructions: 550000004 cycles: 258435080 heartbeat IPC: 1.434 cumulative IPC: 2.033 (Simulation time: 04 hr 45 min 38 sec)
Heartbeat CPU 0 instructions: 560000004 cycles: 262217802 heartbeat IPC: 2.644 cumulative IPC: 2.042 (Simulation time: 04 hr 50 min 12 sec)
Heartbeat CPU 0 instructions: 570000001 cycles: 265289764 heartbeat IPC: 3.255 cumulative IPC: 2.057 (Simulation time: 04 hr 54 min 27 sec)
Heartbeat CPU 0 instructions: 580000003 cycles: 268738659 heartbeat IPC: 2.899 cumulative IPC: 2.068 (Simulation time: 04 hr 58 min 50 sec)
Heartbeat CPU 0 instructions: 590000002 cycles: 272263673 heartbeat IPC: 2.837 cumulative IPC: 2.079 (Simulation time: 05 hr 03 min 15 sec)
Heartbeat CPU 0 instructions: 600000003 cycles: 275281197 heartbeat IPC: 3.314 cumulative IPC: 2.093 (Simulation time: 05 hr 07 min 41 sec)
Heartbeat CPU 0 instructions: 610000001 cycles: 278723574 heartbeat IPC: 2.905 cumulative IPC: 2.103 (Simulation time: 05 hr 12 min 09 sec)
Heartbeat CPU 0 instructions: 620000000 cycles: 282685183 heartbeat IPC: 2.524 cumulative IPC: 2.11 (Simulation time: 05 hr 16 min 51 sec)
Heartbeat CPU 0 instructions: 630000002 cycles: 286011920 heartbeat IPC: 3.006 cumulative IPC: 2.121 (Simulation time: 05 hr 21 min 12 sec)
Heartbeat CPU 0 instructions: 640000004 cycles: 289970430 heartbeat IPC: 2.526 cumulative IPC: 2.126 (Simulation time: 05 hr 25 min 53 sec)
Heartbeat CPU 0 instructions: 650000001 cycles: 293771661 heartbeat IPC: 2.631 cumulative IPC: 2.133 (Simulation time: 05 hr 30 min 26 sec)
Simulation finished CPU 0 instructions: 600000001 cycles: 281271600 cumulative IPC: 2.133 (Simulation time: 05 hr 30 min 26 sec)
Simulation complete CPU 0 instructions: 600000001 cycles: 281271600 cumulative IPC: 2.133 (Simulation time: 05 hr 30 min 26 sec)

ChampSim completed all CPUs

=== Simulation ===
CPU 0 runs traces/400.perlbench-50B.champsimtrace.xz
Region of Interest Statistics

CPU 0 cumulative IPC: 2.133 instructions: 600000001 cycles: 281271600
CPU 0 Branch Prediction Accuracy: 96.2% MPKI: 7.839 Average ROB Occupancy at Mispredict: 43.09
Branch type MPKI
BRANCH_DIRECT_JUMP: 0.0176
BRANCH_INDIRECT: 0.38
BRANCH_CONDITIONAL: 6.99
BRANCH_DIRECT_CALL: 0.0067
BRANCH_INDIRECT_CALL: 0.431
BRANCH_RETURN: 0.0161

LLC TOTAL        ACCESS:    1319278 HIT:    1055815 MISS:     263463
LLC LOAD         ACCESS:     587759 HIT:     493767 MISS:      93992
LLC RFO          ACCESS:      47583 HIT:      38278 MISS:       9305
LLC PREFETCH     ACCESS:     533404 HIT:     382535 MISS:     150869
LLC WRITE        ACCESS:     128618 HIT:     128487 MISS:        131
LLC TRANSLATION  ACCESS:      21914 HIT:      12748 MISS:       9166
LLC PREFETCH REQUESTED:     533404 ISSUED:     533404 USEFUL:       1150 USELESS:         19
LLC AVERAGE MISS LATENCY: 217.9 cycles
cpu0_DTLB TOTAL        ACCESS:  146519768 HIT:  145215299 MISS:    1304469
cpu0_DTLB LOAD         ACCESS:  146519768 HIT:  145215299 MISS:    1304469
cpu0_DTLB RFO          ACCESS:          0 HIT:          0 MISS:          0
cpu0_DTLB PREFETCH     ACCESS:          0 HIT:          0 MISS:          0
cpu0_DTLB WRITE        ACCESS:          0 HIT:          0 MISS:          0
cpu0_DTLB TRANSLATION  ACCESS:          0 HIT:          0 MISS:          0
cpu0_DTLB PREFETCH REQUESTED:          0 ISSUED:          0 USEFUL:          0 USELESS:          0
cpu0_DTLB AVERAGE MISS LATENCY: 10.35 cycles
cpu0_ITLB TOTAL        ACCESS:    8984601 HIT:    8800017 MISS:     184584
cpu0_ITLB LOAD         ACCESS:    8984601 HIT:    8800017 MISS:     184584
cpu0_ITLB RFO          ACCESS:          0 HIT:          0 MISS:          0
cpu0_ITLB PREFETCH     ACCESS:          0 HIT:          0 MISS:          0
cpu0_ITLB WRITE        ACCESS:          0 HIT:          0 MISS:          0
cpu0_ITLB TRANSLATION  ACCESS:          0 HIT:          0 MISS:          0
cpu0_ITLB PREFETCH REQUESTED:          0 ISSUED:          0 USEFUL:          0 USELESS:          0
cpu0_ITLB AVERAGE MISS LATENCY: 3.036 cycles
cpu0_L1D TOTAL        ACCESS:  193316491 HIT:  189688256 MISS:    3628235
cpu0_L1D LOAD         ACCESS:  107471630 HIT:  104478273 MISS:    2993357
cpu0_L1D RFO          ACCESS:          0 HIT:          0 MISS:          0
cpu0_L1D PREFETCH     ACCESS:          0 HIT:          0 MISS:          0
cpu0_L1D WRITE        ACCESS:   85816339 HIT:   85208558 MISS:     607781
cpu0_L1D TRANSLATION  ACCESS:      28522 HIT:       1425 MISS:      27097
cpu0_L1D PREFETCH REQUESTED:          0 ISSUED:          0 USEFUL:          0 USELESS:          0
cpu0_L1D AVERAGE MISS LATENCY: 22.3 cycles
cpu0_L1I TOTAL        ACCESS:   10419088 HIT:    8657253 MISS:    1761835
cpu0_L1I LOAD         ACCESS:   10419088 HIT:    8657253 MISS:    1761835
cpu0_L1I RFO          ACCESS:          0 HIT:          0 MISS:          0
cpu0_L1I PREFETCH     ACCESS:          0 HIT:          0 MISS:          0
cpu0_L1I WRITE        ACCESS:          0 HIT:          0 MISS:          0
cpu0_L1I TRANSLATION  ACCESS:          0 HIT:          0 MISS:          0
cpu0_L1I PREFETCH REQUESTED:          0 ISSUED:          0 USEFUL:          0 USELESS:          0
cpu0_L1I AVERAGE MISS LATENCY: 9.342 cycles
cpu0_L2C TOTAL        ACCESS:    3834874 HIT:    3174382 MISS:     660492
cpu0_L2C LOAD         ACCESS:    3105019 HIT:    2517260 MISS:     587759
cpu0_L2C RFO          ACCESS:     191507 HIT:     143924 MISS:      47583
cpu0_L2C PREFETCH     ACCESS:          0 HIT:          0 MISS:          0
cpu0_L2C WRITE        ACCESS:     511318 HIT:     508082 MISS:       3236
cpu0_L2C TRANSLATION  ACCESS:      27030 HIT:       5116 MISS:      21914
cpu0_L2C PREFETCH REQUESTED:          0 ISSUED:          0 USEFUL:          0 USELESS:          0
cpu0_L2C AVERAGE MISS LATENCY: 105.8 cycles
cpu0_STLB TOTAL        ACCESS:    1008408 HIT:     981715 MISS:      26693
cpu0_STLB LOAD         ACCESS:    1008408 HIT:     981715 MISS:      26693
cpu0_STLB RFO          ACCESS:          0 HIT:          0 MISS:          0
cpu0_STLB PREFETCH     ACCESS:          0 HIT:          0 MISS:          0
cpu0_STLB WRITE        ACCESS:          0 HIT:          0 MISS:          0
cpu0_STLB TRANSLATION  ACCESS:          0 HIT:          0 MISS:          0
cpu0_STLB PREFETCH REQUESTED:          0 ISSUED:          0 USEFUL:          0 USELESS:          0
cpu0_STLB AVERAGE MISS LATENCY: 280.1 cycles

DRAM Statistics

Channel 0 RQ ROW_BUFFER_HIT:      53955
  ROW_BUFFER_MISS:     153435
 AVG DBUS CONGESTED CYCLE: 3.822
WQ ROW_BUFFER_HIT: Channel 0 
  ROW_BUFFER_MISS:        612
  FULL:        693
