WARNING: physical memory size is smaller than virtual memory size.

*** ChampSim Multicore Out-of-Order Simulator ***
Warmup Instructions: 50000000
Simulation Instructions: 600000000
Number of CPUs: 1
Page size: 4096

CPU 0 Tage branch predictor
Off-chip DRAM Size: 4 GiB Channels: 1 Width: 64-bit Data Race: 3200 MT/s
Heartbeat CPU 0 instructions: 10000001 cycles: 2500318 heartbeat IPC: 3.999 cumulative IPC: 3.999 (Simulation time: 00 hr 04 min 07 sec)
Heartbeat CPU 0 instructions: 20000002 cycles: 5037133 heartbeat IPC: 3.942 cumulative IPC: 3.971 (Simulation time: 00 hr 08 min 00 sec)
Heartbeat CPU 0 instructions: 30000002 cycles: 7537133 heartbeat IPC: 4 cumulative IPC: 3.98 (Simulation time: 00 hr 11 min 40 sec)
Heartbeat CPU 0 instructions: 40000002 cycles: 10037133 heartbeat IPC: 4 cumulative IPC: 3.985 (Simulation time: 00 hr 15 min 18 sec)
Heartbeat CPU 0 instructions: 50000002 cycles: 12537133 heartbeat IPC: 4 cumulative IPC: 3.988 (Simulation time: 00 hr 18 min 43 sec)
Warmup finished CPU 0 instructions: 50000002 cycles: 12537134 cumulative IPC: 3.988 (Simulation time: 00 hr 18 min 43 sec)
Warmup complete CPU 0 instructions: 50000002 cycles: 12537134 cumulative IPC: 3.988 (Simulation time: 00 hr 18 min 43 sec)
Heartbeat CPU 0 instructions: 60000001 cycles: 15499403 heartbeat IPC: 3.376 cumulative IPC: 3.376 (Simulation time: 00 hr 22 min 40 sec)
Heartbeat CPU 0 instructions: 70000004 cycles: 18557870 heartbeat IPC: 3.27 cumulative IPC: 3.322 (Simulation time: 00 hr 26 min 39 sec)
Heartbeat CPU 0 instructions: 80000001 cycles: 21591499 heartbeat IPC: 3.296 cumulative IPC: 3.313 (Simulation time: 00 hr 30 min 29 sec)
Heartbeat CPU 0 instructions: 90000001 cycles: 24525216 heartbeat IPC: 3.409 cumulative IPC: 3.337 (Simulation time: 00 hr 34 min 16 sec)
Heartbeat CPU 0 instructions: 100000000 cycles: 27424391 heartbeat IPC: 3.449 cumulative IPC: 3.359 (Simulation time: 00 hr 38 min 04 sec)
Heartbeat CPU 0 instructions: 110000000 cycles: 30357134 heartbeat IPC: 3.41 cumulative IPC: 3.367 (Simulation time: 00 hr 41 min 51 sec)
Heartbeat CPU 0 instructions: 120000001 cycles: 33320095 heartbeat IPC: 3.375 cumulative IPC: 3.368 (Simulation time: 00 hr 45 min 38 sec)
Heartbeat CPU 0 instructions: 130000001 cycles: 36164864 heartbeat IPC: 3.515 cumulative IPC: 3.386 (Simulation time: 00 hr 49 min 25 sec)
Heartbeat CPU 0 instructions: 140000001 cycles: 39189739 heartbeat IPC: 3.306 cumulative IPC: 3.377 (Simulation time: 00 hr 53 min 16 sec)
Heartbeat CPU 0 instructions: 150000001 cycles: 42180553 heartbeat IPC: 3.344 cumulative IPC: 3.373 (Simulation time: 00 hr 57 min 03 sec)
Heartbeat CPU 0 instructions: 160000004 cycles: 45171678 heartbeat IPC: 3.343 cumulative IPC: 3.371 (Simulation time: 01 hr 00 min 52 sec)
Heartbeat CPU 0 instructions: 170000000 cycles: 51468602 heartbeat IPC: 1.588 cumulative IPC: 3.082 (Simulation time: 01 hr 06 min 34 sec)
Heartbeat CPU 0 instructions: 180000004 cycles: 57829692 heartbeat IPC: 1.572 cumulative IPC: 2.87 (Simulation time: 01 hr 12 min 51 sec)
Heartbeat CPU 0 instructions: 190000001 cycles: 65054424 heartbeat IPC: 1.384 cumulative IPC: 2.666 (Simulation time: 01 hr 19 min 38 sec)
Heartbeat CPU 0 instructions: 200000004 cycles: 67983143 heartbeat IPC: 3.414 cumulative IPC: 2.705 (Simulation time: 01 hr 23 min 46 sec)
Heartbeat CPU 0 instructions: 210000001 cycles: 70913434 heartbeat IPC: 3.413 cumulative IPC: 2.741 (Simulation time: 01 hr 27 min 55 sec)
Heartbeat CPU 0 instructions: 220000000 cycles: 73791180 heartbeat IPC: 3.475 cumulative IPC: 2.775 (Simulation time: 01 hr 32 min 01 sec)
Heartbeat CPU 0 instructions: 230000002 cycles: 76756941 heartbeat IPC: 3.372 cumulative IPC: 2.803 (Simulation time: 01 hr 36 min 12 sec)
Heartbeat CPU 0 instructions: 240000003 cycles: 79754660 heartbeat IPC: 3.336 cumulative IPC: 2.827 (Simulation time: 01 hr 40 min 25 sec)
Heartbeat CPU 0 instructions: 250000000 cycles: 82742130 heartbeat IPC: 3.347 cumulative IPC: 2.849 (Simulation time: 01 hr 44 min 37 sec)
Heartbeat CPU 0 instructions: 260000002 cycles: 85671443 heartbeat IPC: 3.414 cumulative IPC: 2.871 (Simulation time: 01 hr 48 min 44 sec)
Heartbeat CPU 0 instructions: 270000002 cycles: 88550539 heartbeat IPC: 3.473 cumulative IPC: 2.894 (Simulation time: 01 hr 52 min 50 sec)
Heartbeat CPU 0 instructions: 280000002 cycles: 91409575 heartbeat IPC: 3.498 cumulative IPC: 2.916 (Simulation time: 01 hr 56 min 57 sec)
Heartbeat CPU 0 instructions: 290000002 cycles: 94345548 heartbeat IPC: 3.406 cumulative IPC: 2.934 (Simulation time: 02 hr 01 min 07 sec)
Heartbeat CPU 0 instructions: 300000003 cycles: 97194014 heartbeat IPC: 3.511 cumulative IPC: 2.953 (Simulation time: 02 hr 05 min 19 sec)
Heartbeat CPU 0 instructions: 310000001 cycles: 100176742 heartbeat IPC: 3.353 cumulative IPC: 2.967 (Simulation time: 02 hr 09 min 30 sec)
Heartbeat CPU 0 instructions: 320000003 cycles: 103145464 heartbeat IPC: 3.368 cumulative IPC: 2.98 (Simulation time: 02 hr 13 min 39 sec)
Heartbeat CPU 0 instructions: 330000003 cycles: 106077877 heartbeat IPC: 3.41 cumulative IPC: 2.993 (Simulation time: 02 hr 17 min 48 sec)
Heartbeat CPU 0 instructions: 340000000 cycles: 112237060 heartbeat IPC: 1.624 cumulative IPC: 2.909 (Simulation time: 02 hr 23 min 48 sec)
Heartbeat CPU 0 instructions: 350000000 cycles: 118694767 heartbeat IPC: 1.549 cumulative IPC: 2.826 (Simulation time: 02 hr 29 min 56 sec)
Heartbeat CPU 0 instructions: 360000004 cycles: 125971501 heartbeat IPC: 1.374 cumulative IPC: 2.733 (Simulation time: 02 hr 36 min 18 sec)
Heartbeat CPU 0 instructions: 370000000 cycles: 128916628 heartbeat IPC: 3.395 cumulative IPC: 2.75 (Simulation time: 02 hr 39 min 58 sec)
Heartbeat CPU 0 instructions: 380000003 cycles: 131814160 heartbeat IPC: 3.451 cumulative IPC: 2.767 (Simulation time: 02 hr 43 min 33 sec)
Heartbeat CPU 0 instructions: 390000002 cycles: 134773524 heartbeat IPC: 3.379 cumulative IPC: 2.781 (Simulation time: 02 hr 47 min 07 sec)
Heartbeat CPU 0 instructions: 400000004 cycles: 137665310 heartbeat IPC: 3.458 cumulative IPC: 2.797 (Simulation time: 02 hr 50 min 42 sec)
Heartbeat CPU 0 instructions: 410000002 cycles: 140578292 heartbeat IPC: 3.433 cumulative IPC: 2.812 (Simulation time: 02 hr 54 min 16 sec)
Heartbeat CPU 0 instructions: 420000003 cycles: 143615006 heartbeat IPC: 3.293 cumulative IPC: 2.823 (Simulation time: 02 hr 57 min 53 sec)
Heartbeat CPU 0 instructions: 430000001 cycles: 146596629 heartbeat IPC: 3.354 cumulative IPC: 2.835 (Simulation time: 03 hr 01 min 29 sec)
Heartbeat CPU 0 instructions: 440000004 cycles: 149701406 heartbeat IPC: 3.221 cumulative IPC: 2.843 (Simulation time: 03 hr 05 min 08 sec)
Heartbeat CPU 0 instructions: 450000002 cycles: 152592772 heartbeat IPC: 3.459 cumulative IPC: 2.856 (Simulation time: 03 hr 08 min 42 sec)
Heartbeat CPU 0 instructions: 460000000 cycles: 155497256 heartbeat IPC: 3.443 cumulative IPC: 2.868 (Simulation time: 03 hr 12 min 18 sec)
Heartbeat CPU 0 instructions: 470000001 cycles: 158324981 heartbeat IPC: 3.536 cumulative IPC: 2.881 (Simulation time: 03 hr 15 min 50 sec)
Heartbeat CPU 0 instructions: 480000003 cycles: 161340026 heartbeat IPC: 3.317 cumulative IPC: 2.89 (Simulation time: 03 hr 19 min 25 sec)
Heartbeat CPU 0 instructions: 490000004 cycles: 164153606 heartbeat IPC: 3.554 cumulative IPC: 2.902 (Simulation time: 03 hr 22 min 54 sec)
Heartbeat CPU 0 instructions: 500000004 cycles: 167117826 heartbeat IPC: 3.374 cumulative IPC: 2.911 (Simulation time: 03 hr 26 min 36 sec)
Heartbeat CPU 0 instructions: 510000003 cycles: 170095524 heartbeat IPC: 3.358 cumulative IPC: 2.92 (Simulation time: 03 hr 30 min 16 sec)
Heartbeat CPU 0 instructions: 520000001 cycles: 172946008 heartbeat IPC: 3.508 cumulative IPC: 2.93 (Simulation time: 03 hr 33 min 56 sec)
Heartbeat CPU 0 instructions: 530000001 cycles: 175910121 heartbeat IPC: 3.374 cumulative IPC: 2.938 (Simulation time: 03 hr 37 min 37 sec)
Heartbeat CPU 0 instructions: 540000000 cycles: 178838166 heartbeat IPC: 3.415 cumulative IPC: 2.946 (Simulation time: 03 hr 41 min 09 sec)
Heartbeat CPU 0 instructions: 550000001 cycles: 181793716 heartbeat IPC: 3.383 cumulative IPC: 2.954 (Simulation time: 03 hr 44 min 31 sec)
Heartbeat CPU 0 instructions: 560000000 cycles: 184825718 heartbeat IPC: 3.298 cumulative IPC: 2.96 (Simulation time: 03 hr 47 min 55 sec)
Heartbeat CPU 0 instructions: 570000004 cycles: 189353212 heartbeat IPC: 2.209 cumulative IPC: 2.941 (Simulation time: 03 hr 52 min 02 sec)
Heartbeat CPU 0 instructions: 580000003 cycles: 196158951 heartbeat IPC: 1.469 cumulative IPC: 2.886 (Simulation time: 03 hr 56 min 41 sec)
Heartbeat CPU 0 instructions: 590000002 cycles: 204574952 heartbeat IPC: 1.188 cumulative IPC: 2.812 (Simulation time: 04 hr 01 min 16 sec)
Heartbeat CPU 0 instructions: 600000004 cycles: 207569212 heartbeat IPC: 3.34 cumulative IPC: 2.82 (Simulation time: 04 hr 03 min 39 sec)
Heartbeat CPU 0 instructions: 610000002 cycles: 210509184 heartbeat IPC: 3.401 cumulative IPC: 2.829 (Simulation time: 04 hr 05 min 44 sec)
Heartbeat CPU 0 instructions: 620000001 cycles: 213269504 heartbeat IPC: 3.623 cumulative IPC: 2.84 (Simulation time: 04 hr 07 min 10 sec)
Heartbeat CPU 0 instructions: 630000002 cycles: 216216973 heartbeat IPC: 3.393 cumulative IPC: 2.848 (Simulation time: 04 hr 08 min 27 sec)
Heartbeat CPU 0 instructions: 640000004 cycles: 219158856 heartbeat IPC: 3.399 cumulative IPC: 2.855 (Simulation time: 04 hr 09 min 29 sec)
Heartbeat CPU 0 instructions: 650000000 cycles: 221901876 heartbeat IPC: 3.646 cumulative IPC: 2.866 (Simulation time: 04 hr 10 min 15 sec)
Simulation finished CPU 0 instructions: 600000001 cycles: 209364744 cumulative IPC: 2.866 (Simulation time: 04 hr 10 min 15 sec)
Simulation complete CPU 0 instructions: 600000001 cycles: 209364744 cumulative IPC: 2.866 (Simulation time: 04 hr 10 min 15 sec)

ChampSim completed all CPUs

=== Simulation ===
CPU 0 runs traces/400.perlbench-41B.champsimtrace.xz
Region of Interest Statistics

CPU 0 cumulative IPC: 2.866 instructions: 600000001 cycles: 209364744
CPU 0 Branch Prediction Accuracy: 99.19% MPKI: 1.684 Average ROB Occupancy at Mispredict: 101.5
Branch type MPKI
BRANCH_DIRECT_JUMP: 0.0123
BRANCH_INDIRECT: 0.323
BRANCH_CONDITIONAL: 1.14
BRANCH_DIRECT_CALL: 0.0043
BRANCH_INDIRECT_CALL: 0.2
BRANCH_RETURN: 0.00828

LLC TOTAL        ACCESS:     540622 HIT:     349205 MISS:     191417
LLC LOAD         ACCESS:     403541 HIT:     224836 MISS:     178705
LLC RFO          ACCESS:      32485 HIT:      28221 MISS:       4264
LLC PREFETCH     ACCESS:          0 HIT:          0 MISS:          0
LLC WRITE        ACCESS:      85544 HIT:      85431 MISS:        113
LLC TRANSLATION  ACCESS:      19052 HIT:      10717 MISS:       8335
LLC PREFETCH REQUESTED:          0 ISSUED:          0 USEFUL:          0 USELESS:          0
LLC AVERAGE MISS LATENCY: 543.2 cycles
cpu0_DTLB TOTAL        ACCESS:  129799027 HIT:  129094995 MISS:     704032
cpu0_DTLB LOAD         ACCESS:  129799027 HIT:  129094995 MISS:     704032
cpu0_DTLB RFO          ACCESS:          0 HIT:          0 MISS:          0
cpu0_DTLB PREFETCH     ACCESS:          0 HIT:          0 MISS:          0
cpu0_DTLB WRITE        ACCESS:          0 HIT:          0 MISS:          0
cpu0_DTLB TRANSLATION  ACCESS:          0 HIT:          0 MISS:          0
cpu0_DTLB PREFETCH REQUESTED:          0 ISSUED:          0 USEFUL:          0 USELESS:          0
cpu0_DTLB AVERAGE MISS LATENCY: 12.33 cycles
cpu0_ITLB TOTAL        ACCESS:    4876005 HIT:    4813893 MISS:      62112
cpu0_ITLB LOAD         ACCESS:    4876005 HIT:    4813893 MISS:      62112
cpu0_ITLB RFO          ACCESS:          0 HIT:          0 MISS:          0
cpu0_ITLB PREFETCH     ACCESS:          0 HIT:          0 MISS:          0
cpu0_ITLB WRITE        ACCESS:          0 HIT:          0 MISS:          0
cpu0_ITLB TRANSLATION  ACCESS:          0 HIT:          0 MISS:          0
cpu0_ITLB PREFETCH REQUESTED:          0 ISSUED:          0 USEFUL:          0 USELESS:          0
cpu0_ITLB AVERAGE MISS LATENCY: 5.627 cycles
cpu0_L1D TOTAL        ACCESS:  174391613 HIT:  172614294 MISS:    1777319
cpu0_L1D LOAD         ACCESS:   91368221 HIT:   89971176 MISS:    1397045
cpu0_L1D RFO          ACCESS:          0 HIT:          0 MISS:          0
cpu0_L1D PREFETCH     ACCESS:          0 HIT:          0 MISS:          0
cpu0_L1D WRITE        ACCESS:   82998927 HIT:   82642054 MISS:     356873
cpu0_L1D TRANSLATION  ACCESS:      24465 HIT:       1064 MISS:      23401
cpu0_L1D PREFETCH REQUESTED:          0 ISSUED:          0 USEFUL:          0 USELESS:          0
cpu0_L1D AVERAGE MISS LATENCY: 62.07 cycles
cpu0_L1I TOTAL        ACCESS:    5655301 HIT:    4850087 MISS:     805214
cpu0_L1I LOAD         ACCESS:    5655301 HIT:    4850087 MISS:     805214
cpu0_L1I RFO          ACCESS:          0 HIT:          0 MISS:          0
cpu0_L1I PREFETCH     ACCESS:          0 HIT:          0 MISS:          0
cpu0_L1I WRITE        ACCESS:          0 HIT:          0 MISS:          0
cpu0_L1I TRANSLATION  ACCESS:          0 HIT:          0 MISS:          0
cpu0_L1I PREFETCH REQUESTED:          0 ISSUED:          0 USEFUL:          0 USELESS:          0
cpu0_L1I AVERAGE MISS LATENCY: 8.895 cycles
cpu0_L2C TOTAL        ACCESS:    1668533 HIT:    1211620 MISS:     456913
cpu0_L2C LOAD         ACCESS:    1315340 HIT:     911799 MISS:     403541
cpu0_L2C RFO          ACCESS:      89601 HIT:      57115 MISS:      32486
cpu0_L2C PREFETCH     ACCESS:          0 HIT:          0 MISS:          0
cpu0_L2C WRITE        ACCESS:     240270 HIT:     238436 MISS:       1834
cpu0_L2C TRANSLATION  ACCESS:      23322 HIT:       4270 MISS:      19052
cpu0_L2C PREFETCH REQUESTED:          0 ISSUED:          0 USEFUL:          0 USELESS:          0
cpu0_L2C AVERAGE MISS LATENCY: 247.9 cycles
cpu0_STLB TOTAL        ACCESS:     509132 HIT:     486345 MISS:      22787
cpu0_STLB LOAD         ACCESS:     509132 HIT:     486345 MISS:      22787
cpu0_STLB RFO          ACCESS:          0 HIT:          0 MISS:          0
cpu0_STLB PREFETCH     ACCESS:          0 HIT:          0 MISS:          0
cpu0_STLB WRITE        ACCESS:          0 HIT:          0 MISS:          0
cpu0_STLB TRANSLATION  ACCESS:          0 HIT:          0 MISS:          0
cpu0_STLB PREFETCH REQUESTED:          0 ISSUED:          0 USEFUL:          0 USELESS:          0
cpu0_STLB AVERAGE MISS LATENCY: 264.1 cycles

DRAM Statistics

Channel 0 RQ ROW_BUFFER_HIT:      56985
  ROW_BUFFER_MISS:     134319
 AVG DBUS CONGESTED CYCLE: 3.741
WQ ROW_BUFFER_HIT: Channel 0 
  ROW_BUFFER_MISS:        142
  FULL:        173
