WARNING: physical memory size is smaller than virtual memory size.

*** ChampSim Multicore Out-of-Order Simulator ***
Warmup Instructions: 50000000
Simulation Instructions: 600000000
Number of CPUs: 1
Page size: 4096

Off-chip DRAM Size: 4 GiB Channels: 1 Width: 64-bit Data Race: 3200 MT/s
Heartbeat CPU 0 instructions: 10000001 cycles: 2500318 heartbeat IPC: 3.999 cumulative IPC: 3.999 (Simulation time: 00 hr 03 min 50 sec)
Heartbeat CPU 0 instructions: 20000002 cycles: 5037128 heartbeat IPC: 3.942 cumulative IPC: 3.971 (Simulation time: 00 hr 07 min 35 sec)
Heartbeat CPU 0 instructions: 30000002 cycles: 7537128 heartbeat IPC: 4 cumulative IPC: 3.98 (Simulation time: 00 hr 10 min 58 sec)
Heartbeat CPU 0 instructions: 40000002 cycles: 10037128 heartbeat IPC: 4 cumulative IPC: 3.985 (Simulation time: 00 hr 14 min 24 sec)
Heartbeat CPU 0 instructions: 50000002 cycles: 12537128 heartbeat IPC: 4 cumulative IPC: 3.988 (Simulation time: 00 hr 17 min 47 sec)
Warmup finished CPU 0 instructions: 50000002 cycles: 12537129 cumulative IPC: 3.988 (Simulation time: 00 hr 17 min 47 sec)
Warmup complete CPU 0 instructions: 50000002 cycles: 12537129 cumulative IPC: 3.988 (Simulation time: 00 hr 17 min 47 sec)
Heartbeat CPU 0 instructions: 60000000 cycles: 17692744 heartbeat IPC: 1.94 cumulative IPC: 1.94 (Simulation time: 00 hr 23 min 04 sec)
Heartbeat CPU 0 instructions: 70000002 cycles: 22578853 heartbeat IPC: 2.047 cumulative IPC: 1.992 (Simulation time: 00 hr 28 min 16 sec)
Heartbeat CPU 0 instructions: 80000001 cycles: 27934579 heartbeat IPC: 1.867 cumulative IPC: 1.948 (Simulation time: 00 hr 33 min 42 sec)
Heartbeat CPU 0 instructions: 90000001 cycles: 32807838 heartbeat IPC: 2.052 cumulative IPC: 1.973 (Simulation time: 00 hr 38 min 54 sec)
Heartbeat CPU 0 instructions: 100000000 cycles: 37910416 heartbeat IPC: 1.96 cumulative IPC: 1.971 (Simulation time: 00 hr 44 min 21 sec)
Heartbeat CPU 0 instructions: 110000000 cycles: 42792927 heartbeat IPC: 2.048 cumulative IPC: 1.983 (Simulation time: 00 hr 49 min 28 sec)
Heartbeat CPU 0 instructions: 120000001 cycles: 47981357 heartbeat IPC: 1.927 cumulative IPC: 1.975 (Simulation time: 00 hr 54 min 48 sec)
Heartbeat CPU 0 instructions: 130000001 cycles: 53127696 heartbeat IPC: 1.943 cumulative IPC: 1.971 (Simulation time: 01 hr 00 min 09 sec)
Heartbeat CPU 0 instructions: 140000001 cycles: 58423531 heartbeat IPC: 1.888 cumulative IPC: 1.961 (Simulation time: 01 hr 05 min 34 sec)
Heartbeat CPU 0 instructions: 150000001 cycles: 63722354 heartbeat IPC: 1.887 cumulative IPC: 1.954 (Simulation time: 01 hr 10 min 59 sec)
Heartbeat CPU 0 instructions: 160000004 cycles: 68906783 heartbeat IPC: 1.929 cumulative IPC: 1.951 (Simulation time: 01 hr 16 min 20 sec)
Heartbeat CPU 0 instructions: 170000000 cycles: 76582938 heartbeat IPC: 1.303 cumulative IPC: 1.874 (Simulation time: 01 hr 23 min 23 sec)
Heartbeat CPU 0 instructions: 180000004 cycles: 83009667 heartbeat IPC: 1.556 cumulative IPC: 1.845 (Simulation time: 01 hr 29 min 54 sec)
Heartbeat CPU 0 instructions: 190000001 cycles: 89008398 heartbeat IPC: 1.667 cumulative IPC: 1.831 (Simulation time: 01 hr 36 min 04 sec)
Heartbeat CPU 0 instructions: 200000003 cycles: 93473458 heartbeat IPC: 2.24 cumulative IPC: 1.853 (Simulation time: 01 hr 41 min 02 sec)
Heartbeat CPU 0 instructions: 210000001 cycles: 98153883 heartbeat IPC: 2.137 cumulative IPC: 1.869 (Simulation time: 01 hr 46 min 08 sec)
Heartbeat CPU 0 instructions: 220000000 cycles: 102836041 heartbeat IPC: 2.136 cumulative IPC: 1.883 (Simulation time: 01 hr 51 min 11 sec)
Heartbeat CPU 0 instructions: 230000002 cycles: 107677117 heartbeat IPC: 2.066 cumulative IPC: 1.892 (Simulation time: 01 hr 56 min 15 sec)
Heartbeat CPU 0 instructions: 240000000 cycles: 112229683 heartbeat IPC: 2.197 cumulative IPC: 1.906 (Simulation time: 02 hr 01 min 27 sec)
Heartbeat CPU 0 instructions: 250000000 cycles: 117032641 heartbeat IPC: 2.082 cumulative IPC: 1.914 (Simulation time: 02 hr 06 min 33 sec)
Heartbeat CPU 0 instructions: 260000000 cycles: 121708644 heartbeat IPC: 2.139 cumulative IPC: 1.924 (Simulation time: 02 hr 11 min 35 sec)
Heartbeat CPU 0 instructions: 270000002 cycles: 126356780 heartbeat IPC: 2.151 cumulative IPC: 1.933 (Simulation time: 02 hr 16 min 35 sec)
Heartbeat CPU 0 instructions: 280000002 cycles: 130994313 heartbeat IPC: 2.156 cumulative IPC: 1.942 (Simulation time: 02 hr 21 min 46 sec)
Heartbeat CPU 0 instructions: 290000001 cycles: 136146794 heartbeat IPC: 1.941 cumulative IPC: 1.942 (Simulation time: 02 hr 27 min 07 sec)
Heartbeat CPU 0 instructions: 300000003 cycles: 140864883 heartbeat IPC: 2.12 cumulative IPC: 1.948 (Simulation time: 02 hr 32 min 12 sec)
Heartbeat CPU 0 instructions: 310000001 cycles: 145785794 heartbeat IPC: 2.032 cumulative IPC: 1.951 (Simulation time: 02 hr 37 min 20 sec)
Heartbeat CPU 0 instructions: 320000003 cycles: 150702567 heartbeat IPC: 2.034 cumulative IPC: 1.954 (Simulation time: 02 hr 42 min 32 sec)
Heartbeat CPU 0 instructions: 330000003 cycles: 155595337 heartbeat IPC: 2.044 cumulative IPC: 1.957 (Simulation time: 02 hr 47 min 40 sec)
Heartbeat CPU 0 instructions: 340000000 cycles: 161890135 heartbeat IPC: 1.589 cumulative IPC: 1.942 (Simulation time: 02 hr 53 min 55 sec)
Heartbeat CPU 0 instructions: 350000000 cycles: 168474049 heartbeat IPC: 1.519 cumulative IPC: 1.924 (Simulation time: 03 hr 00 min 29 sec)
Heartbeat CPU 0 instructions: 360000004 cycles: 174761525 heartbeat IPC: 1.59 cumulative IPC: 1.911 (Simulation time: 03 hr 06 min 50 sec)
Heartbeat CPU 0 instructions: 370000000 cycles: 178946693 heartbeat IPC: 2.389 cumulative IPC: 1.923 (Simulation time: 03 hr 11 min 39 sec)
Heartbeat CPU 0 instructions: 380000001 cycles: 183653172 heartbeat IPC: 2.125 cumulative IPC: 1.929 (Simulation time: 03 hr 16 min 44 sec)
Heartbeat CPU 0 instructions: 390000002 cycles: 188320756 heartbeat IPC: 2.142 cumulative IPC: 1.934 (Simulation time: 03 hr 21 min 49 sec)
Heartbeat CPU 0 instructions: 400000004 cycles: 193150305 heartbeat IPC: 2.071 cumulative IPC: 1.938 (Simulation time: 03 hr 26 min 58 sec)
Heartbeat CPU 0 instructions: 410000000 cycles: 197629684 heartbeat IPC: 2.232 cumulative IPC: 1.945 (Simulation time: 03 hr 31 min 57 sec)
Heartbeat CPU 0 instructions: 420000000 cycles: 202395122 heartbeat IPC: 2.098 cumulative IPC: 1.949 (Simulation time: 03 hr 37 min 00 sec)
Heartbeat CPU 0 instructions: 430000001 cycles: 206668427 heartbeat IPC: 2.34 cumulative IPC: 1.957 (Simulation time: 03 hr 41 min 54 sec)
Heartbeat CPU 0 instructions: 440000000 cycles: 211728155 heartbeat IPC: 1.976 cumulative IPC: 1.958 (Simulation time: 03 hr 47 min 08 sec)
Heartbeat CPU 0 instructions: 450000002 cycles: 216140415 heartbeat IPC: 2.266 cumulative IPC: 1.965 (Simulation time: 03 hr 52 min 05 sec)
Heartbeat CPU 0 instructions: 460000000 cycles: 220710992 heartbeat IPC: 2.188 cumulative IPC: 1.97 (Simulation time: 03 hr 57 min 04 sec)
Heartbeat CPU 0 instructions: 470000000 cycles: 225492449 heartbeat IPC: 2.091 cumulative IPC: 1.972 (Simulation time: 04 hr 02 min 12 sec)
Heartbeat CPU 0 instructions: 480000003 cycles: 230039604 heartbeat IPC: 2.199 cumulative IPC: 1.977 (Simulation time: 04 hr 07 min 11 sec)
Heartbeat CPU 0 instructions: 490000000 cycles: 234492965 heartbeat IPC: 2.245 cumulative IPC: 1.982 (Simulation time: 04 hr 12 min 08 sec)
Heartbeat CPU 0 instructions: 500000000 cycles: 239366117 heartbeat IPC: 2.052 cumulative IPC: 1.984 (Simulation time: 04 hr 17 min 20 sec)
Heartbeat CPU 0 instructions: 510000003 cycles: 244743259 heartbeat IPC: 1.86 cumulative IPC: 1.981 (Simulation time: 04 hr 22 min 48 sec)
Heartbeat CPU 0 instructions: 520000001 cycles: 249162309 heartbeat IPC: 2.263 cumulative IPC: 1.986 (Simulation time: 04 hr 27 min 44 sec)
Heartbeat CPU 0 instructions: 530000002 cycles: 254086895 heartbeat IPC: 2.031 cumulative IPC: 1.987 (Simulation time: 04 hr 33 min 00 sec)
Heartbeat CPU 0 instructions: 540000000 cycles: 258982440 heartbeat IPC: 2.043 cumulative IPC: 1.988 (Simulation time: 04 hr 38 min 22 sec)
Heartbeat CPU 0 instructions: 550000001 cycles: 263606494 heartbeat IPC: 2.163 cumulative IPC: 1.991 (Simulation time: 04 hr 43 min 25 sec)
Heartbeat CPU 0 instructions: 560000000 cycles: 268498992 heartbeat IPC: 2.044 cumulative IPC: 1.992 (Simulation time: 04 hr 48 min 35 sec)
Heartbeat CPU 0 instructions: 570000004 cycles: 273798031 heartbeat IPC: 1.887 cumulative IPC: 1.99 (Simulation time: 04 hr 54 min 07 sec)
Heartbeat CPU 0 instructions: 580000003 cycles: 280397185 heartbeat IPC: 1.515 cumulative IPC: 1.979 (Simulation time: 05 hr 00 min 39 sec)
Heartbeat CPU 0 instructions: 590000002 cycles: 287164336 heartbeat IPC: 1.478 cumulative IPC: 1.966 (Simulation time: 05 hr 07 min 24 sec)
Heartbeat CPU 0 instructions: 600000000 cycles: 291484062 heartbeat IPC: 2.315 cumulative IPC: 1.972 (Simulation time: 05 hr 12 min 17 sec)
Heartbeat CPU 0 instructions: 610000002 cycles: 295774817 heartbeat IPC: 2.331 cumulative IPC: 1.977 (Simulation time: 05 hr 17 min 06 sec)
Heartbeat CPU 0 instructions: 620000000 cycles: 300466617 heartbeat IPC: 2.131 cumulative IPC: 1.98 (Simulation time: 05 hr 22 min 14 sec)
Heartbeat CPU 0 instructions: 630000002 cycles: 305369536 heartbeat IPC: 2.04 cumulative IPC: 1.981 (Simulation time: 05 hr 27 min 39 sec)
Heartbeat CPU 0 instructions: 640000001 cycles: 310143000 heartbeat IPC: 2.095 cumulative IPC: 1.982 (Simulation time: 05 hr 32 min 48 sec)
Heartbeat CPU 0 instructions: 650000000 cycles: 314625708 heartbeat IPC: 2.231 cumulative IPC: 1.986 (Simulation time: 05 hr 37 min 48 sec)
Simulation finished CPU 0 instructions: 600000001 cycles: 302088581 cumulative IPC: 1.986 (Simulation time: 05 hr 37 min 48 sec)
Simulation complete CPU 0 instructions: 600000001 cycles: 302088581 cumulative IPC: 1.986 (Simulation time: 05 hr 37 min 48 sec)

ChampSim completed all CPUs

=== Simulation ===
CPU 0 runs traces/400.perlbench-41B.champsimtrace.xz
Region of Interest Statistics

CPU 0 cumulative IPC: 1.986 instructions: 600000001 cycles: 302088581
CPU 0 Branch Prediction Accuracy: 93.95% MPKI: 12.5 Average ROB Occupancy at Mispredict: 29.25
Branch type MPKI
BRANCH_DIRECT_JUMP: 0.0123
BRANCH_INDIRECT: 0.323
BRANCH_CONDITIONAL: 12
BRANCH_DIRECT_CALL: 0.0043
BRANCH_INDIRECT_CALL: 0.2
BRANCH_RETURN: 0.00828

LLC TOTAL        ACCESS:     541368 HIT:     497666 MISS:      43702
LLC LOAD         ACCESS:     403737 HIT:     370690 MISS:      33047
LLC RFO          ACCESS:      32590 HIT:      28590 MISS:       4000
LLC PREFETCH     ACCESS:          0 HIT:          0 MISS:          0
LLC WRITE        ACCESS:      85841 HIT:      85760 MISS:         81
LLC TRANSLATION  ACCESS:      19200 HIT:      12626 MISS:       6574
LLC PREFETCH REQUESTED:          0 ISSUED:          0 USEFUL:          0 USELESS:          0
LLC AVERAGE MISS LATENCY: 474.6 cycles
cpu0_DTLB TOTAL        ACCESS:  153698059 HIT:  153021565 MISS:     676494
cpu0_DTLB LOAD         ACCESS:  153698059 HIT:  153021565 MISS:     676494
cpu0_DTLB RFO          ACCESS:          0 HIT:          0 MISS:          0
cpu0_DTLB PREFETCH     ACCESS:          0 HIT:          0 MISS:          0
cpu0_DTLB WRITE        ACCESS:          0 HIT:          0 MISS:          0
cpu0_DTLB TRANSLATION  ACCESS:          0 HIT:          0 MISS:          0
cpu0_DTLB PREFETCH REQUESTED:          0 ISSUED:          0 USEFUL:          0 USELESS:          0
cpu0_DTLB AVERAGE MISS LATENCY: 10.54 cycles
cpu0_ITLB TOTAL        ACCESS:    4838936 HIT:    4781077 MISS:      57859
cpu0_ITLB LOAD         ACCESS:    4838936 HIT:    4781077 MISS:      57859
cpu0_ITLB RFO          ACCESS:          0 HIT:          0 MISS:          0
cpu0_ITLB PREFETCH     ACCESS:          0 HIT:          0 MISS:          0
cpu0_ITLB WRITE        ACCESS:          0 HIT:          0 MISS:          0
cpu0_ITLB TRANSLATION  ACCESS:          0 HIT:          0 MISS:          0
cpu0_ITLB PREFETCH REQUESTED:          0 ISSUED:          0 USEFUL:          0 USELESS:          0
cpu0_ITLB AVERAGE MISS LATENCY: 4.279 cycles
cpu0_L1D TOTAL        ACCESS:  200330185 HIT:  198650513 MISS:    1679672
cpu0_L1D LOAD         ACCESS:  117087191 HIT:  115774467 MISS:    1312724
cpu0_L1D RFO          ACCESS:          0 HIT:          0 MISS:          0
cpu0_L1D PREFETCH     ACCESS:          0 HIT:          0 MISS:          0
cpu0_L1D WRITE        ACCESS:   83218526 HIT:   82875001 MISS:     343525
cpu0_L1D TRANSLATION  ACCESS:      24468 HIT:       1045 MISS:      23423
cpu0_L1D PREFETCH REQUESTED:          0 ISSUED:          0 USEFUL:          0 USELESS:          0
cpu0_L1D AVERAGE MISS LATENCY: 20.86 cycles
cpu0_L1I TOTAL        ACCESS:    5581215 HIT:    4819674 MISS:     761541
cpu0_L1I LOAD         ACCESS:    5581215 HIT:    4819674 MISS:     761541
cpu0_L1I RFO          ACCESS:          0 HIT:          0 MISS:          0
cpu0_L1I PREFETCH     ACCESS:          0 HIT:          0 MISS:          0
cpu0_L1I WRITE        ACCESS:          0 HIT:          0 MISS:          0
cpu0_L1I TRANSLATION  ACCESS:          0 HIT:          0 MISS:          0
cpu0_L1I PREFETCH REQUESTED:          0 ISSUED:          0 USEFUL:          0 USELESS:          0
cpu0_L1I AVERAGE MISS LATENCY: 8.659 cycles
cpu0_L2C TOTAL        ACCESS:    1668219 HIT:    1210883 MISS:     457336
cpu0_L2C LOAD         ACCESS:    1317226 HIT:     913489 MISS:     403737
cpu0_L2C RFO          ACCESS:      88568 HIT:      55978 MISS:      32590
cpu0_L2C PREFETCH     ACCESS:          0 HIT:          0 MISS:          0
cpu0_L2C WRITE        ACCESS:     239082 HIT:     237273 MISS:       1809
cpu0_L2C TRANSLATION  ACCESS:      23343 HIT:       4143 MISS:      19200
cpu0_L2C PREFETCH REQUESTED:          0 ISSUED:          0 USEFUL:          0 USELESS:          0
cpu0_L2C AVERAGE MISS LATENCY: 65.37 cycles
cpu0_STLB TOTAL        ACCESS:     505111 HIT:     482322 MISS:      22789
cpu0_STLB LOAD         ACCESS:     505111 HIT:     482322 MISS:      22789
cpu0_STLB RFO          ACCESS:          0 HIT:          0 MISS:          0
cpu0_STLB PREFETCH     ACCESS:          0 HIT:          0 MISS:          0
cpu0_STLB WRITE        ACCESS:          0 HIT:          0 MISS:          0
cpu0_STLB TRANSLATION  ACCESS:          0 HIT:          0 MISS:          0
cpu0_STLB PREFETCH REQUESTED:          0 ISSUED:          0 USEFUL:          0 USELESS:          0
cpu0_STLB AVERAGE MISS LATENCY: 177.9 cycles

DRAM Statistics

Channel 0 RQ ROW_BUFFER_HIT:      13046
  ROW_BUFFER_MISS:      30575
 AVG DBUS CONGESTED CYCLE: 3.694
WQ ROW_BUFFER_HIT: Channel 0 
  ROW_BUFFER_MISS:        256
  FULL:        434
