WARNING: physical memory size is smaller than virtual memory size.

*** ChampSim Multicore Out-of-Order Simulator ***
Warmup Instructions: 50000000
Simulation Instructions: 600000000
Number of CPUs: 1
Page size: 4096

CPU 0 Tage branch predictor
Off-chip DRAM Size: 4 GiB Channels: 1 Width: 64-bit Data Race: 3200 MT/s
Heartbeat CPU 0 instructions: 10000000 cycles: 2500061 heartbeat IPC: 4 cumulative IPC: 4 (Simulation time: 00 hr 00 min 46 sec)
Heartbeat CPU 0 instructions: 20000000 cycles: 5000061 heartbeat IPC: 4 cumulative IPC: 4 (Simulation time: 00 hr 01 min 44 sec)
Heartbeat CPU 0 instructions: 30000000 cycles: 7500061 heartbeat IPC: 4 cumulative IPC: 4 (Simulation time: 00 hr 02 min 53 sec)
Heartbeat CPU 0 instructions: 40000000 cycles: 10000061 heartbeat IPC: 4 cumulative IPC: 4 (Simulation time: 00 hr 04 min 09 sec)
Heartbeat CPU 0 instructions: 50000000 cycles: 12500061 heartbeat IPC: 4 cumulative IPC: 4 (Simulation time: 00 hr 05 min 36 sec)
Warmup finished CPU 0 instructions: 50000000 cycles: 12500062 cumulative IPC: 4 (Simulation time: 00 hr 05 min 36 sec)
Warmup complete CPU 0 instructions: 50000000 cycles: 12500062 cumulative IPC: 4 (Simulation time: 00 hr 05 min 36 sec)
Heartbeat CPU 0 instructions: 60000004 cycles: 15504574 heartbeat IPC: 3.328 cumulative IPC: 3.328 (Simulation time: 00 hr 07 min 18 sec)
Heartbeat CPU 0 instructions: 70000003 cycles: 18375027 heartbeat IPC: 3.484 cumulative IPC: 3.404 (Simulation time: 00 hr 08 min 55 sec)
Heartbeat CPU 0 instructions: 80000002 cycles: 21385455 heartbeat IPC: 3.322 cumulative IPC: 3.376 (Simulation time: 00 hr 10 min 34 sec)
Heartbeat CPU 0 instructions: 90000000 cycles: 24106445 heartbeat IPC: 3.675 cumulative IPC: 3.446 (Simulation time: 00 hr 12 min 12 sec)
Heartbeat CPU 0 instructions: 100000003 cycles: 26861573 heartbeat IPC: 3.63 cumulative IPC: 3.482 (Simulation time: 00 hr 13 min 51 sec)
Heartbeat CPU 0 instructions: 110000001 cycles: 29760716 heartbeat IPC: 3.449 cumulative IPC: 3.476 (Simulation time: 00 hr 15 min 33 sec)
Heartbeat CPU 0 instructions: 120000001 cycles: 32476957 heartbeat IPC: 3.682 cumulative IPC: 3.504 (Simulation time: 00 hr 17 min 11 sec)
Heartbeat CPU 0 instructions: 130000003 cycles: 35373828 heartbeat IPC: 3.452 cumulative IPC: 3.497 (Simulation time: 00 hr 18 min 50 sec)
Heartbeat CPU 0 instructions: 140000002 cycles: 38209923 heartbeat IPC: 3.526 cumulative IPC: 3.501 (Simulation time: 00 hr 20 min 28 sec)
Heartbeat CPU 0 instructions: 150000001 cycles: 40979169 heartbeat IPC: 3.611 cumulative IPC: 3.511 (Simulation time: 00 hr 22 min 05 sec)
Heartbeat CPU 0 instructions: 160000000 cycles: 43896422 heartbeat IPC: 3.428 cumulative IPC: 3.504 (Simulation time: 00 hr 23 min 44 sec)
Heartbeat CPU 0 instructions: 170000001 cycles: 46819705 heartbeat IPC: 3.421 cumulative IPC: 3.497 (Simulation time: 00 hr 25 min 23 sec)
Heartbeat CPU 0 instructions: 180000000 cycles: 49612091 heartbeat IPC: 3.581 cumulative IPC: 3.503 (Simulation time: 00 hr 27 min 06 sec)
Heartbeat CPU 0 instructions: 190000002 cycles: 52318430 heartbeat IPC: 3.695 cumulative IPC: 3.516 (Simulation time: 00 hr 28 min 57 sec)
Heartbeat CPU 0 instructions: 200000002 cycles: 55141199 heartbeat IPC: 3.543 cumulative IPC: 3.518 (Simulation time: 00 hr 29 min 47 sec)
Heartbeat CPU 0 instructions: 210000000 cycles: 58032005 heartbeat IPC: 3.459 cumulative IPC: 3.514 (Simulation time: 00 hr 30 min 34 sec)
Heartbeat CPU 0 instructions: 220000001 cycles: 60781438 heartbeat IPC: 3.637 cumulative IPC: 3.521 (Simulation time: 00 hr 31 min 21 sec)
Heartbeat CPU 0 instructions: 230000002 cycles: 63668564 heartbeat IPC: 3.464 cumulative IPC: 3.518 (Simulation time: 00 hr 32 min 08 sec)
Heartbeat CPU 0 instructions: 240000004 cycles: 66619176 heartbeat IPC: 3.389 cumulative IPC: 3.511 (Simulation time: 00 hr 32 min 57 sec)
Heartbeat CPU 0 instructions: 250000003 cycles: 69509596 heartbeat IPC: 3.46 cumulative IPC: 3.508 (Simulation time: 00 hr 33 min 44 sec)
Heartbeat CPU 0 instructions: 260000001 cycles: 72292418 heartbeat IPC: 3.593 cumulative IPC: 3.512 (Simulation time: 00 hr 34 min 31 sec)
Heartbeat CPU 0 instructions: 270000002 cycles: 78010768 heartbeat IPC: 1.749 cumulative IPC: 3.358 (Simulation time: 00 hr 35 min 34 sec)
Heartbeat CPU 0 instructions: 280000000 cycles: 86354408 heartbeat IPC: 1.199 cumulative IPC: 3.114 (Simulation time: 00 hr 36 min 58 sec)
Heartbeat CPU 0 instructions: 290000000 cycles: 93155663 heartbeat IPC: 1.47 cumulative IPC: 2.976 (Simulation time: 00 hr 38 min 09 sec)
Heartbeat CPU 0 instructions: 300000003 cycles: 98140889 heartbeat IPC: 2.006 cumulative IPC: 2.919 (Simulation time: 00 hr 39 min 12 sec)
Heartbeat CPU 0 instructions: 310000001 cycles: 105402269 heartbeat IPC: 1.377 cumulative IPC: 2.799 (Simulation time: 00 hr 40 min 30 sec)
Heartbeat CPU 0 instructions: 320000004 cycles: 109038177 heartbeat IPC: 2.75 cumulative IPC: 2.797 (Simulation time: 00 hr 41 min 24 sec)
Heartbeat CPU 0 instructions: 330000000 cycles: 112138506 heartbeat IPC: 3.225 cumulative IPC: 2.81 (Simulation time: 00 hr 42 min 14 sec)
Heartbeat CPU 0 instructions: 340000001 cycles: 114939915 heartbeat IPC: 3.57 cumulative IPC: 2.831 (Simulation time: 00 hr 43 min 01 sec)
Heartbeat CPU 0 instructions: 350000000 cycles: 117882542 heartbeat IPC: 3.398 cumulative IPC: 2.847 (Simulation time: 00 hr 43 min 49 sec)
Heartbeat CPU 0 instructions: 360000004 cycles: 120643024 heartbeat IPC: 3.623 cumulative IPC: 2.867 (Simulation time: 00 hr 44 min 33 sec)
Heartbeat CPU 0 instructions: 370000001 cycles: 123415942 heartbeat IPC: 3.606 cumulative IPC: 2.885 (Simulation time: 00 hr 45 min 18 sec)
Heartbeat CPU 0 instructions: 380000004 cycles: 126217007 heartbeat IPC: 3.57 cumulative IPC: 2.902 (Simulation time: 00 hr 46 min 03 sec)
Heartbeat CPU 0 instructions: 390000002 cycles: 129023739 heartbeat IPC: 3.563 cumulative IPC: 2.918 (Simulation time: 00 hr 46 min 48 sec)
Heartbeat CPU 0 instructions: 400000000 cycles: 131887395 heartbeat IPC: 3.492 cumulative IPC: 2.932 (Simulation time: 00 hr 47 min 34 sec)
Heartbeat CPU 0 instructions: 410000000 cycles: 135994110 heartbeat IPC: 2.435 cumulative IPC: 2.915 (Simulation time: 00 hr 48 min 32 sec)
Heartbeat CPU 0 instructions: 420000003 cycles: 140869089 heartbeat IPC: 2.051 cumulative IPC: 2.882 (Simulation time: 00 hr 49 min 35 sec)
Heartbeat CPU 0 instructions: 430000000 cycles: 145237908 heartbeat IPC: 2.289 cumulative IPC: 2.863 (Simulation time: 00 hr 50 min 39 sec)
Heartbeat CPU 0 instructions: 440000004 cycles: 149447608 heartbeat IPC: 2.375 cumulative IPC: 2.848 (Simulation time: 00 hr 51 min 41 sec)
Heartbeat CPU 0 instructions: 450000001 cycles: 153652675 heartbeat IPC: 2.378 cumulative IPC: 2.834 (Simulation time: 00 hr 52 min 42 sec)
Heartbeat CPU 0 instructions: 460000002 cycles: 158724052 heartbeat IPC: 1.972 cumulative IPC: 2.804 (Simulation time: 00 hr 53 min 48 sec)
Heartbeat CPU 0 instructions: 470000003 cycles: 162852345 heartbeat IPC: 2.422 cumulative IPC: 2.793 (Simulation time: 00 hr 54 min 47 sec)
Heartbeat CPU 0 instructions: 480000000 cycles: 165809714 heartbeat IPC: 3.381 cumulative IPC: 2.805 (Simulation time: 00 hr 55 min 36 sec)
Heartbeat CPU 0 instructions: 490000001 cycles: 168787738 heartbeat IPC: 3.358 cumulative IPC: 2.815 (Simulation time: 00 hr 56 min 26 sec)
Heartbeat CPU 0 instructions: 500000002 cycles: 171664689 heartbeat IPC: 3.476 cumulative IPC: 2.827 (Simulation time: 00 hr 57 min 16 sec)
Heartbeat CPU 0 instructions: 510000000 cycles: 174519728 heartbeat IPC: 3.503 cumulative IPC: 2.839 (Simulation time: 00 hr 58 min 05 sec)
Heartbeat CPU 0 instructions: 520000000 cycles: 177372847 heartbeat IPC: 3.505 cumulative IPC: 2.851 (Simulation time: 00 hr 58 min 53 sec)
Heartbeat CPU 0 instructions: 530000001 cycles: 182088650 heartbeat IPC: 2.121 cumulative IPC: 2.83 (Simulation time: 00 hr 59 min 54 sec)
Heartbeat CPU 0 instructions: 540000000 cycles: 186730403 heartbeat IPC: 2.154 cumulative IPC: 2.812 (Simulation time: 01 hr 00 min 56 sec)
Heartbeat CPU 0 instructions: 550000004 cycles: 191594483 heartbeat IPC: 2.056 cumulative IPC: 2.792 (Simulation time: 01 hr 01 min 59 sec)
Heartbeat CPU 0 instructions: 560000004 cycles: 194738726 heartbeat IPC: 3.18 cumulative IPC: 2.799 (Simulation time: 01 hr 02 min 47 sec)
Heartbeat CPU 0 instructions: 570000002 cycles: 197514442 heartbeat IPC: 3.603 cumulative IPC: 2.811 (Simulation time: 01 hr 03 min 34 sec)
Heartbeat CPU 0 instructions: 580000000 cycles: 200349090 heartbeat IPC: 3.528 cumulative IPC: 2.821 (Simulation time: 01 hr 04 min 23 sec)
Heartbeat CPU 0 instructions: 590000001 cycles: 203196227 heartbeat IPC: 3.512 cumulative IPC: 2.832 (Simulation time: 01 hr 05 min 09 sec)
Heartbeat CPU 0 instructions: 600000003 cycles: 205847578 heartbeat IPC: 3.772 cumulative IPC: 2.845 (Simulation time: 01 hr 05 min 56 sec)
Heartbeat CPU 0 instructions: 610000001 cycles: 208659649 heartbeat IPC: 3.556 cumulative IPC: 2.855 (Simulation time: 01 hr 06 min 45 sec)
Heartbeat CPU 0 instructions: 620000004 cycles: 211570019 heartbeat IPC: 3.436 cumulative IPC: 2.863 (Simulation time: 01 hr 07 min 35 sec)
Heartbeat CPU 0 instructions: 630000002 cycles: 214347535 heartbeat IPC: 3.6 cumulative IPC: 2.873 (Simulation time: 01 hr 08 min 26 sec)
Heartbeat CPU 0 instructions: 640000004 cycles: 217363581 heartbeat IPC: 3.316 cumulative IPC: 2.88 (Simulation time: 01 hr 09 min 16 sec)
Heartbeat CPU 0 instructions: 650000001 cycles: 220059836 heartbeat IPC: 3.709 cumulative IPC: 2.891 (Simulation time: 01 hr 10 min 06 sec)
Simulation finished CPU 0 instructions: 600000001 cycles: 207559775 cumulative IPC: 2.891 (Simulation time: 01 hr 10 min 06 sec)
Simulation complete CPU 0 instructions: 600000001 cycles: 207559775 cumulative IPC: 2.891 (Simulation time: 01 hr 10 min 06 sec)

ChampSim completed all CPUs

=== Simulation ===
CPU 0 runs traces/400.perlbench-50B.champsimtrace.xz
Region of Interest Statistics

CPU 0 cumulative IPC: 2.891 instructions: 600000001 cycles: 207559775
CPU 0 Branch Prediction Accuracy: 99.01% MPKI: 2.04 Average ROB Occupancy at Mispredict: 93.23
Branch type MPKI
BRANCH_DIRECT_JUMP: 0.0176
BRANCH_INDIRECT: 0.38
BRANCH_CONDITIONAL: 1.19
BRANCH_DIRECT_CALL: 0.0067
BRANCH_INDIRECT_CALL: 0.431
BRANCH_RETURN: 0.0161

LLC TOTAL        ACCESS:     836012 HIT:     716754 MISS:     119258
LLC LOAD         ACCESS:     576040 HIT:     486466 MISS:      89574
LLC RFO          ACCESS:      47059 HIT:      37415 MISS:       9644
LLC PREFETCH     ACCESS:      64213 HIT:      53521 MISS:      10692
LLC WRITE        ACCESS:     126685 HIT:     126508 MISS:        177
LLC TRANSLATION  ACCESS:      22015 HIT:      12844 MISS:       9171
LLC PREFETCH REQUESTED:      64213 ISSUED:      64213 USEFUL:       6574 USELESS:        262
LLC AVERAGE MISS LATENCY: 531.4 cycles
cpu0_DTLB TOTAL        ACCESS:  133219426 HIT:  131865668 MISS:    1353758
cpu0_DTLB LOAD         ACCESS:  133219426 HIT:  131865668 MISS:    1353758
cpu0_DTLB RFO          ACCESS:          0 HIT:          0 MISS:          0
cpu0_DTLB PREFETCH     ACCESS:          0 HIT:          0 MISS:          0
cpu0_DTLB WRITE        ACCESS:          0 HIT:          0 MISS:          0
cpu0_DTLB TRANSLATION  ACCESS:          0 HIT:          0 MISS:          0
cpu0_DTLB PREFETCH REQUESTED:          0 ISSUED:          0 USEFUL:          0 USELESS:          0
cpu0_DTLB AVERAGE MISS LATENCY: 9.453 cycles
cpu0_ITLB TOTAL        ACCESS:    8984225 HIT:    8774782 MISS:     209443
cpu0_ITLB LOAD         ACCESS:    8984225 HIT:    8774782 MISS:     209443
cpu0_ITLB RFO          ACCESS:          0 HIT:          0 MISS:          0
cpu0_ITLB PREFETCH     ACCESS:          0 HIT:          0 MISS:          0
cpu0_ITLB WRITE        ACCESS:          0 HIT:          0 MISS:          0
cpu0_ITLB TRANSLATION  ACCESS:          0 HIT:          0 MISS:          0
cpu0_ITLB PREFETCH REQUESTED:          0 ISSUED:          0 USEFUL:          0 USELESS:          0
cpu0_ITLB AVERAGE MISS LATENCY: 2.365 cycles
cpu0_L1D TOTAL        ACCESS:  178287743 HIT:  174550665 MISS:    3737078
cpu0_L1D LOAD         ACCESS:   92768650 HIT:   89698734 MISS:    3069916
cpu0_L1D RFO          ACCESS:          0 HIT:          0 MISS:          0
cpu0_L1D PREFETCH     ACCESS:          0 HIT:          0 MISS:          0
cpu0_L1D WRITE        ACCESS:   85490565 HIT:   84850509 MISS:     640056
cpu0_L1D TRANSLATION  ACCESS:      28528 HIT:       1422 MISS:      27106
cpu0_L1D PREFETCH REQUESTED:          0 ISSUED:          0 USEFUL:          0 USELESS:          0
cpu0_L1D AVERAGE MISS LATENCY: 21.26 cycles
cpu0_L1I TOTAL        ACCESS:   10504718 HIT:    8605961 MISS:    1898757
cpu0_L1I LOAD         ACCESS:   10504718 HIT:    8605961 MISS:    1898757
cpu0_L1I RFO          ACCESS:          0 HIT:          0 MISS:          0
cpu0_L1I PREFETCH     ACCESS:          0 HIT:          0 MISS:          0
cpu0_L1I WRITE        ACCESS:          0 HIT:          0 MISS:          0
cpu0_L1I TRANSLATION  ACCESS:          0 HIT:          0 MISS:          0
cpu0_L1I PREFETCH REQUESTED:          0 ISSUED:          0 USEFUL:          0 USELESS:          0
cpu0_L1I AVERAGE MISS LATENCY: 8.49 cycles
cpu0_L2C TOTAL        ACCESS:    3840676 HIT:    3192414 MISS:     648262
cpu0_L2C LOAD         ACCESS:    3103929 HIT:    2527889 MISS:     576040
cpu0_L2C RFO          ACCESS:     194821 HIT:     147762 MISS:      47059
cpu0_L2C PREFETCH     ACCESS:          0 HIT:          0 MISS:          0
cpu0_L2C WRITE        ACCESS:     514894 HIT:     511746 MISS:       3148
cpu0_L2C TRANSLATION  ACCESS:      27032 HIT:       5017 MISS:      22015
cpu0_L2C PREFETCH REQUESTED:          0 ISSUED:          0 USEFUL:          0 USELESS:          0
cpu0_L2C AVERAGE MISS LATENCY: 108.6 cycles
cpu0_STLB TOTAL        ACCESS:    1009628 HIT:     982938 MISS:      26690
cpu0_STLB LOAD         ACCESS:    1009628 HIT:     982938 MISS:      26690
cpu0_STLB RFO          ACCESS:          0 HIT:          0 MISS:          0
cpu0_STLB PREFETCH     ACCESS:          0 HIT:          0 MISS:          0
cpu0_STLB WRITE        ACCESS:          0 HIT:          0 MISS:          0
cpu0_STLB TRANSLATION  ACCESS:          0 HIT:          0 MISS:          0
cpu0_STLB PREFETCH REQUESTED:          0 ISSUED:          0 USEFUL:          0 USELESS:          0
cpu0_STLB AVERAGE MISS LATENCY: 264.4 cycles

DRAM Statistics

Channel 0 RQ ROW_BUFFER_HIT:      36001
  ROW_BUFFER_MISS:      80988
 AVG DBUS CONGESTED CYCLE: 3.781
WQ ROW_BUFFER_HIT: Channel 0 
  ROW_BUFFER_MISS:        974
  FULL:       2211
