WARNING: physical memory size is smaller than virtual memory size.

*** ChampSim Multicore Out-of-Order Simulator ***
Warmup Instructions: 50000000
Simulation Instructions: 600000000
Number of CPUs: 1
Page size: 4096

CPU 0 Tage branch predictor
Off-chip DRAM Size: 4 GiB Channels: 1 Width: 64-bit Data Race: 3200 MT/s
Heartbeat CPU 0 instructions: 10000000 cycles: 2500061 heartbeat IPC: 4 cumulative IPC: 4 (Simulation time: 00 hr 04 min 06 sec)
Heartbeat CPU 0 instructions: 20000000 cycles: 5000061 heartbeat IPC: 4 cumulative IPC: 4 (Simulation time: 00 hr 08 min 12 sec)
Heartbeat CPU 0 instructions: 30000000 cycles: 7500061 heartbeat IPC: 4 cumulative IPC: 4 (Simulation time: 00 hr 12 min 17 sec)
Heartbeat CPU 0 instructions: 40000000 cycles: 10000061 heartbeat IPC: 4 cumulative IPC: 4 (Simulation time: 00 hr 16 min 24 sec)
Heartbeat CPU 0 instructions: 50000000 cycles: 12500061 heartbeat IPC: 4 cumulative IPC: 4 (Simulation time: 00 hr 20 min 32 sec)
Warmup finished CPU 0 instructions: 50000000 cycles: 12500062 cumulative IPC: 4 (Simulation time: 00 hr 20 min 32 sec)
Warmup complete CPU 0 instructions: 50000000 cycles: 12500062 cumulative IPC: 4 (Simulation time: 00 hr 20 min 32 sec)
Heartbeat CPU 0 instructions: 60000004 cycles: 15504489 heartbeat IPC: 3.328 cumulative IPC: 3.328 (Simulation time: 00 hr 25 min 28 sec)
Heartbeat CPU 0 instructions: 70000003 cycles: 18370762 heartbeat IPC: 3.489 cumulative IPC: 3.407 (Simulation time: 00 hr 30 min 18 sec)
Heartbeat CPU 0 instructions: 80000002 cycles: 21382300 heartbeat IPC: 3.321 cumulative IPC: 3.378 (Simulation time: 00 hr 35 min 13 sec)
Heartbeat CPU 0 instructions: 90000000 cycles: 24100329 heartbeat IPC: 3.679 cumulative IPC: 3.448 (Simulation time: 00 hr 40 min 17 sec)
Heartbeat CPU 0 instructions: 100000003 cycles: 26857493 heartbeat IPC: 3.627 cumulative IPC: 3.483 (Simulation time: 00 hr 44 min 59 sec)
Heartbeat CPU 0 instructions: 110000001 cycles: 29755202 heartbeat IPC: 3.451 cumulative IPC: 3.477 (Simulation time: 00 hr 49 min 49 sec)
Heartbeat CPU 0 instructions: 120000001 cycles: 32471687 heartbeat IPC: 3.681 cumulative IPC: 3.505 (Simulation time: 00 hr 54 min 33 sec)
Heartbeat CPU 0 instructions: 130000003 cycles: 35371153 heartbeat IPC: 3.449 cumulative IPC: 3.498 (Simulation time: 00 hr 59 min 22 sec)
Heartbeat CPU 0 instructions: 140000002 cycles: 38204957 heartbeat IPC: 3.529 cumulative IPC: 3.501 (Simulation time: 01 hr 04 min 10 sec)
Heartbeat CPU 0 instructions: 150000001 cycles: 40975005 heartbeat IPC: 3.61 cumulative IPC: 3.512 (Simulation time: 01 hr 09 min 09 sec)
Heartbeat CPU 0 instructions: 160000000 cycles: 43892634 heartbeat IPC: 3.427 cumulative IPC: 3.504 (Simulation time: 01 hr 14 min 01 sec)
Heartbeat CPU 0 instructions: 170000001 cycles: 46821114 heartbeat IPC: 3.415 cumulative IPC: 3.496 (Simulation time: 01 hr 18 min 58 sec)
Heartbeat CPU 0 instructions: 180000000 cycles: 49612148 heartbeat IPC: 3.583 cumulative IPC: 3.503 (Simulation time: 01 hr 23 min 50 sec)
Heartbeat CPU 0 instructions: 190000002 cycles: 52319155 heartbeat IPC: 3.694 cumulative IPC: 3.516 (Simulation time: 01 hr 28 min 39 sec)
Heartbeat CPU 0 instructions: 200000002 cycles: 55139904 heartbeat IPC: 3.545 cumulative IPC: 3.518 (Simulation time: 01 hr 33 min 27 sec)
Heartbeat CPU 0 instructions: 210000000 cycles: 58032602 heartbeat IPC: 3.457 cumulative IPC: 3.514 (Simulation time: 01 hr 38 min 28 sec)
Heartbeat CPU 0 instructions: 220000001 cycles: 60784611 heartbeat IPC: 3.634 cumulative IPC: 3.521 (Simulation time: 01 hr 43 min 17 sec)
Heartbeat CPU 0 instructions: 230000002 cycles: 63673784 heartbeat IPC: 3.461 cumulative IPC: 3.517 (Simulation time: 01 hr 48 min 08 sec)
Heartbeat CPU 0 instructions: 240000004 cycles: 66624801 heartbeat IPC: 3.389 cumulative IPC: 3.51 (Simulation time: 01 hr 53 min 02 sec)
Heartbeat CPU 0 instructions: 250000003 cycles: 69515661 heartbeat IPC: 3.459 cumulative IPC: 3.508 (Simulation time: 01 hr 57 min 53 sec)
Heartbeat CPU 0 instructions: 260000001 cycles: 72300103 heartbeat IPC: 3.591 cumulative IPC: 3.512 (Simulation time: 02 hr 02 min 41 sec)
Heartbeat CPU 0 instructions: 270000002 cycles: 78059363 heartbeat IPC: 1.736 cumulative IPC: 3.356 (Simulation time: 02 hr 09 min 29 sec)
Heartbeat CPU 0 instructions: 280000000 cycles: 86488783 heartbeat IPC: 1.186 cumulative IPC: 3.109 (Simulation time: 02 hr 18 min 13 sec)
Heartbeat CPU 0 instructions: 290000000 cycles: 93387208 heartbeat IPC: 1.45 cumulative IPC: 2.967 (Simulation time: 02 hr 26 min 02 sec)
Heartbeat CPU 0 instructions: 300000003 cycles: 98381271 heartbeat IPC: 2.002 cumulative IPC: 2.911 (Simulation time: 02 hr 32 min 45 sec)
Heartbeat CPU 0 instructions: 310000001 cycles: 105670718 heartbeat IPC: 1.372 cumulative IPC: 2.791 (Simulation time: 02 hr 41 min 02 sec)
Heartbeat CPU 0 instructions: 320000004 cycles: 109315410 heartbeat IPC: 2.744 cumulative IPC: 2.789 (Simulation time: 02 hr 46 min 39 sec)
Heartbeat CPU 0 instructions: 330000000 cycles: 112414915 heartbeat IPC: 3.226 cumulative IPC: 2.802 (Simulation time: 02 hr 51 min 44 sec)
Heartbeat CPU 0 instructions: 340000001 cycles: 115216977 heartbeat IPC: 3.569 cumulative IPC: 2.823 (Simulation time: 02 hr 56 min 47 sec)
Heartbeat CPU 0 instructions: 350000000 cycles: 118158740 heartbeat IPC: 3.399 cumulative IPC: 2.839 (Simulation time: 03 hr 01 min 48 sec)
Heartbeat CPU 0 instructions: 360000004 cycles: 120914831 heartbeat IPC: 3.628 cumulative IPC: 2.859 (Simulation time: 03 hr 06 min 39 sec)
Heartbeat CPU 0 instructions: 370000001 cycles: 123683181 heartbeat IPC: 3.612 cumulative IPC: 2.878 (Simulation time: 03 hr 11 min 32 sec)
Heartbeat CPU 0 instructions: 380000004 cycles: 126483242 heartbeat IPC: 3.571 cumulative IPC: 2.895 (Simulation time: 03 hr 16 min 25 sec)
Heartbeat CPU 0 instructions: 390000002 cycles: 129288182 heartbeat IPC: 3.565 cumulative IPC: 2.911 (Simulation time: 03 hr 21 min 20 sec)
Heartbeat CPU 0 instructions: 400000000 cycles: 132149039 heartbeat IPC: 3.495 cumulative IPC: 2.925 (Simulation time: 03 hr 26 min 16 sec)
Heartbeat CPU 0 instructions: 410000000 cycles: 136250726 heartbeat IPC: 2.438 cumulative IPC: 2.909 (Simulation time: 03 hr 32 min 06 sec)
Heartbeat CPU 0 instructions: 420000003 cycles: 141137004 heartbeat IPC: 2.047 cumulative IPC: 2.876 (Simulation time: 03 hr 38 min 37 sec)
Heartbeat CPU 0 instructions: 430000000 cycles: 145501293 heartbeat IPC: 2.291 cumulative IPC: 2.857 (Simulation time: 03 hr 45 min 07 sec)
Heartbeat CPU 0 instructions: 440000004 cycles: 149687605 heartbeat IPC: 2.389 cumulative IPC: 2.843 (Simulation time: 03 hr 51 min 14 sec)
Heartbeat CPU 0 instructions: 450000001 cycles: 153890029 heartbeat IPC: 2.38 cumulative IPC: 2.829 (Simulation time: 03 hr 57 min 24 sec)
Heartbeat CPU 0 instructions: 460000002 cycles: 158991904 heartbeat IPC: 1.96 cumulative IPC: 2.799 (Simulation time: 04 hr 04 min 09 sec)
Heartbeat CPU 0 instructions: 470000003 cycles: 163145239 heartbeat IPC: 2.408 cumulative IPC: 2.788 (Simulation time: 04 hr 10 min 11 sec)
Heartbeat CPU 0 instructions: 480000000 cycles: 166091994 heartbeat IPC: 3.394 cumulative IPC: 2.8 (Simulation time: 04 hr 15 min 13 sec)
Heartbeat CPU 0 instructions: 490000001 cycles: 169009632 heartbeat IPC: 3.427 cumulative IPC: 2.811 (Simulation time: 04 hr 20 min 12 sec)
Heartbeat CPU 0 instructions: 500000002 cycles: 171851771 heartbeat IPC: 3.518 cumulative IPC: 2.824 (Simulation time: 04 hr 25 min 05 sec)
Heartbeat CPU 0 instructions: 510000000 cycles: 174687986 heartbeat IPC: 3.526 cumulative IPC: 2.836 (Simulation time: 04 hr 30 min 00 sec)
Heartbeat CPU 0 instructions: 520000000 cycles: 177519077 heartbeat IPC: 3.532 cumulative IPC: 2.848 (Simulation time: 04 hr 35 min 10 sec)
Heartbeat CPU 0 instructions: 530000001 cycles: 182146002 heartbeat IPC: 2.161 cumulative IPC: 2.829 (Simulation time: 04 hr 41 min 44 sec)
Heartbeat CPU 0 instructions: 540000000 cycles: 186776206 heartbeat IPC: 2.16 cumulative IPC: 2.812 (Simulation time: 04 hr 48 min 44 sec)
Heartbeat CPU 0 instructions: 550000004 cycles: 191769789 heartbeat IPC: 2.003 cumulative IPC: 2.789 (Simulation time: 04 hr 55 min 55 sec)
Heartbeat CPU 0 instructions: 560000004 cycles: 194909726 heartbeat IPC: 3.185 cumulative IPC: 2.796 (Simulation time: 05 hr 01 min 23 sec)
Heartbeat CPU 0 instructions: 570000002 cycles: 197685416 heartbeat IPC: 3.603 cumulative IPC: 2.808 (Simulation time: 05 hr 06 min 42 sec)
Heartbeat CPU 0 instructions: 580000000 cycles: 200521312 heartbeat IPC: 3.526 cumulative IPC: 2.819 (Simulation time: 05 hr 11 min 58 sec)
Heartbeat CPU 0 instructions: 590000001 cycles: 203369011 heartbeat IPC: 3.512 cumulative IPC: 2.829 (Simulation time: 05 hr 17 min 14 sec)
Heartbeat CPU 0 instructions: 600000003 cycles: 206021370 heartbeat IPC: 3.77 cumulative IPC: 2.842 (Simulation time: 05 hr 22 min 26 sec)
Heartbeat CPU 0 instructions: 610000001 cycles: 208834097 heartbeat IPC: 3.555 cumulative IPC: 2.852 (Simulation time: 05 hr 27 min 43 sec)
Heartbeat CPU 0 instructions: 620000004 cycles: 211745233 heartbeat IPC: 3.435 cumulative IPC: 2.861 (Simulation time: 05 hr 33 min 04 sec)
Heartbeat CPU 0 instructions: 630000002 cycles: 214522347 heartbeat IPC: 3.601 cumulative IPC: 2.871 (Simulation time: 05 hr 38 min 22 sec)
Heartbeat CPU 0 instructions: 640000004 cycles: 217534901 heartbeat IPC: 3.319 cumulative IPC: 2.878 (Simulation time: 05 hr 43 min 46 sec)
Heartbeat CPU 0 instructions: 650000001 cycles: 220229721 heartbeat IPC: 3.711 cumulative IPC: 2.888 (Simulation time: 05 hr 48 min 57 sec)
Simulation finished CPU 0 instructions: 600000001 cycles: 207729660 cumulative IPC: 2.888 (Simulation time: 05 hr 48 min 57 sec)
Simulation complete CPU 0 instructions: 600000001 cycles: 207729660 cumulative IPC: 2.888 (Simulation time: 05 hr 48 min 57 sec)

ChampSim completed all CPUs

=== Simulation ===
CPU 0 runs traces/400.perlbench-50B.champsimtrace.xz
Region of Interest Statistics

CPU 0 cumulative IPC: 2.888 instructions: 600000001 cycles: 207729660
CPU 0 Branch Prediction Accuracy: 99.01% MPKI: 2.04 Average ROB Occupancy at Mispredict: 93.2
Branch type MPKI
BRANCH_DIRECT_JUMP: 0.0176
BRANCH_INDIRECT: 0.38
BRANCH_CONDITIONAL: 1.19
BRANCH_DIRECT_CALL: 0.0067
BRANCH_INDIRECT_CALL: 0.431
BRANCH_RETURN: 0.0161

LLC TOTAL        ACCESS:     771504 HIT:     658145 MISS:     113359
LLC LOAD         ACCESS:     575625 HIT:     480757 MISS:      94868
LLC RFO          ACCESS:      46996 HIT:      37765 MISS:       9231
LLC PREFETCH     ACCESS:          0 HIT:          0 MISS:          0
LLC WRITE        ACCESS:     126699 HIT:     126583 MISS:        116
LLC TRANSLATION  ACCESS:      22184 HIT:      13040 MISS:       9144
LLC PREFETCH REQUESTED:          0 ISSUED:          0 USEFUL:          0 USELESS:          0
LLC AVERAGE MISS LATENCY: 519.8 cycles
cpu0_DTLB TOTAL        ACCESS:  133218373 HIT:  131864477 MISS:    1353896
cpu0_DTLB LOAD         ACCESS:  133218373 HIT:  131864477 MISS:    1353896
cpu0_DTLB RFO          ACCESS:          0 HIT:          0 MISS:          0
cpu0_DTLB PREFETCH     ACCESS:          0 HIT:          0 MISS:          0
cpu0_DTLB WRITE        ACCESS:          0 HIT:          0 MISS:          0
cpu0_DTLB TRANSLATION  ACCESS:          0 HIT:          0 MISS:          0
cpu0_DTLB PREFETCH REQUESTED:          0 ISSUED:          0 USEFUL:          0 USELESS:          0
cpu0_DTLB AVERAGE MISS LATENCY: 9.4 cycles
cpu0_ITLB TOTAL        ACCESS:    8984258 HIT:    8774841 MISS:     209417
cpu0_ITLB LOAD         ACCESS:    8984258 HIT:    8774841 MISS:     209417
cpu0_ITLB RFO          ACCESS:          0 HIT:          0 MISS:          0
cpu0_ITLB PREFETCH     ACCESS:          0 HIT:          0 MISS:          0
cpu0_ITLB WRITE        ACCESS:          0 HIT:          0 MISS:          0
cpu0_ITLB TRANSLATION  ACCESS:          0 HIT:          0 MISS:          0
cpu0_ITLB PREFETCH REQUESTED:          0 ISSUED:          0 USEFUL:          0 USELESS:          0
cpu0_ITLB AVERAGE MISS LATENCY: 2.285 cycles
cpu0_L1D TOTAL        ACCESS:  178287448 HIT:  174547502 MISS:    3739946
cpu0_L1D LOAD         ACCESS:   92768895 HIT:   89695478 MISS:    3073417
cpu0_L1D RFO          ACCESS:          0 HIT:          0 MISS:          0
cpu0_L1D PREFETCH     ACCESS:          0 HIT:          0 MISS:          0
cpu0_L1D WRITE        ACCESS:   85490027 HIT:   84850605 MISS:     639422
cpu0_L1D TRANSLATION  ACCESS:      28526 HIT:       1419 MISS:      27107
cpu0_L1D PREFETCH REQUESTED:          0 ISSUED:          0 USEFUL:          0 USELESS:          0
cpu0_L1D AVERAGE MISS LATENCY: 21.5 cycles
cpu0_L1I TOTAL        ACCESS:   10504545 HIT:    8605889 MISS:    1898656
cpu0_L1I LOAD         ACCESS:   10504545 HIT:    8605889 MISS:    1898656
cpu0_L1I RFO          ACCESS:          0 HIT:          0 MISS:          0
cpu0_L1I PREFETCH     ACCESS:          0 HIT:          0 MISS:          0
cpu0_L1I WRITE        ACCESS:          0 HIT:          0 MISS:          0
cpu0_L1I TRANSLATION  ACCESS:          0 HIT:          0 MISS:          0
cpu0_L1I PREFETCH REQUESTED:          0 ISSUED:          0 USEFUL:          0 USELESS:          0
cpu0_L1I AVERAGE MISS LATENCY: 8.477 cycles
cpu0_L2C TOTAL        ACCESS:    3840736 HIT:    3192807 MISS:     647929
cpu0_L2C LOAD         ACCESS:    3103910 HIT:    2528285 MISS:     575625
cpu0_L2C RFO          ACCESS:     194833 HIT:     147837 MISS:      46996
cpu0_L2C PREFETCH     ACCESS:          0 HIT:          0 MISS:          0
cpu0_L2C WRITE        ACCESS:     514961 HIT:     511837 MISS:       3124
cpu0_L2C TRANSLATION  ACCESS:      27032 HIT:       4848 MISS:      22184
cpu0_L2C PREFETCH REQUESTED:          0 ISSUED:          0 USEFUL:          0 USELESS:          0
cpu0_L2C AVERAGE MISS LATENCY: 111 cycles
cpu0_STLB TOTAL        ACCESS:    1009627 HIT:     982938 MISS:      26689
cpu0_STLB LOAD         ACCESS:    1009627 HIT:     982938 MISS:      26689
cpu0_STLB RFO          ACCESS:          0 HIT:          0 MISS:          0
cpu0_STLB PREFETCH     ACCESS:          0 HIT:          0 MISS:          0
cpu0_STLB WRITE        ACCESS:          0 HIT:          0 MISS:          0
cpu0_STLB TRANSLATION  ACCESS:          0 HIT:          0 MISS:          0
cpu0_STLB PREFETCH REQUESTED:          0 ISSUED:          0 USEFUL:          0 USELESS:          0
cpu0_STLB AVERAGE MISS LATENCY: 261.3 cycles

DRAM Statistics

Channel 0 RQ ROW_BUFFER_HIT:      34832
  ROW_BUFFER_MISS:      78411
 AVG DBUS CONGESTED CYCLE: 3.75
WQ ROW_BUFFER_HIT: Channel 0 
  ROW_BUFFER_MISS:        395
  FULL:        737
