WARNING: physical memory size is smaller than virtual memory size.

*** ChampSim Multicore Out-of-Order Simulator ***
Warmup Instructions: 50000000
Simulation Instructions: 600000000
Number of CPUs: 1
Page size: 4096

CPU 0 Tage branch predictor
Off-chip DRAM Size: 4 GiB Channels: 1 Width: 64-bit Data Race: 3200 MT/s
Heartbeat CPU 0 instructions: 10000001 cycles: 2500318 heartbeat IPC: 3.999 cumulative IPC: 3.999 (Simulation time: 00 hr 00 min 33 sec)
Heartbeat CPU 0 instructions: 20000002 cycles: 5037121 heartbeat IPC: 3.942 cumulative IPC: 3.971 (Simulation time: 00 hr 01 min 15 sec)
Heartbeat CPU 0 instructions: 30000002 cycles: 7537121 heartbeat IPC: 4 cumulative IPC: 3.98 (Simulation time: 00 hr 02 min 11 sec)
Heartbeat CPU 0 instructions: 40000002 cycles: 10037121 heartbeat IPC: 4 cumulative IPC: 3.985 (Simulation time: 00 hr 03 min 18 sec)
Heartbeat CPU 0 instructions: 50000002 cycles: 12537121 heartbeat IPC: 4 cumulative IPC: 3.988 (Simulation time: 00 hr 04 min 32 sec)
Warmup finished CPU 0 instructions: 50000002 cycles: 12537122 cumulative IPC: 3.988 (Simulation time: 00 hr 04 min 32 sec)
Warmup complete CPU 0 instructions: 50000002 cycles: 12537122 cumulative IPC: 3.988 (Simulation time: 00 hr 04 min 32 sec)
Heartbeat CPU 0 instructions: 60000001 cycles: 15536644 heartbeat IPC: 3.334 cumulative IPC: 3.334 (Simulation time: 00 hr 06 min 12 sec)
Heartbeat CPU 0 instructions: 70000004 cycles: 18614420 heartbeat IPC: 3.249 cumulative IPC: 3.291 (Simulation time: 00 hr 08 min 03 sec)
Heartbeat CPU 0 instructions: 80000001 cycles: 21664344 heartbeat IPC: 3.279 cumulative IPC: 3.287 (Simulation time: 00 hr 09 min 48 sec)
Heartbeat CPU 0 instructions: 90000001 cycles: 24613078 heartbeat IPC: 3.391 cumulative IPC: 3.312 (Simulation time: 00 hr 11 min 32 sec)
Heartbeat CPU 0 instructions: 100000000 cycles: 27526765 heartbeat IPC: 3.432 cumulative IPC: 3.336 (Simulation time: 00 hr 13 min 16 sec)
Heartbeat CPU 0 instructions: 110000000 cycles: 30470154 heartbeat IPC: 3.397 cumulative IPC: 3.346 (Simulation time: 00 hr 15 min 00 sec)
Heartbeat CPU 0 instructions: 120000001 cycles: 33447790 heartbeat IPC: 3.358 cumulative IPC: 3.348 (Simulation time: 00 hr 16 min 46 sec)
Heartbeat CPU 0 instructions: 130000001 cycles: 36306644 heartbeat IPC: 3.498 cumulative IPC: 3.366 (Simulation time: 00 hr 18 min 32 sec)
Heartbeat CPU 0 instructions: 140000001 cycles: 39370840 heartbeat IPC: 3.263 cumulative IPC: 3.354 (Simulation time: 00 hr 20 min 11 sec)
Heartbeat CPU 0 instructions: 150000001 cycles: 42388990 heartbeat IPC: 3.313 cumulative IPC: 3.35 (Simulation time: 00 hr 21 min 43 sec)
Heartbeat CPU 0 instructions: 160000004 cycles: 45414252 heartbeat IPC: 3.305 cumulative IPC: 3.346 (Simulation time: 00 hr 23 min 19 sec)
Heartbeat CPU 0 instructions: 170000000 cycles: 50857742 heartbeat IPC: 1.837 cumulative IPC: 3.131 (Simulation time: 00 hr 25 min 40 sec)
Heartbeat CPU 0 instructions: 180000004 cycles: 55623013 heartbeat IPC: 2.099 cumulative IPC: 3.017 (Simulation time: 00 hr 27 min 53 sec)
Heartbeat CPU 0 instructions: 190000001 cycles: 59856657 heartbeat IPC: 2.362 cumulative IPC: 2.959 (Simulation time: 00 hr 30 min 04 sec)
Heartbeat CPU 0 instructions: 200000004 cycles: 62606716 heartbeat IPC: 3.636 cumulative IPC: 2.996 (Simulation time: 00 hr 30 min 47 sec)
Heartbeat CPU 0 instructions: 210000001 cycles: 65398398 heartbeat IPC: 3.582 cumulative IPC: 3.027 (Simulation time: 00 hr 31 min 34 sec)
Heartbeat CPU 0 instructions: 220000000 cycles: 68192320 heartbeat IPC: 3.579 cumulative IPC: 3.055 (Simulation time: 00 hr 32 min 21 sec)
Heartbeat CPU 0 instructions: 230000002 cycles: 70887374 heartbeat IPC: 3.711 cumulative IPC: 3.085 (Simulation time: 00 hr 33 min 08 sec)
Heartbeat CPU 0 instructions: 240000003 cycles: 73717510 heartbeat IPC: 3.533 cumulative IPC: 3.106 (Simulation time: 00 hr 33 min 56 sec)
Heartbeat CPU 0 instructions: 250000000 cycles: 76502593 heartbeat IPC: 3.591 cumulative IPC: 3.127 (Simulation time: 00 hr 34 min 43 sec)
Heartbeat CPU 0 instructions: 260000002 cycles: 79236134 heartbeat IPC: 3.658 cumulative IPC: 3.148 (Simulation time: 00 hr 35 min 27 sec)
Heartbeat CPU 0 instructions: 270000002 cycles: 81982699 heartbeat IPC: 3.641 cumulative IPC: 3.168 (Simulation time: 00 hr 36 min 11 sec)
Heartbeat CPU 0 instructions: 280000002 cycles: 84698410 heartbeat IPC: 3.682 cumulative IPC: 3.187 (Simulation time: 00 hr 36 min 56 sec)
Heartbeat CPU 0 instructions: 290000002 cycles: 87515278 heartbeat IPC: 3.55 cumulative IPC: 3.201 (Simulation time: 00 hr 37 min 43 sec)
Heartbeat CPU 0 instructions: 300000003 cycles: 90207530 heartbeat IPC: 3.714 cumulative IPC: 3.219 (Simulation time: 00 hr 38 min 31 sec)
Heartbeat CPU 0 instructions: 310000001 cycles: 93007908 heartbeat IPC: 3.571 cumulative IPC: 3.231 (Simulation time: 00 hr 39 min 18 sec)
Heartbeat CPU 0 instructions: 320000003 cycles: 95841412 heartbeat IPC: 3.529 cumulative IPC: 3.241 (Simulation time: 00 hr 40 min 06 sec)
Heartbeat CPU 0 instructions: 330000003 cycles: 98584544 heartbeat IPC: 3.645 cumulative IPC: 3.254 (Simulation time: 00 hr 40 min 53 sec)
Heartbeat CPU 0 instructions: 340000000 cycles: 103395918 heartbeat IPC: 2.078 cumulative IPC: 3.192 (Simulation time: 00 hr 41 min 55 sec)
Heartbeat CPU 0 instructions: 350000000 cycles: 108335785 heartbeat IPC: 2.024 cumulative IPC: 3.132 (Simulation time: 00 hr 42 min 59 sec)
Heartbeat CPU 0 instructions: 360000004 cycles: 112815110 heartbeat IPC: 2.232 cumulative IPC: 3.091 (Simulation time: 00 hr 43 min 57 sec)
Heartbeat CPU 0 instructions: 370000000 cycles: 115619684 heartbeat IPC: 3.566 cumulative IPC: 3.104 (Simulation time: 00 hr 44 min 42 sec)
Heartbeat CPU 0 instructions: 380000003 cycles: 118376507 heartbeat IPC: 3.627 cumulative IPC: 3.118 (Simulation time: 00 hr 45 min 28 sec)
Heartbeat CPU 0 instructions: 390000002 cycles: 121239741 heartbeat IPC: 3.493 cumulative IPC: 3.128 (Simulation time: 00 hr 46 min 14 sec)
Heartbeat CPU 0 instructions: 400000004 cycles: 124068772 heartbeat IPC: 3.535 cumulative IPC: 3.138 (Simulation time: 00 hr 47 min 01 sec)
Heartbeat CPU 0 instructions: 410000002 cycles: 126833059 heartbeat IPC: 3.618 cumulative IPC: 3.15 (Simulation time: 00 hr 47 min 48 sec)
Heartbeat CPU 0 instructions: 420000003 cycles: 129673904 heartbeat IPC: 3.52 cumulative IPC: 3.159 (Simulation time: 00 hr 48 min 35 sec)
Heartbeat CPU 0 instructions: 430000001 cycles: 132545000 heartbeat IPC: 3.483 cumulative IPC: 3.166 (Simulation time: 00 hr 49 min 24 sec)
Heartbeat CPU 0 instructions: 440000004 cycles: 135468991 heartbeat IPC: 3.42 cumulative IPC: 3.172 (Simulation time: 00 hr 50 min 12 sec)
Heartbeat CPU 0 instructions: 450000002 cycles: 138206254 heartbeat IPC: 3.653 cumulative IPC: 3.183 (Simulation time: 00 hr 50 min 59 sec)
Heartbeat CPU 0 instructions: 460000000 cycles: 140984996 heartbeat IPC: 3.599 cumulative IPC: 3.192 (Simulation time: 00 hr 51 min 46 sec)
Heartbeat CPU 0 instructions: 470000001 cycles: 143700548 heartbeat IPC: 3.682 cumulative IPC: 3.202 (Simulation time: 00 hr 52 min 36 sec)
Heartbeat CPU 0 instructions: 480000003 cycles: 146579873 heartbeat IPC: 3.473 cumulative IPC: 3.208 (Simulation time: 00 hr 53 min 25 sec)
Heartbeat CPU 0 instructions: 490000004 cycles: 149307811 heartbeat IPC: 3.666 cumulative IPC: 3.217 (Simulation time: 00 hr 54 min 13 sec)
Heartbeat CPU 0 instructions: 500000004 cycles: 152188919 heartbeat IPC: 3.471 cumulative IPC: 3.222 (Simulation time: 00 hr 55 min 02 sec)
Heartbeat CPU 0 instructions: 510000003 cycles: 155043108 heartbeat IPC: 3.504 cumulative IPC: 3.228 (Simulation time: 00 hr 55 min 49 sec)
Heartbeat CPU 0 instructions: 520000001 cycles: 157758126 heartbeat IPC: 3.683 cumulative IPC: 3.236 (Simulation time: 00 hr 56 min 36 sec)
Heartbeat CPU 0 instructions: 530000001 cycles: 160619660 heartbeat IPC: 3.495 cumulative IPC: 3.241 (Simulation time: 00 hr 57 min 24 sec)
Heartbeat CPU 0 instructions: 540000000 cycles: 163431541 heartbeat IPC: 3.556 cumulative IPC: 3.247 (Simulation time: 00 hr 58 min 12 sec)
Heartbeat CPU 0 instructions: 550000001 cycles: 166300603 heartbeat IPC: 3.485 cumulative IPC: 3.252 (Simulation time: 00 hr 58 min 58 sec)
Heartbeat CPU 0 instructions: 560000000 cycles: 169174201 heartbeat IPC: 3.48 cumulative IPC: 3.256 (Simulation time: 00 hr 59 min 45 sec)
Heartbeat CPU 0 instructions: 570000004 cycles: 172995189 heartbeat IPC: 2.617 cumulative IPC: 3.241 (Simulation time: 01 hr 00 min 38 sec)
Heartbeat CPU 0 instructions: 580000003 cycles: 178082564 heartbeat IPC: 1.966 cumulative IPC: 3.202 (Simulation time: 01 hr 01 min 39 sec)
Heartbeat CPU 0 instructions: 590000002 cycles: 183211338 heartbeat IPC: 1.95 cumulative IPC: 3.164 (Simulation time: 01 hr 02 min 41 sec)
Heartbeat CPU 0 instructions: 600000004 cycles: 186081634 heartbeat IPC: 3.484 cumulative IPC: 3.169 (Simulation time: 01 hr 03 min 28 sec)
Heartbeat CPU 0 instructions: 610000002 cycles: 188903097 heartbeat IPC: 3.544 cumulative IPC: 3.175 (Simulation time: 01 hr 04 min 15 sec)
Heartbeat CPU 0 instructions: 620000001 cycles: 191598412 heartbeat IPC: 3.71 cumulative IPC: 3.183 (Simulation time: 01 hr 05 min 02 sec)
Heartbeat CPU 0 instructions: 630000002 cycles: 194445585 heartbeat IPC: 3.512 cumulative IPC: 3.188 (Simulation time: 01 hr 05 min 49 sec)
Heartbeat CPU 0 instructions: 640000004 cycles: 197340188 heartbeat IPC: 3.455 cumulative IPC: 3.193 (Simulation time: 01 hr 06 min 38 sec)
Heartbeat CPU 0 instructions: 650000000 cycles: 200040861 heartbeat IPC: 3.703 cumulative IPC: 3.2 (Simulation time: 01 hr 07 min 23 sec)
Simulation finished CPU 0 instructions: 600000001 cycles: 187503741 cumulative IPC: 3.2 (Simulation time: 01 hr 07 min 23 sec)
Simulation complete CPU 0 instructions: 600000001 cycles: 187503741 cumulative IPC: 3.2 (Simulation time: 01 hr 07 min 23 sec)

ChampSim completed all CPUs

=== Simulation ===
CPU 0 runs traces/400.perlbench-41B.champsimtrace.xz
Region of Interest Statistics

CPU 0 cumulative IPC: 3.2 instructions: 600000001 cycles: 187503741
CPU 0 Branch Prediction Accuracy: 99.19% MPKI: 1.684 Average ROB Occupancy at Mispredict: 100.6
Branch type MPKI
BRANCH_DIRECT_JUMP: 0.0123
BRANCH_INDIRECT: 0.323
BRANCH_CONDITIONAL: 1.14
BRANCH_DIRECT_CALL: 0.0043
BRANCH_INDIRECT_CALL: 0.2
BRANCH_RETURN: 0.00828

LLC TOTAL        ACCESS:     939646 HIT:     855300 MISS:      84346
LLC LOAD         ACCESS:     401466 HIT:     366276 MISS:      35190
LLC RFO          ACCESS:      32528 HIT:      26689 MISS:       5839
LLC PREFETCH     ACCESS:     401466 HIT:     366205 MISS:      35261
LLC WRITE        ACCESS:      85114 HIT:      84377 MISS:        737
LLC TRANSLATION  ACCESS:      19072 HIT:      11753 MISS:       7319
LLC PREFETCH REQUESTED:     401466 ISSUED:     401466 USEFUL:      13025 USELESS:       6114
LLC AVERAGE MISS LATENCY: 562.8 cycles
cpu0_DTLB TOTAL        ACCESS:  129743252 HIT:  129042274 MISS:     700978
cpu0_DTLB LOAD         ACCESS:  129743252 HIT:  129042274 MISS:     700978
cpu0_DTLB RFO          ACCESS:          0 HIT:          0 MISS:          0
cpu0_DTLB PREFETCH     ACCESS:          0 HIT:          0 MISS:          0
cpu0_DTLB WRITE        ACCESS:          0 HIT:          0 MISS:          0
cpu0_DTLB TRANSLATION  ACCESS:          0 HIT:          0 MISS:          0
cpu0_DTLB PREFETCH REQUESTED:          0 ISSUED:          0 USEFUL:          0 USELESS:          0
cpu0_DTLB AVERAGE MISS LATENCY: 11.11 cycles
cpu0_ITLB TOTAL        ACCESS:    4859265 HIT:    4797086 MISS:      62179
cpu0_ITLB LOAD         ACCESS:    4859265 HIT:    4797086 MISS:      62179
cpu0_ITLB RFO          ACCESS:          0 HIT:          0 MISS:          0
cpu0_ITLB PREFETCH     ACCESS:          0 HIT:          0 MISS:          0
cpu0_ITLB WRITE        ACCESS:          0 HIT:          0 MISS:          0
cpu0_ITLB TRANSLATION  ACCESS:          0 HIT:          0 MISS:          0
cpu0_ITLB PREFETCH REQUESTED:          0 ISSUED:          0 USEFUL:          0 USELESS:          0
cpu0_ITLB AVERAGE MISS LATENCY: 4.402 cycles
cpu0_L1D TOTAL        ACCESS:  174374584 HIT:  172641853 MISS:    1732731
cpu0_L1D LOAD         ACCESS:   91351489 HIT:   90004079 MISS:    1347410
cpu0_L1D RFO          ACCESS:          0 HIT:          0 MISS:          0
cpu0_L1D PREFETCH     ACCESS:          0 HIT:          0 MISS:          0
cpu0_L1D WRITE        ACCESS:   82998626 HIT:   82636704 MISS:     361922
cpu0_L1D TRANSLATION  ACCESS:      24469 HIT:       1070 MISS:      23399
cpu0_L1D PREFETCH REQUESTED:          0 ISSUED:          0 USEFUL:          0 USELESS:          0
cpu0_L1D AVERAGE MISS LATENCY: 24.79 cycles
cpu0_L1I TOTAL        ACCESS:    5639296 HIT:    4835406 MISS:     803890
cpu0_L1I LOAD         ACCESS:    5639296 HIT:    4835406 MISS:     803890
cpu0_L1I RFO          ACCESS:          0 HIT:          0 MISS:          0
cpu0_L1I PREFETCH     ACCESS:          0 HIT:          0 MISS:          0
cpu0_L1I WRITE        ACCESS:          0 HIT:          0 MISS:          0
cpu0_L1I TRANSLATION  ACCESS:          0 HIT:          0 MISS:          0
cpu0_L1I PREFETCH REQUESTED:          0 ISSUED:          0 USEFUL:          0 USELESS:          0
cpu0_L1I AVERAGE MISS LATENCY: 8.307 cycles
cpu0_L2C TOTAL        ACCESS:    1668289 HIT:    1213412 MISS:     454877
cpu0_L2C LOAD         ACCESS:    1315322 HIT:     913856 MISS:     401466
cpu0_L2C RFO          ACCESS:      89544 HIT:      57016 MISS:      32528
cpu0_L2C PREFETCH     ACCESS:          0 HIT:          0 MISS:          0
cpu0_L2C WRITE        ACCESS:     240105 HIT:     238294 MISS:       1811
cpu0_L2C TRANSLATION  ACCESS:      23318 HIT:       4246 MISS:      19072
cpu0_L2C PREFETCH REQUESTED:          0 ISSUED:          0 USEFUL:          0 USELESS:          0
cpu0_L2C AVERAGE MISS LATENCY: 87.36 cycles
cpu0_STLB TOTAL        ACCESS:     507830 HIT:     485042 MISS:      22788
cpu0_STLB LOAD         ACCESS:     507830 HIT:     485042 MISS:      22788
cpu0_STLB RFO          ACCESS:          0 HIT:          0 MISS:          0
cpu0_STLB PREFETCH     ACCESS:          0 HIT:          0 MISS:          0
cpu0_STLB WRITE        ACCESS:          0 HIT:          0 MISS:          0
cpu0_STLB TRANSLATION  ACCESS:          0 HIT:          0 MISS:          0
cpu0_STLB PREFETCH REQUESTED:          0 ISSUED:          0 USEFUL:          0 USELESS:          0
cpu0_STLB AVERAGE MISS LATENCY: 219.1 cycles

DRAM Statistics

Channel 0 RQ ROW_BUFFER_HIT:      14851
  ROW_BUFFER_MISS:      54674
 AVG DBUS CONGESTED CYCLE: 3.863
WQ ROW_BUFFER_HIT: Channel 0 
  ROW_BUFFER_MISS:       2260
  FULL:       6355
