WARNING: physical memory size is smaller than virtual memory size.

*** ChampSim Multicore Out-of-Order Simulator ***
Warmup Instructions: 50000000
Simulation Instructions: 600000000
Number of CPUs: 1
Page size: 4096

Off-chip DRAM Size: 4 GiB Channels: 1 Width: 64-bit Data Race: 3200 MT/s
Heartbeat CPU 0 instructions: 10000000 cycles: 2500061 heartbeat IPC: 4 cumulative IPC: 4 (Simulation time: 00 hr 00 min 58 sec)
Heartbeat CPU 0 instructions: 20000000 cycles: 5000061 heartbeat IPC: 4 cumulative IPC: 4 (Simulation time: 00 hr 01 min 59 sec)
Heartbeat CPU 0 instructions: 30000000 cycles: 7500061 heartbeat IPC: 4 cumulative IPC: 4 (Simulation time: 00 hr 03 min 05 sec)
Heartbeat CPU 0 instructions: 40000000 cycles: 10000061 heartbeat IPC: 4 cumulative IPC: 4 (Simulation time: 00 hr 04 min 17 sec)
Heartbeat CPU 0 instructions: 50000000 cycles: 12500061 heartbeat IPC: 4 cumulative IPC: 4 (Simulation time: 00 hr 05 min 27 sec)
Warmup finished CPU 0 instructions: 50000000 cycles: 12500062 cumulative IPC: 4 (Simulation time: 00 hr 05 min 27 sec)
Warmup complete CPU 0 instructions: 50000000 cycles: 12500062 cumulative IPC: 4 (Simulation time: 00 hr 05 min 27 sec)
Heartbeat CPU 0 instructions: 60000002 cycles: 16897168 heartbeat IPC: 2.274 cumulative IPC: 2.274 (Simulation time: 00 hr 07 min 02 sec)
Heartbeat CPU 0 instructions: 70000003 cycles: 21874323 heartbeat IPC: 2.009 cumulative IPC: 2.134 (Simulation time: 00 hr 08 min 40 sec)
Heartbeat CPU 0 instructions: 80000001 cycles: 27217652 heartbeat IPC: 1.871 cumulative IPC: 2.038 (Simulation time: 00 hr 10 min 20 sec)
Heartbeat CPU 0 instructions: 90000000 cycles: 31512174 heartbeat IPC: 2.329 cumulative IPC: 2.104 (Simulation time: 00 hr 11 min 55 sec)
Heartbeat CPU 0 instructions: 100000003 cycles: 36360283 heartbeat IPC: 2.063 cumulative IPC: 2.096 (Simulation time: 00 hr 13 min 43 sec)
Heartbeat CPU 0 instructions: 110000002 cycles: 41223823 heartbeat IPC: 2.056 cumulative IPC: 2.089 (Simulation time: 00 hr 15 min 26 sec)
Heartbeat CPU 0 instructions: 120000001 cycles: 46216185 heartbeat IPC: 2.003 cumulative IPC: 2.076 (Simulation time: 00 hr 17 min 11 sec)
Heartbeat CPU 0 instructions: 130000003 cycles: 50774631 heartbeat IPC: 2.194 cumulative IPC: 2.09 (Simulation time: 00 hr 18 min 56 sec)
Heartbeat CPU 0 instructions: 140000002 cycles: 55657500 heartbeat IPC: 2.048 cumulative IPC: 2.085 (Simulation time: 00 hr 20 min 45 sec)
Heartbeat CPU 0 instructions: 150000001 cycles: 60315882 heartbeat IPC: 2.147 cumulative IPC: 2.091 (Simulation time: 00 hr 22 min 35 sec)
Heartbeat CPU 0 instructions: 160000000 cycles: 64944965 heartbeat IPC: 2.16 cumulative IPC: 2.097 (Simulation time: 00 hr 24 min 23 sec)
Heartbeat CPU 0 instructions: 170000000 cycles: 70269944 heartbeat IPC: 1.878 cumulative IPC: 2.077 (Simulation time: 00 hr 26 min 25 sec)
Heartbeat CPU 0 instructions: 180000001 cycles: 75985244 heartbeat IPC: 1.75 cumulative IPC: 2.048 (Simulation time: 00 hr 27 min 47 sec)
Heartbeat CPU 0 instructions: 190000002 cycles: 80446549 heartbeat IPC: 2.241 cumulative IPC: 2.06 (Simulation time: 00 hr 28 min 35 sec)
Heartbeat CPU 0 instructions: 200000002 cycles: 85337187 heartbeat IPC: 2.045 cumulative IPC: 2.059 (Simulation time: 00 hr 29 min 24 sec)
Heartbeat CPU 0 instructions: 210000000 cycles: 90334775 heartbeat IPC: 2.001 cumulative IPC: 2.056 (Simulation time: 00 hr 30 min 14 sec)
Heartbeat CPU 0 instructions: 220000001 cycles: 95256096 heartbeat IPC: 2.032 cumulative IPC: 2.054 (Simulation time: 00 hr 31 min 04 sec)
Heartbeat CPU 0 instructions: 230000002 cycles: 100493367 heartbeat IPC: 1.909 cumulative IPC: 2.046 (Simulation time: 00 hr 31 min 56 sec)
Heartbeat CPU 0 instructions: 240000001 cycles: 105450230 heartbeat IPC: 2.017 cumulative IPC: 2.044 (Simulation time: 00 hr 32 min 46 sec)
Heartbeat CPU 0 instructions: 250000003 cycles: 110619443 heartbeat IPC: 1.935 cumulative IPC: 2.038 (Simulation time: 00 hr 33 min 37 sec)
Heartbeat CPU 0 instructions: 260000001 cycles: 115478521 heartbeat IPC: 2.058 cumulative IPC: 2.039 (Simulation time: 00 hr 34 min 28 sec)
Heartbeat CPU 0 instructions: 270000000 cycles: 122730418 heartbeat IPC: 1.379 cumulative IPC: 1.996 (Simulation time: 00 hr 35 min 35 sec)
Heartbeat CPU 0 instructions: 280000000 cycles: 132785131 heartbeat IPC: 0.9946 cumulative IPC: 1.912 (Simulation time: 00 hr 36 min 57 sec)
Heartbeat CPU 0 instructions: 290000001 cycles: 141452217 heartbeat IPC: 1.154 cumulative IPC: 1.861 (Simulation time: 00 hr 38 min 12 sec)
Heartbeat CPU 0 instructions: 300000003 cycles: 148704482 heartbeat IPC: 1.379 cumulative IPC: 1.835 (Simulation time: 00 hr 39 min 22 sec)
Heartbeat CPU 0 instructions: 310000004 cycles: 158625107 heartbeat IPC: 1.008 cumulative IPC: 1.779 (Simulation time: 00 hr 40 min 46 sec)
Heartbeat CPU 0 instructions: 320000004 cycles: 164156287 heartbeat IPC: 1.808 cumulative IPC: 1.78 (Simulation time: 00 hr 41 min 43 sec)
Heartbeat CPU 0 instructions: 330000000 cycles: 169376774 heartbeat IPC: 1.916 cumulative IPC: 1.785 (Simulation time: 00 hr 42 min 36 sec)
Heartbeat CPU 0 instructions: 340000001 cycles: 174237545 heartbeat IPC: 2.057 cumulative IPC: 1.793 (Simulation time: 00 hr 43 min 26 sec)
Heartbeat CPU 0 instructions: 350000000 cycles: 179280240 heartbeat IPC: 1.983 cumulative IPC: 1.799 (Simulation time: 00 hr 44 min 17 sec)
Heartbeat CPU 0 instructions: 360000003 cycles: 184115630 heartbeat IPC: 2.068 cumulative IPC: 1.806 (Simulation time: 00 hr 45 min 07 sec)
Heartbeat CPU 0 instructions: 370000001 cycles: 188939682 heartbeat IPC: 2.073 cumulative IPC: 1.814 (Simulation time: 00 hr 45 min 59 sec)
Heartbeat CPU 0 instructions: 380000004 cycles: 194019554 heartbeat IPC: 1.969 cumulative IPC: 1.818 (Simulation time: 00 hr 46 min 53 sec)
Heartbeat CPU 0 instructions: 390000002 cycles: 199079544 heartbeat IPC: 1.976 cumulative IPC: 1.822 (Simulation time: 00 hr 47 min 45 sec)
Heartbeat CPU 0 instructions: 400000000 cycles: 204189489 heartbeat IPC: 1.957 cumulative IPC: 1.826 (Simulation time: 00 hr 48 min 34 sec)
Heartbeat CPU 0 instructions: 410000000 cycles: 210533333 heartbeat IPC: 1.576 cumulative IPC: 1.818 (Simulation time: 00 hr 49 min 33 sec)
Heartbeat CPU 0 instructions: 420000001 cycles: 218677040 heartbeat IPC: 1.228 cumulative IPC: 1.795 (Simulation time: 00 hr 50 min 43 sec)
Heartbeat CPU 0 instructions: 430000000 cycles: 225253999 heartbeat IPC: 1.52 cumulative IPC: 1.786 (Simulation time: 00 hr 51 min 45 sec)
Heartbeat CPU 0 instructions: 440000002 cycles: 231762545 heartbeat IPC: 1.536 cumulative IPC: 1.779 (Simulation time: 00 hr 52 min 46 sec)
Heartbeat CPU 0 instructions: 450000001 cycles: 238171040 heartbeat IPC: 1.56 cumulative IPC: 1.772 (Simulation time: 00 hr 53 min 45 sec)
Heartbeat CPU 0 instructions: 460000002 cycles: 246463861 heartbeat IPC: 1.206 cumulative IPC: 1.752 (Simulation time: 00 hr 54 min 56 sec)
Heartbeat CPU 0 instructions: 470000000 cycles: 254227424 heartbeat IPC: 1.288 cumulative IPC: 1.737 (Simulation time: 00 hr 56 min 02 sec)
Heartbeat CPU 0 instructions: 480000000 cycles: 259351497 heartbeat IPC: 1.952 cumulative IPC: 1.742 (Simulation time: 00 hr 56 min 51 sec)
Heartbeat CPU 0 instructions: 490000001 cycles: 264589129 heartbeat IPC: 1.909 cumulative IPC: 1.745 (Simulation time: 00 hr 57 min 41 sec)
Heartbeat CPU 0 instructions: 500000002 cycles: 269768073 heartbeat IPC: 1.931 cumulative IPC: 1.749 (Simulation time: 00 hr 58 min 29 sec)
Heartbeat CPU 0 instructions: 510000000 cycles: 275046148 heartbeat IPC: 1.895 cumulative IPC: 1.752 (Simulation time: 00 hr 59 min 18 sec)
Heartbeat CPU 0 instructions: 520000000 cycles: 280360074 heartbeat IPC: 1.882 cumulative IPC: 1.755 (Simulation time: 01 hr 00 min 07 sec)
Heartbeat CPU 0 instructions: 530000001 cycles: 288502352 heartbeat IPC: 1.228 cumulative IPC: 1.739 (Simulation time: 01 hr 01 min 13 sec)
Heartbeat CPU 0 instructions: 540000000 cycles: 296413905 heartbeat IPC: 1.264 cumulative IPC: 1.726 (Simulation time: 01 hr 02 min 22 sec)
Heartbeat CPU 0 instructions: 550000002 cycles: 305325818 heartbeat IPC: 1.122 cumulative IPC: 1.708 (Simulation time: 01 hr 03 min 34 sec)
Heartbeat CPU 0 instructions: 560000004 cycles: 309822904 heartbeat IPC: 2.224 cumulative IPC: 1.715 (Simulation time: 01 hr 04 min 22 sec)
Heartbeat CPU 0 instructions: 570000001 cycles: 314196344 heartbeat IPC: 2.287 cumulative IPC: 1.724 (Simulation time: 01 hr 05 min 10 sec)
Heartbeat CPU 0 instructions: 580000003 cycles: 318362617 heartbeat IPC: 2.4 cumulative IPC: 1.733 (Simulation time: 01 hr 05 min 58 sec)
Heartbeat CPU 0 instructions: 590000001 cycles: 323207585 heartbeat IPC: 2.064 cumulative IPC: 1.738 (Simulation time: 01 hr 06 min 51 sec)
Heartbeat CPU 0 instructions: 600000003 cycles: 327815479 heartbeat IPC: 2.17 cumulative IPC: 1.744 (Simulation time: 01 hr 07 min 41 sec)
Heartbeat CPU 0 instructions: 610000001 cycles: 332631541 heartbeat IPC: 2.076 cumulative IPC: 1.749 (Simulation time: 01 hr 08 min 33 sec)
Heartbeat CPU 0 instructions: 620000000 cycles: 337660984 heartbeat IPC: 1.988 cumulative IPC: 1.753 (Simulation time: 01 hr 09 min 28 sec)
Heartbeat CPU 0 instructions: 630000002 cycles: 341878063 heartbeat IPC: 2.371 cumulative IPC: 1.761 (Simulation time: 01 hr 10 min 15 sec)
Heartbeat CPU 0 instructions: 640000004 cycles: 347169100 heartbeat IPC: 1.89 cumulative IPC: 1.763 (Simulation time: 01 hr 11 min 06 sec)
Heartbeat CPU 0 instructions: 650000001 cycles: 351919141 heartbeat IPC: 2.105 cumulative IPC: 1.768 (Simulation time: 01 hr 11 min 55 sec)
Simulation finished CPU 0 instructions: 600000001 cycles: 339419080 cumulative IPC: 1.768 (Simulation time: 01 hr 11 min 55 sec)
Simulation complete CPU 0 instructions: 600000001 cycles: 339419080 cumulative IPC: 1.768 (Simulation time: 01 hr 11 min 55 sec)

ChampSim completed all CPUs

=== Simulation ===
CPU 0 runs traces/400.perlbench-50B.champsimtrace.xz
Region of Interest Statistics

CPU 0 cumulative IPC: 1.768 instructions: 600000001 cycles: 339419080
CPU 0 Branch Prediction Accuracy: 93.83% MPKI: 12.71 Average ROB Occupancy at Mispredict: 29.17
Branch type MPKI
BRANCH_DIRECT_JUMP: 0.0176
BRANCH_INDIRECT: 0.38
BRANCH_CONDITIONAL: 11.9
BRANCH_DIRECT_CALL: 0.0067
BRANCH_INDIRECT_CALL: 0.431
BRANCH_RETURN: 0.0161

LLC TOTAL        ACCESS:    1371182 HIT:    1113111 MISS:     258071
LLC LOAD         ACCESS:     586406 HIT:     471036 MISS:     115370
LLC RFO          ACCESS:      48054 HIT:      36885 MISS:      11169
LLC PREFETCH     ACCESS:     586406 HIT:     464520 MISS:     121886
LLC WRITE        ACCESS:     128213 HIT:     128207 MISS:          6
LLC TRANSLATION  ACCESS:      22103 HIT:      12463 MISS:       9640
LLC PREFETCH REQUESTED:     586406 ISSUED:     586406 USEFUL:      47124 USELESS:      21403
LLC AVERAGE MISS LATENCY: 465.7 cycles
cpu0_DTLB TOTAL        ACCESS:  156796394 HIT:  155495482 MISS:    1300912
cpu0_DTLB LOAD         ACCESS:  156796394 HIT:  155495482 MISS:    1300912
cpu0_DTLB RFO          ACCESS:          0 HIT:          0 MISS:          0
cpu0_DTLB PREFETCH     ACCESS:          0 HIT:          0 MISS:          0
cpu0_DTLB WRITE        ACCESS:          0 HIT:          0 MISS:          0
cpu0_DTLB TRANSLATION  ACCESS:          0 HIT:          0 MISS:          0
cpu0_DTLB PREFETCH REQUESTED:          0 ISSUED:          0 USEFUL:          0 USELESS:          0
cpu0_DTLB AVERAGE MISS LATENCY: 10.5 cycles
cpu0_ITLB TOTAL        ACCESS:    8931743 HIT:    8733144 MISS:     198599
cpu0_ITLB LOAD         ACCESS:    8931743 HIT:    8733144 MISS:     198599
cpu0_ITLB RFO          ACCESS:          0 HIT:          0 MISS:          0
cpu0_ITLB PREFETCH     ACCESS:          0 HIT:          0 MISS:          0
cpu0_ITLB WRITE        ACCESS:          0 HIT:          0 MISS:          0
cpu0_ITLB TRANSLATION  ACCESS:          0 HIT:          0 MISS:          0
cpu0_ITLB PREFETCH REQUESTED:          0 ISSUED:          0 USEFUL:          0 USELESS:          0
cpu0_ITLB AVERAGE MISS LATENCY: 2.737 cycles
cpu0_L1D TOTAL        ACCESS:  203658595 HIT:  200013427 MISS:    3645168
cpu0_L1D LOAD         ACCESS:  117981156 HIT:  114980670 MISS:    3000486
cpu0_L1D RFO          ACCESS:          0 HIT:          0 MISS:          0
cpu0_L1D PREFETCH     ACCESS:          0 HIT:          0 MISS:          0
cpu0_L1D WRITE        ACCESS:   85648896 HIT:   85031348 MISS:     617548
cpu0_L1D TRANSLATION  ACCESS:      28543 HIT:       1409 MISS:      27134
cpu0_L1D PREFETCH REQUESTED:          0 ISSUED:          0 USEFUL:          0 USELESS:          0
cpu0_L1D AVERAGE MISS LATENCY: 25.74 cycles
cpu0_L1I TOTAL        ACCESS:   10370606 HIT:    8573461 MISS:    1797145
cpu0_L1I LOAD         ACCESS:   10370606 HIT:    8573461 MISS:    1797145
cpu0_L1I RFO          ACCESS:          0 HIT:          0 MISS:          0
cpu0_L1I PREFETCH     ACCESS:          0 HIT:          0 MISS:          0
cpu0_L1I WRITE        ACCESS:          0 HIT:          0 MISS:          0
cpu0_L1I TRANSLATION  ACCESS:          0 HIT:          0 MISS:          0
cpu0_L1I PREFETCH REQUESTED:          0 ISSUED:          0 USEFUL:          0 USELESS:          0
cpu0_L1I AVERAGE MISS LATENCY: 9.022 cycles
cpu0_L2C TOTAL        ACCESS:    3837214 HIT:    3177268 MISS:     659946
cpu0_L2C LOAD         ACCESS:    3106452 HIT:    2520046 MISS:     586406
cpu0_L2C RFO          ACCESS:     191797 HIT:     143743 MISS:      48054
cpu0_L2C PREFETCH     ACCESS:          0 HIT:          0 MISS:          0
cpu0_L2C WRITE        ACCESS:     511909 HIT:     508526 MISS:       3383
cpu0_L2C TRANSLATION  ACCESS:      27056 HIT:       4953 MISS:      22103
cpu0_L2C PREFETCH REQUESTED:          0 ISSUED:          0 USEFUL:          0 USELESS:          0
cpu0_L2C AVERAGE MISS LATENCY: 125 cycles
cpu0_STLB TOTAL        ACCESS:    1009200 HIT:     982508 MISS:      26692
cpu0_STLB LOAD         ACCESS:    1009200 HIT:     982508 MISS:      26692
cpu0_STLB RFO          ACCESS:          0 HIT:          0 MISS:          0
cpu0_STLB PREFETCH     ACCESS:          0 HIT:          0 MISS:          0
cpu0_STLB WRITE        ACCESS:          0 HIT:          0 MISS:          0
cpu0_STLB TRANSLATION  ACCESS:          0 HIT:          0 MISS:          0
cpu0_STLB PREFETCH REQUESTED:          0 ISSUED:          0 USEFUL:          0 USELESS:          0
cpu0_STLB AVERAGE MISS LATENCY: 285 cycles

DRAM Statistics

Channel 0 RQ ROW_BUFFER_HIT:      60688
  ROW_BUFFER_MISS:     158167
 AVG DBUS CONGESTED CYCLE: 3.806
WQ ROW_BUFFER_HIT: Channel 0 
  ROW_BUFFER_MISS:       4406
  FULL:       7449
