WARNING: physical memory size is smaller than virtual memory size.

*** ChampSim Multicore Out-of-Order Simulator ***
Warmup Instructions: 50000000
Simulation Instructions: 600000000
Number of CPUs: 1
Page size: 4096

Off-chip DRAM Size: 4 GiB Channels: 1 Width: 64-bit Data Race: 3200 MT/s
Heartbeat CPU 0 instructions: 10000001 cycles: 2500318 heartbeat IPC: 3.999 cumulative IPC: 3.999 (Simulation time: 00 hr 00 min 36 sec)
Heartbeat CPU 0 instructions: 20000002 cycles: 5037114 heartbeat IPC: 3.942 cumulative IPC: 3.971 (Simulation time: 00 hr 01 min 15 sec)
Heartbeat CPU 0 instructions: 30000002 cycles: 7537114 heartbeat IPC: 4 cumulative IPC: 3.98 (Simulation time: 00 hr 01 min 49 sec)
Heartbeat CPU 0 instructions: 40000002 cycles: 10037114 heartbeat IPC: 4 cumulative IPC: 3.985 (Simulation time: 00 hr 02 min 23 sec)
Heartbeat CPU 0 instructions: 50000002 cycles: 12537114 heartbeat IPC: 4 cumulative IPC: 3.988 (Simulation time: 00 hr 02 min 57 sec)
Warmup finished CPU 0 instructions: 50000002 cycles: 12537115 cumulative IPC: 3.988 (Simulation time: 00 hr 02 min 57 sec)
Warmup complete CPU 0 instructions: 50000002 cycles: 12537115 cumulative IPC: 3.988 (Simulation time: 00 hr 02 min 57 sec)
Heartbeat CPU 0 instructions: 60000000 cycles: 17680097 heartbeat IPC: 1.944 cumulative IPC: 1.944 (Simulation time: 00 hr 03 min 48 sec)
Heartbeat CPU 0 instructions: 70000002 cycles: 22549235 heartbeat IPC: 2.054 cumulative IPC: 1.998 (Simulation time: 00 hr 04 min 39 sec)
Heartbeat CPU 0 instructions: 80000001 cycles: 27883056 heartbeat IPC: 1.875 cumulative IPC: 1.955 (Simulation time: 00 hr 05 min 30 sec)
Heartbeat CPU 0 instructions: 90000001 cycles: 32729210 heartbeat IPC: 2.063 cumulative IPC: 1.981 (Simulation time: 00 hr 06 min 19 sec)
Heartbeat CPU 0 instructions: 100000000 cycles: 37813391 heartbeat IPC: 1.967 cumulative IPC: 1.978 (Simulation time: 00 hr 07 min 09 sec)
Heartbeat CPU 0 instructions: 110000000 cycles: 42675740 heartbeat IPC: 2.057 cumulative IPC: 1.991 (Simulation time: 00 hr 07 min 59 sec)
Heartbeat CPU 0 instructions: 120000001 cycles: 47847854 heartbeat IPC: 1.933 cumulative IPC: 1.982 (Simulation time: 00 hr 08 min 48 sec)
Heartbeat CPU 0 instructions: 130000001 cycles: 52976509 heartbeat IPC: 1.95 cumulative IPC: 1.978 (Simulation time: 00 hr 09 min 37 sec)
Heartbeat CPU 0 instructions: 140000001 cycles: 58252146 heartbeat IPC: 1.896 cumulative IPC: 1.969 (Simulation time: 00 hr 10 min 26 sec)
Heartbeat CPU 0 instructions: 150000001 cycles: 63538922 heartbeat IPC: 1.892 cumulative IPC: 1.961 (Simulation time: 00 hr 11 min 14 sec)
Heartbeat CPU 0 instructions: 160000004 cycles: 68714286 heartbeat IPC: 1.932 cumulative IPC: 1.958 (Simulation time: 00 hr 12 min 02 sec)
Heartbeat CPU 0 instructions: 170000000 cycles: 76441369 heartbeat IPC: 1.294 cumulative IPC: 1.878 (Simulation time: 00 hr 13 min 08 sec)
Heartbeat CPU 0 instructions: 180000004 cycles: 83391753 heartbeat IPC: 1.439 cumulative IPC: 1.835 (Simulation time: 00 hr 14 min 14 sec)
Heartbeat CPU 0 instructions: 190000001 cycles: 89705754 heartbeat IPC: 1.584 cumulative IPC: 1.814 (Simulation time: 00 hr 15 min 15 sec)
Heartbeat CPU 0 instructions: 200000003 cycles: 94198746 heartbeat IPC: 2.226 cumulative IPC: 1.837 (Simulation time: 00 hr 16 min 04 sec)
Heartbeat CPU 0 instructions: 210000001 cycles: 98910638 heartbeat IPC: 2.122 cumulative IPC: 1.852 (Simulation time: 00 hr 16 min 55 sec)
Heartbeat CPU 0 instructions: 220000000 cycles: 103614169 heartbeat IPC: 2.126 cumulative IPC: 1.867 (Simulation time: 00 hr 17 min 45 sec)
Heartbeat CPU 0 instructions: 230000002 cycles: 108514443 heartbeat IPC: 2.041 cumulative IPC: 1.875 (Simulation time: 00 hr 18 min 35 sec)
Heartbeat CPU 0 instructions: 240000000 cycles: 113110210 heartbeat IPC: 2.176 cumulative IPC: 1.889 (Simulation time: 00 hr 19 min 21 sec)
Heartbeat CPU 0 instructions: 250000000 cycles: 117968684 heartbeat IPC: 2.058 cumulative IPC: 1.897 (Simulation time: 00 hr 20 min 07 sec)
Heartbeat CPU 0 instructions: 260000000 cycles: 122694204 heartbeat IPC: 2.116 cumulative IPC: 1.906 (Simulation time: 00 hr 20 min 56 sec)
Heartbeat CPU 0 instructions: 270000002 cycles: 127375297 heartbeat IPC: 2.136 cumulative IPC: 1.916 (Simulation time: 00 hr 21 min 44 sec)
Heartbeat CPU 0 instructions: 280000002 cycles: 132062246 heartbeat IPC: 2.134 cumulative IPC: 1.924 (Simulation time: 00 hr 22 min 33 sec)
Heartbeat CPU 0 instructions: 290000001 cycles: 137252311 heartbeat IPC: 1.927 cumulative IPC: 1.924 (Simulation time: 00 hr 23 min 23 sec)
Heartbeat CPU 0 instructions: 300000003 cycles: 142042335 heartbeat IPC: 2.088 cumulative IPC: 1.93 (Simulation time: 00 hr 24 min 11 sec)
Heartbeat CPU 0 instructions: 310000001 cycles: 147023626 heartbeat IPC: 2.008 cumulative IPC: 1.933 (Simulation time: 00 hr 24 min 58 sec)
Heartbeat CPU 0 instructions: 320000003 cycles: 152006236 heartbeat IPC: 2.007 cumulative IPC: 1.936 (Simulation time: 00 hr 25 min 46 sec)
Heartbeat CPU 0 instructions: 330000003 cycles: 156978603 heartbeat IPC: 2.011 cumulative IPC: 1.939 (Simulation time: 00 hr 26 min 32 sec)
Heartbeat CPU 0 instructions: 340000000 cycles: 163816662 heartbeat IPC: 1.462 cumulative IPC: 1.917 (Simulation time: 00 hr 27 min 37 sec)
Heartbeat CPU 0 instructions: 350000000 cycles: 170918158 heartbeat IPC: 1.408 cumulative IPC: 1.894 (Simulation time: 00 hr 28 min 42 sec)
Heartbeat CPU 0 instructions: 360000004 cycles: 177641437 heartbeat IPC: 1.487 cumulative IPC: 1.878 (Simulation time: 00 hr 29 min 46 sec)
Heartbeat CPU 0 instructions: 370000000 cycles: 181864326 heartbeat IPC: 2.368 cumulative IPC: 1.89 (Simulation time: 00 hr 30 min 32 sec)
Heartbeat CPU 0 instructions: 380000001 cycles: 186606347 heartbeat IPC: 2.109 cumulative IPC: 1.896 (Simulation time: 00 hr 31 min 22 sec)
Heartbeat CPU 0 instructions: 390000002 cycles: 191310134 heartbeat IPC: 2.126 cumulative IPC: 1.902 (Simulation time: 00 hr 32 min 11 sec)
Heartbeat CPU 0 instructions: 400000004 cycles: 196166668 heartbeat IPC: 2.059 cumulative IPC: 1.906 (Simulation time: 00 hr 33 min 02 sec)
Heartbeat CPU 0 instructions: 410000000 cycles: 200684760 heartbeat IPC: 2.213 cumulative IPC: 1.913 (Simulation time: 00 hr 33 min 49 sec)
Heartbeat CPU 0 instructions: 420000000 cycles: 205502104 heartbeat IPC: 2.076 cumulative IPC: 1.917 (Simulation time: 00 hr 34 min 39 sec)
Heartbeat CPU 0 instructions: 430000001 cycles: 209816974 heartbeat IPC: 2.318 cumulative IPC: 1.926 (Simulation time: 00 hr 35 min 24 sec)
Heartbeat CPU 0 instructions: 440000000 cycles: 214940584 heartbeat IPC: 1.952 cumulative IPC: 1.927 (Simulation time: 00 hr 36 min 12 sec)
Heartbeat CPU 0 instructions: 450000002 cycles: 219400356 heartbeat IPC: 2.242 cumulative IPC: 1.934 (Simulation time: 00 hr 36 min 57 sec)
Heartbeat CPU 0 instructions: 460000000 cycles: 224008973 heartbeat IPC: 2.17 cumulative IPC: 1.939 (Simulation time: 00 hr 37 min 43 sec)
Heartbeat CPU 0 instructions: 470000000 cycles: 228828825 heartbeat IPC: 2.075 cumulative IPC: 1.942 (Simulation time: 00 hr 38 min 31 sec)
Heartbeat CPU 0 instructions: 480000003 cycles: 233424597 heartbeat IPC: 2.176 cumulative IPC: 1.947 (Simulation time: 00 hr 39 min 21 sec)
Heartbeat CPU 0 instructions: 490000000 cycles: 237915752 heartbeat IPC: 2.227 cumulative IPC: 1.952 (Simulation time: 00 hr 40 min 08 sec)
Heartbeat CPU 0 instructions: 500000000 cycles: 242819883 heartbeat IPC: 2.039 cumulative IPC: 1.954 (Simulation time: 00 hr 40 min 56 sec)
Heartbeat CPU 0 instructions: 510000003 cycles: 248251077 heartbeat IPC: 1.841 cumulative IPC: 1.952 (Simulation time: 00 hr 41 min 46 sec)
Heartbeat CPU 0 instructions: 520000001 cycles: 252734019 heartbeat IPC: 2.231 cumulative IPC: 1.957 (Simulation time: 00 hr 42 min 31 sec)
Heartbeat CPU 0 instructions: 530000002 cycles: 257700505 heartbeat IPC: 2.013 cumulative IPC: 1.958 (Simulation time: 00 hr 43 min 19 sec)
Heartbeat CPU 0 instructions: 540000000 cycles: 262646827 heartbeat IPC: 2.022 cumulative IPC: 1.959 (Simulation time: 00 hr 44 min 08 sec)
Heartbeat CPU 0 instructions: 550000001 cycles: 267318741 heartbeat IPC: 2.14 cumulative IPC: 1.962 (Simulation time: 00 hr 44 min 55 sec)
Heartbeat CPU 0 instructions: 560000000 cycles: 272270221 heartbeat IPC: 2.02 cumulative IPC: 1.964 (Simulation time: 00 hr 45 min 44 sec)
Heartbeat CPU 0 instructions: 570000004 cycles: 277836671 heartbeat IPC: 1.796 cumulative IPC: 1.96 (Simulation time: 00 hr 46 min 38 sec)
Heartbeat CPU 0 instructions: 580000003 cycles: 285267040 heartbeat IPC: 1.346 cumulative IPC: 1.943 (Simulation time: 00 hr 47 min 45 sec)
Heartbeat CPU 0 instructions: 590000002 cycles: 293205016 heartbeat IPC: 1.26 cumulative IPC: 1.924 (Simulation time: 00 hr 48 min 55 sec)
Heartbeat CPU 0 instructions: 600000000 cycles: 297572041 heartbeat IPC: 2.29 cumulative IPC: 1.93 (Simulation time: 00 hr 49 min 41 sec)
Heartbeat CPU 0 instructions: 610000002 cycles: 301904724 heartbeat IPC: 2.308 cumulative IPC: 1.935 (Simulation time: 00 hr 50 min 28 sec)
Heartbeat CPU 0 instructions: 620000000 cycles: 306622039 heartbeat IPC: 2.12 cumulative IPC: 1.938 (Simulation time: 00 hr 51 min 19 sec)
Heartbeat CPU 0 instructions: 630000002 cycles: 311569324 heartbeat IPC: 2.021 cumulative IPC: 1.94 (Simulation time: 00 hr 52 min 08 sec)
Heartbeat CPU 0 instructions: 640000001 cycles: 316366517 heartbeat IPC: 2.085 cumulative IPC: 1.942 (Simulation time: 00 hr 53 min 02 sec)
Heartbeat CPU 0 instructions: 650000000 cycles: 320865967 heartbeat IPC: 2.222 cumulative IPC: 1.946 (Simulation time: 00 hr 53 min 53 sec)
Simulation finished CPU 0 instructions: 600000001 cycles: 308328854 cumulative IPC: 1.946 (Simulation time: 00 hr 53 min 53 sec)
Simulation complete CPU 0 instructions: 600000001 cycles: 308328854 cumulative IPC: 1.946 (Simulation time: 00 hr 53 min 53 sec)

ChampSim completed all CPUs

=== Simulation ===
CPU 0 runs traces/400.perlbench-41B.champsimtrace.xz
Region of Interest Statistics

CPU 0 cumulative IPC: 1.946 instructions: 600000001 cycles: 308328854
CPU 0 Branch Prediction Accuracy: 93.95% MPKI: 12.5 Average ROB Occupancy at Mispredict: 29.29
Branch type MPKI
BRANCH_DIRECT_JUMP: 0.0123
BRANCH_INDIRECT: 0.323
BRANCH_CONDITIONAL: 12
BRANCH_DIRECT_CALL: 0.0043
BRANCH_INDIRECT_CALL: 0.2
BRANCH_RETURN: 0.00828

LLC TOTAL        ACCESS:     939887 HIT:     831723 MISS:     108164
LLC LOAD         ACCESS:     401301 HIT:     354399 MISS:      46902
LLC RFO          ACCESS:      32797 HIT:      27357 MISS:       5440
LLC PREFETCH     ACCESS:     401301 HIT:     352916 MISS:      48385
LLC WRITE        ACCESS:      85396 HIT:      85310 MISS:         86
LLC TRANSLATION  ACCESS:      19092 HIT:      11741 MISS:       7351
LLC PREFETCH REQUESTED:     401301 ISSUED:     401301 USEFUL:      17918 USELESS:      10640
LLC AVERAGE MISS LATENCY: 458.1 cycles
cpu0_DTLB TOTAL        ACCESS:  153695350 HIT:  153018873 MISS:     676477
cpu0_DTLB LOAD         ACCESS:  153695350 HIT:  153018873 MISS:     676477
cpu0_DTLB RFO          ACCESS:          0 HIT:          0 MISS:          0
cpu0_DTLB PREFETCH     ACCESS:          0 HIT:          0 MISS:          0
cpu0_DTLB WRITE        ACCESS:          0 HIT:          0 MISS:          0
cpu0_DTLB TRANSLATION  ACCESS:          0 HIT:          0 MISS:          0
cpu0_DTLB PREFETCH REQUESTED:          0 ISSUED:          0 USEFUL:          0 USELESS:          0
cpu0_DTLB AVERAGE MISS LATENCY: 11.7 cycles
cpu0_ITLB TOTAL        ACCESS:    4838702 HIT:    4780789 MISS:      57913
cpu0_ITLB LOAD         ACCESS:    4838702 HIT:    4780789 MISS:      57913
cpu0_ITLB RFO          ACCESS:          0 HIT:          0 MISS:          0
cpu0_ITLB PREFETCH     ACCESS:          0 HIT:          0 MISS:          0
cpu0_ITLB WRITE        ACCESS:          0 HIT:          0 MISS:          0
cpu0_ITLB TRANSLATION  ACCESS:          0 HIT:          0 MISS:          0
cpu0_ITLB PREFETCH REQUESTED:          0 ISSUED:          0 USEFUL:          0 USELESS:          0
cpu0_ITLB AVERAGE MISS LATENCY: 4.965 cycles
cpu0_L1D TOTAL        ACCESS:  200326030 HIT:  198639179 MISS:    1686851
cpu0_L1D LOAD         ACCESS:  117083008 HIT:  115767317 MISS:    1315691
cpu0_L1D RFO          ACCESS:          0 HIT:          0 MISS:          0
cpu0_L1D PREFETCH     ACCESS:          0 HIT:          0 MISS:          0
cpu0_L1D WRITE        ACCESS:   83218559 HIT:   82870820 MISS:     347739
cpu0_L1D TRANSLATION  ACCESS:      24463 HIT:       1042 MISS:      23421
cpu0_L1D PREFETCH REQUESTED:          0 ISSUED:          0 USEFUL:          0 USELESS:          0
cpu0_L1D AVERAGE MISS LATENCY: 26.32 cycles
cpu0_L1I TOTAL        ACCESS:    5580952 HIT:    4819432 MISS:     761520
cpu0_L1I LOAD         ACCESS:    5580952 HIT:    4819432 MISS:     761520
cpu0_L1I RFO          ACCESS:          0 HIT:          0 MISS:          0
cpu0_L1I PREFETCH     ACCESS:          0 HIT:          0 MISS:          0
cpu0_L1I WRITE        ACCESS:          0 HIT:          0 MISS:          0
cpu0_L1I TRANSLATION  ACCESS:          0 HIT:          0 MISS:          0
cpu0_L1I PREFETCH REQUESTED:          0 ISSUED:          0 USEFUL:          0 USELESS:          0
cpu0_L1I AVERAGE MISS LATENCY: 8.848 cycles
cpu0_L2C TOTAL        ACCESS:    1668024 HIT:    1212995 MISS:     455029
cpu0_L2C LOAD         ACCESS:    1317195 HIT:     915894 MISS:     401301
cpu0_L2C RFO          ACCESS:      88567 HIT:      55770 MISS:      32797
cpu0_L2C PREFETCH     ACCESS:          0 HIT:          0 MISS:          0
cpu0_L2C WRITE        ACCESS:     238918 HIT:     237079 MISS:       1839
cpu0_L2C TRANSLATION  ACCESS:      23344 HIT:       4252 MISS:      19092
cpu0_L2C PREFETCH REQUESTED:          0 ISSUED:          0 USEFUL:          0 USELESS:          0
cpu0_L2C AVERAGE MISS LATENCY: 86.73 cycles
cpu0_STLB TOTAL        ACCESS:     505100 HIT:     482311 MISS:      22789
cpu0_STLB LOAD         ACCESS:     505100 HIT:     482311 MISS:      22789
cpu0_STLB RFO          ACCESS:          0 HIT:          0 MISS:          0
cpu0_STLB PREFETCH     ACCESS:          0 HIT:          0 MISS:          0
cpu0_STLB WRITE        ACCESS:          0 HIT:          0 MISS:          0
cpu0_STLB TRANSLATION  ACCESS:          0 HIT:          0 MISS:          0
cpu0_STLB PREFETCH REQUESTED:          0 ISSUED:          0 USEFUL:          0 USELESS:          0
cpu0_STLB AVERAGE MISS LATENCY: 215.1 cycles

DRAM Statistics

Channel 0 RQ ROW_BUFFER_HIT:      22245
  ROW_BUFFER_MISS:      68871
 AVG DBUS CONGESTED CYCLE: 3.786
WQ ROW_BUFFER_HIT: Channel 0 
  ROW_BUFFER_MISS:       2578
  FULL:       3293
Final OPTGen Hits: 11902
Final OPTGen Access: 9186
Final OPTGEN Hit Rate: 129.567
