WARNING: physical memory size is smaller than virtual memory size.

*** ChampSim Multicore Out-of-Order Simulator ***
Warmup Instructions: 50000000
Simulation Instructions: 600000000
Number of CPUs: 1
Page size: 4096

Off-chip DRAM Size: 4 GiB Channels: 1 Width: 64-bit Data Race: 3200 MT/s
Heartbeat CPU 0 instructions: 10000001 cycles: 2500318 heartbeat IPC: 3.999 cumulative IPC: 3.999 (Simulation time: 00 hr 03 min 50 sec)
Heartbeat CPU 0 instructions: 20000002 cycles: 5037113 heartbeat IPC: 3.942 cumulative IPC: 3.971 (Simulation time: 00 hr 07 min 47 sec)
Heartbeat CPU 0 instructions: 30000002 cycles: 7537113 heartbeat IPC: 4 cumulative IPC: 3.98 (Simulation time: 00 hr 11 min 12 sec)
Heartbeat CPU 0 instructions: 40000002 cycles: 10037113 heartbeat IPC: 4 cumulative IPC: 3.985 (Simulation time: 00 hr 14 min 39 sec)
Heartbeat CPU 0 instructions: 50000002 cycles: 12537113 heartbeat IPC: 4 cumulative IPC: 3.988 (Simulation time: 00 hr 18 min 18 sec)
Warmup finished CPU 0 instructions: 50000002 cycles: 12537114 cumulative IPC: 3.988 (Simulation time: 00 hr 18 min 18 sec)
Warmup complete CPU 0 instructions: 50000002 cycles: 12537114 cumulative IPC: 3.988 (Simulation time: 00 hr 18 min 18 sec)
Heartbeat CPU 0 instructions: 60000000 cycles: 16916446 heartbeat IPC: 2.283 cumulative IPC: 2.283 (Simulation time: 00 hr 23 min 21 sec)
Heartbeat CPU 0 instructions: 70000002 cycles: 21007703 heartbeat IPC: 2.444 cumulative IPC: 2.361 (Simulation time: 00 hr 28 min 06 sec)
Heartbeat CPU 0 instructions: 80000001 cycles: 25462993 heartbeat IPC: 2.245 cumulative IPC: 2.321 (Simulation time: 00 hr 33 min 03 sec)
Heartbeat CPU 0 instructions: 90000003 cycles: 29379363 heartbeat IPC: 2.553 cumulative IPC: 2.375 (Simulation time: 00 hr 37 min 55 sec)
Heartbeat CPU 0 instructions: 100000000 cycles: 33456172 heartbeat IPC: 2.453 cumulative IPC: 2.39 (Simulation time: 00 hr 42 min 38 sec)
Heartbeat CPU 0 instructions: 110000000 cycles: 37544228 heartbeat IPC: 2.446 cumulative IPC: 2.399 (Simulation time: 00 hr 47 min 21 sec)
Heartbeat CPU 0 instructions: 120000001 cycles: 41469917 heartbeat IPC: 2.547 cumulative IPC: 2.419 (Simulation time: 00 hr 52 min 01 sec)
Heartbeat CPU 0 instructions: 130000001 cycles: 45174998 heartbeat IPC: 2.699 cumulative IPC: 2.451 (Simulation time: 00 hr 56 min 35 sec)
Heartbeat CPU 0 instructions: 140000001 cycles: 49289792 heartbeat IPC: 2.43 cumulative IPC: 2.449 (Simulation time: 01 hr 01 min 18 sec)
Heartbeat CPU 0 instructions: 150000001 cycles: 53395838 heartbeat IPC: 2.435 cumulative IPC: 2.447 (Simulation time: 01 hr 06 min 04 sec)
Heartbeat CPU 0 instructions: 160000004 cycles: 57594459 heartbeat IPC: 2.382 cumulative IPC: 2.441 (Simulation time: 01 hr 10 min 51 sec)
Heartbeat CPU 0 instructions: 170000001 cycles: 65633676 heartbeat IPC: 1.244 cumulative IPC: 2.26 (Simulation time: 01 hr 18 min 06 sec)
Heartbeat CPU 0 instructions: 180000004 cycles: 73737130 heartbeat IPC: 1.234 cumulative IPC: 2.124 (Simulation time: 01 hr 25 min 34 sec)
Heartbeat CPU 0 instructions: 190000001 cycles: 81019955 heartbeat IPC: 1.373 cumulative IPC: 2.044 (Simulation time: 01 hr 32 min 28 sec)
Heartbeat CPU 0 instructions: 200000004 cycles: 84666984 heartbeat IPC: 2.742 cumulative IPC: 2.08 (Simulation time: 01 hr 36 min 58 sec)
Heartbeat CPU 0 instructions: 210000001 cycles: 88302966 heartbeat IPC: 2.75 cumulative IPC: 2.112 (Simulation time: 01 hr 41 min 28 sec)
Heartbeat CPU 0 instructions: 220000000 cycles: 92007818 heartbeat IPC: 2.699 cumulative IPC: 2.139 (Simulation time: 01 hr 46 min 01 sec)
Heartbeat CPU 0 instructions: 230000002 cycles: 96190195 heartbeat IPC: 2.391 cumulative IPC: 2.152 (Simulation time: 01 hr 50 min 45 sec)
Heartbeat CPU 0 instructions: 240000002 cycles: 100091658 heartbeat IPC: 2.563 cumulative IPC: 2.17 (Simulation time: 01 hr 55 min 22 sec)
Heartbeat CPU 0 instructions: 250000000 cycles: 104076396 heartbeat IPC: 2.51 cumulative IPC: 2.185 (Simulation time: 02 hr 00 min 02 sec)
Heartbeat CPU 0 instructions: 260000000 cycles: 107883890 heartbeat IPC: 2.626 cumulative IPC: 2.202 (Simulation time: 02 hr 04 min 37 sec)
Heartbeat CPU 0 instructions: 270000002 cycles: 111568279 heartbeat IPC: 2.714 cumulative IPC: 2.222 (Simulation time: 02 hr 09 min 07 sec)
Heartbeat CPU 0 instructions: 280000002 cycles: 115489866 heartbeat IPC: 2.55 cumulative IPC: 2.234 (Simulation time: 02 hr 13 min 44 sec)
Heartbeat CPU 0 instructions: 290000002 cycles: 119159424 heartbeat IPC: 2.725 cumulative IPC: 2.251 (Simulation time: 02 hr 18 min 14 sec)
Heartbeat CPU 0 instructions: 300000003 cycles: 122751043 heartbeat IPC: 2.784 cumulative IPC: 2.268 (Simulation time: 02 hr 22 min 45 sec)
Heartbeat CPU 0 instructions: 310000001 cycles: 126569601 heartbeat IPC: 2.619 cumulative IPC: 2.28 (Simulation time: 02 hr 27 min 17 sec)
Heartbeat CPU 0 instructions: 320000003 cycles: 130398674 heartbeat IPC: 2.612 cumulative IPC: 2.291 (Simulation time: 02 hr 31 min 53 sec)
Heartbeat CPU 0 instructions: 330000003 cycles: 134407529 heartbeat IPC: 2.494 cumulative IPC: 2.298 (Simulation time: 02 hr 36 min 34 sec)
Heartbeat CPU 0 instructions: 340000000 cycles: 141814546 heartbeat IPC: 1.35 cumulative IPC: 2.243 (Simulation time: 02 hr 43 min 26 sec)
Heartbeat CPU 0 instructions: 350000000 cycles: 149985209 heartbeat IPC: 1.224 cumulative IPC: 2.183 (Simulation time: 02 hr 51 min 03 sec)
Heartbeat CPU 0 instructions: 360000004 cycles: 157331031 heartbeat IPC: 1.361 cumulative IPC: 2.141 (Simulation time: 02 hr 57 min 58 sec)
Heartbeat CPU 0 instructions: 370000001 cycles: 160618399 heartbeat IPC: 3.042 cumulative IPC: 2.161 (Simulation time: 03 hr 02 min 16 sec)
Heartbeat CPU 0 instructions: 380000001 cycles: 163852535 heartbeat IPC: 3.092 cumulative IPC: 2.181 (Simulation time: 03 hr 06 min 35 sec)
Heartbeat CPU 0 instructions: 390000004 cycles: 167305884 heartbeat IPC: 2.896 cumulative IPC: 2.197 (Simulation time: 03 hr 11 min 00 sec)
Heartbeat CPU 0 instructions: 400000004 cycles: 170785482 heartbeat IPC: 2.874 cumulative IPC: 2.212 (Simulation time: 03 hr 15 min 24 sec)
Heartbeat CPU 0 instructions: 410000001 cycles: 174344199 heartbeat IPC: 2.81 cumulative IPC: 2.225 (Simulation time: 03 hr 19 min 49 sec)
Heartbeat CPU 0 instructions: 420000002 cycles: 178146500 heartbeat IPC: 2.63 cumulative IPC: 2.234 (Simulation time: 03 hr 24 min 21 sec)
Heartbeat CPU 0 instructions: 430000001 cycles: 181594164 heartbeat IPC: 2.901 cumulative IPC: 2.248 (Simulation time: 03 hr 28 min 49 sec)
Heartbeat CPU 0 instructions: 440000004 cycles: 185320639 heartbeat IPC: 2.684 cumulative IPC: 2.257 (Simulation time: 03 hr 33 min 20 sec)
Heartbeat CPU 0 instructions: 450000002 cycles: 188634728 heartbeat IPC: 3.017 cumulative IPC: 2.271 (Simulation time: 03 hr 37 min 37 sec)
Heartbeat CPU 0 instructions: 460000000 cycles: 191995739 heartbeat IPC: 2.975 cumulative IPC: 2.285 (Simulation time: 03 hr 41 min 58 sec)
Heartbeat CPU 0 instructions: 470000001 cycles: 195323286 heartbeat IPC: 3.005 cumulative IPC: 2.298 (Simulation time: 03 hr 46 min 18 sec)
Heartbeat CPU 0 instructions: 480000003 cycles: 198876315 heartbeat IPC: 2.815 cumulative IPC: 2.308 (Simulation time: 03 hr 50 min 43 sec)
Heartbeat CPU 0 instructions: 490000000 cycles: 202252798 heartbeat IPC: 2.962 cumulative IPC: 2.319 (Simulation time: 03 hr 55 min 04 sec)
Heartbeat CPU 0 instructions: 500000004 cycles: 205755151 heartbeat IPC: 2.855 cumulative IPC: 2.329 (Simulation time: 03 hr 59 min 31 sec)
Heartbeat CPU 0 instructions: 510000003 cycles: 209226376 heartbeat IPC: 2.881 cumulative IPC: 2.339 (Simulation time: 04 hr 03 min 59 sec)
Heartbeat CPU 0 instructions: 520000000 cycles: 212398668 heartbeat IPC: 3.152 cumulative IPC: 2.352 (Simulation time: 04 hr 08 min 16 sec)
Heartbeat CPU 0 instructions: 530000002 cycles: 215920834 heartbeat IPC: 2.839 cumulative IPC: 2.36 (Simulation time: 04 hr 12 min 43 sec)
Heartbeat CPU 0 instructions: 540000000 cycles: 219275371 heartbeat IPC: 2.981 cumulative IPC: 2.37 (Simulation time: 04 hr 17 min 04 sec)
Heartbeat CPU 0 instructions: 550000001 cycles: 222798483 heartbeat IPC: 2.838 cumulative IPC: 2.378 (Simulation time: 04 hr 21 min 32 sec)
Heartbeat CPU 0 instructions: 560000004 cycles: 226431656 heartbeat IPC: 2.752 cumulative IPC: 2.384 (Simulation time: 04 hr 26 min 03 sec)
Heartbeat CPU 0 instructions: 570000004 cycles: 231539938 heartbeat IPC: 1.958 cumulative IPC: 2.374 (Simulation time: 04 hr 31 min 32 sec)
Heartbeat CPU 0 instructions: 580000003 cycles: 239757558 heartbeat IPC: 1.217 cumulative IPC: 2.333 (Simulation time: 04 hr 39 min 03 sec)
Heartbeat CPU 0 instructions: 590000002 cycles: 249009677 heartbeat IPC: 1.081 cumulative IPC: 2.284 (Simulation time: 04 hr 47 min 14 sec)
Heartbeat CPU 0 instructions: 600000000 cycles: 252543941 heartbeat IPC: 2.829 cumulative IPC: 2.292 (Simulation time: 04 hr 51 min 41 sec)
Heartbeat CPU 0 instructions: 610000002 cycles: 256171683 heartbeat IPC: 2.757 cumulative IPC: 2.299 (Simulation time: 04 hr 56 min 15 sec)
Heartbeat CPU 0 instructions: 620000001 cycles: 259481578 heartbeat IPC: 3.021 cumulative IPC: 2.308 (Simulation time: 05 hr 00 min 36 sec)
Heartbeat CPU 0 instructions: 630000002 cycles: 263473584 heartbeat IPC: 2.505 cumulative IPC: 2.311 (Simulation time: 05 hr 05 min 15 sec)
Heartbeat CPU 0 instructions: 640000001 cycles: 267185168 heartbeat IPC: 2.694 cumulative IPC: 2.317 (Simulation time: 05 hr 09 min 47 sec)
Heartbeat CPU 0 instructions: 650000000 cycles: 270789709 heartbeat IPC: 2.774 cumulative IPC: 2.323 (Simulation time: 05 hr 14 min 14 sec)
Simulation finished CPU 0 instructions: 600000001 cycles: 258252597 cumulative IPC: 2.323 (Simulation time: 05 hr 14 min 14 sec)
Simulation complete CPU 0 instructions: 600000001 cycles: 258252597 cumulative IPC: 2.323 (Simulation time: 05 hr 14 min 14 sec)

ChampSim completed all CPUs

=== Simulation ===
CPU 0 runs traces/400.perlbench-41B.champsimtrace.xz
Region of Interest Statistics

CPU 0 cumulative IPC: 2.323 instructions: 600000001 cycles: 258252597
CPU 0 Branch Prediction Accuracy: 96.64% MPKI: 6.948 Average ROB Occupancy at Mispredict: 45.36
Branch type MPKI
BRANCH_DIRECT_JUMP: 0.0123
BRANCH_INDIRECT: 0.323
BRANCH_CONDITIONAL: 6.4
BRANCH_DIRECT_CALL: 0.0043
BRANCH_INDIRECT_CALL: 0.2
BRANCH_RETURN: 0.00828

LLC TOTAL        ACCESS:     937872 HIT:     802244 MISS:     135628
LLC LOAD         ACCESS:     400601 HIT:     340461 MISS:      60140
LLC RFO          ACCESS:      32500 HIT:      26237 MISS:       6263
LLC PREFETCH     ACCESS:     400601 HIT:     338749 MISS:      61852
LLC WRITE        ACCESS:      85116 HIT:      85039 MISS:         77
LLC TRANSLATION  ACCESS:      19054 HIT:      11758 MISS:       7296
LLC PREFETCH REQUESTED:     400601 ISSUED:     400601 USEFUL:      23224 USELESS:      16686
LLC AVERAGE MISS LATENCY: 439 cycles
cpu0_DTLB TOTAL        ACCESS:  141372644 HIT:  140698917 MISS:     673727
cpu0_DTLB LOAD         ACCESS:  141372644 HIT:  140698917 MISS:     673727
cpu0_DTLB RFO          ACCESS:          0 HIT:          0 MISS:          0
cpu0_DTLB PREFETCH     ACCESS:          0 HIT:          0 MISS:          0
cpu0_DTLB WRITE        ACCESS:          0 HIT:          0 MISS:          0
cpu0_DTLB TRANSLATION  ACCESS:          0 HIT:          0 MISS:          0
cpu0_DTLB PREFETCH REQUESTED:          0 ISSUED:          0 USEFUL:          0 USELESS:          0
cpu0_DTLB AVERAGE MISS LATENCY: 11.66 cycles
cpu0_ITLB TOTAL        ACCESS:    4857938 HIT:    4811253 MISS:      46685
cpu0_ITLB LOAD         ACCESS:    4857938 HIT:    4811253 MISS:      46685
cpu0_ITLB RFO          ACCESS:          0 HIT:          0 MISS:          0
cpu0_ITLB PREFETCH     ACCESS:          0 HIT:          0 MISS:          0
cpu0_ITLB WRITE        ACCESS:          0 HIT:          0 MISS:          0
cpu0_ITLB TRANSLATION  ACCESS:          0 HIT:          0 MISS:          0
cpu0_ITLB PREFETCH REQUESTED:          0 ISSUED:          0 USEFUL:          0 USELESS:          0
cpu0_ITLB AVERAGE MISS LATENCY: 6.902 cycles
cpu0_L1D TOTAL        ACCESS:  188027673 HIT:  186364306 MISS:    1663367
cpu0_L1D LOAD         ACCESS:  104701790 HIT:  103405280 MISS:    1296510
cpu0_L1D RFO          ACCESS:          0 HIT:          0 MISS:          0
cpu0_L1D PREFETCH     ACCESS:          0 HIT:          0 MISS:          0
cpu0_L1D WRITE        ACCESS:   83301416 HIT:   82957965 MISS:     343451
cpu0_L1D TRANSLATION  ACCESS:      24467 HIT:       1061 MISS:      23406
cpu0_L1D PREFETCH REQUESTED:          0 ISSUED:          0 USEFUL:          0 USELESS:          0
cpu0_L1D AVERAGE MISS LATENCY: 29.94 cycles
cpu0_L1I TOTAL        ACCESS:    5595663 HIT:    4875576 MISS:     720087
cpu0_L1I LOAD         ACCESS:    5595663 HIT:    4875576 MISS:     720087
cpu0_L1I RFO          ACCESS:          0 HIT:          0 MISS:          0
cpu0_L1I PREFETCH     ACCESS:          0 HIT:          0 MISS:          0
cpu0_L1I WRITE        ACCESS:          0 HIT:          0 MISS:          0
cpu0_L1I TRANSLATION  ACCESS:          0 HIT:          0 MISS:          0
cpu0_L1I PREFETCH REQUESTED:          0 ISSUED:          0 USEFUL:          0 USELESS:          0
cpu0_L1I AVERAGE MISS LATENCY: 9.998 cycles
cpu0_L2C TOTAL        ACCESS:    1666434 HIT:    1212491 MISS:     453943
cpu0_L2C LOAD         ACCESS:    1316619 HIT:     916018 MISS:     400601
cpu0_L2C RFO          ACCESS:      88047 HIT:      55547 MISS:      32500
cpu0_L2C PREFETCH     ACCESS:          0 HIT:          0 MISS:          0
cpu0_L2C WRITE        ACCESS:     238421 HIT:     236633 MISS:       1788
cpu0_L2C TRANSLATION  ACCESS:      23347 HIT:       4293 MISS:      19054
cpu0_L2C PREFETCH REQUESTED:          0 ISSUED:          0 USEFUL:          0 USELESS:          0
cpu0_L2C AVERAGE MISS LATENCY: 99.74 cycles
cpu0_STLB TOTAL        ACCESS:     505742 HIT:     482951 MISS:      22791
cpu0_STLB LOAD         ACCESS:     505742 HIT:     482951 MISS:      22791
cpu0_STLB RFO          ACCESS:          0 HIT:          0 MISS:          0
cpu0_STLB PREFETCH     ACCESS:          0 HIT:          0 MISS:          0
cpu0_STLB WRITE        ACCESS:          0 HIT:          0 MISS:          0
cpu0_STLB TRANSLATION  ACCESS:          0 HIT:          0 MISS:          0
cpu0_STLB PREFETCH REQUESTED:          0 ISSUED:          0 USEFUL:          0 USELESS:          0
cpu0_STLB AVERAGE MISS LATENCY: 211.2 cycles

DRAM Statistics

Channel 0 RQ ROW_BUFFER_HIT:      25745
  ROW_BUFFER_MISS:      89018
 AVG DBUS CONGESTED CYCLE: 3.773
WQ ROW_BUFFER_HIT: Channel 0 
  ROW_BUFFER_MISS:       3783
  FULL:       5330
