WARNING: physical memory size is smaller than virtual memory size.

*** ChampSim Multicore Out-of-Order Simulator ***
Warmup Instructions: 50000000
Simulation Instructions: 600000000
Number of CPUs: 1
Page size: 4096

Off-chip DRAM Size: 4 GiB Channels: 1 Width: 64-bit Data Race: 3200 MT/s
Heartbeat CPU 0 instructions: 10000001 cycles: 2500318 heartbeat IPC: 3.999 cumulative IPC: 3.999 (Simulation time: 00 hr 03 min 34 sec)
Heartbeat CPU 0 instructions: 20000002 cycles: 5037110 heartbeat IPC: 3.942 cumulative IPC: 3.971 (Simulation time: 00 hr 07 min 20 sec)
Heartbeat CPU 0 instructions: 30000002 cycles: 7537110 heartbeat IPC: 4 cumulative IPC: 3.98 (Simulation time: 00 hr 10 min 50 sec)
Heartbeat CPU 0 instructions: 40000002 cycles: 10037110 heartbeat IPC: 4 cumulative IPC: 3.985 (Simulation time: 00 hr 14 min 12 sec)
Heartbeat CPU 0 instructions: 50000002 cycles: 12537110 heartbeat IPC: 4 cumulative IPC: 3.988 (Simulation time: 00 hr 17 min 32 sec)
Warmup finished CPU 0 instructions: 50000002 cycles: 12537111 cumulative IPC: 3.988 (Simulation time: 00 hr 17 min 32 sec)
Warmup complete CPU 0 instructions: 50000002 cycles: 12537111 cumulative IPC: 3.988 (Simulation time: 00 hr 17 min 32 sec)
Heartbeat CPU 0 instructions: 60000000 cycles: 17678454 heartbeat IPC: 1.945 cumulative IPC: 1.945 (Simulation time: 00 hr 22 min 39 sec)
Heartbeat CPU 0 instructions: 70000002 cycles: 22551878 heartbeat IPC: 2.052 cumulative IPC: 1.997 (Simulation time: 00 hr 27 min 56 sec)
Heartbeat CPU 0 instructions: 80000001 cycles: 27893077 heartbeat IPC: 1.872 cumulative IPC: 1.954 (Simulation time: 00 hr 33 min 13 sec)
Heartbeat CPU 0 instructions: 90000001 cycles: 32754688 heartbeat IPC: 2.057 cumulative IPC: 1.978 (Simulation time: 00 hr 38 min 14 sec)
Heartbeat CPU 0 instructions: 100000000 cycles: 37848176 heartbeat IPC: 1.963 cumulative IPC: 1.975 (Simulation time: 00 hr 43 min 23 sec)
Heartbeat CPU 0 instructions: 110000000 cycles: 42717692 heartbeat IPC: 2.054 cumulative IPC: 1.988 (Simulation time: 00 hr 48 min 24 sec)
Heartbeat CPU 0 instructions: 120000001 cycles: 47889067 heartbeat IPC: 1.934 cumulative IPC: 1.98 (Simulation time: 00 hr 53 min 37 sec)
Heartbeat CPU 0 instructions: 130000001 cycles: 53020611 heartbeat IPC: 1.949 cumulative IPC: 1.976 (Simulation time: 00 hr 58 min 49 sec)
Heartbeat CPU 0 instructions: 140000001 cycles: 58299075 heartbeat IPC: 1.894 cumulative IPC: 1.967 (Simulation time: 01 hr 04 min 05 sec)
Heartbeat CPU 0 instructions: 150000001 cycles: 63589625 heartbeat IPC: 1.89 cumulative IPC: 1.959 (Simulation time: 01 hr 09 min 24 sec)
Heartbeat CPU 0 instructions: 160000004 cycles: 68756481 heartbeat IPC: 1.935 cumulative IPC: 1.957 (Simulation time: 01 hr 14 min 34 sec)
Heartbeat CPU 0 instructions: 170000000 cycles: 76527888 heartbeat IPC: 1.287 cumulative IPC: 1.875 (Simulation time: 01 hr 21 min 33 sec)
Heartbeat CPU 0 instructions: 180000004 cycles: 83169683 heartbeat IPC: 1.506 cumulative IPC: 1.841 (Simulation time: 01 hr 28 min 03 sec)
Heartbeat CPU 0 instructions: 190000001 cycles: 89444155 heartbeat IPC: 1.594 cumulative IPC: 1.82 (Simulation time: 01 hr 34 min 15 sec)
Heartbeat CPU 0 instructions: 200000003 cycles: 93928133 heartbeat IPC: 2.23 cumulative IPC: 1.843 (Simulation time: 01 hr 39 min 06 sec)
Heartbeat CPU 0 instructions: 210000001 cycles: 98631709 heartbeat IPC: 2.126 cumulative IPC: 1.858 (Simulation time: 01 hr 44 min 04 sec)
Heartbeat CPU 0 instructions: 220000000 cycles: 103327915 heartbeat IPC: 2.129 cumulative IPC: 1.872 (Simulation time: 01 hr 49 min 02 sec)
Heartbeat CPU 0 instructions: 230000002 cycles: 108197560 heartbeat IPC: 2.054 cumulative IPC: 1.882 (Simulation time: 01 hr 54 min 03 sec)
Heartbeat CPU 0 instructions: 240000000 cycles: 112768041 heartbeat IPC: 2.188 cumulative IPC: 1.896 (Simulation time: 01 hr 58 min 58 sec)
Heartbeat CPU 0 instructions: 250000000 cycles: 117594059 heartbeat IPC: 2.072 cumulative IPC: 1.904 (Simulation time: 02 hr 03 min 58 sec)
Heartbeat CPU 0 instructions: 260000000 cycles: 122290206 heartbeat IPC: 2.129 cumulative IPC: 1.913 (Simulation time: 02 hr 08 min 56 sec)
Heartbeat CPU 0 instructions: 270000002 cycles: 126950018 heartbeat IPC: 2.146 cumulative IPC: 1.923 (Simulation time: 02 hr 13 min 52 sec)
Heartbeat CPU 0 instructions: 280000002 cycles: 131607806 heartbeat IPC: 2.147 cumulative IPC: 1.932 (Simulation time: 02 hr 18 min 43 sec)
Heartbeat CPU 0 instructions: 290000001 cycles: 136770650 heartbeat IPC: 1.937 cumulative IPC: 1.932 (Simulation time: 02 hr 23 min 57 sec)
Heartbeat CPU 0 instructions: 300000003 cycles: 141514583 heartbeat IPC: 2.108 cumulative IPC: 1.938 (Simulation time: 02 hr 28 min 56 sec)
Heartbeat CPU 0 instructions: 310000001 cycles: 146447872 heartbeat IPC: 2.027 cumulative IPC: 1.942 (Simulation time: 02 hr 34 min 03 sec)
Heartbeat CPU 0 instructions: 320000003 cycles: 151382154 heartbeat IPC: 2.027 cumulative IPC: 1.945 (Simulation time: 02 hr 39 min 07 sec)
Heartbeat CPU 0 instructions: 330000003 cycles: 156288448 heartbeat IPC: 2.038 cumulative IPC: 1.948 (Simulation time: 02 hr 44 min 07 sec)
Heartbeat CPU 0 instructions: 340000000 cycles: 162700227 heartbeat IPC: 1.56 cumulative IPC: 1.931 (Simulation time: 02 hr 50 min 20 sec)
Heartbeat CPU 0 instructions: 350000000 cycles: 169500258 heartbeat IPC: 1.471 cumulative IPC: 1.911 (Simulation time: 02 hr 56 min 54 sec)
Heartbeat CPU 0 instructions: 360000004 cycles: 176032311 heartbeat IPC: 1.531 cumulative IPC: 1.896 (Simulation time: 03 hr 03 min 12 sec)
Heartbeat CPU 0 instructions: 370000000 cycles: 180238695 heartbeat IPC: 2.377 cumulative IPC: 1.908 (Simulation time: 03 hr 07 min 54 sec)
Heartbeat CPU 0 instructions: 380000001 cycles: 184959995 heartbeat IPC: 2.118 cumulative IPC: 1.914 (Simulation time: 03 hr 12 min 55 sec)
Heartbeat CPU 0 instructions: 390000002 cycles: 189646702 heartbeat IPC: 2.134 cumulative IPC: 1.92 (Simulation time: 03 hr 17 min 55 sec)
Heartbeat CPU 0 instructions: 400000004 cycles: 194494995 heartbeat IPC: 2.063 cumulative IPC: 1.924 (Simulation time: 03 hr 22 min 57 sec)
Heartbeat CPU 0 instructions: 410000000 cycles: 198988099 heartbeat IPC: 2.226 cumulative IPC: 1.931 (Simulation time: 03 hr 27 min 46 sec)
Heartbeat CPU 0 instructions: 420000000 cycles: 203775546 heartbeat IPC: 2.089 cumulative IPC: 1.935 (Simulation time: 03 hr 32 min 47 sec)
Heartbeat CPU 0 instructions: 430000001 cycles: 208064900 heartbeat IPC: 2.331 cumulative IPC: 1.943 (Simulation time: 03 hr 37 min 33 sec)
Heartbeat CPU 0 instructions: 440000000 cycles: 213153843 heartbeat IPC: 1.965 cumulative IPC: 1.944 (Simulation time: 03 hr 42 min 44 sec)
Heartbeat CPU 0 instructions: 450000002 cycles: 217583776 heartbeat IPC: 2.257 cumulative IPC: 1.951 (Simulation time: 03 hr 47 min 32 sec)
Heartbeat CPU 0 instructions: 460000000 cycles: 222168955 heartbeat IPC: 2.181 cumulative IPC: 1.956 (Simulation time: 03 hr 52 min 26 sec)
Heartbeat CPU 0 instructions: 470000000 cycles: 226960924 heartbeat IPC: 2.087 cumulative IPC: 1.959 (Simulation time: 03 hr 57 min 26 sec)
Heartbeat CPU 0 instructions: 480000003 cycles: 231528745 heartbeat IPC: 2.189 cumulative IPC: 1.964 (Simulation time: 04 hr 02 min 17 sec)
Heartbeat CPU 0 instructions: 490000000 cycles: 235996352 heartbeat IPC: 2.238 cumulative IPC: 1.969 (Simulation time: 04 hr 07 min 07 sec)
Heartbeat CPU 0 instructions: 500000000 cycles: 240878755 heartbeat IPC: 2.048 cumulative IPC: 1.971 (Simulation time: 04 hr 12 min 13 sec)
Heartbeat CPU 0 instructions: 510000003 cycles: 246269209 heartbeat IPC: 1.855 cumulative IPC: 1.968 (Simulation time: 04 hr 17 min 35 sec)
Heartbeat CPU 0 instructions: 520000001 cycles: 250704591 heartbeat IPC: 2.255 cumulative IPC: 1.973 (Simulation time: 04 hr 22 min 26 sec)
Heartbeat CPU 0 instructions: 530000002 cycles: 255643844 heartbeat IPC: 2.025 cumulative IPC: 1.974 (Simulation time: 04 hr 27 min 31 sec)
Heartbeat CPU 0 instructions: 540000000 cycles: 260552320 heartbeat IPC: 2.037 cumulative IPC: 1.976 (Simulation time: 04 hr 32 min 37 sec)
Heartbeat CPU 0 instructions: 550000001 cycles: 265188467 heartbeat IPC: 2.157 cumulative IPC: 1.979 (Simulation time: 04 hr 37 min 34 sec)
Heartbeat CPU 0 instructions: 560000000 cycles: 270096005 heartbeat IPC: 2.038 cumulative IPC: 1.98 (Simulation time: 04 hr 42 min 49 sec)
Heartbeat CPU 0 instructions: 570000004 cycles: 275458106 heartbeat IPC: 1.865 cumulative IPC: 1.978 (Simulation time: 04 hr 48 min 17 sec)
Heartbeat CPU 0 instructions: 580000003 cycles: 282529157 heartbeat IPC: 1.414 cumulative IPC: 1.963 (Simulation time: 04 hr 54 min 58 sec)
Heartbeat CPU 0 instructions: 590000002 cycles: 289812664 heartbeat IPC: 1.373 cumulative IPC: 1.948 (Simulation time: 05 hr 01 min 52 sec)
Heartbeat CPU 0 instructions: 600000000 cycles: 294150977 heartbeat IPC: 2.305 cumulative IPC: 1.953 (Simulation time: 05 hr 06 min 49 sec)
Heartbeat CPU 0 instructions: 610000002 cycles: 298466362 heartbeat IPC: 2.317 cumulative IPC: 1.959 (Simulation time: 05 hr 11 min 31 sec)
Heartbeat CPU 0 instructions: 620000000 cycles: 303167818 heartbeat IPC: 2.127 cumulative IPC: 1.961 (Simulation time: 05 hr 16 min 31 sec)
Heartbeat CPU 0 instructions: 630000002 cycles: 308092561 heartbeat IPC: 2.031 cumulative IPC: 1.962 (Simulation time: 05 hr 21 min 47 sec)
Heartbeat CPU 0 instructions: 640000001 cycles: 312876893 heartbeat IPC: 2.09 cumulative IPC: 1.964 (Simulation time: 05 hr 26 min 48 sec)
Heartbeat CPU 0 instructions: 650000000 cycles: 317369174 heartbeat IPC: 2.226 cumulative IPC: 1.968 (Simulation time: 05 hr 31 min 50 sec)
Simulation finished CPU 0 instructions: 600000001 cycles: 304832065 cumulative IPC: 1.968 (Simulation time: 05 hr 31 min 50 sec)
Simulation complete CPU 0 instructions: 600000001 cycles: 304832065 cumulative IPC: 1.968 (Simulation time: 05 hr 31 min 50 sec)

ChampSim completed all CPUs

=== Simulation ===
CPU 0 runs traces/400.perlbench-41B.champsimtrace.xz
Region of Interest Statistics

CPU 0 cumulative IPC: 1.968 instructions: 600000001 cycles: 304832065
CPU 0 Branch Prediction Accuracy: 93.95% MPKI: 12.5 Average ROB Occupancy at Mispredict: 29.28
Branch type MPKI
BRANCH_DIRECT_JUMP: 0.0123
BRANCH_INDIRECT: 0.323
BRANCH_CONDITIONAL: 12
BRANCH_DIRECT_CALL: 0.0043
BRANCH_INDIRECT_CALL: 0.2
BRANCH_RETURN: 0.00828

LLC TOTAL        ACCESS:     594966 HIT:     539920 MISS:      55046
LLC LOAD         ACCESS:     403232 HIT:     364607 MISS:      38625
LLC RFO          ACCESS:      32592 HIT:      28136 MISS:       4456
LLC PREFETCH     ACCESS:      54412 HIT:      49108 MISS:       5304
LLC WRITE        ACCESS:      85747 HIT:      85716 MISS:         31
LLC TRANSLATION  ACCESS:      18983 HIT:      12353 MISS:       6630
LLC PREFETCH REQUESTED:      54412 ISSUED:      54412 USEFUL:       3297 USELESS:        347
LLC AVERAGE MISS LATENCY: 487.3 cycles
cpu0_DTLB TOTAL        ACCESS:  153696243 HIT:  153019803 MISS:     676440
cpu0_DTLB LOAD         ACCESS:  153696243 HIT:  153019803 MISS:     676440
cpu0_DTLB RFO          ACCESS:          0 HIT:          0 MISS:          0
cpu0_DTLB PREFETCH     ACCESS:          0 HIT:          0 MISS:          0
cpu0_DTLB WRITE        ACCESS:          0 HIT:          0 MISS:          0
cpu0_DTLB TRANSLATION  ACCESS:          0 HIT:          0 MISS:          0
cpu0_DTLB PREFETCH REQUESTED:          0 ISSUED:          0 USEFUL:          0 USELESS:          0
cpu0_DTLB AVERAGE MISS LATENCY: 10.8 cycles
cpu0_ITLB TOTAL        ACCESS:    4839205 HIT:    4781353 MISS:      57852
cpu0_ITLB LOAD         ACCESS:    4839205 HIT:    4781353 MISS:      57852
cpu0_ITLB RFO          ACCESS:          0 HIT:          0 MISS:          0
cpu0_ITLB PREFETCH     ACCESS:          0 HIT:          0 MISS:          0
cpu0_ITLB WRITE        ACCESS:          0 HIT:          0 MISS:          0
cpu0_ITLB TRANSLATION  ACCESS:          0 HIT:          0 MISS:          0
cpu0_ITLB PREFETCH REQUESTED:          0 ISSUED:          0 USEFUL:          0 USELESS:          0
cpu0_ITLB AVERAGE MISS LATENCY: 4.529 cycles
cpu0_L1D TOTAL        ACCESS:  200327849 HIT:  198646281 MISS:    1681568
cpu0_L1D LOAD         ACCESS:  117084916 HIT:  115771317 MISS:    1313599
cpu0_L1D RFO          ACCESS:          0 HIT:          0 MISS:          0
cpu0_L1D PREFETCH     ACCESS:          0 HIT:          0 MISS:          0
cpu0_L1D WRITE        ACCESS:   83218468 HIT:   82873920 MISS:     344548
cpu0_L1D TRANSLATION  ACCESS:      24465 HIT:       1044 MISS:      23421
cpu0_L1D PREFETCH REQUESTED:          0 ISSUED:          0 USEFUL:          0 USELESS:          0
cpu0_L1D AVERAGE MISS LATENCY: 22.58 cycles
cpu0_L1I TOTAL        ACCESS:    5581446 HIT:    4819951 MISS:     761495
cpu0_L1I LOAD         ACCESS:    5581446 HIT:    4819951 MISS:     761495
cpu0_L1I RFO          ACCESS:          0 HIT:          0 MISS:          0
cpu0_L1I PREFETCH     ACCESS:          0 HIT:          0 MISS:          0
cpu0_L1I WRITE        ACCESS:          0 HIT:          0 MISS:          0
cpu0_L1I TRANSLATION  ACCESS:          0 HIT:          0 MISS:          0
cpu0_L1I PREFETCH REQUESTED:          0 ISSUED:          0 USEFUL:          0 USELESS:          0
cpu0_L1I AVERAGE MISS LATENCY: 8.876 cycles
cpu0_L2C TOTAL        ACCESS:    1668149 HIT:    1211545 MISS:     456604
cpu0_L2C LOAD         ACCESS:    1317200 HIT:     913968 MISS:     403232
cpu0_L2C RFO          ACCESS:      88576 HIT:      55984 MISS:      32592
cpu0_L2C PREFETCH     ACCESS:          0 HIT:          0 MISS:          0
cpu0_L2C WRITE        ACCESS:     239032 HIT:     237235 MISS:       1797
cpu0_L2C TRANSLATION  ACCESS:      23341 HIT:       4358 MISS:      18983
cpu0_L2C PREFETCH REQUESTED:          0 ISSUED:          0 USEFUL:          0 USELESS:          0
cpu0_L2C AVERAGE MISS LATENCY: 72.16 cycles
cpu0_STLB TOTAL        ACCESS:     505107 HIT:     482318 MISS:      22789
cpu0_STLB LOAD         ACCESS:     505107 HIT:     482318 MISS:      22789
cpu0_STLB RFO          ACCESS:          0 HIT:          0 MISS:          0
cpu0_STLB PREFETCH     ACCESS:          0 HIT:          0 MISS:          0
cpu0_STLB WRITE        ACCESS:          0 HIT:          0 MISS:          0
cpu0_STLB TRANSLATION  ACCESS:          0 HIT:          0 MISS:          0
cpu0_STLB PREFETCH REQUESTED:          0 ISSUED:          0 USEFUL:          0 USELESS:          0
cpu0_STLB AVERAGE MISS LATENCY: 186.4 cycles

DRAM Statistics

Channel 0 RQ ROW_BUFFER_HIT:      14544
  ROW_BUFFER_MISS:      39710
 AVG DBUS CONGESTED CYCLE: 3.726
WQ ROW_BUFFER_HIT: Channel 0 
  ROW_BUFFER_MISS:        813
  FULL:       1348
