WARNING: physical memory size is smaller than virtual memory size.

*** ChampSim Multicore Out-of-Order Simulator ***
Warmup Instructions: 50000000
Simulation Instructions: 600000000
Number of CPUs: 1
Page size: 4096

Off-chip DRAM Size: 4 GiB Channels: 1 Width: 64-bit Data Race: 3200 MT/s
Heartbeat CPU 0 instructions: 10000001 cycles: 2500318 heartbeat IPC: 3.999 cumulative IPC: 3.999 (Simulation time: 00 hr 00 min 36 sec)
Heartbeat CPU 0 instructions: 20000002 cycles: 5037128 heartbeat IPC: 3.942 cumulative IPC: 3.971 (Simulation time: 00 hr 01 min 12 sec)
Heartbeat CPU 0 instructions: 30000002 cycles: 7537128 heartbeat IPC: 4 cumulative IPC: 3.98 (Simulation time: 00 hr 01 min 45 sec)
Heartbeat CPU 0 instructions: 40000002 cycles: 10037128 heartbeat IPC: 4 cumulative IPC: 3.985 (Simulation time: 00 hr 02 min 21 sec)
Heartbeat CPU 0 instructions: 50000002 cycles: 12537128 heartbeat IPC: 4 cumulative IPC: 3.988 (Simulation time: 00 hr 02 min 57 sec)
Warmup finished CPU 0 instructions: 50000002 cycles: 12537129 cumulative IPC: 3.988 (Simulation time: 00 hr 02 min 57 sec)
Warmup complete CPU 0 instructions: 50000002 cycles: 12537129 cumulative IPC: 3.988 (Simulation time: 00 hr 02 min 57 sec)
Heartbeat CPU 0 instructions: 60000000 cycles: 17692744 heartbeat IPC: 1.94 cumulative IPC: 1.94 (Simulation time: 00 hr 03 min 48 sec)
Heartbeat CPU 0 instructions: 70000002 cycles: 22578853 heartbeat IPC: 2.047 cumulative IPC: 1.992 (Simulation time: 00 hr 04 min 40 sec)
Heartbeat CPU 0 instructions: 80000001 cycles: 27934899 heartbeat IPC: 1.867 cumulative IPC: 1.948 (Simulation time: 00 hr 05 min 33 sec)
Heartbeat CPU 0 instructions: 90000001 cycles: 32808158 heartbeat IPC: 2.052 cumulative IPC: 1.973 (Simulation time: 00 hr 06 min 20 sec)
Heartbeat CPU 0 instructions: 100000000 cycles: 37910736 heartbeat IPC: 1.96 cumulative IPC: 1.971 (Simulation time: 00 hr 07 min 10 sec)
Heartbeat CPU 0 instructions: 110000000 cycles: 42793247 heartbeat IPC: 2.048 cumulative IPC: 1.983 (Simulation time: 00 hr 08 min 01 sec)
Heartbeat CPU 0 instructions: 120000001 cycles: 47981677 heartbeat IPC: 1.927 cumulative IPC: 1.975 (Simulation time: 00 hr 08 min 51 sec)
Heartbeat CPU 0 instructions: 130000001 cycles: 53128661 heartbeat IPC: 1.943 cumulative IPC: 1.971 (Simulation time: 00 hr 09 min 41 sec)
Heartbeat CPU 0 instructions: 140000001 cycles: 58424496 heartbeat IPC: 1.888 cumulative IPC: 1.961 (Simulation time: 00 hr 10 min 30 sec)
Heartbeat CPU 0 instructions: 150000001 cycles: 63723709 heartbeat IPC: 1.887 cumulative IPC: 1.954 (Simulation time: 00 hr 11 min 17 sec)
Heartbeat CPU 0 instructions: 160000004 cycles: 68907803 heartbeat IPC: 1.929 cumulative IPC: 1.951 (Simulation time: 00 hr 12 min 03 sec)
Heartbeat CPU 0 instructions: 170000000 cycles: 76611666 heartbeat IPC: 1.298 cumulative IPC: 1.873 (Simulation time: 00 hr 13 min 02 sec)
Heartbeat CPU 0 instructions: 180000004 cycles: 83154951 heartbeat IPC: 1.528 cumulative IPC: 1.841 (Simulation time: 00 hr 13 min 58 sec)
Heartbeat CPU 0 instructions: 190000001 cycles: 89417287 heartbeat IPC: 1.597 cumulative IPC: 1.821 (Simulation time: 00 hr 14 min 52 sec)
Heartbeat CPU 0 instructions: 200000003 cycles: 93898019 heartbeat IPC: 2.232 cumulative IPC: 1.844 (Simulation time: 00 hr 15 min 34 sec)
Heartbeat CPU 0 instructions: 210000001 cycles: 98599914 heartbeat IPC: 2.127 cumulative IPC: 1.859 (Simulation time: 00 hr 16 min 16 sec)
Heartbeat CPU 0 instructions: 220000000 cycles: 103299289 heartbeat IPC: 2.128 cumulative IPC: 1.873 (Simulation time: 00 hr 17 min 00 sec)
Heartbeat CPU 0 instructions: 230000002 cycles: 108169183 heartbeat IPC: 2.053 cumulative IPC: 1.882 (Simulation time: 00 hr 17 min 42 sec)
Heartbeat CPU 0 instructions: 240000000 cycles: 112740141 heartbeat IPC: 2.188 cumulative IPC: 1.896 (Simulation time: 00 hr 18 min 24 sec)
Heartbeat CPU 0 instructions: 250000000 cycles: 117562864 heartbeat IPC: 2.074 cumulative IPC: 1.904 (Simulation time: 00 hr 19 min 08 sec)
Heartbeat CPU 0 instructions: 260000000 cycles: 122257777 heartbeat IPC: 2.13 cumulative IPC: 1.914 (Simulation time: 00 hr 19 min 50 sec)
Heartbeat CPU 0 instructions: 270000002 cycles: 126917610 heartbeat IPC: 2.146 cumulative IPC: 1.923 (Simulation time: 00 hr 20 min 33 sec)
Heartbeat CPU 0 instructions: 280000002 cycles: 131578875 heartbeat IPC: 2.145 cumulative IPC: 1.932 (Simulation time: 00 hr 21 min 16 sec)
Heartbeat CPU 0 instructions: 290000001 cycles: 136744505 heartbeat IPC: 1.936 cumulative IPC: 1.932 (Simulation time: 00 hr 22 min 02 sec)
Heartbeat CPU 0 instructions: 300000003 cycles: 141478629 heartbeat IPC: 2.112 cumulative IPC: 1.939 (Simulation time: 00 hr 22 min 46 sec)
Heartbeat CPU 0 instructions: 310000001 cycles: 146413303 heartbeat IPC: 2.026 cumulative IPC: 1.942 (Simulation time: 00 hr 23 min 30 sec)
Heartbeat CPU 0 instructions: 320000003 cycles: 151345089 heartbeat IPC: 2.028 cumulative IPC: 1.945 (Simulation time: 00 hr 24 min 15 sec)
Heartbeat CPU 0 instructions: 330000003 cycles: 156249733 heartbeat IPC: 2.039 cumulative IPC: 1.948 (Simulation time: 00 hr 24 min 59 sec)
Heartbeat CPU 0 instructions: 340000000 cycles: 162557532 heartbeat IPC: 1.585 cumulative IPC: 1.933 (Simulation time: 00 hr 25 min 52 sec)
Heartbeat CPU 0 instructions: 350000000 cycles: 169253628 heartbeat IPC: 1.493 cumulative IPC: 1.914 (Simulation time: 00 hr 26 min 48 sec)
Heartbeat CPU 0 instructions: 360000004 cycles: 175739461 heartbeat IPC: 1.542 cumulative IPC: 1.899 (Simulation time: 00 hr 27 min 42 sec)
Heartbeat CPU 0 instructions: 370000000 cycles: 179937053 heartbeat IPC: 2.382 cumulative IPC: 1.912 (Simulation time: 00 hr 28 min 23 sec)
Heartbeat CPU 0 instructions: 380000001 cycles: 184651984 heartbeat IPC: 2.121 cumulative IPC: 1.917 (Simulation time: 00 hr 29 min 07 sec)
Heartbeat CPU 0 instructions: 390000002 cycles: 189333006 heartbeat IPC: 2.136 cumulative IPC: 1.923 (Simulation time: 00 hr 29 min 50 sec)
Heartbeat CPU 0 instructions: 400000004 cycles: 194175889 heartbeat IPC: 2.065 cumulative IPC: 1.927 (Simulation time: 00 hr 30 min 35 sec)
Heartbeat CPU 0 instructions: 410000000 cycles: 198669096 heartbeat IPC: 2.226 cumulative IPC: 1.934 (Simulation time: 00 hr 31 min 17 sec)
Heartbeat CPU 0 instructions: 420000000 cycles: 203447236 heartbeat IPC: 2.093 cumulative IPC: 1.938 (Simulation time: 00 hr 32 min 01 sec)
Heartbeat CPU 0 instructions: 430000001 cycles: 207730027 heartbeat IPC: 2.335 cumulative IPC: 1.947 (Simulation time: 00 hr 32 min 43 sec)
Heartbeat CPU 0 instructions: 440000000 cycles: 212805939 heartbeat IPC: 1.97 cumulative IPC: 1.947 (Simulation time: 00 hr 33 min 28 sec)
Heartbeat CPU 0 instructions: 450000002 cycles: 217230570 heartbeat IPC: 2.26 cumulative IPC: 1.954 (Simulation time: 00 hr 34 min 09 sec)
Heartbeat CPU 0 instructions: 460000000 cycles: 221810612 heartbeat IPC: 2.183 cumulative IPC: 1.959 (Simulation time: 00 hr 34 min 52 sec)
Heartbeat CPU 0 instructions: 470000000 cycles: 226597458 heartbeat IPC: 2.089 cumulative IPC: 1.962 (Simulation time: 00 hr 35 min 35 sec)
Heartbeat CPU 0 instructions: 480000003 cycles: 231158941 heartbeat IPC: 2.192 cumulative IPC: 1.967 (Simulation time: 00 hr 36 min 18 sec)
Heartbeat CPU 0 instructions: 490000000 cycles: 235623101 heartbeat IPC: 2.24 cumulative IPC: 1.972 (Simulation time: 00 hr 37 min 01 sec)
Heartbeat CPU 0 instructions: 500000000 cycles: 240502856 heartbeat IPC: 2.049 cumulative IPC: 1.974 (Simulation time: 00 hr 37 min 45 sec)
Heartbeat CPU 0 instructions: 510000003 cycles: 245887891 heartbeat IPC: 1.857 cumulative IPC: 1.971 (Simulation time: 00 hr 38 min 31 sec)
Heartbeat CPU 0 instructions: 520000001 cycles: 250316236 heartbeat IPC: 2.258 cumulative IPC: 1.977 (Simulation time: 00 hr 39 min 14 sec)
Heartbeat CPU 0 instructions: 530000002 cycles: 255248648 heartbeat IPC: 2.027 cumulative IPC: 1.978 (Simulation time: 00 hr 39 min 58 sec)
Heartbeat CPU 0 instructions: 540000000 cycles: 260151250 heartbeat IPC: 2.04 cumulative IPC: 1.979 (Simulation time: 00 hr 40 min 42 sec)
Heartbeat CPU 0 instructions: 550000001 cycles: 264783832 heartbeat IPC: 2.159 cumulative IPC: 1.982 (Simulation time: 00 hr 41 min 25 sec)
Heartbeat CPU 0 instructions: 560000000 cycles: 269682336 heartbeat IPC: 2.041 cumulative IPC: 1.983 (Simulation time: 00 hr 42 min 09 sec)
Heartbeat CPU 0 instructions: 570000004 cycles: 274976356 heartbeat IPC: 1.889 cumulative IPC: 1.981 (Simulation time: 00 hr 42 min 56 sec)
Heartbeat CPU 0 instructions: 580000003 cycles: 281756159 heartbeat IPC: 1.475 cumulative IPC: 1.969 (Simulation time: 00 hr 43 min 52 sec)
Heartbeat CPU 0 instructions: 590000002 cycles: 288800081 heartbeat IPC: 1.42 cumulative IPC: 1.955 (Simulation time: 00 hr 44 min 50 sec)
Heartbeat CPU 0 instructions: 600000000 cycles: 293128867 heartbeat IPC: 2.31 cumulative IPC: 1.96 (Simulation time: 00 hr 45 min 31 sec)
Heartbeat CPU 0 instructions: 610000002 cycles: 297428811 heartbeat IPC: 2.326 cumulative IPC: 1.966 (Simulation time: 00 hr 46 min 11 sec)
Heartbeat CPU 0 instructions: 620000000 cycles: 302126407 heartbeat IPC: 2.129 cumulative IPC: 1.968 (Simulation time: 00 hr 46 min 53 sec)
Heartbeat CPU 0 instructions: 630000002 cycles: 307040766 heartbeat IPC: 2.035 cumulative IPC: 1.969 (Simulation time: 00 hr 47 min 35 sec)
Heartbeat CPU 0 instructions: 640000001 cycles: 311819721 heartbeat IPC: 2.093 cumulative IPC: 1.971 (Simulation time: 00 hr 48 min 17 sec)
Heartbeat CPU 0 instructions: 650000000 cycles: 316308696 heartbeat IPC: 2.228 cumulative IPC: 1.975 (Simulation time: 00 hr 48 min 57 sec)
Simulation finished CPU 0 instructions: 600000001 cycles: 303771569 cumulative IPC: 1.975 (Simulation time: 00 hr 48 min 57 sec)
Simulation complete CPU 0 instructions: 600000001 cycles: 303771569 cumulative IPC: 1.975 (Simulation time: 00 hr 48 min 57 sec)

ChampSim completed all CPUs

=== Simulation ===
CPU 0 runs traces/400.perlbench-41B.champsimtrace.xz
Region of Interest Statistics

CPU 0 cumulative IPC: 1.975 instructions: 600000001 cycles: 303771569
CPU 0 Branch Prediction Accuracy: 93.95% MPKI: 12.5 Average ROB Occupancy at Mispredict: 29.28
Branch type MPKI
BRANCH_DIRECT_JUMP: 0.0123
BRANCH_INDIRECT: 0.323
BRANCH_CONDITIONAL: 12
BRANCH_DIRECT_CALL: 0.0043
BRANCH_INDIRECT_CALL: 0.2
BRANCH_RETURN: 0.00828

LLC TOTAL        ACCESS:     541352 HIT:     493189 MISS:      48163
LLC LOAD         ACCESS:     403745 HIT:     366282 MISS:      37463
LLC RFO          ACCESS:      32587 HIT:      28453 MISS:       4134
LLC PREFETCH     ACCESS:          0 HIT:          0 MISS:          0
LLC WRITE        ACCESS:      85817 HIT:      85802 MISS:         15
LLC TRANSLATION  ACCESS:      19203 HIT:      12652 MISS:       6551
LLC PREFETCH REQUESTED:          0 ISSUED:          0 USEFUL:          0 USELESS:          0
LLC AVERAGE MISS LATENCY: 476.4 cycles
cpu0_DTLB TOTAL        ACCESS:  153695844 HIT:  153019145 MISS:     676699
cpu0_DTLB LOAD         ACCESS:  153695844 HIT:  153019145 MISS:     676699
cpu0_DTLB RFO          ACCESS:          0 HIT:          0 MISS:          0
cpu0_DTLB PREFETCH     ACCESS:          0 HIT:          0 MISS:          0
cpu0_DTLB WRITE        ACCESS:          0 HIT:          0 MISS:          0
cpu0_DTLB TRANSLATION  ACCESS:          0 HIT:          0 MISS:          0
cpu0_DTLB PREFETCH REQUESTED:          0 ISSUED:          0 USEFUL:          0 USELESS:          0
cpu0_DTLB AVERAGE MISS LATENCY: 10.65 cycles
cpu0_ITLB TOTAL        ACCESS:    4838998 HIT:    4781144 MISS:      57854
cpu0_ITLB LOAD         ACCESS:    4838998 HIT:    4781144 MISS:      57854
cpu0_ITLB RFO          ACCESS:          0 HIT:          0 MISS:          0
cpu0_ITLB PREFETCH     ACCESS:          0 HIT:          0 MISS:          0
cpu0_ITLB WRITE        ACCESS:          0 HIT:          0 MISS:          0
cpu0_ITLB TRANSLATION  ACCESS:          0 HIT:          0 MISS:          0
cpu0_ITLB PREFETCH REQUESTED:          0 ISSUED:          0 USEFUL:          0 USELESS:          0
cpu0_ITLB AVERAGE MISS LATENCY: 4.334 cycles
cpu0_L1D TOTAL        ACCESS:  200327108 HIT:  198646421 MISS:    1680687
cpu0_L1D LOAD         ACCESS:  117084139 HIT:  115770617 MISS:    1313522
cpu0_L1D RFO          ACCESS:          0 HIT:          0 MISS:          0
cpu0_L1D PREFETCH     ACCESS:          0 HIT:          0 MISS:          0
cpu0_L1D WRITE        ACCESS:   83218501 HIT:   82874759 MISS:     343742
cpu0_L1D TRANSLATION  ACCESS:      24468 HIT:       1045 MISS:      23423
cpu0_L1D PREFETCH REQUESTED:          0 ISSUED:          0 USEFUL:          0 USELESS:          0
cpu0_L1D AVERAGE MISS LATENCY: 22.12 cycles
cpu0_L1I TOTAL        ACCESS:    5581284 HIT:    4819744 MISS:     761540
cpu0_L1I LOAD         ACCESS:    5581284 HIT:    4819744 MISS:     761540
cpu0_L1I RFO          ACCESS:          0 HIT:          0 MISS:          0
cpu0_L1I PREFETCH     ACCESS:          0 HIT:          0 MISS:          0
cpu0_L1I WRITE        ACCESS:          0 HIT:          0 MISS:          0
cpu0_L1I TRANSLATION  ACCESS:          0 HIT:          0 MISS:          0
cpu0_L1I PREFETCH REQUESTED:          0 ISSUED:          0 USEFUL:          0 USELESS:          0
cpu0_L1I AVERAGE MISS LATENCY: 8.711 cycles
cpu0_L2C TOTAL        ACCESS:    1668180 HIT:    1210836 MISS:     457344
cpu0_L2C LOAD         ACCESS:    1317217 HIT:     913472 MISS:     403745
cpu0_L2C RFO          ACCESS:      88566 HIT:      55979 MISS:      32587
cpu0_L2C PREFETCH     ACCESS:          0 HIT:          0 MISS:          0
cpu0_L2C WRITE        ACCESS:     239053 HIT:     237244 MISS:       1809
cpu0_L2C TRANSLATION  ACCESS:      23344 HIT:       4141 MISS:      19203
cpu0_L2C PREFETCH REQUESTED:          0 ISSUED:          0 USEFUL:          0 USELESS:          0
cpu0_L2C AVERAGE MISS LATENCY: 70.2 cycles
cpu0_STLB TOTAL        ACCESS:     505154 HIT:     482365 MISS:      22789
cpu0_STLB LOAD         ACCESS:     505154 HIT:     482365 MISS:      22789
cpu0_STLB RFO          ACCESS:          0 HIT:          0 MISS:          0
cpu0_STLB PREFETCH     ACCESS:          0 HIT:          0 MISS:          0
cpu0_STLB WRITE        ACCESS:          0 HIT:          0 MISS:          0
cpu0_STLB TRANSLATION  ACCESS:          0 HIT:          0 MISS:          0
cpu0_STLB PREFETCH REQUESTED:          0 ISSUED:          0 USEFUL:          0 USELESS:          0
cpu0_STLB AVERAGE MISS LATENCY: 181.4 cycles

DRAM Statistics

Channel 0 RQ ROW_BUFFER_HIT:      13285
  ROW_BUFFER_MISS:      34862
 AVG DBUS CONGESTED CYCLE: 3.692
WQ ROW_BUFFER_HIT: Channel 0 
  ROW_BUFFER_MISS:        360
  FULL:        771
