WARNING: physical memory size is smaller than virtual memory size.

*** ChampSim Multicore Out-of-Order Simulator ***
Warmup Instructions: 50000000
Simulation Instructions: 600000000
Number of CPUs: 1
Page size: 4096

Off-chip DRAM Size: 4 GiB Channels: 1 Width: 64-bit Data Race: 3200 MT/s
Heartbeat CPU 0 instructions: 10000000 cycles: 2500061 heartbeat IPC: 4 cumulative IPC: 4 (Simulation time: 00 hr 03 min 22 sec)
Heartbeat CPU 0 instructions: 20000000 cycles: 5000061 heartbeat IPC: 4 cumulative IPC: 4 (Simulation time: 00 hr 06 min 44 sec)
Heartbeat CPU 0 instructions: 30000000 cycles: 7500061 heartbeat IPC: 4 cumulative IPC: 4 (Simulation time: 00 hr 10 min 04 sec)
Heartbeat CPU 0 instructions: 40000000 cycles: 10000061 heartbeat IPC: 4 cumulative IPC: 4 (Simulation time: 00 hr 13 min 23 sec)
Heartbeat CPU 0 instructions: 50000000 cycles: 12500061 heartbeat IPC: 4 cumulative IPC: 4 (Simulation time: 00 hr 16 min 45 sec)
Warmup finished CPU 0 instructions: 50000000 cycles: 12500062 cumulative IPC: 4 (Simulation time: 00 hr 16 min 45 sec)
Warmup complete CPU 0 instructions: 50000000 cycles: 12500062 cumulative IPC: 4 (Simulation time: 00 hr 16 min 45 sec)
Heartbeat CPU 0 instructions: 60000002 cycles: 16907366 heartbeat IPC: 2.269 cumulative IPC: 2.269 (Simulation time: 00 hr 21 min 40 sec)
Heartbeat CPU 0 instructions: 70000003 cycles: 21889050 heartbeat IPC: 2.007 cumulative IPC: 2.13 (Simulation time: 00 hr 26 min 49 sec)
Heartbeat CPU 0 instructions: 80000001 cycles: 27230745 heartbeat IPC: 1.872 cumulative IPC: 2.037 (Simulation time: 00 hr 32 min 08 sec)
Heartbeat CPU 0 instructions: 90000000 cycles: 31527294 heartbeat IPC: 2.327 cumulative IPC: 2.102 (Simulation time: 00 hr 37 min 08 sec)
Heartbeat CPU 0 instructions: 100000003 cycles: 36379334 heartbeat IPC: 2.061 cumulative IPC: 2.094 (Simulation time: 00 hr 42 min 14 sec)
Heartbeat CPU 0 instructions: 110000002 cycles: 41247374 heartbeat IPC: 2.054 cumulative IPC: 2.087 (Simulation time: 00 hr 47 min 20 sec)
Heartbeat CPU 0 instructions: 120000001 cycles: 46240828 heartbeat IPC: 2.003 cumulative IPC: 2.075 (Simulation time: 00 hr 52 min 30 sec)
Heartbeat CPU 0 instructions: 130000003 cycles: 50807189 heartbeat IPC: 2.19 cumulative IPC: 2.088 (Simulation time: 00 hr 57 min 26 sec)
Heartbeat CPU 0 instructions: 140000002 cycles: 55694832 heartbeat IPC: 2.046 cumulative IPC: 2.084 (Simulation time: 01 hr 02 min 31 sec)
Heartbeat CPU 0 instructions: 150000001 cycles: 60360024 heartbeat IPC: 2.144 cumulative IPC: 2.089 (Simulation time: 01 hr 07 min 30 sec)
Heartbeat CPU 0 instructions: 160000000 cycles: 64996045 heartbeat IPC: 2.157 cumulative IPC: 2.095 (Simulation time: 01 hr 12 min 30 sec)
Heartbeat CPU 0 instructions: 170000000 cycles: 70325364 heartbeat IPC: 1.876 cumulative IPC: 2.075 (Simulation time: 01 hr 17 min 53 sec)
Heartbeat CPU 0 instructions: 180000001 cycles: 76043102 heartbeat IPC: 1.749 cumulative IPC: 2.046 (Simulation time: 01 hr 23 min 31 sec)
Heartbeat CPU 0 instructions: 190000002 cycles: 80511237 heartbeat IPC: 2.238 cumulative IPC: 2.058 (Simulation time: 01 hr 28 min 26 sec)
Heartbeat CPU 0 instructions: 200000002 cycles: 85411245 heartbeat IPC: 2.041 cumulative IPC: 2.057 (Simulation time: 01 hr 33 min 34 sec)
Heartbeat CPU 0 instructions: 210000000 cycles: 90413026 heartbeat IPC: 1.999 cumulative IPC: 2.054 (Simulation time: 01 hr 38 min 45 sec)
Heartbeat CPU 0 instructions: 220000001 cycles: 95334767 heartbeat IPC: 2.032 cumulative IPC: 2.052 (Simulation time: 01 hr 43 min 53 sec)
Heartbeat CPU 0 instructions: 230000002 cycles: 100578650 heartbeat IPC: 1.907 cumulative IPC: 2.044 (Simulation time: 01 hr 49 min 12 sec)
Heartbeat CPU 0 instructions: 240000001 cycles: 105540806 heartbeat IPC: 2.015 cumulative IPC: 2.042 (Simulation time: 01 hr 54 min 24 sec)
Heartbeat CPU 0 instructions: 250000003 cycles: 110715200 heartbeat IPC: 1.933 cumulative IPC: 2.036 (Simulation time: 01 hr 59 min 38 sec)
Heartbeat CPU 0 instructions: 260000001 cycles: 115571230 heartbeat IPC: 2.059 cumulative IPC: 2.037 (Simulation time: 02 hr 04 min 44 sec)
Heartbeat CPU 0 instructions: 270000000 cycles: 123225925 heartbeat IPC: 1.306 cumulative IPC: 1.987 (Simulation time: 02 hr 11 min 42 sec)
Heartbeat CPU 0 instructions: 280000000 cycles: 133946193 heartbeat IPC: 0.9328 cumulative IPC: 1.894 (Simulation time: 02 hr 20 min 57 sec)
Heartbeat CPU 0 instructions: 290000001 cycles: 143136932 heartbeat IPC: 1.088 cumulative IPC: 1.837 (Simulation time: 02 hr 29 min 14 sec)
Heartbeat CPU 0 instructions: 300000003 cycles: 150504712 heartbeat IPC: 1.357 cumulative IPC: 1.812 (Simulation time: 02 hr 36 min 01 sec)
Heartbeat CPU 0 instructions: 310000004 cycles: 160760688 heartbeat IPC: 0.975 cumulative IPC: 1.754 (Simulation time: 02 hr 44 min 57 sec)
Heartbeat CPU 0 instructions: 320000004 cycles: 166323205 heartbeat IPC: 1.798 cumulative IPC: 1.755 (Simulation time: 02 hr 50 min 47 sec)
Heartbeat CPU 0 instructions: 330000000 cycles: 171534864 heartbeat IPC: 1.919 cumulative IPC: 1.761 (Simulation time: 02 hr 56 min 09 sec)
Heartbeat CPU 0 instructions: 340000001 cycles: 176265789 heartbeat IPC: 2.114 cumulative IPC: 1.771 (Simulation time: 03 hr 01 min 13 sec)
Heartbeat CPU 0 instructions: 350000000 cycles: 181170860 heartbeat IPC: 2.039 cumulative IPC: 1.779 (Simulation time: 03 hr 06 min 26 sec)
Heartbeat CPU 0 instructions: 360000003 cycles: 185864027 heartbeat IPC: 2.131 cumulative IPC: 1.788 (Simulation time: 03 hr 11 min 34 sec)
Heartbeat CPU 0 instructions: 370000001 cycles: 190545967 heartbeat IPC: 2.136 cumulative IPC: 1.797 (Simulation time: 03 hr 16 min 40 sec)
Heartbeat CPU 0 instructions: 380000004 cycles: 195508718 heartbeat IPC: 2.015 cumulative IPC: 1.803 (Simulation time: 03 hr 21 min 57 sec)
Heartbeat CPU 0 instructions: 390000002 cycles: 200358702 heartbeat IPC: 2.062 cumulative IPC: 1.81 (Simulation time: 03 hr 27 min 10 sec)
Heartbeat CPU 0 instructions: 400000000 cycles: 205300076 heartbeat IPC: 2.024 cumulative IPC: 1.815 (Simulation time: 03 hr 32 min 26 sec)
Heartbeat CPU 0 instructions: 410000000 cycles: 211269095 heartbeat IPC: 1.675 cumulative IPC: 1.811 (Simulation time: 03 hr 38 min 28 sec)
Heartbeat CPU 0 instructions: 420000001 cycles: 218263246 heartbeat IPC: 1.43 cumulative IPC: 1.798 (Simulation time: 03 hr 45 min 16 sec)
Heartbeat CPU 0 instructions: 430000000 cycles: 224819803 heartbeat IPC: 1.525 cumulative IPC: 1.79 (Simulation time: 03 hr 52 min 01 sec)
Heartbeat CPU 0 instructions: 440000002 cycles: 231278248 heartbeat IPC: 1.548 cumulative IPC: 1.783 (Simulation time: 03 hr 58 min 31 sec)
Heartbeat CPU 0 instructions: 450000000 cycles: 237589121 heartbeat IPC: 1.585 cumulative IPC: 1.777 (Simulation time: 04 hr 05 min 10 sec)
Heartbeat CPU 0 instructions: 460000002 cycles: 244985244 heartbeat IPC: 1.352 cumulative IPC: 1.764 (Simulation time: 04 hr 12 min 25 sec)
Heartbeat CPU 0 instructions: 470000000 cycles: 251335456 heartbeat IPC: 1.575 cumulative IPC: 1.759 (Simulation time: 04 hr 18 min 50 sec)
Heartbeat CPU 0 instructions: 480000000 cycles: 256231107 heartbeat IPC: 2.043 cumulative IPC: 1.764 (Simulation time: 04 hr 24 min 05 sec)
Heartbeat CPU 0 instructions: 490000001 cycles: 261084147 heartbeat IPC: 2.061 cumulative IPC: 1.77 (Simulation time: 04 hr 29 min 17 sec)
Heartbeat CPU 0 instructions: 500000002 cycles: 265912545 heartbeat IPC: 2.071 cumulative IPC: 1.776 (Simulation time: 04 hr 34 min 30 sec)
Heartbeat CPU 0 instructions: 510000000 cycles: 270799257 heartbeat IPC: 2.046 cumulative IPC: 1.781 (Simulation time: 04 hr 39 min 54 sec)
Heartbeat CPU 0 instructions: 520000000 cycles: 275732585 heartbeat IPC: 2.027 cumulative IPC: 1.785 (Simulation time: 04 hr 45 min 09 sec)
Heartbeat CPU 0 instructions: 530000001 cycles: 282492286 heartbeat IPC: 1.479 cumulative IPC: 1.778 (Simulation time: 04 hr 51 min 49 sec)
Heartbeat CPU 0 instructions: 540000000 cycles: 289191719 heartbeat IPC: 1.493 cumulative IPC: 1.771 (Simulation time: 04 hr 58 min 35 sec)
Heartbeat CPU 0 instructions: 550000002 cycles: 296297864 heartbeat IPC: 1.407 cumulative IPC: 1.762 (Simulation time: 05 hr 05 min 34 sec)
Heartbeat CPU 0 instructions: 560000004 cycles: 300685667 heartbeat IPC: 2.279 cumulative IPC: 1.77 (Simulation time: 05 hr 10 min 30 sec)
Heartbeat CPU 0 instructions: 570000001 cycles: 305036396 heartbeat IPC: 2.298 cumulative IPC: 1.778 (Simulation time: 05 hr 15 min 34 sec)
Heartbeat CPU 0 instructions: 580000003 cycles: 309164944 heartbeat IPC: 2.422 cumulative IPC: 1.787 (Simulation time: 05 hr 20 min 21 sec)
Heartbeat CPU 0 instructions: 590000001 cycles: 313968460 heartbeat IPC: 2.082 cumulative IPC: 1.791 (Simulation time: 05 hr 25 min 29 sec)
Heartbeat CPU 0 instructions: 600000003 cycles: 318555612 heartbeat IPC: 2.18 cumulative IPC: 1.797 (Simulation time: 05 hr 30 min 35 sec)
Heartbeat CPU 0 instructions: 610000001 cycles: 323348011 heartbeat IPC: 2.087 cumulative IPC: 1.802 (Simulation time: 05 hr 35 min 43 sec)
Heartbeat CPU 0 instructions: 620000000 cycles: 328359379 heartbeat IPC: 1.995 cumulative IPC: 1.805 (Simulation time: 05 hr 41 min 02 sec)
Heartbeat CPU 0 instructions: 630000002 cycles: 332564961 heartbeat IPC: 2.378 cumulative IPC: 1.812 (Simulation time: 05 hr 45 min 52 sec)
Heartbeat CPU 0 instructions: 640000004 cycles: 337835749 heartbeat IPC: 1.897 cumulative IPC: 1.814 (Simulation time: 05 hr 51 min 19 sec)
Heartbeat CPU 0 instructions: 650000001 cycles: 342577507 heartbeat IPC: 2.109 cumulative IPC: 1.818 (Simulation time: 05 hr 56 min 36 sec)
Simulation finished CPU 0 instructions: 600000001 cycles: 330077446 cumulative IPC: 1.818 (Simulation time: 05 hr 56 min 36 sec)
Simulation complete CPU 0 instructions: 600000001 cycles: 330077446 cumulative IPC: 1.818 (Simulation time: 05 hr 56 min 36 sec)

ChampSim completed all CPUs

=== Simulation ===
CPU 0 runs traces/400.perlbench-50B.champsimtrace.xz
Region of Interest Statistics

CPU 0 cumulative IPC: 1.818 instructions: 600000001 cycles: 330077446
CPU 0 Branch Prediction Accuracy: 93.83% MPKI: 12.71 Average ROB Occupancy at Mispredict: 29.15
Branch type MPKI
BRANCH_DIRECT_JUMP: 0.0176
BRANCH_INDIRECT: 0.38
BRANCH_CONDITIONAL: 11.9
BRANCH_DIRECT_CALL: 0.0067
BRANCH_INDIRECT_CALL: 0.431
BRANCH_RETURN: 0.0161

LLC TOTAL        ACCESS:     850228 HIT:     731229 MISS:     118999
LLC LOAD         ACCESS:     587080 HIT:     497097 MISS:      89983
LLC RFO          ACCESS:      47474 HIT:      38172 MISS:       9302
LLC PREFETCH     ACCESS:      65399 HIT:      55117 MISS:      10282
LLC WRITE        ACCESS:     128193 HIT:     128024 MISS:        169
LLC TRANSLATION  ACCESS:      22082 HIT:      12819 MISS:       9263
LLC PREFETCH REQUESTED:      65399 ISSUED:      65399 USEFUL:       6341 USELESS:        292
LLC AVERAGE MISS LATENCY: 476.3 cycles
cpu0_DTLB TOTAL        ACCESS:  156794264 HIT:  155494339 MISS:    1299925
cpu0_DTLB LOAD         ACCESS:  156794264 HIT:  155494339 MISS:    1299925
cpu0_DTLB RFO          ACCESS:          0 HIT:          0 MISS:          0
cpu0_DTLB PREFETCH     ACCESS:          0 HIT:          0 MISS:          0
cpu0_DTLB WRITE        ACCESS:          0 HIT:          0 MISS:          0
cpu0_DTLB TRANSLATION  ACCESS:          0 HIT:          0 MISS:          0
cpu0_DTLB PREFETCH REQUESTED:          0 ISSUED:          0 USEFUL:          0 USELESS:          0
cpu0_DTLB AVERAGE MISS LATENCY: 9.957 cycles
cpu0_ITLB TOTAL        ACCESS:    8932930 HIT:    8734339 MISS:     198591
cpu0_ITLB LOAD         ACCESS:    8932930 HIT:    8734339 MISS:     198591
cpu0_ITLB RFO          ACCESS:          0 HIT:          0 MISS:          0
cpu0_ITLB PREFETCH     ACCESS:          0 HIT:          0 MISS:          0
cpu0_ITLB WRITE        ACCESS:          0 HIT:          0 MISS:          0
cpu0_ITLB TRANSLATION  ACCESS:          0 HIT:          0 MISS:          0
cpu0_ITLB PREFETCH REQUESTED:          0 ISSUED:          0 USEFUL:          0 USELESS:          0
cpu0_ITLB AVERAGE MISS LATENCY: 2.564 cycles
cpu0_L1D TOTAL        ACCESS:  203657840 HIT:  200021114 MISS:    3636726
cpu0_L1D LOAD         ACCESS:  117980715 HIT:  114985308 MISS:    2995407
cpu0_L1D RFO          ACCESS:          0 HIT:          0 MISS:          0
cpu0_L1D PREFETCH     ACCESS:          0 HIT:          0 MISS:          0
cpu0_L1D WRITE        ACCESS:   85648579 HIT:   85034398 MISS:     614181
cpu0_L1D TRANSLATION  ACCESS:      28546 HIT:       1408 MISS:      27138
cpu0_L1D PREFETCH REQUESTED:          0 ISSUED:          0 USEFUL:          0 USELESS:          0
cpu0_L1D AVERAGE MISS LATENCY: 20.87 cycles
cpu0_L1I TOTAL        ACCESS:   10371540 HIT:    8574074 MISS:    1797466
cpu0_L1I LOAD         ACCESS:   10371540 HIT:    8574074 MISS:    1797466
cpu0_L1I RFO          ACCESS:          0 HIT:          0 MISS:          0
cpu0_L1I PREFETCH     ACCESS:          0 HIT:          0 MISS:          0
cpu0_L1I WRITE        ACCESS:          0 HIT:          0 MISS:          0
cpu0_L1I TRANSLATION  ACCESS:          0 HIT:          0 MISS:          0
cpu0_L1I PREFETCH REQUESTED:          0 ISSUED:          0 USEFUL:          0 USELESS:          0
cpu0_L1I AVERAGE MISS LATENCY: 9.177 cycles
cpu0_L2C TOTAL        ACCESS:    3837319 HIT:    3177439 MISS:     659880
cpu0_L2C LOAD         ACCESS:    3106502 HIT:    2519422 MISS:     587080
cpu0_L2C RFO          ACCESS:     191755 HIT:     144281 MISS:      47474
cpu0_L2C PREFETCH     ACCESS:          0 HIT:          0 MISS:          0
cpu0_L2C WRITE        ACCESS:     511999 HIT:     508755 MISS:       3244
cpu0_L2C TRANSLATION  ACCESS:      27063 HIT:       4981 MISS:      22082
cpu0_L2C PREFETCH REQUESTED:          0 ISSUED:          0 USEFUL:          0 USELESS:          0
cpu0_L2C AVERAGE MISS LATENCY: 97.88 cycles
cpu0_STLB TOTAL        ACCESS:    1009167 HIT:     982473 MISS:      26694
cpu0_STLB LOAD         ACCESS:    1009167 HIT:     982473 MISS:      26694
cpu0_STLB RFO          ACCESS:          0 HIT:          0 MISS:          0
cpu0_STLB PREFETCH     ACCESS:          0 HIT:          0 MISS:          0
cpu0_STLB WRITE        ACCESS:          0 HIT:          0 MISS:          0
cpu0_STLB TRANSLATION  ACCESS:          0 HIT:          0 MISS:          0
cpu0_STLB PREFETCH REQUESTED:          0 ISSUED:          0 USEFUL:          0 USELESS:          0
cpu0_STLB AVERAGE MISS LATENCY: 256.3 cycles

DRAM Statistics

Channel 0 RQ ROW_BUFFER_HIT:      36344
  ROW_BUFFER_MISS:      80698
 AVG DBUS CONGESTED CYCLE: 3.736
WQ ROW_BUFFER_HIT: Channel 0 
  ROW_BUFFER_MISS:        639
  FULL:       1000
