WARNING: physical memory size is smaller than virtual memory size.

*** ChampSim Multicore Out-of-Order Simulator ***
Warmup Instructions: 50000000
Simulation Instructions: 600000000
Number of CPUs: 1
Page size: 4096

Off-chip DRAM Size: 4 GiB Channels: 1 Width: 64-bit Data Race: 3200 MT/s
Heartbeat CPU 0 instructions: 10000001 cycles: 2500318 heartbeat IPC: 3.999 cumulative IPC: 3.999 (Simulation time: 00 hr 03 min 41 sec)
Heartbeat CPU 0 instructions: 20000002 cycles: 5037122 heartbeat IPC: 3.942 cumulative IPC: 3.971 (Simulation time: 00 hr 07 min 25 sec)
Heartbeat CPU 0 instructions: 30000002 cycles: 7537122 heartbeat IPC: 4 cumulative IPC: 3.98 (Simulation time: 00 hr 10 min 50 sec)
Heartbeat CPU 0 instructions: 40000002 cycles: 10037122 heartbeat IPC: 4 cumulative IPC: 3.985 (Simulation time: 00 hr 14 min 29 sec)
Heartbeat CPU 0 instructions: 50000002 cycles: 12537122 heartbeat IPC: 4 cumulative IPC: 3.988 (Simulation time: 00 hr 17 min 55 sec)
Warmup finished CPU 0 instructions: 50000002 cycles: 12537123 cumulative IPC: 3.988 (Simulation time: 00 hr 17 min 55 sec)
Warmup complete CPU 0 instructions: 50000002 cycles: 12537123 cumulative IPC: 3.988 (Simulation time: 00 hr 17 min 55 sec)
Heartbeat CPU 0 instructions: 60000000 cycles: 17119892 heartbeat IPC: 2.182 cumulative IPC: 2.182 (Simulation time: 00 hr 22 min 58 sec)
Heartbeat CPU 0 instructions: 70000004 cycles: 21367531 heartbeat IPC: 2.354 cumulative IPC: 2.265 (Simulation time: 00 hr 27 min 42 sec)
Heartbeat CPU 0 instructions: 80000001 cycles: 25933260 heartbeat IPC: 2.19 cumulative IPC: 2.239 (Simulation time: 00 hr 32 min 30 sec)
Heartbeat CPU 0 instructions: 90000001 cycles: 30037562 heartbeat IPC: 2.436 cumulative IPC: 2.286 (Simulation time: 00 hr 37 min 14 sec)
Heartbeat CPU 0 instructions: 100000000 cycles: 34066855 heartbeat IPC: 2.482 cumulative IPC: 2.322 (Simulation time: 00 hr 41 min 56 sec)
Heartbeat CPU 0 instructions: 110000000 cycles: 38286040 heartbeat IPC: 2.37 cumulative IPC: 2.33 (Simulation time: 00 hr 46 min 45 sec)
Heartbeat CPU 0 instructions: 120000001 cycles: 42276049 heartbeat IPC: 2.506 cumulative IPC: 2.354 (Simulation time: 00 hr 51 min 27 sec)
Heartbeat CPU 0 instructions: 130000001 cycles: 45984616 heartbeat IPC: 2.696 cumulative IPC: 2.392 (Simulation time: 00 hr 56 min 04 sec)
Heartbeat CPU 0 instructions: 140000001 cycles: 50112681 heartbeat IPC: 2.422 cumulative IPC: 2.395 (Simulation time: 01 hr 00 min 47 sec)
Heartbeat CPU 0 instructions: 150000001 cycles: 54279273 heartbeat IPC: 2.4 cumulative IPC: 2.396 (Simulation time: 01 hr 05 min 35 sec)
Heartbeat CPU 0 instructions: 160000004 cycles: 58653456 heartbeat IPC: 2.286 cumulative IPC: 2.385 (Simulation time: 01 hr 10 min 33 sec)
Heartbeat CPU 0 instructions: 170000000 cycles: 65895057 heartbeat IPC: 1.381 cumulative IPC: 2.249 (Simulation time: 01 hr 17 min 26 sec)
Heartbeat CPU 0 instructions: 180000004 cycles: 72358349 heartbeat IPC: 1.547 cumulative IPC: 2.173 (Simulation time: 01 hr 24 min 00 sec)
Heartbeat CPU 0 instructions: 190000001 cycles: 78004845 heartbeat IPC: 1.771 cumulative IPC: 2.138 (Simulation time: 01 hr 30 min 02 sec)
Heartbeat CPU 0 instructions: 200000004 cycles: 81493516 heartbeat IPC: 2.866 cumulative IPC: 2.175 (Simulation time: 01 hr 34 min 27 sec)
Heartbeat CPU 0 instructions: 210000001 cycles: 85182715 heartbeat IPC: 2.711 cumulative IPC: 2.202 (Simulation time: 01 hr 38 min 59 sec)
Heartbeat CPU 0 instructions: 220000000 cycles: 88999445 heartbeat IPC: 2.62 cumulative IPC: 2.223 (Simulation time: 01 hr 43 min 36 sec)
Heartbeat CPU 0 instructions: 230000002 cycles: 93219003 heartbeat IPC: 2.37 cumulative IPC: 2.231 (Simulation time: 01 hr 48 min 21 sec)
Heartbeat CPU 0 instructions: 240000000 cycles: 97135033 heartbeat IPC: 2.554 cumulative IPC: 2.246 (Simulation time: 01 hr 52 min 59 sec)
Heartbeat CPU 0 instructions: 250000000 cycles: 101111714 heartbeat IPC: 2.515 cumulative IPC: 2.258 (Simulation time: 01 hr 57 min 50 sec)
Heartbeat CPU 0 instructions: 260000000 cycles: 104957710 heartbeat IPC: 2.6 cumulative IPC: 2.272 (Simulation time: 02 hr 02 min 28 sec)
Heartbeat CPU 0 instructions: 270000002 cycles: 108580554 heartbeat IPC: 2.76 cumulative IPC: 2.291 (Simulation time: 02 hr 07 min 00 sec)
Heartbeat CPU 0 instructions: 280000002 cycles: 112490243 heartbeat IPC: 2.558 cumulative IPC: 2.301 (Simulation time: 02 hr 11 min 39 sec)
Heartbeat CPU 0 instructions: 290000001 cycles: 116178633 heartbeat IPC: 2.711 cumulative IPC: 2.316 (Simulation time: 02 hr 16 min 13 sec)
Heartbeat CPU 0 instructions: 300000003 cycles: 119682551 heartbeat IPC: 2.854 cumulative IPC: 2.333 (Simulation time: 02 hr 20 min 41 sec)
Heartbeat CPU 0 instructions: 310000001 cycles: 123459100 heartbeat IPC: 2.648 cumulative IPC: 2.344 (Simulation time: 02 hr 25 min 17 sec)
Heartbeat CPU 0 instructions: 320000003 cycles: 127262029 heartbeat IPC: 2.63 cumulative IPC: 2.353 (Simulation time: 02 hr 29 min 52 sec)
Heartbeat CPU 0 instructions: 330000003 cycles: 131279666 heartbeat IPC: 2.489 cumulative IPC: 2.358 (Simulation time: 02 hr 34 min 47 sec)
Heartbeat CPU 0 instructions: 340000000 cycles: 137223449 heartbeat IPC: 1.682 cumulative IPC: 2.326 (Simulation time: 02 hr 40 min 55 sec)
Heartbeat CPU 0 instructions: 350000000 cycles: 143781698 heartbeat IPC: 1.525 cumulative IPC: 2.286 (Simulation time: 02 hr 47 min 31 sec)
Heartbeat CPU 0 instructions: 360000004 cycles: 149593415 heartbeat IPC: 1.721 cumulative IPC: 2.262 (Simulation time: 02 hr 53 min 38 sec)
Heartbeat CPU 0 instructions: 370000000 cycles: 152817482 heartbeat IPC: 3.102 cumulative IPC: 2.281 (Simulation time: 02 hr 57 min 55 sec)
Heartbeat CPU 0 instructions: 380000001 cycles: 156030035 heartbeat IPC: 3.113 cumulative IPC: 2.3 (Simulation time: 03 hr 02 min 16 sec)
Heartbeat CPU 0 instructions: 390000004 cycles: 159622025 heartbeat IPC: 2.784 cumulative IPC: 2.312 (Simulation time: 03 hr 06 min 47 sec)
Heartbeat CPU 0 instructions: 400000004 cycles: 163332724 heartbeat IPC: 2.695 cumulative IPC: 2.321 (Simulation time: 03 hr 11 min 29 sec)
Heartbeat CPU 0 instructions: 410000001 cycles: 166749680 heartbeat IPC: 2.927 cumulative IPC: 2.334 (Simulation time: 03 hr 15 min 53 sec)
Heartbeat CPU 0 instructions: 420000003 cycles: 170440051 heartbeat IPC: 2.71 cumulative IPC: 2.343 (Simulation time: 03 hr 20 min 24 sec)
Heartbeat CPU 0 instructions: 430000001 cycles: 173916673 heartbeat IPC: 2.876 cumulative IPC: 2.355 (Simulation time: 03 hr 24 min 51 sec)
Heartbeat CPU 0 instructions: 440000004 cycles: 177709539 heartbeat IPC: 2.637 cumulative IPC: 2.361 (Simulation time: 03 hr 29 min 26 sec)
Heartbeat CPU 0 instructions: 450000002 cycles: 181189504 heartbeat IPC: 2.874 cumulative IPC: 2.372 (Simulation time: 03 hr 33 min 53 sec)
Heartbeat CPU 0 instructions: 460000000 cycles: 184644283 heartbeat IPC: 2.895 cumulative IPC: 2.382 (Simulation time: 03 hr 38 min 17 sec)
Heartbeat CPU 0 instructions: 470000000 cycles: 187922177 heartbeat IPC: 3.051 cumulative IPC: 2.395 (Simulation time: 03 hr 42 min 36 sec)
Heartbeat CPU 0 instructions: 480000003 cycles: 191517716 heartbeat IPC: 2.781 cumulative IPC: 2.402 (Simulation time: 03 hr 47 min 01 sec)
Heartbeat CPU 0 instructions: 490000000 cycles: 194998487 heartbeat IPC: 2.873 cumulative IPC: 2.411 (Simulation time: 03 hr 51 min 29 sec)
Heartbeat CPU 0 instructions: 500000000 cycles: 198553567 heartbeat IPC: 2.813 cumulative IPC: 2.419 (Simulation time: 03 hr 56 min 05 sec)
Heartbeat CPU 0 instructions: 510000003 cycles: 201963642 heartbeat IPC: 2.932 cumulative IPC: 2.428 (Simulation time: 04 hr 00 min 30 sec)
Heartbeat CPU 0 instructions: 520000001 cycles: 205119853 heartbeat IPC: 3.168 cumulative IPC: 2.441 (Simulation time: 04 hr 04 min 47 sec)
Heartbeat CPU 0 instructions: 530000002 cycles: 208587117 heartbeat IPC: 2.884 cumulative IPC: 2.448 (Simulation time: 04 hr 09 min 11 sec)
Heartbeat CPU 0 instructions: 540000000 cycles: 211905552 heartbeat IPC: 3.013 cumulative IPC: 2.458 (Simulation time: 04 hr 13 min 31 sec)
Heartbeat CPU 0 instructions: 550000001 cycles: 215426178 heartbeat IPC: 2.84 cumulative IPC: 2.464 (Simulation time: 04 hr 17 min 58 sec)
Heartbeat CPU 0 instructions: 560000000 cycles: 219081954 heartbeat IPC: 2.735 cumulative IPC: 2.469 (Simulation time: 04 hr 22 min 27 sec)
Heartbeat CPU 0 instructions: 570000004 cycles: 223615748 heartbeat IPC: 2.206 cumulative IPC: 2.464 (Simulation time: 04 hr 27 min 39 sec)
Heartbeat CPU 0 instructions: 580000003 cycles: 229939879 heartbeat IPC: 1.581 cumulative IPC: 2.438 (Simulation time: 04 hr 34 min 07 sec)
Heartbeat CPU 0 instructions: 590000002 cycles: 236643518 heartbeat IPC: 1.492 cumulative IPC: 2.41 (Simulation time: 04 hr 40 min 54 sec)
Heartbeat CPU 0 instructions: 600000000 cycles: 240132038 heartbeat IPC: 2.867 cumulative IPC: 2.417 (Simulation time: 04 hr 45 min 19 sec)
Heartbeat CPU 0 instructions: 610000000 cycles: 243793907 heartbeat IPC: 2.731 cumulative IPC: 2.422 (Simulation time: 04 hr 49 min 50 sec)
Heartbeat CPU 0 instructions: 620000001 cycles: 247118750 heartbeat IPC: 3.008 cumulative IPC: 2.43 (Simulation time: 04 hr 54 min 13 sec)
Heartbeat CPU 0 instructions: 630000002 cycles: 251218013 heartbeat IPC: 2.439 cumulative IPC: 2.43 (Simulation time: 04 hr 58 min 59 sec)
Heartbeat CPU 0 instructions: 640000001 cycles: 255039254 heartbeat IPC: 2.617 cumulative IPC: 2.433 (Simulation time: 05 hr 03 min 37 sec)
Heartbeat CPU 0 instructions: 650000000 cycles: 258725722 heartbeat IPC: 2.713 cumulative IPC: 2.437 (Simulation time: 05 hr 08 min 09 sec)
Simulation finished CPU 0 instructions: 600000001 cycles: 246188601 cumulative IPC: 2.437 (Simulation time: 05 hr 08 min 09 sec)
Simulation complete CPU 0 instructions: 600000001 cycles: 246188601 cumulative IPC: 2.437 (Simulation time: 05 hr 08 min 09 sec)

ChampSim completed all CPUs

=== Simulation ===
CPU 0 runs traces/400.perlbench-41B.champsimtrace.xz
Region of Interest Statistics

CPU 0 cumulative IPC: 2.437 instructions: 600000001 cycles: 246188601
CPU 0 Branch Prediction Accuracy: 96.56% MPKI: 7.112 Average ROB Occupancy at Mispredict: 46.62
Branch type MPKI
BRANCH_DIRECT_JUMP: 0.0123
BRANCH_INDIRECT: 0.323
BRANCH_CONDITIONAL: 6.56
BRANCH_DIRECT_CALL: 0.0043
BRANCH_INDIRECT_CALL: 0.2
BRANCH_RETURN: 0.00828

LLC TOTAL        ACCESS:     593932 HIT:     548007 MISS:      45925
LLC LOAD         ACCESS:     403226 HIT:     372307 MISS:      30919
LLC RFO          ACCESS:      32499 HIT:      28460 MISS:       4039
LLC PREFETCH     ACCESS:      53449 HIT:      49229 MISS:       4220
LLC WRITE        ACCESS:      85547 HIT:      85444 MISS:        103
LLC TRANSLATION  ACCESS:      19211 HIT:      12567 MISS:       6644
LLC PREFETCH REQUESTED:      53449 ISSUED:      53449 USEFUL:       2622 USELESS:        160
LLC AVERAGE MISS LATENCY: 507.8 cycles
cpu0_DTLB TOTAL        ACCESS:  141910008 HIT:  141225348 MISS:     684660
cpu0_DTLB LOAD         ACCESS:  141910008 HIT:  141225348 MISS:     684660
cpu0_DTLB RFO          ACCESS:          0 HIT:          0 MISS:          0
cpu0_DTLB PREFETCH     ACCESS:          0 HIT:          0 MISS:          0
cpu0_DTLB WRITE        ACCESS:          0 HIT:          0 MISS:          0
cpu0_DTLB TRANSLATION  ACCESS:          0 HIT:          0 MISS:          0
cpu0_DTLB PREFETCH REQUESTED:          0 ISSUED:          0 USEFUL:          0 USELESS:          0
cpu0_DTLB AVERAGE MISS LATENCY: 10.38 cycles
cpu0_ITLB TOTAL        ACCESS:    4857235 HIT:    4804128 MISS:      53107
cpu0_ITLB LOAD         ACCESS:    4857235 HIT:    4804128 MISS:      53107
cpu0_ITLB RFO          ACCESS:          0 HIT:          0 MISS:          0
cpu0_ITLB PREFETCH     ACCESS:          0 HIT:          0 MISS:          0
cpu0_ITLB WRITE        ACCESS:          0 HIT:          0 MISS:          0
cpu0_ITLB TRANSLATION  ACCESS:          0 HIT:          0 MISS:          0
cpu0_ITLB PREFETCH REQUESTED:          0 ISSUED:          0 USEFUL:          0 USELESS:          0
cpu0_ITLB AVERAGE MISS LATENCY: 4.916 cycles
cpu0_L1D TOTAL        ACCESS:  188597902 HIT:  186920786 MISS:    1677116
cpu0_L1D LOAD         ACCESS:  105231295 HIT:  103918243 MISS:    1313052
cpu0_L1D RFO          ACCESS:          0 HIT:          0 MISS:          0
cpu0_L1D PREFETCH     ACCESS:          0 HIT:          0 MISS:          0
cpu0_L1D WRITE        ACCESS:   83342141 HIT:   83001478 MISS:     340663
cpu0_L1D TRANSLATION  ACCESS:      24466 HIT:       1065 MISS:      23401
cpu0_L1D PREFETCH REQUESTED:          0 ISSUED:          0 USEFUL:          0 USELESS:          0
cpu0_L1D AVERAGE MISS LATENCY: 20.78 cycles
cpu0_L1I TOTAL        ACCESS:    5595278 HIT:    4852034 MISS:     743244
cpu0_L1I LOAD         ACCESS:    5595278 HIT:    4852034 MISS:     743244
cpu0_L1I RFO          ACCESS:          0 HIT:          0 MISS:          0
cpu0_L1I PREFETCH     ACCESS:          0 HIT:          0 MISS:          0
cpu0_L1I WRITE        ACCESS:          0 HIT:          0 MISS:          0
cpu0_L1I TRANSLATION  ACCESS:          0 HIT:          0 MISS:          0
cpu0_L1I PREFETCH REQUESTED:          0 ISSUED:          0 USEFUL:          0 USELESS:          0
cpu0_L1I AVERAGE MISS LATENCY: 8.929 cycles
cpu0_L2C TOTAL        ACCESS:    1666288 HIT:    1209542 MISS:     456746
cpu0_L2C LOAD         ACCESS:    1316075 HIT:     912849 MISS:     403226
cpu0_L2C RFO          ACCESS:      88293 HIT:      55794 MISS:      32499
cpu0_L2C PREFETCH     ACCESS:          0 HIT:          0 MISS:          0
cpu0_L2C WRITE        ACCESS:     238590 HIT:     236780 MISS:       1810
cpu0_L2C TRANSLATION  ACCESS:      23330 HIT:       4119 MISS:      19211
cpu0_L2C PREFETCH REQUESTED:          0 ISSUED:          0 USEFUL:          0 USELESS:          0
cpu0_L2C AVERAGE MISS LATENCY: 65.29 cycles
cpu0_STLB TOTAL        ACCESS:     506532 HIT:     483738 MISS:      22794
cpu0_STLB LOAD         ACCESS:     506532 HIT:     483738 MISS:      22794
cpu0_STLB RFO          ACCESS:          0 HIT:          0 MISS:          0
cpu0_STLB PREFETCH     ACCESS:          0 HIT:          0 MISS:          0
cpu0_STLB WRITE        ACCESS:          0 HIT:          0 MISS:          0
cpu0_STLB TRANSLATION  ACCESS:          0 HIT:          0 MISS:          0
cpu0_STLB PREFETCH REQUESTED:          0 ISSUED:          0 USEFUL:          0 USELESS:          0
cpu0_STLB AVERAGE MISS LATENCY: 179.4 cycles

DRAM Statistics

Channel 0 RQ ROW_BUFFER_HIT:      13567
  ROW_BUFFER_MISS:      31872
 AVG DBUS CONGESTED CYCLE: 3.729
WQ ROW_BUFFER_HIT: Channel 0 
  ROW_BUFFER_MISS:        236
  FULL:        596
