WARNING: physical memory size is smaller than virtual memory size.

*** ChampSim Multicore Out-of-Order Simulator ***
Warmup Instructions: 50000000
Simulation Instructions: 600000000
Number of CPUs: 1
Page size: 4096

CPU 0 Tage branch predictor
Off-chip DRAM Size: 4 GiB Channels: 1 Width: 64-bit Data Race: 3200 MT/s
Heartbeat CPU 0 instructions: 10000000 cycles: 2500061 heartbeat IPC: 4 cumulative IPC: 4 (Simulation time: 00 hr 01 min 16 sec)
Heartbeat CPU 0 instructions: 20000000 cycles: 5000061 heartbeat IPC: 4 cumulative IPC: 4 (Simulation time: 00 hr 02 min 40 sec)
Heartbeat CPU 0 instructions: 30000000 cycles: 7500061 heartbeat IPC: 4 cumulative IPC: 4 (Simulation time: 00 hr 04 min 08 sec)
Heartbeat CPU 0 instructions: 40000000 cycles: 10000061 heartbeat IPC: 4 cumulative IPC: 4 (Simulation time: 00 hr 05 min 32 sec)
Heartbeat CPU 0 instructions: 50000000 cycles: 12500061 heartbeat IPC: 4 cumulative IPC: 4 (Simulation time: 00 hr 06 min 52 sec)
Warmup finished CPU 0 instructions: 50000000 cycles: 12500062 cumulative IPC: 4 (Simulation time: 00 hr 06 min 52 sec)
Warmup complete CPU 0 instructions: 50000000 cycles: 12500062 cumulative IPC: 4 (Simulation time: 00 hr 06 min 52 sec)
Heartbeat CPU 0 instructions: 60000004 cycles: 15503677 heartbeat IPC: 3.329 cumulative IPC: 3.329 (Simulation time: 00 hr 08 min 31 sec)
Heartbeat CPU 0 instructions: 70000003 cycles: 18382317 heartbeat IPC: 3.474 cumulative IPC: 3.4 (Simulation time: 00 hr 10 min 08 sec)
Heartbeat CPU 0 instructions: 80000002 cycles: 21404747 heartbeat IPC: 3.309 cumulative IPC: 3.369 (Simulation time: 00 hr 11 min 49 sec)
Heartbeat CPU 0 instructions: 90000000 cycles: 24127135 heartbeat IPC: 3.673 cumulative IPC: 3.44 (Simulation time: 00 hr 13 min 29 sec)
Heartbeat CPU 0 instructions: 100000003 cycles: 26893697 heartbeat IPC: 3.615 cumulative IPC: 3.474 (Simulation time: 00 hr 15 min 08 sec)
Heartbeat CPU 0 instructions: 110000001 cycles: 29799971 heartbeat IPC: 3.441 cumulative IPC: 3.468 (Simulation time: 00 hr 16 min 45 sec)
Heartbeat CPU 0 instructions: 120000001 cycles: 32524189 heartbeat IPC: 3.671 cumulative IPC: 3.496 (Simulation time: 00 hr 18 min 18 sec)
Heartbeat CPU 0 instructions: 130000003 cycles: 35426960 heartbeat IPC: 3.445 cumulative IPC: 3.489 (Simulation time: 00 hr 19 min 49 sec)
Heartbeat CPU 0 instructions: 140000002 cycles: 38265022 heartbeat IPC: 3.524 cumulative IPC: 3.493 (Simulation time: 00 hr 21 min 30 sec)
Heartbeat CPU 0 instructions: 150000001 cycles: 41038933 heartbeat IPC: 3.605 cumulative IPC: 3.504 (Simulation time: 00 hr 23 min 06 sec)
Heartbeat CPU 0 instructions: 160000000 cycles: 43953820 heartbeat IPC: 3.431 cumulative IPC: 3.497 (Simulation time: 00 hr 24 min 52 sec)
Heartbeat CPU 0 instructions: 170000001 cycles: 46884845 heartbeat IPC: 3.412 cumulative IPC: 3.49 (Simulation time: 00 hr 26 min 23 sec)
Heartbeat CPU 0 instructions: 180000000 cycles: 49682531 heartbeat IPC: 3.574 cumulative IPC: 3.496 (Simulation time: 00 hr 27 min 07 sec)
Heartbeat CPU 0 instructions: 190000002 cycles: 52390539 heartbeat IPC: 3.693 cumulative IPC: 3.51 (Simulation time: 00 hr 27 min 54 sec)
Heartbeat CPU 0 instructions: 200000002 cycles: 55219937 heartbeat IPC: 3.534 cumulative IPC: 3.511 (Simulation time: 00 hr 28 min 41 sec)
Heartbeat CPU 0 instructions: 210000000 cycles: 58119126 heartbeat IPC: 3.449 cumulative IPC: 3.507 (Simulation time: 00 hr 29 min 28 sec)
Heartbeat CPU 0 instructions: 220000001 cycles: 60883566 heartbeat IPC: 3.617 cumulative IPC: 3.514 (Simulation time: 00 hr 30 min 14 sec)
Heartbeat CPU 0 instructions: 230000002 cycles: 63776820 heartbeat IPC: 3.456 cumulative IPC: 3.51 (Simulation time: 00 hr 31 min 01 sec)
Heartbeat CPU 0 instructions: 240000004 cycles: 66737011 heartbeat IPC: 3.378 cumulative IPC: 3.503 (Simulation time: 00 hr 31 min 49 sec)
Heartbeat CPU 0 instructions: 250000003 cycles: 69643379 heartbeat IPC: 3.441 cumulative IPC: 3.5 (Simulation time: 00 hr 32 min 36 sec)
Heartbeat CPU 0 instructions: 260000001 cycles: 72434967 heartbeat IPC: 3.582 cumulative IPC: 3.504 (Simulation time: 00 hr 33 min 25 sec)
Heartbeat CPU 0 instructions: 270000002 cycles: 77840334 heartbeat IPC: 1.85 cumulative IPC: 3.367 (Simulation time: 00 hr 34 min 26 sec)
Heartbeat CPU 0 instructions: 280000000 cycles: 85711076 heartbeat IPC: 1.271 cumulative IPC: 3.142 (Simulation time: 00 hr 35 min 47 sec)
Heartbeat CPU 0 instructions: 290000000 cycles: 92161938 heartbeat IPC: 1.55 cumulative IPC: 3.013 (Simulation time: 00 hr 37 min 00 sec)
Heartbeat CPU 0 instructions: 300000003 cycles: 97096409 heartbeat IPC: 2.027 cumulative IPC: 2.955 (Simulation time: 00 hr 38 min 05 sec)
Heartbeat CPU 0 instructions: 310000001 cycles: 104391741 heartbeat IPC: 1.371 cumulative IPC: 2.829 (Simulation time: 00 hr 39 min 25 sec)
Heartbeat CPU 0 instructions: 320000004 cycles: 108022120 heartbeat IPC: 2.755 cumulative IPC: 2.827 (Simulation time: 00 hr 40 min 20 sec)
Heartbeat CPU 0 instructions: 330000000 cycles: 111152650 heartbeat IPC: 3.194 cumulative IPC: 2.838 (Simulation time: 00 hr 41 min 09 sec)
Heartbeat CPU 0 instructions: 340000001 cycles: 114065868 heartbeat IPC: 3.433 cumulative IPC: 2.855 (Simulation time: 00 hr 41 min 57 sec)
Heartbeat CPU 0 instructions: 350000000 cycles: 117123144 heartbeat IPC: 3.271 cumulative IPC: 2.867 (Simulation time: 00 hr 42 min 46 sec)
Heartbeat CPU 0 instructions: 360000004 cycles: 120004000 heartbeat IPC: 3.471 cumulative IPC: 2.884 (Simulation time: 00 hr 43 min 34 sec)
Heartbeat CPU 0 instructions: 370000001 cycles: 122887821 heartbeat IPC: 3.468 cumulative IPC: 2.899 (Simulation time: 00 hr 44 min 22 sec)
Heartbeat CPU 0 instructions: 380000004 cycles: 125791016 heartbeat IPC: 3.444 cumulative IPC: 2.913 (Simulation time: 00 hr 45 min 12 sec)
Heartbeat CPU 0 instructions: 390000002 cycles: 128742930 heartbeat IPC: 3.388 cumulative IPC: 2.925 (Simulation time: 00 hr 46 min 03 sec)
Heartbeat CPU 0 instructions: 400000000 cycles: 131755462 heartbeat IPC: 3.319 cumulative IPC: 2.935 (Simulation time: 00 hr 46 min 53 sec)
Heartbeat CPU 0 instructions: 410000000 cycles: 136215878 heartbeat IPC: 2.242 cumulative IPC: 2.91 (Simulation time: 00 hr 47 min 54 sec)
Heartbeat CPU 0 instructions: 420000003 cycles: 142147045 heartbeat IPC: 1.686 cumulative IPC: 2.854 (Simulation time: 00 hr 49 min 07 sec)
Heartbeat CPU 0 instructions: 430000000 cycles: 146562911 heartbeat IPC: 2.265 cumulative IPC: 2.834 (Simulation time: 00 hr 50 min 11 sec)
Heartbeat CPU 0 instructions: 440000004 cycles: 150802176 heartbeat IPC: 2.359 cumulative IPC: 2.82 (Simulation time: 00 hr 51 min 12 sec)
Heartbeat CPU 0 instructions: 450000001 cycles: 155103939 heartbeat IPC: 2.325 cumulative IPC: 2.805 (Simulation time: 00 hr 52 min 13 sec)
Heartbeat CPU 0 instructions: 460000002 cycles: 160992284 heartbeat IPC: 1.698 cumulative IPC: 2.761 (Simulation time: 00 hr 53 min 24 sec)
Heartbeat CPU 0 instructions: 470000003 cycles: 166361443 heartbeat IPC: 1.862 cumulative IPC: 2.73 (Simulation time: 00 hr 54 min 32 sec)
Heartbeat CPU 0 instructions: 480000000 cycles: 169485855 heartbeat IPC: 3.201 cumulative IPC: 2.739 (Simulation time: 00 hr 55 min 23 sec)
Heartbeat CPU 0 instructions: 490000001 cycles: 172724691 heartbeat IPC: 3.088 cumulative IPC: 2.746 (Simulation time: 00 hr 56 min 13 sec)
Heartbeat CPU 0 instructions: 500000002 cycles: 175855907 heartbeat IPC: 3.194 cumulative IPC: 2.755 (Simulation time: 00 hr 57 min 03 sec)
Heartbeat CPU 0 instructions: 510000000 cycles: 178996419 heartbeat IPC: 3.184 cumulative IPC: 2.763 (Simulation time: 00 hr 57 min 53 sec)
Heartbeat CPU 0 instructions: 520000000 cycles: 182149981 heartbeat IPC: 3.171 cumulative IPC: 2.77 (Simulation time: 00 hr 58 min 42 sec)
Heartbeat CPU 0 instructions: 530000001 cycles: 188073154 heartbeat IPC: 1.688 cumulative IPC: 2.734 (Simulation time: 00 hr 59 min 46 sec)
Heartbeat CPU 0 instructions: 540000000 cycles: 193791433 heartbeat IPC: 1.749 cumulative IPC: 2.703 (Simulation time: 01 hr 00 min 51 sec)
Heartbeat CPU 0 instructions: 550000004 cycles: 200293564 heartbeat IPC: 1.538 cumulative IPC: 2.662 (Simulation time: 01 hr 02 min 03 sec)
Heartbeat CPU 0 instructions: 560000004 cycles: 203514982 heartbeat IPC: 3.104 cumulative IPC: 2.67 (Simulation time: 01 hr 02 min 55 sec)
Heartbeat CPU 0 instructions: 570000002 cycles: 206308840 heartbeat IPC: 3.579 cumulative IPC: 2.683 (Simulation time: 01 hr 03 min 44 sec)
Heartbeat CPU 0 instructions: 580000000 cycles: 209187921 heartbeat IPC: 3.473 cumulative IPC: 2.695 (Simulation time: 01 hr 04 min 35 sec)
Heartbeat CPU 0 instructions: 590000001 cycles: 212066648 heartbeat IPC: 3.474 cumulative IPC: 2.706 (Simulation time: 01 hr 05 min 28 sec)
Heartbeat CPU 0 instructions: 600000003 cycles: 214722955 heartbeat IPC: 3.765 cumulative IPC: 2.72 (Simulation time: 01 hr 06 min 13 sec)
Heartbeat CPU 0 instructions: 610000001 cycles: 217555010 heartbeat IPC: 3.531 cumulative IPC: 2.731 (Simulation time: 01 hr 07 min 03 sec)
Heartbeat CPU 0 instructions: 620000004 cycles: 220478552 heartbeat IPC: 3.421 cumulative IPC: 2.741 (Simulation time: 01 hr 07 min 54 sec)
Heartbeat CPU 0 instructions: 630000002 cycles: 223263721 heartbeat IPC: 3.59 cumulative IPC: 2.752 (Simulation time: 01 hr 08 min 45 sec)
Heartbeat CPU 0 instructions: 640000004 cycles: 226284701 heartbeat IPC: 3.31 cumulative IPC: 2.76 (Simulation time: 01 hr 09 min 32 sec)
Heartbeat CPU 0 instructions: 650000001 cycles: 228982740 heartbeat IPC: 3.706 cumulative IPC: 2.772 (Simulation time: 01 hr 10 min 18 sec)
Simulation finished CPU 0 instructions: 600000001 cycles: 216482679 cumulative IPC: 2.772 (Simulation time: 01 hr 10 min 18 sec)
Simulation complete CPU 0 instructions: 600000001 cycles: 216482679 cumulative IPC: 2.772 (Simulation time: 01 hr 10 min 18 sec)

ChampSim completed all CPUs

=== Simulation ===
CPU 0 runs traces/400.perlbench-50B.champsimtrace.xz
Region of Interest Statistics

CPU 0 cumulative IPC: 2.772 instructions: 600000001 cycles: 216482679
CPU 0 Branch Prediction Accuracy: 99.01% MPKI: 2.04 Average ROB Occupancy at Mispredict: 93.41
Branch type MPKI
BRANCH_DIRECT_JUMP: 0.0176
BRANCH_INDIRECT: 0.38
BRANCH_CONDITIONAL: 1.19
BRANCH_DIRECT_CALL: 0.0067
BRANCH_INDIRECT_CALL: 0.431
BRANCH_RETURN: 0.0161

LLC TOTAL        ACCESS:    1354681 HIT:    1092979 MISS:     261702
LLC LOAD         ACCESS:     578890 HIT:     461745 MISS:     117145
LLC RFO          ACCESS:      47481 HIT:      36322 MISS:      11159
LLC PREFETCH     ACCESS:     578890 HIT:     455052 MISS:     123838
LLC WRITE        ACCESS:     127328 HIT:     127316 MISS:         12
LLC TRANSLATION  ACCESS:      22092 HIT:      12544 MISS:       9548
LLC PREFETCH REQUESTED:     578890 ISSUED:     578890 USEFUL:      47325 USELESS:      20427
LLC AVERAGE MISS LATENCY: 517.4 cycles
cpu0_DTLB TOTAL        ACCESS:  133235476 HIT:  131881810 MISS:    1353666
cpu0_DTLB LOAD         ACCESS:  133235476 HIT:  131881810 MISS:    1353666
cpu0_DTLB RFO          ACCESS:          0 HIT:          0 MISS:          0
cpu0_DTLB PREFETCH     ACCESS:          0 HIT:          0 MISS:          0
cpu0_DTLB WRITE        ACCESS:          0 HIT:          0 MISS:          0
cpu0_DTLB TRANSLATION  ACCESS:          0 HIT:          0 MISS:          0
cpu0_DTLB PREFETCH REQUESTED:          0 ISSUED:          0 USEFUL:          0 USELESS:          0
cpu0_DTLB AVERAGE MISS LATENCY: 10.01 cycles
cpu0_ITLB TOTAL        ACCESS:    8984897 HIT:    8775382 MISS:     209515
cpu0_ITLB LOAD         ACCESS:    8984897 HIT:    8775382 MISS:     209515
cpu0_ITLB RFO          ACCESS:          0 HIT:          0 MISS:          0
cpu0_ITLB PREFETCH     ACCESS:          0 HIT:          0 MISS:          0
cpu0_ITLB WRITE        ACCESS:          0 HIT:          0 MISS:          0
cpu0_ITLB TRANSLATION  ACCESS:          0 HIT:          0 MISS:          0
cpu0_ITLB PREFETCH REQUESTED:          0 ISSUED:          0 USEFUL:          0 USELESS:          0
cpu0_ITLB AVERAGE MISS LATENCY: 2.518 cycles
cpu0_L1D TOTAL        ACCESS:  178298828 HIT:  174545343 MISS:    3753485
cpu0_L1D LOAD         ACCESS:   92779042 HIT:   89698285 MISS:    3080757
cpu0_L1D RFO          ACCESS:          0 HIT:          0 MISS:          0
cpu0_L1D PREFETCH     ACCESS:          0 HIT:          0 MISS:          0
cpu0_L1D WRITE        ACCESS:   85491251 HIT:   84845632 MISS:     645619
cpu0_L1D TRANSLATION  ACCESS:      28535 HIT:       1426 MISS:      27109
cpu0_L1D PREFETCH REQUESTED:          0 ISSUED:          0 USEFUL:          0 USELESS:          0
cpu0_L1D AVERAGE MISS LATENCY: 26.98 cycles
cpu0_L1I TOTAL        ACCESS:   10505672 HIT:    8607103 MISS:    1898569
cpu0_L1I LOAD         ACCESS:   10505672 HIT:    8607103 MISS:    1898569
cpu0_L1I RFO          ACCESS:          0 HIT:          0 MISS:          0
cpu0_L1I PREFETCH     ACCESS:          0 HIT:          0 MISS:          0
cpu0_L1I WRITE        ACCESS:          0 HIT:          0 MISS:          0
cpu0_L1I TRANSLATION  ACCESS:          0 HIT:          0 MISS:          0
cpu0_L1I PREFETCH REQUESTED:          0 ISSUED:          0 USEFUL:          0 USELESS:          0
cpu0_L1I AVERAGE MISS LATENCY: 8.368 cycles
cpu0_L2C TOTAL        ACCESS:    3840308 HIT:    3188888 MISS:     651420
cpu0_L2C LOAD         ACCESS:    3103820 HIT:    2524930 MISS:     578890
cpu0_L2C RFO          ACCESS:     194856 HIT:     147375 MISS:      47481
cpu0_L2C PREFETCH     ACCESS:          0 HIT:          0 MISS:          0
cpu0_L2C WRITE        ACCESS:     514598 HIT:     511641 MISS:       2957
cpu0_L2C TRANSLATION  ACCESS:      27034 HIT:       4942 MISS:      22092
cpu0_L2C PREFETCH REQUESTED:          0 ISSUED:          0 USEFUL:          0 USELESS:          0
cpu0_L2C AVERAGE MISS LATENCY: 143.4 cycles
cpu0_STLB TOTAL        ACCESS:    1009870 HIT:     983178 MISS:      26692
cpu0_STLB LOAD         ACCESS:    1009870 HIT:     983178 MISS:      26692
cpu0_STLB RFO          ACCESS:          0 HIT:          0 MISS:          0
cpu0_STLB PREFETCH     ACCESS:          0 HIT:          0 MISS:          0
cpu0_STLB WRITE        ACCESS:          0 HIT:          0 MISS:          0
cpu0_STLB TRANSLATION  ACCESS:          0 HIT:          0 MISS:          0
cpu0_STLB PREFETCH REQUESTED:          0 ISSUED:          0 USEFUL:          0 USELESS:          0
cpu0_STLB AVERAGE MISS LATENCY: 295.8 cycles

DRAM Statistics

Channel 0 RQ ROW_BUFFER_HIT:      59380
  ROW_BUFFER_MISS:     155732
 AVG DBUS CONGESTED CYCLE: 3.846
WQ ROW_BUFFER_HIT: Channel 0 
  ROW_BUFFER_MISS:       3226
  FULL:       7954
