WARNING: physical memory size is smaller than virtual memory size.

*** ChampSim Multicore Out-of-Order Simulator ***
Warmup Instructions: 50000000
Simulation Instructions: 600000000
Number of CPUs: 1
Page size: 4096

CPU 0 Tage branch predictor
Off-chip DRAM Size: 4 GiB Channels: 1 Width: 64-bit Data Race: 3200 MT/s
Heartbeat CPU 0 instructions: 10000000 cycles: 2500061 heartbeat IPC: 4 cumulative IPC: 4 (Simulation time: 00 hr 00 min 41 sec)
Heartbeat CPU 0 instructions: 20000000 cycles: 5000061 heartbeat IPC: 4 cumulative IPC: 4 (Simulation time: 00 hr 01 min 22 sec)
Heartbeat CPU 0 instructions: 30000000 cycles: 7500061 heartbeat IPC: 4 cumulative IPC: 4 (Simulation time: 00 hr 02 min 01 sec)
Heartbeat CPU 0 instructions: 40000000 cycles: 10000061 heartbeat IPC: 4 cumulative IPC: 4 (Simulation time: 00 hr 02 min 41 sec)
Heartbeat CPU 0 instructions: 50000000 cycles: 12500061 heartbeat IPC: 4 cumulative IPC: 4 (Simulation time: 00 hr 03 min 21 sec)
Warmup finished CPU 0 instructions: 50000000 cycles: 12500062 cumulative IPC: 4 (Simulation time: 00 hr 03 min 21 sec)
Warmup complete CPU 0 instructions: 50000000 cycles: 12500062 cumulative IPC: 4 (Simulation time: 00 hr 03 min 21 sec)
Heartbeat CPU 0 instructions: 60000004 cycles: 15504489 heartbeat IPC: 3.328 cumulative IPC: 3.328 (Simulation time: 00 hr 04 min 09 sec)
Heartbeat CPU 0 instructions: 70000003 cycles: 18370762 heartbeat IPC: 3.489 cumulative IPC: 3.407 (Simulation time: 00 hr 04 min 55 sec)
Heartbeat CPU 0 instructions: 80000002 cycles: 21382300 heartbeat IPC: 3.321 cumulative IPC: 3.378 (Simulation time: 00 hr 05 min 41 sec)
Heartbeat CPU 0 instructions: 90000000 cycles: 24100329 heartbeat IPC: 3.679 cumulative IPC: 3.448 (Simulation time: 00 hr 06 min 25 sec)
Heartbeat CPU 0 instructions: 100000003 cycles: 26857493 heartbeat IPC: 3.627 cumulative IPC: 3.483 (Simulation time: 00 hr 07 min 11 sec)
Heartbeat CPU 0 instructions: 110000001 cycles: 29755202 heartbeat IPC: 3.451 cumulative IPC: 3.477 (Simulation time: 00 hr 07 min 55 sec)
Heartbeat CPU 0 instructions: 120000001 cycles: 32471687 heartbeat IPC: 3.681 cumulative IPC: 3.505 (Simulation time: 00 hr 08 min 40 sec)
Heartbeat CPU 0 instructions: 130000003 cycles: 35371153 heartbeat IPC: 3.449 cumulative IPC: 3.498 (Simulation time: 00 hr 09 min 25 sec)
Heartbeat CPU 0 instructions: 140000002 cycles: 38204957 heartbeat IPC: 3.529 cumulative IPC: 3.501 (Simulation time: 00 hr 10 min 10 sec)
Heartbeat CPU 0 instructions: 150000001 cycles: 40975005 heartbeat IPC: 3.61 cumulative IPC: 3.512 (Simulation time: 00 hr 10 min 54 sec)
Heartbeat CPU 0 instructions: 160000000 cycles: 43892634 heartbeat IPC: 3.427 cumulative IPC: 3.504 (Simulation time: 00 hr 11 min 39 sec)
Heartbeat CPU 0 instructions: 170000001 cycles: 46821114 heartbeat IPC: 3.415 cumulative IPC: 3.496 (Simulation time: 00 hr 12 min 24 sec)
Heartbeat CPU 0 instructions: 180000000 cycles: 49612148 heartbeat IPC: 3.583 cumulative IPC: 3.503 (Simulation time: 00 hr 13 min 09 sec)
Heartbeat CPU 0 instructions: 190000002 cycles: 52319155 heartbeat IPC: 3.694 cumulative IPC: 3.516 (Simulation time: 00 hr 13 min 54 sec)
Heartbeat CPU 0 instructions: 200000002 cycles: 55139904 heartbeat IPC: 3.545 cumulative IPC: 3.518 (Simulation time: 00 hr 14 min 39 sec)
Heartbeat CPU 0 instructions: 210000000 cycles: 58032602 heartbeat IPC: 3.457 cumulative IPC: 3.514 (Simulation time: 00 hr 15 min 24 sec)
Heartbeat CPU 0 instructions: 220000001 cycles: 60784611 heartbeat IPC: 3.634 cumulative IPC: 3.521 (Simulation time: 00 hr 16 min 10 sec)
Heartbeat CPU 0 instructions: 230000002 cycles: 63673784 heartbeat IPC: 3.461 cumulative IPC: 3.517 (Simulation time: 00 hr 16 min 57 sec)
Heartbeat CPU 0 instructions: 240000004 cycles: 66624801 heartbeat IPC: 3.389 cumulative IPC: 3.51 (Simulation time: 00 hr 17 min 45 sec)
Heartbeat CPU 0 instructions: 250000003 cycles: 69515661 heartbeat IPC: 3.459 cumulative IPC: 3.508 (Simulation time: 00 hr 18 min 32 sec)
Heartbeat CPU 0 instructions: 260000001 cycles: 72300103 heartbeat IPC: 3.591 cumulative IPC: 3.512 (Simulation time: 00 hr 19 min 18 sec)
Heartbeat CPU 0 instructions: 270000002 cycles: 78059363 heartbeat IPC: 1.736 cumulative IPC: 3.356 (Simulation time: 00 hr 20 min 19 sec)
Heartbeat CPU 0 instructions: 280000000 cycles: 86488783 heartbeat IPC: 1.186 cumulative IPC: 3.109 (Simulation time: 00 hr 21 min 38 sec)
Heartbeat CPU 0 instructions: 290000000 cycles: 93386228 heartbeat IPC: 1.45 cumulative IPC: 2.967 (Simulation time: 00 hr 22 min 48 sec)
Heartbeat CPU 0 instructions: 300000003 cycles: 98380291 heartbeat IPC: 2.002 cumulative IPC: 2.911 (Simulation time: 00 hr 23 min 48 sec)
Heartbeat CPU 0 instructions: 310000001 cycles: 105664743 heartbeat IPC: 1.373 cumulative IPC: 2.791 (Simulation time: 00 hr 25 min 03 sec)
Heartbeat CPU 0 instructions: 320000004 cycles: 109307125 heartbeat IPC: 2.745 cumulative IPC: 2.789 (Simulation time: 00 hr 25 min 56 sec)
Heartbeat CPU 0 instructions: 330000000 cycles: 112405882 heartbeat IPC: 3.227 cumulative IPC: 2.803 (Simulation time: 00 hr 26 min 43 sec)
Heartbeat CPU 0 instructions: 340000001 cycles: 115215135 heartbeat IPC: 3.56 cumulative IPC: 2.823 (Simulation time: 00 hr 27 min 28 sec)
Heartbeat CPU 0 instructions: 350000000 cycles: 118173202 heartbeat IPC: 3.381 cumulative IPC: 2.839 (Simulation time: 00 hr 28 min 14 sec)
Heartbeat CPU 0 instructions: 360000004 cycles: 120953089 heartbeat IPC: 3.597 cumulative IPC: 2.858 (Simulation time: 00 hr 28 min 59 sec)
Heartbeat CPU 0 instructions: 370000001 cycles: 123747582 heartbeat IPC: 3.578 cumulative IPC: 2.876 (Simulation time: 00 hr 29 min 44 sec)
Heartbeat CPU 0 instructions: 380000004 cycles: 126576753 heartbeat IPC: 3.535 cumulative IPC: 2.893 (Simulation time: 00 hr 30 min 29 sec)
Heartbeat CPU 0 instructions: 390000002 cycles: 129427368 heartbeat IPC: 3.508 cumulative IPC: 2.908 (Simulation time: 00 hr 31 min 15 sec)
Heartbeat CPU 0 instructions: 400000000 cycles: 132329325 heartbeat IPC: 3.446 cumulative IPC: 2.921 (Simulation time: 00 hr 32 min 00 sec)
Heartbeat CPU 0 instructions: 410000000 cycles: 136540436 heartbeat IPC: 2.375 cumulative IPC: 2.902 (Simulation time: 00 hr 32 min 54 sec)
Heartbeat CPU 0 instructions: 420000003 cycles: 141706899 heartbeat IPC: 1.936 cumulative IPC: 2.864 (Simulation time: 00 hr 33 min 54 sec)
Heartbeat CPU 0 instructions: 430000000 cycles: 146074932 heartbeat IPC: 2.289 cumulative IPC: 2.845 (Simulation time: 00 hr 34 min 51 sec)
Heartbeat CPU 0 instructions: 440000004 cycles: 150266025 heartbeat IPC: 2.386 cumulative IPC: 2.831 (Simulation time: 00 hr 35 min 46 sec)
Heartbeat CPU 0 instructions: 450000001 cycles: 154481426 heartbeat IPC: 2.372 cumulative IPC: 2.817 (Simulation time: 00 hr 36 min 42 sec)
Heartbeat CPU 0 instructions: 460000002 cycles: 159784554 heartbeat IPC: 1.886 cumulative IPC: 2.784 (Simulation time: 00 hr 37 min 44 sec)
Heartbeat CPU 0 instructions: 470000003 cycles: 164338034 heartbeat IPC: 2.196 cumulative IPC: 2.766 (Simulation time: 00 hr 38 min 41 sec)
Heartbeat CPU 0 instructions: 480000000 cycles: 167320843 heartbeat IPC: 3.353 cumulative IPC: 2.777 (Simulation time: 00 hr 39 min 27 sec)
Heartbeat CPU 0 instructions: 490000001 cycles: 170274724 heartbeat IPC: 3.385 cumulative IPC: 2.789 (Simulation time: 00 hr 40 min 13 sec)
Heartbeat CPU 0 instructions: 500000002 cycles: 173168947 heartbeat IPC: 3.455 cumulative IPC: 2.801 (Simulation time: 00 hr 40 min 58 sec)
Heartbeat CPU 0 instructions: 510000000 cycles: 176069088 heartbeat IPC: 3.448 cumulative IPC: 2.812 (Simulation time: 00 hr 41 min 44 sec)
Heartbeat CPU 0 instructions: 520000000 cycles: 178971259 heartbeat IPC: 3.446 cumulative IPC: 2.823 (Simulation time: 00 hr 42 min 31 sec)
Heartbeat CPU 0 instructions: 530000001 cycles: 183846352 heartbeat IPC: 2.051 cumulative IPC: 2.801 (Simulation time: 00 hr 43 min 29 sec)
Heartbeat CPU 0 instructions: 540000000 cycles: 188641689 heartbeat IPC: 2.085 cumulative IPC: 2.782 (Simulation time: 00 hr 44 min 29 sec)
Heartbeat CPU 0 instructions: 550000004 cycles: 194082108 heartbeat IPC: 1.838 cumulative IPC: 2.754 (Simulation time: 00 hr 45 min 32 sec)
Heartbeat CPU 0 instructions: 560000004 cycles: 197248449 heartbeat IPC: 3.158 cumulative IPC: 2.761 (Simulation time: 00 hr 46 min 22 sec)
Heartbeat CPU 0 instructions: 570000002 cycles: 200031481 heartbeat IPC: 3.593 cumulative IPC: 2.773 (Simulation time: 00 hr 47 min 12 sec)
Heartbeat CPU 0 instructions: 580000000 cycles: 202876868 heartbeat IPC: 3.514 cumulative IPC: 2.784 (Simulation time: 00 hr 47 min 59 sec)
Heartbeat CPU 0 instructions: 590000001 cycles: 205731565 heartbeat IPC: 3.503 cumulative IPC: 2.795 (Simulation time: 00 hr 48 min 49 sec)
Heartbeat CPU 0 instructions: 600000003 cycles: 208387252 heartbeat IPC: 3.766 cumulative IPC: 2.808 (Simulation time: 00 hr 49 min 37 sec)
Heartbeat CPU 0 instructions: 610000001 cycles: 211205747 heartbeat IPC: 3.548 cumulative IPC: 2.818 (Simulation time: 00 hr 50 min 28 sec)
Heartbeat CPU 0 instructions: 620000004 cycles: 214121540 heartbeat IPC: 3.43 cumulative IPC: 2.827 (Simulation time: 00 hr 51 min 17 sec)
Heartbeat CPU 0 instructions: 630000002 cycles: 216903060 heartbeat IPC: 3.595 cumulative IPC: 2.838 (Simulation time: 00 hr 52 min 07 sec)
Heartbeat CPU 0 instructions: 640000004 cycles: 219914746 heartbeat IPC: 3.32 cumulative IPC: 2.845 (Simulation time: 00 hr 52 min 56 sec)
Heartbeat CPU 0 instructions: 650000001 cycles: 222609977 heartbeat IPC: 3.71 cumulative IPC: 2.856 (Simulation time: 00 hr 53 min 44 sec)
Simulation finished CPU 0 instructions: 600000001 cycles: 210109916 cumulative IPC: 2.856 (Simulation time: 00 hr 53 min 44 sec)
Simulation complete CPU 0 instructions: 600000001 cycles: 210109916 cumulative IPC: 2.856 (Simulation time: 00 hr 53 min 44 sec)

ChampSim completed all CPUs

=== Simulation ===
CPU 0 runs traces/400.perlbench-50B.champsimtrace.xz
Region of Interest Statistics

CPU 0 cumulative IPC: 2.856 instructions: 600000001 cycles: 210109916
CPU 0 Branch Prediction Accuracy: 99.01% MPKI: 2.04 Average ROB Occupancy at Mispredict: 93.33
Branch type MPKI
BRANCH_DIRECT_JUMP: 0.0176
BRANCH_INDIRECT: 0.38
BRANCH_CONDITIONAL: 1.19
BRANCH_DIRECT_CALL: 0.0067
BRANCH_INDIRECT_CALL: 0.431
BRANCH_RETURN: 0.0161

LLC TOTAL        ACCESS:     771481 HIT:     649366 MISS:     122115
LLC LOAD         ACCESS:     575630 HIT:     471685 MISS:     103945
LLC RFO          ACCESS:      46989 HIT:      37933 MISS:       9056
LLC PREFETCH     ACCESS:          0 HIT:          0 MISS:          0
LLC WRITE        ACCESS:     126681 HIT:     126679 MISS:          2
LLC TRANSLATION  ACCESS:      22181 HIT:      13069 MISS:       9112
LLC PREFETCH REQUESTED:          0 ISSUED:          0 USEFUL:          0 USELESS:          0
LLC AVERAGE MISS LATENCY: 514.5 cycles
cpu0_DTLB TOTAL        ACCESS:  133217981 HIT:  131864119 MISS:    1353862
cpu0_DTLB LOAD         ACCESS:  133217981 HIT:  131864119 MISS:    1353862
cpu0_DTLB RFO          ACCESS:          0 HIT:          0 MISS:          0
cpu0_DTLB PREFETCH     ACCESS:          0 HIT:          0 MISS:          0
cpu0_DTLB WRITE        ACCESS:          0 HIT:          0 MISS:          0
cpu0_DTLB TRANSLATION  ACCESS:          0 HIT:          0 MISS:          0
cpu0_DTLB PREFETCH REQUESTED:          0 ISSUED:          0 USEFUL:          0 USELESS:          0
cpu0_DTLB AVERAGE MISS LATENCY: 9.443 cycles
cpu0_ITLB TOTAL        ACCESS:    8985610 HIT:    8776195 MISS:     209415
cpu0_ITLB LOAD         ACCESS:    8985610 HIT:    8776195 MISS:     209415
cpu0_ITLB RFO          ACCESS:          0 HIT:          0 MISS:          0
cpu0_ITLB PREFETCH     ACCESS:          0 HIT:          0 MISS:          0
cpu0_ITLB WRITE        ACCESS:          0 HIT:          0 MISS:          0
cpu0_ITLB TRANSLATION  ACCESS:          0 HIT:          0 MISS:          0
cpu0_ITLB PREFETCH REQUESTED:          0 ISSUED:          0 USEFUL:          0 USELESS:          0
cpu0_ITLB AVERAGE MISS LATENCY: 2.307 cycles
cpu0_L1D TOTAL        ACCESS:  178283268 HIT:  174543392 MISS:    3739876
cpu0_L1D LOAD         ACCESS:   92764337 HIT:   89690612 MISS:    3073725
cpu0_L1D RFO          ACCESS:          0 HIT:          0 MISS:          0
cpu0_L1D PREFETCH     ACCESS:          0 HIT:          0 MISS:          0
cpu0_L1D WRITE        ACCESS:   85490405 HIT:   84851358 MISS:     639047
cpu0_L1D TRANSLATION  ACCESS:      28526 HIT:       1422 MISS:      27104
cpu0_L1D PREFETCH REQUESTED:          0 ISSUED:          0 USEFUL:          0 USELESS:          0
cpu0_L1D AVERAGE MISS LATENCY: 22.5 cycles
cpu0_L1I TOTAL        ACCESS:   10505834 HIT:    8607229 MISS:    1898605
cpu0_L1I LOAD         ACCESS:   10505834 HIT:    8607229 MISS:    1898605
cpu0_L1I RFO          ACCESS:          0 HIT:          0 MISS:          0
cpu0_L1I PREFETCH     ACCESS:          0 HIT:          0 MISS:          0
cpu0_L1I WRITE        ACCESS:          0 HIT:          0 MISS:          0
cpu0_L1I TRANSLATION  ACCESS:          0 HIT:          0 MISS:          0
cpu0_L1I PREFETCH REQUESTED:          0 ISSUED:          0 USEFUL:          0 USELESS:          0
cpu0_L1I AVERAGE MISS LATENCY: 8.489 cycles
cpu0_L2C TOTAL        ACCESS:    3840732 HIT:    3192807 MISS:     647925
cpu0_L2C LOAD         ACCESS:    3103916 HIT:    2528286 MISS:     575630
cpu0_L2C RFO          ACCESS:     194833 HIT:     147844 MISS:      46989
cpu0_L2C PREFETCH     ACCESS:          0 HIT:          0 MISS:          0
cpu0_L2C WRITE        ACCESS:     514952 HIT:     511827 MISS:       3125
cpu0_L2C TRANSLATION  ACCESS:      27031 HIT:       4850 MISS:      22181
cpu0_L2C PREFETCH REQUESTED:          0 ISSUED:          0 USEFUL:          0 USELESS:          0
cpu0_L2C AVERAGE MISS LATENCY: 117.1 cycles
cpu0_STLB TOTAL        ACCESS:    1009716 HIT:     983027 MISS:      26689
cpu0_STLB LOAD         ACCESS:    1009716 HIT:     983027 MISS:      26689
cpu0_STLB RFO          ACCESS:          0 HIT:          0 MISS:          0
cpu0_STLB PREFETCH     ACCESS:          0 HIT:          0 MISS:          0
cpu0_STLB WRITE        ACCESS:          0 HIT:          0 MISS:          0
cpu0_STLB TRANSLATION  ACCESS:          0 HIT:          0 MISS:          0
cpu0_STLB PREFETCH REQUESTED:          0 ISSUED:          0 USEFUL:          0 USELESS:          0
cpu0_STLB AVERAGE MISS LATENCY: 263.8 cycles

DRAM Statistics

Channel 0 RQ ROW_BUFFER_HIT:      37062
  ROW_BUFFER_MISS:      85051
 AVG DBUS CONGESTED CYCLE: 3.744
WQ ROW_BUFFER_HIT: Channel 0 
  ROW_BUFFER_MISS:        160
  FULL:        174
