WARNING: physical memory size is smaller than virtual memory size.

*** ChampSim Multicore Out-of-Order Simulator ***
Warmup Instructions: 50000000
Simulation Instructions: 600000000
Number of CPUs: 1
Page size: 4096

Off-chip DRAM Size: 4 GiB Channels: 1 Width: 64-bit Data Race: 3200 MT/s
Heartbeat CPU 0 instructions: 10000001 cycles: 2500318 heartbeat IPC: 3.999 cumulative IPC: 3.999 (Simulation time: 00 hr 00 min 22 sec)
Heartbeat CPU 0 instructions: 20000002 cycles: 5037114 heartbeat IPC: 3.942 cumulative IPC: 3.971 (Simulation time: 00 hr 00 min 47 sec)
Heartbeat CPU 0 instructions: 30000002 cycles: 7537114 heartbeat IPC: 4 cumulative IPC: 3.98 (Simulation time: 00 hr 01 min 18 sec)
Heartbeat CPU 0 instructions: 40000002 cycles: 10037114 heartbeat IPC: 4 cumulative IPC: 3.985 (Simulation time: 00 hr 01 min 56 sec)
Heartbeat CPU 0 instructions: 50000002 cycles: 12537114 heartbeat IPC: 4 cumulative IPC: 3.988 (Simulation time: 00 hr 02 min 43 sec)
Warmup finished CPU 0 instructions: 50000002 cycles: 12537115 cumulative IPC: 3.988 (Simulation time: 00 hr 02 min 43 sec)
Warmup complete CPU 0 instructions: 50000002 cycles: 12537115 cumulative IPC: 3.988 (Simulation time: 00 hr 02 min 43 sec)
Heartbeat CPU 0 instructions: 60000000 cycles: 17680597 heartbeat IPC: 1.944 cumulative IPC: 1.944 (Simulation time: 00 hr 04 min 08 sec)
Heartbeat CPU 0 instructions: 70000002 cycles: 22551355 heartbeat IPC: 2.053 cumulative IPC: 1.997 (Simulation time: 00 hr 05 min 41 sec)
Heartbeat CPU 0 instructions: 80000001 cycles: 27886136 heartbeat IPC: 1.874 cumulative IPC: 1.955 (Simulation time: 00 hr 07 min 33 sec)
Heartbeat CPU 0 instructions: 90000001 cycles: 32735050 heartbeat IPC: 2.062 cumulative IPC: 1.98 (Simulation time: 00 hr 09 min 19 sec)
Heartbeat CPU 0 instructions: 100000000 cycles: 37821891 heartbeat IPC: 1.966 cumulative IPC: 1.977 (Simulation time: 00 hr 11 min 06 sec)
Heartbeat CPU 0 instructions: 110000000 cycles: 42685080 heartbeat IPC: 2.056 cumulative IPC: 1.99 (Simulation time: 00 hr 12 min 49 sec)
Heartbeat CPU 0 instructions: 120000001 cycles: 47858850 heartbeat IPC: 1.933 cumulative IPC: 1.982 (Simulation time: 00 hr 14 min 34 sec)
Heartbeat CPU 0 instructions: 130000001 cycles: 52988894 heartbeat IPC: 1.949 cumulative IPC: 1.978 (Simulation time: 00 hr 16 min 26 sec)
Heartbeat CPU 0 instructions: 140000001 cycles: 58274399 heartbeat IPC: 1.892 cumulative IPC: 1.968 (Simulation time: 00 hr 18 min 07 sec)
Heartbeat CPU 0 instructions: 150000001 cycles: 63566406 heartbeat IPC: 1.89 cumulative IPC: 1.96 (Simulation time: 00 hr 19 min 44 sec)
Heartbeat CPU 0 instructions: 160000004 cycles: 68746614 heartbeat IPC: 1.93 cumulative IPC: 1.957 (Simulation time: 00 hr 21 min 25 sec)
Heartbeat CPU 0 instructions: 170000000 cycles: 76379422 heartbeat IPC: 1.31 cumulative IPC: 1.88 (Simulation time: 00 hr 23 min 50 sec)
Heartbeat CPU 0 instructions: 180000004 cycles: 82989383 heartbeat IPC: 1.513 cumulative IPC: 1.845 (Simulation time: 00 hr 26 min 10 sec)
Heartbeat CPU 0 instructions: 190000001 cycles: 89044002 heartbeat IPC: 1.652 cumulative IPC: 1.83 (Simulation time: 00 hr 28 min 16 sec)
Heartbeat CPU 0 instructions: 200000003 cycles: 93517693 heartbeat IPC: 2.235 cumulative IPC: 1.852 (Simulation time: 00 hr 29 min 55 sec)
Heartbeat CPU 0 instructions: 210000001 cycles: 98206175 heartbeat IPC: 2.133 cumulative IPC: 1.868 (Simulation time: 00 hr 30 min 56 sec)
Heartbeat CPU 0 instructions: 220000000 cycles: 102892902 heartbeat IPC: 2.134 cumulative IPC: 1.881 (Simulation time: 00 hr 31 min 44 sec)
Heartbeat CPU 0 instructions: 230000002 cycles: 107748203 heartbeat IPC: 2.06 cumulative IPC: 1.891 (Simulation time: 00 hr 32 min 33 sec)
Heartbeat CPU 0 instructions: 240000000 cycles: 112311550 heartbeat IPC: 2.191 cumulative IPC: 1.904 (Simulation time: 00 hr 33 min 22 sec)
Heartbeat CPU 0 instructions: 250000000 cycles: 117132179 heartbeat IPC: 2.074 cumulative IPC: 1.912 (Simulation time: 00 hr 34 min 13 sec)
Heartbeat CPU 0 instructions: 260000000 cycles: 121830291 heartbeat IPC: 2.129 cumulative IPC: 1.921 (Simulation time: 00 hr 35 min 02 sec)
Heartbeat CPU 0 instructions: 270000002 cycles: 126491389 heartbeat IPC: 2.145 cumulative IPC: 1.931 (Simulation time: 00 hr 35 min 51 sec)
Heartbeat CPU 0 instructions: 280000002 cycles: 131156778 heartbeat IPC: 2.143 cumulative IPC: 1.939 (Simulation time: 00 hr 36 min 40 sec)
Heartbeat CPU 0 instructions: 290000001 cycles: 136325905 heartbeat IPC: 1.935 cumulative IPC: 1.939 (Simulation time: 00 hr 37 min 33 sec)
Heartbeat CPU 0 instructions: 300000003 cycles: 141085306 heartbeat IPC: 2.101 cumulative IPC: 1.945 (Simulation time: 00 hr 38 min 25 sec)
Heartbeat CPU 0 instructions: 310000001 cycles: 146045828 heartbeat IPC: 2.016 cumulative IPC: 1.947 (Simulation time: 00 hr 39 min 14 sec)
Heartbeat CPU 0 instructions: 320000003 cycles: 151005334 heartbeat IPC: 2.016 cumulative IPC: 1.95 (Simulation time: 00 hr 40 min 01 sec)
Heartbeat CPU 0 instructions: 330000003 cycles: 155947957 heartbeat IPC: 2.023 cumulative IPC: 1.952 (Simulation time: 00 hr 40 min 48 sec)
Heartbeat CPU 0 instructions: 340000000 cycles: 162781354 heartbeat IPC: 1.463 cumulative IPC: 1.93 (Simulation time: 00 hr 41 min 47 sec)
Heartbeat CPU 0 instructions: 350000000 cycles: 169772714 heartbeat IPC: 1.43 cumulative IPC: 1.908 (Simulation time: 00 hr 42 min 49 sec)
Heartbeat CPU 0 instructions: 360000004 cycles: 176081661 heartbeat IPC: 1.585 cumulative IPC: 1.896 (Simulation time: 00 hr 43 min 47 sec)
Heartbeat CPU 0 instructions: 370000000 cycles: 180274143 heartbeat IPC: 2.385 cumulative IPC: 1.908 (Simulation time: 00 hr 44 min 31 sec)
Heartbeat CPU 0 instructions: 380000001 cycles: 184983960 heartbeat IPC: 2.123 cumulative IPC: 1.914 (Simulation time: 00 hr 45 min 18 sec)
Heartbeat CPU 0 instructions: 390000002 cycles: 189658425 heartbeat IPC: 2.139 cumulative IPC: 1.92 (Simulation time: 00 hr 46 min 04 sec)
Heartbeat CPU 0 instructions: 400000004 cycles: 194490738 heartbeat IPC: 2.069 cumulative IPC: 1.924 (Simulation time: 00 hr 46 min 51 sec)
Heartbeat CPU 0 instructions: 410000000 cycles: 198977978 heartbeat IPC: 2.229 cumulative IPC: 1.931 (Simulation time: 00 hr 47 min 35 sec)
Heartbeat CPU 0 instructions: 420000000 cycles: 203753396 heartbeat IPC: 2.094 cumulative IPC: 1.935 (Simulation time: 00 hr 48 min 22 sec)
Heartbeat CPU 0 instructions: 430000001 cycles: 208034601 heartbeat IPC: 2.336 cumulative IPC: 1.944 (Simulation time: 00 hr 49 min 08 sec)
Heartbeat CPU 0 instructions: 440000000 cycles: 213106393 heartbeat IPC: 1.972 cumulative IPC: 1.944 (Simulation time: 00 hr 49 min 58 sec)
Heartbeat CPU 0 instructions: 450000002 cycles: 217531121 heartbeat IPC: 2.26 cumulative IPC: 1.951 (Simulation time: 00 hr 50 min 46 sec)
Heartbeat CPU 0 instructions: 460000000 cycles: 222118295 heartbeat IPC: 2.18 cumulative IPC: 1.956 (Simulation time: 00 hr 51 min 33 sec)
Heartbeat CPU 0 instructions: 470000000 cycles: 226908692 heartbeat IPC: 2.088 cumulative IPC: 1.959 (Simulation time: 00 hr 52 min 22 sec)
Heartbeat CPU 0 instructions: 480000003 cycles: 231466737 heartbeat IPC: 2.194 cumulative IPC: 1.964 (Simulation time: 00 hr 53 min 10 sec)
Heartbeat CPU 0 instructions: 490000000 cycles: 235941035 heartbeat IPC: 2.235 cumulative IPC: 1.97 (Simulation time: 00 hr 53 min 58 sec)
Heartbeat CPU 0 instructions: 500000000 cycles: 240827031 heartbeat IPC: 2.047 cumulative IPC: 1.971 (Simulation time: 00 hr 54 min 47 sec)
Heartbeat CPU 0 instructions: 510000003 cycles: 246228549 heartbeat IPC: 1.851 cumulative IPC: 1.968 (Simulation time: 00 hr 55 min 37 sec)
Heartbeat CPU 0 instructions: 520000001 cycles: 250677432 heartbeat IPC: 2.248 cumulative IPC: 1.974 (Simulation time: 00 hr 56 min 27 sec)
Heartbeat CPU 0 instructions: 530000002 cycles: 255625566 heartbeat IPC: 2.021 cumulative IPC: 1.975 (Simulation time: 00 hr 57 min 18 sec)
Heartbeat CPU 0 instructions: 540000000 cycles: 260546903 heartbeat IPC: 2.032 cumulative IPC: 1.976 (Simulation time: 00 hr 58 min 10 sec)
Heartbeat CPU 0 instructions: 550000001 cycles: 265197031 heartbeat IPC: 2.15 cumulative IPC: 1.979 (Simulation time: 00 hr 59 min 01 sec)
Heartbeat CPU 0 instructions: 560000000 cycles: 270129450 heartbeat IPC: 2.027 cumulative IPC: 1.98 (Simulation time: 00 hr 59 min 53 sec)
Heartbeat CPU 0 instructions: 570000004 cycles: 275680419 heartbeat IPC: 1.801 cumulative IPC: 1.976 (Simulation time: 01 hr 00 min 48 sec)
Heartbeat CPU 0 instructions: 580000003 cycles: 282949641 heartbeat IPC: 1.376 cumulative IPC: 1.96 (Simulation time: 01 hr 01 min 55 sec)
Heartbeat CPU 0 instructions: 590000002 cycles: 290045018 heartbeat IPC: 1.409 cumulative IPC: 1.946 (Simulation time: 01 hr 03 min 02 sec)
Heartbeat CPU 0 instructions: 600000000 cycles: 294373454 heartbeat IPC: 2.31 cumulative IPC: 1.951 (Simulation time: 01 hr 03 min 49 sec)
Heartbeat CPU 0 instructions: 610000002 cycles: 298670607 heartbeat IPC: 2.327 cumulative IPC: 1.957 (Simulation time: 01 hr 04 min 35 sec)
Heartbeat CPU 0 instructions: 620000000 cycles: 303366022 heartbeat IPC: 2.13 cumulative IPC: 1.96 (Simulation time: 01 hr 05 min 25 sec)
Heartbeat CPU 0 instructions: 630000002 cycles: 308277824 heartbeat IPC: 2.036 cumulative IPC: 1.961 (Simulation time: 01 hr 06 min 15 sec)
Heartbeat CPU 0 instructions: 640000001 cycles: 313054518 heartbeat IPC: 2.093 cumulative IPC: 1.963 (Simulation time: 01 hr 07 min 07 sec)
Heartbeat CPU 0 instructions: 650000000 cycles: 317539011 heartbeat IPC: 2.23 cumulative IPC: 1.967 (Simulation time: 01 hr 07 min 52 sec)
Simulation finished CPU 0 instructions: 600000001 cycles: 305001898 cumulative IPC: 1.967 (Simulation time: 01 hr 07 min 52 sec)
Simulation complete CPU 0 instructions: 600000001 cycles: 305001898 cumulative IPC: 1.967 (Simulation time: 01 hr 07 min 52 sec)

ChampSim completed all CPUs

=== Simulation ===
CPU 0 runs traces/400.perlbench-41B.champsimtrace.xz
Region of Interest Statistics

CPU 0 cumulative IPC: 1.967 instructions: 600000001 cycles: 305001898
CPU 0 Branch Prediction Accuracy: 93.95% MPKI: 12.5 Average ROB Occupancy at Mispredict: 29.3
Branch type MPKI
BRANCH_DIRECT_JUMP: 0.0123
BRANCH_INDIRECT: 0.323
BRANCH_CONDITIONAL: 12
BRANCH_DIRECT_CALL: 0.0043
BRANCH_INDIRECT_CALL: 0.2
BRANCH_RETURN: 0.00828

LLC TOTAL        ACCESS:     939890 HIT:     857574 MISS:      82316
LLC LOAD         ACCESS:     401299 HIT:     367485 MISS:      33814
LLC RFO          ACCESS:      32802 HIT:      26769 MISS:       6033
LLC PREFETCH     ACCESS:     401299 HIT:     366909 MISS:      34390
LLC WRITE        ACCESS:      85399 HIT:      84584 MISS:        815
LLC TRANSLATION  ACCESS:      19091 HIT:      11827 MISS:       7264
LLC PREFETCH REQUESTED:     401299 ISSUED:     401299 USEFUL:      12535 USELESS:       6370
LLC AVERAGE MISS LATENCY: 494.7 cycles
cpu0_DTLB TOTAL        ACCESS:  153690061 HIT:  153013694 MISS:     676367
cpu0_DTLB LOAD         ACCESS:  153690061 HIT:  153013694 MISS:     676367
cpu0_DTLB RFO          ACCESS:          0 HIT:          0 MISS:          0
cpu0_DTLB PREFETCH     ACCESS:          0 HIT:          0 MISS:          0
cpu0_DTLB WRITE        ACCESS:          0 HIT:          0 MISS:          0
cpu0_DTLB TRANSLATION  ACCESS:          0 HIT:          0 MISS:          0
cpu0_DTLB PREFETCH REQUESTED:          0 ISSUED:          0 USEFUL:          0 USELESS:          0
cpu0_DTLB AVERAGE MISS LATENCY: 11.53 cycles
cpu0_ITLB TOTAL        ACCESS:    4839036 HIT:    4781127 MISS:      57909
cpu0_ITLB LOAD         ACCESS:    4839036 HIT:    4781127 MISS:      57909
cpu0_ITLB RFO          ACCESS:          0 HIT:          0 MISS:          0
cpu0_ITLB PREFETCH     ACCESS:          0 HIT:          0 MISS:          0
cpu0_ITLB WRITE        ACCESS:          0 HIT:          0 MISS:          0
cpu0_ITLB TRANSLATION  ACCESS:          0 HIT:          0 MISS:          0
cpu0_ITLB PREFETCH REQUESTED:          0 ISSUED:          0 USEFUL:          0 USELESS:          0
cpu0_ITLB AVERAGE MISS LATENCY: 4.957 cycles
cpu0_L1D TOTAL        ACCESS:  200321881 HIT:  198637609 MISS:    1684272
cpu0_L1D LOAD         ACCESS:  117078935 HIT:  115766866 MISS:    1312069
cpu0_L1D RFO          ACCESS:          0 HIT:          0 MISS:          0
cpu0_L1D PREFETCH     ACCESS:          0 HIT:          0 MISS:          0
cpu0_L1D WRITE        ACCESS:   83218484 HIT:   82869704 MISS:     348780
cpu0_L1D TRANSLATION  ACCESS:      24462 HIT:       1039 MISS:      23423
cpu0_L1D PREFETCH REQUESTED:          0 ISSUED:          0 USEFUL:          0 USELESS:          0
cpu0_L1D AVERAGE MISS LATENCY: 23.37 cycles
cpu0_L1I TOTAL        ACCESS:    5581175 HIT:    4819682 MISS:     761493
cpu0_L1I LOAD         ACCESS:    5581175 HIT:    4819682 MISS:     761493
cpu0_L1I RFO          ACCESS:          0 HIT:          0 MISS:          0
cpu0_L1I PREFETCH     ACCESS:          0 HIT:          0 MISS:          0
cpu0_L1I WRITE        ACCESS:          0 HIT:          0 MISS:          0
cpu0_L1I TRANSLATION  ACCESS:          0 HIT:          0 MISS:          0
cpu0_L1I PREFETCH REQUESTED:          0 ISSUED:          0 USEFUL:          0 USELESS:          0
cpu0_L1I AVERAGE MISS LATENCY: 8.957 cycles
cpu0_L2C TOTAL        ACCESS:    1668048 HIT:    1213020 MISS:     455028
cpu0_L2C LOAD         ACCESS:    1317204 HIT:     915905 MISS:     401299
cpu0_L2C RFO          ACCESS:      88582 HIT:      55780 MISS:      32802
cpu0_L2C PREFETCH     ACCESS:          0 HIT:          0 MISS:          0
cpu0_L2C WRITE        ACCESS:     238919 HIT:     237083 MISS:       1836
cpu0_L2C TRANSLATION  ACCESS:      23343 HIT:       4252 MISS:      19091
cpu0_L2C PREFETCH REQUESTED:          0 ISSUED:          0 USEFUL:          0 USELESS:          0
cpu0_L2C AVERAGE MISS LATENCY: 75.76 cycles
cpu0_STLB TOTAL        ACCESS:     505077 HIT:     482288 MISS:      22789
cpu0_STLB LOAD         ACCESS:     505077 HIT:     482288 MISS:      22789
cpu0_STLB RFO          ACCESS:          0 HIT:          0 MISS:          0
cpu0_STLB PREFETCH     ACCESS:          0 HIT:          0 MISS:          0
cpu0_STLB WRITE        ACCESS:          0 HIT:          0 MISS:          0
cpu0_STLB TRANSLATION  ACCESS:          0 HIT:          0 MISS:          0
cpu0_STLB PREFETCH REQUESTED:          0 ISSUED:          0 USEFUL:          0 USELESS:          0
cpu0_STLB AVERAGE MISS LATENCY: 210.1 cycles

DRAM Statistics

Channel 0 RQ ROW_BUFFER_HIT:      14439
  ROW_BUFFER_MISS:      55724
 AVG DBUS CONGESTED CYCLE: 3.818
WQ ROW_BUFFER_HIT: Channel 0 
  ROW_BUFFER_MISS:       2435
  FULL:       6706
