WARNING: physical memory size is smaller than virtual memory size.

*** ChampSim Multicore Out-of-Order Simulator ***
Warmup Instructions: 50000000
Simulation Instructions: 600000000
Number of CPUs: 1
Page size: 4096

Initialize SIGNATURE TABLE
ST_SET: 1
ST_WAY: 256
ST_TAG_BIT: 16
ST_TAG_MASK: ffff

Initialize PATTERN TABLE
PT_SET: 512
PT_WAY: 4
SIG_DELTA_BIT: 7
C_SIG_BIT: 4
C_DELTA_BIT: 4

Initialize PREFETCH FILTER
FILTER_SET: 1024
Off-chip DRAM Size: 4 GiB Channels: 1 Width: 64-bit Data Race: 3200 MT/s
Heartbeat CPU 0 instructions: 10000001 cycles: 2500318 heartbeat IPC: 3.999 cumulative IPC: 3.999 (Simulation time: 00 hr 03 min 35 sec)
Heartbeat CPU 0 instructions: 20000002 cycles: 5037128 heartbeat IPC: 3.942 cumulative IPC: 3.971 (Simulation time: 00 hr 07 min 26 sec)
Heartbeat CPU 0 instructions: 30000002 cycles: 7537128 heartbeat IPC: 4 cumulative IPC: 3.98 (Simulation time: 00 hr 10 min 54 sec)
Heartbeat CPU 0 instructions: 40000002 cycles: 10037128 heartbeat IPC: 4 cumulative IPC: 3.985 (Simulation time: 00 hr 14 min 26 sec)
Heartbeat CPU 0 instructions: 50000002 cycles: 12537128 heartbeat IPC: 4 cumulative IPC: 3.988 (Simulation time: 00 hr 17 min 55 sec)
Warmup finished CPU 0 instructions: 50000002 cycles: 12537129 cumulative IPC: 3.988 (Simulation time: 00 hr 17 min 55 sec)
Warmup complete CPU 0 instructions: 50000002 cycles: 12537129 cumulative IPC: 3.988 (Simulation time: 00 hr 17 min 55 sec)
Heartbeat CPU 0 instructions: 60000001 cycles: 15729170 heartbeat IPC: 3.133 cumulative IPC: 3.133 (Simulation time: 00 hr 22 min 13 sec)
Heartbeat CPU 0 instructions: 70000004 cycles: 18934124 heartbeat IPC: 3.12 cumulative IPC: 3.126 (Simulation time: 00 hr 26 min 35 sec)
Heartbeat CPU 0 instructions: 80000001 cycles: 22130955 heartbeat IPC: 3.128 cumulative IPC: 3.127 (Simulation time: 00 hr 30 min 56 sec)
Heartbeat CPU 0 instructions: 90000001 cycles: 25194229 heartbeat IPC: 3.264 cumulative IPC: 3.16 (Simulation time: 00 hr 35 min 11 sec)
Heartbeat CPU 0 instructions: 100000000 cycles: 28242508 heartbeat IPC: 3.281 cumulative IPC: 3.184 (Simulation time: 00 hr 39 min 27 sec)
Heartbeat CPU 0 instructions: 110000000 cycles: 31304092 heartbeat IPC: 3.266 cumulative IPC: 3.197 (Simulation time: 00 hr 43 min 42 sec)
Heartbeat CPU 0 instructions: 120000001 cycles: 34394692 heartbeat IPC: 3.236 cumulative IPC: 3.203 (Simulation time: 00 hr 47 min 58 sec)
Heartbeat CPU 0 instructions: 130000001 cycles: 37341457 heartbeat IPC: 3.394 cumulative IPC: 3.225 (Simulation time: 00 hr 52 min 17 sec)
Heartbeat CPU 0 instructions: 140000001 cycles: 40497497 heartbeat IPC: 3.169 cumulative IPC: 3.219 (Simulation time: 00 hr 56 min 38 sec)
Heartbeat CPU 0 instructions: 150000001 cycles: 43655281 heartbeat IPC: 3.167 cumulative IPC: 3.214 (Simulation time: 01 hr 00 min 59 sec)
Heartbeat CPU 0 instructions: 160000004 cycles: 46836660 heartbeat IPC: 3.143 cumulative IPC: 3.207 (Simulation time: 01 hr 05 min 19 sec)
Heartbeat CPU 0 instructions: 170000000 cycles: 52763823 heartbeat IPC: 1.687 cumulative IPC: 2.983 (Simulation time: 01 hr 11 min 35 sec)
Heartbeat CPU 0 instructions: 180000004 cycles: 57927585 heartbeat IPC: 1.937 cumulative IPC: 2.864 (Simulation time: 01 hr 17 min 30 sec)
Heartbeat CPU 0 instructions: 190000001 cycles: 62595614 heartbeat IPC: 2.142 cumulative IPC: 2.797 (Simulation time: 01 hr 23 min 04 sec)
Heartbeat CPU 0 instructions: 200000004 cycles: 65452204 heartbeat IPC: 3.501 cumulative IPC: 2.835 (Simulation time: 01 hr 27 min 12 sec)
Heartbeat CPU 0 instructions: 210000001 cycles: 68364698 heartbeat IPC: 3.433 cumulative IPC: 2.866 (Simulation time: 01 hr 31 min 26 sec)
Heartbeat CPU 0 instructions: 220000000 cycles: 71256342 heartbeat IPC: 3.458 cumulative IPC: 2.895 (Simulation time: 01 hr 35 min 35 sec)
Heartbeat CPU 0 instructions: 230000004 cycles: 74154766 heartbeat IPC: 3.45 cumulative IPC: 2.921 (Simulation time: 01 hr 39 min 44 sec)
Heartbeat CPU 0 instructions: 240000002 cycles: 77108080 heartbeat IPC: 3.386 cumulative IPC: 2.942 (Simulation time: 01 hr 43 min 56 sec)
Heartbeat CPU 0 instructions: 250000000 cycles: 80017826 heartbeat IPC: 3.437 cumulative IPC: 2.964 (Simulation time: 01 hr 48 min 08 sec)
Heartbeat CPU 0 instructions: 260000002 cycles: 82871099 heartbeat IPC: 3.505 cumulative IPC: 2.986 (Simulation time: 01 hr 52 min 17 sec)
Heartbeat CPU 0 instructions: 270000002 cycles: 85720419 heartbeat IPC: 3.51 cumulative IPC: 3.006 (Simulation time: 01 hr 56 min 23 sec)
Heartbeat CPU 0 instructions: 280000002 cycles: 88545558 heartbeat IPC: 3.54 cumulative IPC: 3.026 (Simulation time: 02 hr 00 min 31 sec)
Heartbeat CPU 0 instructions: 290000002 cycles: 91457757 heartbeat IPC: 3.434 cumulative IPC: 3.041 (Simulation time: 02 hr 04 min 43 sec)
Heartbeat CPU 0 instructions: 300000003 cycles: 94221289 heartbeat IPC: 3.619 cumulative IPC: 3.061 (Simulation time: 02 hr 08 min 54 sec)
Heartbeat CPU 0 instructions: 310000001 cycles: 97097613 heartbeat IPC: 3.477 cumulative IPC: 3.075 (Simulation time: 02 hr 13 min 03 sec)
Heartbeat CPU 0 instructions: 320000003 cycles: 100045567 heartbeat IPC: 3.392 cumulative IPC: 3.085 (Simulation time: 02 hr 17 min 16 sec)
Heartbeat CPU 0 instructions: 330000003 cycles: 102919690 heartbeat IPC: 3.479 cumulative IPC: 3.098 (Simulation time: 02 hr 21 min 26 sec)
Heartbeat CPU 0 instructions: 340000000 cycles: 107589476 heartbeat IPC: 2.141 cumulative IPC: 3.051 (Simulation time: 02 hr 26 min 58 sec)
Heartbeat CPU 0 instructions: 350000000 cycles: 112779229 heartbeat IPC: 1.927 cumulative IPC: 2.993 (Simulation time: 02 hr 32 min 57 sec)
Heartbeat CPU 0 instructions: 360000004 cycles: 117754654 heartbeat IPC: 2.01 cumulative IPC: 2.946 (Simulation time: 02 hr 38 min 41 sec)
Heartbeat CPU 0 instructions: 370000000 cycles: 120613761 heartbeat IPC: 3.498 cumulative IPC: 2.961 (Simulation time: 02 hr 42 min 52 sec)
Heartbeat CPU 0 instructions: 380000001 cycles: 123457850 heartbeat IPC: 3.516 cumulative IPC: 2.975 (Simulation time: 02 hr 47 min 04 sec)
Heartbeat CPU 0 instructions: 390000002 cycles: 126413390 heartbeat IPC: 3.383 cumulative IPC: 2.986 (Simulation time: 02 hr 51 min 17 sec)
Heartbeat CPU 0 instructions: 400000004 cycles: 129320497 heartbeat IPC: 3.44 cumulative IPC: 2.997 (Simulation time: 02 hr 55 min 30 sec)
Heartbeat CPU 0 instructions: 410000001 cycles: 132220384 heartbeat IPC: 3.448 cumulative IPC: 3.008 (Simulation time: 02 hr 59 min 38 sec)
Heartbeat CPU 0 instructions: 420000002 cycles: 135243434 heartbeat IPC: 3.308 cumulative IPC: 3.015 (Simulation time: 03 hr 03 min 52 sec)
Heartbeat CPU 0 instructions: 430000001 cycles: 138172224 heartbeat IPC: 3.414 cumulative IPC: 3.025 (Simulation time: 03 hr 08 min 08 sec)
Heartbeat CPU 0 instructions: 440000004 cycles: 141247161 heartbeat IPC: 3.252 cumulative IPC: 3.03 (Simulation time: 03 hr 12 min 23 sec)
Heartbeat CPU 0 instructions: 450000002 cycles: 144082097 heartbeat IPC: 3.527 cumulative IPC: 3.041 (Simulation time: 03 hr 16 min 31 sec)
Heartbeat CPU 0 instructions: 460000000 cycles: 146968093 heartbeat IPC: 3.465 cumulative IPC: 3.05 (Simulation time: 03 hr 20 min 41 sec)
Heartbeat CPU 0 instructions: 470000001 cycles: 149763005 heartbeat IPC: 3.578 cumulative IPC: 3.061 (Simulation time: 03 hr 24 min 48 sec)
Heartbeat CPU 0 instructions: 480000003 cycles: 152757613 heartbeat IPC: 3.339 cumulative IPC: 3.067 (Simulation time: 03 hr 28 min 59 sec)
Heartbeat CPU 0 instructions: 490000004 cycles: 155561808 heartbeat IPC: 3.566 cumulative IPC: 3.076 (Simulation time: 03 hr 33 min 04 sec)
Heartbeat CPU 0 instructions: 500000004 cycles: 158518223 heartbeat IPC: 3.382 cumulative IPC: 3.083 (Simulation time: 03 hr 37 min 15 sec)
Heartbeat CPU 0 instructions: 510000003 cycles: 161451466 heartbeat IPC: 3.409 cumulative IPC: 3.089 (Simulation time: 03 hr 41 min 31 sec)
Heartbeat CPU 0 instructions: 520000001 cycles: 164261535 heartbeat IPC: 3.559 cumulative IPC: 3.098 (Simulation time: 03 hr 45 min 42 sec)
Heartbeat CPU 0 instructions: 530000001 cycles: 167186901 heartbeat IPC: 3.418 cumulative IPC: 3.104 (Simulation time: 03 hr 49 min 53 sec)
Heartbeat CPU 0 instructions: 540000001 cycles: 170090310 heartbeat IPC: 3.444 cumulative IPC: 3.11 (Simulation time: 03 hr 54 min 06 sec)
Heartbeat CPU 0 instructions: 550000001 cycles: 173062354 heartbeat IPC: 3.365 cumulative IPC: 3.115 (Simulation time: 03 hr 58 min 25 sec)
Heartbeat CPU 0 instructions: 560000004 cycles: 176062098 heartbeat IPC: 3.334 cumulative IPC: 3.119 (Simulation time: 04 hr 02 min 41 sec)
Heartbeat CPU 0 instructions: 570000004 cycles: 179864404 heartbeat IPC: 2.63 cumulative IPC: 3.108 (Simulation time: 04 hr 07 min 30 sec)
Heartbeat CPU 0 instructions: 580000003 cycles: 184954275 heartbeat IPC: 1.965 cumulative IPC: 3.074 (Simulation time: 04 hr 13 min 23 sec)
Heartbeat CPU 0 instructions: 590000002 cycles: 190515109 heartbeat IPC: 1.798 cumulative IPC: 3.034 (Simulation time: 04 hr 19 min 32 sec)
Heartbeat CPU 0 instructions: 600000000 cycles: 193439117 heartbeat IPC: 3.42 cumulative IPC: 3.04 (Simulation time: 04 hr 23 min 43 sec)
Heartbeat CPU 0 instructions: 610000002 cycles: 196338087 heartbeat IPC: 3.45 cumulative IPC: 3.047 (Simulation time: 04 hr 27 min 50 sec)
Heartbeat CPU 0 instructions: 620000001 cycles: 199113212 heartbeat IPC: 3.603 cumulative IPC: 3.055 (Simulation time: 04 hr 31 min 55 sec)
Heartbeat CPU 0 instructions: 630000002 cycles: 202106861 heartbeat IPC: 3.34 cumulative IPC: 3.06 (Simulation time: 04 hr 36 min 07 sec)
Heartbeat CPU 0 instructions: 640000004 cycles: 205067973 heartbeat IPC: 3.377 cumulative IPC: 3.064 (Simulation time: 04 hr 40 min 19 sec)
Heartbeat CPU 0 instructions: 650000000 cycles: 207854929 heartbeat IPC: 3.588 cumulative IPC: 3.072 (Simulation time: 04 hr 44 min 26 sec)
Simulation finished CPU 0 instructions: 600000001 cycles: 195317802 cumulative IPC: 3.072 (Simulation time: 04 hr 44 min 26 sec)
Simulation complete CPU 0 instructions: 600000001 cycles: 195317802 cumulative IPC: 3.072 (Simulation time: 04 hr 44 min 26 sec)

ChampSim completed all CPUs

=== Simulation ===
CPU 0 runs traces/400.perlbench-41B.champsimtrace.xz
Region of Interest Statistics

CPU 0 cumulative IPC: 3.072 instructions: 600000001 cycles: 195317802
CPU 0 Branch Prediction Accuracy: 98.9% MPKI: 2.275 Average ROB Occupancy at Mispredict: 90.22
Branch type MPKI
BRANCH_DIRECT_JUMP: 0.0123
BRANCH_INDIRECT: 0.323
BRANCH_CONDITIONAL: 1.73
BRANCH_DIRECT_CALL: 0.0043
BRANCH_INDIRECT_CALL: 0.2
BRANCH_RETURN: 0.00828

LLC TOTAL        ACCESS:     925066 HIT:     777819 MISS:     147247
LLC LOAD         ACCESS:     403699 HIT:     364447 MISS:      39252
LLC RFO          ACCESS:      32523 HIT:      28198 MISS:       4325
LLC PREFETCH     ACCESS:     384272 HIT:     287233 MISS:      97039
LLC WRITE        ACCESS:      85571 HIT:      85555 MISS:         16
LLC TRANSLATION  ACCESS:      19001 HIT:      12386 MISS:       6615
LLC PREFETCH REQUESTED:     384272 ISSUED:     384272 USEFUL:        637 USELESS:         10
LLC AVERAGE MISS LATENCY: 226.7 cycles
cpu0_DTLB TOTAL        ACCESS:  131062625 HIT:  130363066 MISS:     699559
cpu0_DTLB LOAD         ACCESS:  131062625 HIT:  130363066 MISS:     699559
cpu0_DTLB RFO          ACCESS:          0 HIT:          0 MISS:          0
cpu0_DTLB PREFETCH     ACCESS:          0 HIT:          0 MISS:          0
cpu0_DTLB WRITE        ACCESS:          0 HIT:          0 MISS:          0
cpu0_DTLB TRANSLATION  ACCESS:          0 HIT:          0 MISS:          0
cpu0_DTLB PREFETCH REQUESTED:          0 ISSUED:          0 USEFUL:          0 USELESS:          0
cpu0_DTLB AVERAGE MISS LATENCY: 11.71 cycles
cpu0_ITLB TOTAL        ACCESS:    4850614 HIT:    4789811 MISS:      60803
cpu0_ITLB LOAD         ACCESS:    4850614 HIT:    4789811 MISS:      60803
cpu0_ITLB RFO          ACCESS:          0 HIT:          0 MISS:          0
cpu0_ITLB PREFETCH     ACCESS:          0 HIT:          0 MISS:          0
cpu0_ITLB WRITE        ACCESS:          0 HIT:          0 MISS:          0
cpu0_ITLB TRANSLATION  ACCESS:          0 HIT:          0 MISS:          0
cpu0_ITLB PREFETCH REQUESTED:          0 ISSUED:          0 USEFUL:          0 USELESS:          0
cpu0_ITLB AVERAGE MISS LATENCY: 4.698 cycles
cpu0_L1D TOTAL        ACCESS:  176741840 HIT:  175020200 MISS:    1721640
cpu0_L1D LOAD         ACCESS:   93665039 HIT:   92321972 MISS:    1343067
cpu0_L1D RFO          ACCESS:          0 HIT:          0 MISS:          0
cpu0_L1D PREFETCH     ACCESS:          0 HIT:          0 MISS:          0
cpu0_L1D WRITE        ACCESS:   83052336 HIT:   82697158 MISS:     355178
cpu0_L1D TRANSLATION  ACCESS:      24465 HIT:       1070 MISS:      23395
cpu0_L1D PREFETCH REQUESTED:          0 ISSUED:          0 USEFUL:          0 USELESS:          0
cpu0_L1D AVERAGE MISS LATENCY: 26.27 cycles
cpu0_L1I TOTAL        ACCESS:    5628432 HIT:    4829681 MISS:     798751
cpu0_L1I LOAD         ACCESS:    5628432 HIT:    4829681 MISS:     798751
cpu0_L1I RFO          ACCESS:          0 HIT:          0 MISS:          0
cpu0_L1I PREFETCH     ACCESS:          0 HIT:          0 MISS:          0
cpu0_L1I WRITE        ACCESS:          0 HIT:          0 MISS:          0
cpu0_L1I TRANSLATION  ACCESS:          0 HIT:          0 MISS:          0
cpu0_L1I PREFETCH REQUESTED:          0 ISSUED:          0 USEFUL:          0 USELESS:          0
cpu0_L1I AVERAGE MISS LATENCY: 8.269 cycles
cpu0_L2C TOTAL        ACCESS:    1668406 HIT:    1211375 MISS:     457031
cpu0_L2C LOAD         ACCESS:    1315446 HIT:     911747 MISS:     403699
cpu0_L2C RFO          ACCESS:      89470 HIT:      56947 MISS:      32523
cpu0_L2C PREFETCH     ACCESS:          0 HIT:          0 MISS:          0
cpu0_L2C WRITE        ACCESS:     240172 HIT:     238364 MISS:       1808
cpu0_L2C TRANSLATION  ACCESS:      23318 HIT:       4317 MISS:      19001
cpu0_L2C PREFETCH REQUESTED:          0 ISSUED:          0 USEFUL:          0 USELESS:          0
cpu0_L2C AVERAGE MISS LATENCY: 92.07 cycles
cpu0_STLB TOTAL        ACCESS:     507651 HIT:     484863 MISS:      22788
cpu0_STLB LOAD         ACCESS:     507651 HIT:     484863 MISS:      22788
cpu0_STLB RFO          ACCESS:          0 HIT:          0 MISS:          0
cpu0_STLB PREFETCH     ACCESS:          0 HIT:          0 MISS:          0
cpu0_STLB WRITE        ACCESS:          0 HIT:          0 MISS:          0
cpu0_STLB TRANSLATION  ACCESS:          0 HIT:          0 MISS:          0
cpu0_STLB PREFETCH REQUESTED:          0 ISSUED:          0 USEFUL:          0 USELESS:          0
cpu0_STLB AVERAGE MISS LATENCY: 236.7 cycles

DRAM Statistics

Channel 0 RQ ROW_BUFFER_HIT:      22165
  ROW_BUFFER_MISS:      99068
 AVG DBUS CONGESTED CYCLE: 3.888
WQ ROW_BUFFER_HIT: Channel 0 
  ROW_BUFFER_MISS:        785
  FULL:        911
