WARNING: physical memory size is smaller than virtual memory size.

*** ChampSim Multicore Out-of-Order Simulator ***
Warmup Instructions: 50000000
Simulation Instructions: 600000000
Number of CPUs: 1
Page size: 4096

Off-chip DRAM Size: 4 GiB Channels: 1 Width: 64-bit Data Race: 3200 MT/s
Heartbeat CPU 0 instructions: 10000001 cycles: 2500319 heartbeat IPC: 3.999 cumulative IPC: 3.999 (Simulation time: 00 hr 01 min 39 sec)
Heartbeat CPU 0 instructions: 20000002 cycles: 5037117 heartbeat IPC: 3.942 cumulative IPC: 3.971 (Simulation time: 00 hr 04 min 30 sec)
Heartbeat CPU 0 instructions: 30000002 cycles: 7537117 heartbeat IPC: 4 cumulative IPC: 3.98 (Simulation time: 00 hr 07 min 50 sec)
Heartbeat CPU 0 instructions: 40000002 cycles: 10037117 heartbeat IPC: 4 cumulative IPC: 3.985 (Simulation time: 00 hr 11 min 20 sec)
Heartbeat CPU 0 instructions: 50000002 cycles: 12537117 heartbeat IPC: 4 cumulative IPC: 3.988 (Simulation time: 00 hr 14 min 50 sec)
Warmup finished CPU 0 instructions: 50000002 cycles: 12537118 cumulative IPC: 3.988 (Simulation time: 00 hr 14 min 50 sec)
Warmup complete CPU 0 instructions: 50000002 cycles: 12537118 cumulative IPC: 3.988 (Simulation time: 00 hr 14 min 50 sec)
Heartbeat CPU 0 instructions: 60000001 cycles: 15786562 heartbeat IPC: 3.077 cumulative IPC: 3.077 (Simulation time: 00 hr 19 min 12 sec)
Heartbeat CPU 0 instructions: 70000004 cycles: 19029498 heartbeat IPC: 3.084 cumulative IPC: 3.081 (Simulation time: 00 hr 23 min 36 sec)
Heartbeat CPU 0 instructions: 80000001 cycles: 22283581 heartbeat IPC: 3.073 cumulative IPC: 3.078 (Simulation time: 00 hr 28 min 00 sec)
Heartbeat CPU 0 instructions: 90000001 cycles: 25378315 heartbeat IPC: 3.231 cumulative IPC: 3.115 (Simulation time: 00 hr 32 min 18 sec)
Heartbeat CPU 0 instructions: 100000000 cycles: 28458892 heartbeat IPC: 3.246 cumulative IPC: 3.14 (Simulation time: 00 hr 36 min 37 sec)
Heartbeat CPU 0 instructions: 110000000 cycles: 31536092 heartbeat IPC: 3.25 cumulative IPC: 3.158 (Simulation time: 00 hr 40 min 54 sec)
Heartbeat CPU 0 instructions: 120000001 cycles: 34663910 heartbeat IPC: 3.197 cumulative IPC: 3.164 (Simulation time: 00 hr 45 min 14 sec)
Heartbeat CPU 0 instructions: 130000001 cycles: 37626840 heartbeat IPC: 3.375 cumulative IPC: 3.189 (Simulation time: 00 hr 49 min 32 sec)
Heartbeat CPU 0 instructions: 140000001 cycles: 40827641 heartbeat IPC: 3.124 cumulative IPC: 3.181 (Simulation time: 00 hr 53 min 53 sec)
Heartbeat CPU 0 instructions: 150000001 cycles: 44009510 heartbeat IPC: 3.143 cumulative IPC: 3.177 (Simulation time: 00 hr 58 min 15 sec)
Heartbeat CPU 0 instructions: 160000004 cycles: 47217959 heartbeat IPC: 3.117 cumulative IPC: 3.172 (Simulation time: 01 hr 02 min 37 sec)
Heartbeat CPU 0 instructions: 170000000 cycles: 53938231 heartbeat IPC: 1.488 cumulative IPC: 2.898 (Simulation time: 01 hr 09 min 25 sec)
Heartbeat CPU 0 instructions: 180000004 cycles: 60215265 heartbeat IPC: 1.593 cumulative IPC: 2.727 (Simulation time: 01 hr 16 min 06 sec)
Heartbeat CPU 0 instructions: 190000001 cycles: 66150017 heartbeat IPC: 1.685 cumulative IPC: 2.611 (Simulation time: 01 hr 22 min 32 sec)
Heartbeat CPU 0 instructions: 200000004 cycles: 69086936 heartbeat IPC: 3.405 cumulative IPC: 2.653 (Simulation time: 01 hr 26 min 44 sec)
Heartbeat CPU 0 instructions: 210000001 cycles: 72056998 heartbeat IPC: 3.367 cumulative IPC: 2.688 (Simulation time: 01 hr 30 min 58 sec)
Heartbeat CPU 0 instructions: 220000000 cycles: 74996327 heartbeat IPC: 3.402 cumulative IPC: 2.722 (Simulation time: 01 hr 35 min 10 sec)
Heartbeat CPU 0 instructions: 230000004 cycles: 78053954 heartbeat IPC: 3.271 cumulative IPC: 2.747 (Simulation time: 01 hr 39 min 23 sec)
Heartbeat CPU 0 instructions: 240000002 cycles: 81087499 heartbeat IPC: 3.296 cumulative IPC: 2.772 (Simulation time: 01 hr 43 min 38 sec)
Heartbeat CPU 0 instructions: 250000000 cycles: 84104082 heartbeat IPC: 3.315 cumulative IPC: 2.795 (Simulation time: 01 hr 47 min 54 sec)
Heartbeat CPU 0 instructions: 260000002 cycles: 87076499 heartbeat IPC: 3.364 cumulative IPC: 2.817 (Simulation time: 01 hr 52 min 08 sec)
Heartbeat CPU 0 instructions: 270000002 cycles: 89998953 heartbeat IPC: 3.422 cumulative IPC: 2.84 (Simulation time: 01 hr 56 min 21 sec)
Heartbeat CPU 0 instructions: 280000002 cycles: 92915469 heartbeat IPC: 3.429 cumulative IPC: 2.861 (Simulation time: 02 hr 00 min 34 sec)
Heartbeat CPU 0 instructions: 290000002 cycles: 95897227 heartbeat IPC: 3.354 cumulative IPC: 2.879 (Simulation time: 02 hr 04 min 51 sec)
Heartbeat CPU 0 instructions: 300000003 cycles: 98773851 heartbeat IPC: 3.476 cumulative IPC: 2.899 (Simulation time: 02 hr 09 min 05 sec)
Heartbeat CPU 0 instructions: 310000001 cycles: 101747436 heartbeat IPC: 3.363 cumulative IPC: 2.914 (Simulation time: 02 hr 13 min 21 sec)
Heartbeat CPU 0 instructions: 320000003 cycles: 104777816 heartbeat IPC: 3.3 cumulative IPC: 2.927 (Simulation time: 02 hr 17 min 38 sec)
Heartbeat CPU 0 instructions: 330000003 cycles: 107786327 heartbeat IPC: 3.324 cumulative IPC: 2.94 (Simulation time: 02 hr 21 min 52 sec)
Heartbeat CPU 0 instructions: 340000000 cycles: 113908563 heartbeat IPC: 1.633 cumulative IPC: 2.861 (Simulation time: 02 hr 28 min 21 sec)
Heartbeat CPU 0 instructions: 350000000 cycles: 120373473 heartbeat IPC: 1.547 cumulative IPC: 2.782 (Simulation time: 02 hr 35 min 15 sec)
Heartbeat CPU 0 instructions: 360000004 cycles: 126499308 heartbeat IPC: 1.632 cumulative IPC: 2.72 (Simulation time: 02 hr 41 min 49 sec)
Heartbeat CPU 0 instructions: 370000000 cycles: 129434932 heartbeat IPC: 3.406 cumulative IPC: 2.737 (Simulation time: 02 hr 46 min 02 sec)
Heartbeat CPU 0 instructions: 380000001 cycles: 132338119 heartbeat IPC: 3.444 cumulative IPC: 2.755 (Simulation time: 02 hr 50 min 15 sec)
Heartbeat CPU 0 instructions: 390000002 cycles: 135343464 heartbeat IPC: 3.327 cumulative IPC: 2.769 (Simulation time: 02 hr 54 min 30 sec)
Heartbeat CPU 0 instructions: 400000004 cycles: 138276586 heartbeat IPC: 3.409 cumulative IPC: 2.784 (Simulation time: 02 hr 58 min 44 sec)
Heartbeat CPU 0 instructions: 410000001 cycles: 141257616 heartbeat IPC: 3.355 cumulative IPC: 2.797 (Simulation time: 03 hr 02 min 56 sec)
Heartbeat CPU 0 instructions: 420000002 cycles: 144369604 heartbeat IPC: 3.213 cumulative IPC: 2.807 (Simulation time: 03 hr 07 min 14 sec)
Heartbeat CPU 0 instructions: 430000001 cycles: 147354081 heartbeat IPC: 3.351 cumulative IPC: 2.819 (Simulation time: 03 hr 11 min 30 sec)
Heartbeat CPU 0 instructions: 440000004 cycles: 150521000 heartbeat IPC: 3.158 cumulative IPC: 2.826 (Simulation time: 03 hr 15 min 51 sec)
Heartbeat CPU 0 instructions: 450000002 cycles: 153438601 heartbeat IPC: 3.427 cumulative IPC: 2.839 (Simulation time: 03 hr 20 min 02 sec)
Heartbeat CPU 0 instructions: 460000000 cycles: 156386783 heartbeat IPC: 3.392 cumulative IPC: 2.85 (Simulation time: 03 hr 24 min 14 sec)
Heartbeat CPU 0 instructions: 470000001 cycles: 159231552 heartbeat IPC: 3.515 cumulative IPC: 2.863 (Simulation time: 03 hr 28 min 24 sec)
Heartbeat CPU 0 instructions: 480000003 cycles: 162279776 heartbeat IPC: 3.281 cumulative IPC: 2.872 (Simulation time: 03 hr 32 min 38 sec)
Heartbeat CPU 0 instructions: 490000004 cycles: 165136014 heartbeat IPC: 3.501 cumulative IPC: 2.883 (Simulation time: 03 hr 36 min 46 sec)
Heartbeat CPU 0 instructions: 500000004 cycles: 168129023 heartbeat IPC: 3.341 cumulative IPC: 2.892 (Simulation time: 03 hr 40 min 59 sec)
Heartbeat CPU 0 instructions: 510000003 cycles: 171123877 heartbeat IPC: 3.339 cumulative IPC: 2.901 (Simulation time: 03 hr 45 min 19 sec)
Heartbeat CPU 0 instructions: 520000001 cycles: 174000783 heartbeat IPC: 3.476 cumulative IPC: 2.911 (Simulation time: 03 hr 49 min 33 sec)
Heartbeat CPU 0 instructions: 530000001 cycles: 176975127 heartbeat IPC: 3.362 cumulative IPC: 2.919 (Simulation time: 03 hr 53 min 48 sec)
Heartbeat CPU 0 instructions: 540000001 cycles: 179938253 heartbeat IPC: 3.375 cumulative IPC: 2.927 (Simulation time: 03 hr 58 min 03 sec)
Heartbeat CPU 0 instructions: 550000001 cycles: 182966219 heartbeat IPC: 3.303 cumulative IPC: 2.934 (Simulation time: 04 hr 02 min 21 sec)
Heartbeat CPU 0 instructions: 560000004 cycles: 186059012 heartbeat IPC: 3.233 cumulative IPC: 2.939 (Simulation time: 04 hr 06 min 40 sec)
Heartbeat CPU 0 instructions: 570000004 cycles: 190431008 heartbeat IPC: 2.287 cumulative IPC: 2.923 (Simulation time: 04 hr 11 min 52 sec)
Heartbeat CPU 0 instructions: 580000003 cycles: 197275601 heartbeat IPC: 1.461 cumulative IPC: 2.869 (Simulation time: 04 hr 18 min 56 sec)
Heartbeat CPU 0 instructions: 590000002 cycles: 204934264 heartbeat IPC: 1.306 cumulative IPC: 2.807 (Simulation time: 04 hr 26 min 34 sec)
Heartbeat CPU 0 instructions: 600000000 cycles: 207919214 heartbeat IPC: 3.35 cumulative IPC: 2.815 (Simulation time: 04 hr 30 min 48 sec)
Heartbeat CPU 0 instructions: 610000002 cycles: 210895776 heartbeat IPC: 3.36 cumulative IPC: 2.823 (Simulation time: 04 hr 34 min 59 sec)
Heartbeat CPU 0 instructions: 620000001 cycles: 213698778 heartbeat IPC: 3.568 cumulative IPC: 2.834 (Simulation time: 04 hr 39 min 07 sec)
Heartbeat CPU 0 instructions: 630000002 cycles: 216748364 heartbeat IPC: 3.279 cumulative IPC: 2.84 (Simulation time: 04 hr 43 min 19 sec)
Heartbeat CPU 0 instructions: 640000004 cycles: 219734618 heartbeat IPC: 3.349 cumulative IPC: 2.848 (Simulation time: 04 hr 47 min 33 sec)
Heartbeat CPU 0 instructions: 650000000 cycles: 222540884 heartbeat IPC: 3.563 cumulative IPC: 2.857 (Simulation time: 04 hr 51 min 49 sec)
Simulation finished CPU 0 instructions: 600000001 cycles: 210003768 cumulative IPC: 2.857 (Simulation time: 04 hr 51 min 49 sec)
Simulation complete CPU 0 instructions: 600000001 cycles: 210003768 cumulative IPC: 2.857 (Simulation time: 04 hr 51 min 49 sec)

ChampSim completed all CPUs

=== Simulation ===
CPU 0 runs traces/400.perlbench-41B.champsimtrace.xz
Region of Interest Statistics

CPU 0 cumulative IPC: 2.857 instructions: 600000001 cycles: 210003768
CPU 0 Branch Prediction Accuracy: 98.9% MPKI: 2.275 Average ROB Occupancy at Mispredict: 90.84
Branch type MPKI
BRANCH_DIRECT_JUMP: 0.0123
BRANCH_INDIRECT: 0.323
BRANCH_CONDITIONAL: 1.73
BRANCH_DIRECT_CALL: 0.0043
BRANCH_INDIRECT_CALL: 0.2
BRANCH_RETURN: 0.00828

LLC TOTAL        ACCESS:     831649 HIT:     620994 MISS:     210655
LLC LOAD         ACCESS:     398477 HIT:     315230 MISS:      83247
LLC RFO          ACCESS:      32130 HIT:      24266 MISS:       7864
LLC PREFETCH     ACCESS:     298259 HIT:     186717 MISS:     111542
LLC WRITE        ACCESS:      83887 HIT:      83730 MISS:        157
LLC TRANSLATION  ACCESS:      18896 HIT:      11051 MISS:       7845
LLC PREFETCH REQUESTED:     298263 ISSUED:     298259 USEFUL:      40054 USELESS:      50524
LLC AVERAGE MISS LATENCY: 711.1 cycles
cpu0_DTLB TOTAL        ACCESS:  131072760 HIT:  130371684 MISS:     701076
cpu0_DTLB LOAD         ACCESS:  131072760 HIT:  130371684 MISS:     701076
cpu0_DTLB RFO          ACCESS:          0 HIT:          0 MISS:          0
cpu0_DTLB PREFETCH     ACCESS:          0 HIT:          0 MISS:          0
cpu0_DTLB WRITE        ACCESS:          0 HIT:          0 MISS:          0
cpu0_DTLB TRANSLATION  ACCESS:          0 HIT:          0 MISS:          0
cpu0_DTLB PREFETCH REQUESTED:          0 ISSUED:          0 USEFUL:          0 USELESS:          0
cpu0_DTLB AVERAGE MISS LATENCY: 12.53 cycles
cpu0_ITLB TOTAL        ACCESS:    4854903 HIT:    4794077 MISS:      60826
cpu0_ITLB LOAD         ACCESS:    4854903 HIT:    4794077 MISS:      60826
cpu0_ITLB RFO          ACCESS:          0 HIT:          0 MISS:          0
cpu0_ITLB PREFETCH     ACCESS:          0 HIT:          0 MISS:          0
cpu0_ITLB WRITE        ACCESS:          0 HIT:          0 MISS:          0
cpu0_ITLB TRANSLATION  ACCESS:          0 HIT:          0 MISS:          0
cpu0_ITLB PREFETCH REQUESTED:          0 ISSUED:          0 USEFUL:          0 USELESS:          0
cpu0_ITLB AVERAGE MISS LATENCY: 6.111 cycles
cpu0_L1D TOTAL        ACCESS:  176737880 HIT:  174993456 MISS:    1744424
cpu0_L1D LOAD         ACCESS:   93657936 HIT:   92300026 MISS:    1357910
cpu0_L1D RFO          ACCESS:          0 HIT:          0 MISS:          0
cpu0_L1D PREFETCH     ACCESS:          0 HIT:          0 MISS:          0
cpu0_L1D WRITE        ACCESS:   83055484 HIT:   82692364 MISS:     363120
cpu0_L1D TRANSLATION  ACCESS:      24460 HIT:       1066 MISS:      23394
cpu0_L1D PREFETCH REQUESTED:          0 ISSUED:          0 USEFUL:          0 USELESS:          0
cpu0_L1D AVERAGE MISS LATENCY: 44.58 cycles
cpu0_L1I TOTAL        ACCESS:    5632387 HIT:    4833171 MISS:     799216
cpu0_L1I LOAD         ACCESS:    5632387 HIT:    4833171 MISS:     799216
cpu0_L1I RFO          ACCESS:          0 HIT:          0 MISS:          0
cpu0_L1I PREFETCH     ACCESS:          0 HIT:          0 MISS:          0
cpu0_L1I WRITE        ACCESS:          0 HIT:          0 MISS:          0
cpu0_L1I TRANSLATION  ACCESS:          0 HIT:          0 MISS:          0
cpu0_L1I PREFETCH REQUESTED:          0 ISSUED:          0 USEFUL:          0 USELESS:          0
cpu0_L1I AVERAGE MISS LATENCY: 9.552 cycles
cpu0_L2C TOTAL        ACCESS:    1668150 HIT:    1217020 MISS:     451130
cpu0_L2C LOAD         ACCESS:    1315482 HIT:     917005 MISS:     398477
cpu0_L2C RFO          ACCESS:      89451 HIT:      57321 MISS:      32130
cpu0_L2C PREFETCH     ACCESS:          0 HIT:          0 MISS:          0
cpu0_L2C WRITE        ACCESS:     239902 HIT:     238275 MISS:       1627
cpu0_L2C TRANSLATION  ACCESS:      23315 HIT:       4419 MISS:      18896
cpu0_L2C PREFETCH REQUESTED:          0 ISSUED:          0 USEFUL:          0 USELESS:          0
cpu0_L2C AVERAGE MISS LATENCY: 170.3 cycles
cpu0_STLB TOTAL        ACCESS:     508128 HIT:     485342 MISS:      22786
cpu0_STLB LOAD         ACCESS:     508128 HIT:     485342 MISS:      22786
cpu0_STLB RFO          ACCESS:          0 HIT:          0 MISS:          0
cpu0_STLB PREFETCH     ACCESS:          0 HIT:          0 MISS:          0
cpu0_STLB WRITE        ACCESS:          0 HIT:          0 MISS:          0
cpu0_STLB TRANSLATION  ACCESS:          0 HIT:          0 MISS:          0
cpu0_STLB PREFETCH REQUESTED:          0 ISSUED:          0 USEFUL:          0 USELESS:          0
cpu0_STLB AVERAGE MISS LATENCY: 268.5 cycles

DRAM Statistics

Channel 0 RQ ROW_BUFFER_HIT:      72261
  ROW_BUFFER_MISS:     129322
 AVG DBUS CONGESTED CYCLE: 3.89
WQ ROW_BUFFER_HIT: Channel 0 
  ROW_BUFFER_MISS:       3971
  FULL:      12883
