WARNING: physical memory size is smaller than virtual memory size.

*** ChampSim Multicore Out-of-Order Simulator ***
Warmup Instructions: 50000000
Simulation Instructions: 600000000
Number of CPUs: 1
Page size: 4096

Off-chip DRAM Size: 4 GiB Channels: 1 Width: 64-bit Data Race: 3200 MT/s
Heartbeat CPU 0 instructions: 10000000 cycles: 2500061 heartbeat IPC: 4 cumulative IPC: 4 (Simulation time: 00 hr 00 min 34 sec)
Heartbeat CPU 0 instructions: 20000000 cycles: 5000061 heartbeat IPC: 4 cumulative IPC: 4 (Simulation time: 00 hr 01 min 06 sec)
Heartbeat CPU 0 instructions: 30000000 cycles: 7500061 heartbeat IPC: 4 cumulative IPC: 4 (Simulation time: 00 hr 01 min 40 sec)
Heartbeat CPU 0 instructions: 40000000 cycles: 10000061 heartbeat IPC: 4 cumulative IPC: 4 (Simulation time: 00 hr 02 min 13 sec)
Heartbeat CPU 0 instructions: 50000000 cycles: 12500061 heartbeat IPC: 4 cumulative IPC: 4 (Simulation time: 00 hr 02 min 47 sec)
Warmup finished CPU 0 instructions: 50000000 cycles: 12500062 cumulative IPC: 4 (Simulation time: 00 hr 02 min 47 sec)
Warmup complete CPU 0 instructions: 50000000 cycles: 12500062 cumulative IPC: 4 (Simulation time: 00 hr 02 min 47 sec)
Heartbeat CPU 0 instructions: 60000002 cycles: 16446623 heartbeat IPC: 2.534 cumulative IPC: 2.534 (Simulation time: 00 hr 03 min 35 sec)
Heartbeat CPU 0 instructions: 70000003 cycles: 20770663 heartbeat IPC: 2.313 cumulative IPC: 2.418 (Simulation time: 00 hr 04 min 25 sec)
Heartbeat CPU 0 instructions: 80000003 cycles: 25247437 heartbeat IPC: 2.234 cumulative IPC: 2.353 (Simulation time: 00 hr 05 min 13 sec)
Heartbeat CPU 0 instructions: 90000000 cycles: 28939876 heartbeat IPC: 2.708 cumulative IPC: 2.433 (Simulation time: 00 hr 06 min 00 sec)
Heartbeat CPU 0 instructions: 100000003 cycles: 32843908 heartbeat IPC: 2.561 cumulative IPC: 2.458 (Simulation time: 00 hr 06 min 48 sec)
Heartbeat CPU 0 instructions: 110000002 cycles: 36950135 heartbeat IPC: 2.435 cumulative IPC: 2.454 (Simulation time: 00 hr 07 min 35 sec)
Heartbeat CPU 0 instructions: 120000001 cycles: 40668359 heartbeat IPC: 2.689 cumulative IPC: 2.485 (Simulation time: 00 hr 08 min 19 sec)
Heartbeat CPU 0 instructions: 130000003 cycles: 44444328 heartbeat IPC: 2.648 cumulative IPC: 2.504 (Simulation time: 00 hr 09 min 03 sec)
Heartbeat CPU 0 instructions: 140000002 cycles: 48579315 heartbeat IPC: 2.418 cumulative IPC: 2.495 (Simulation time: 00 hr 09 min 51 sec)
Heartbeat CPU 0 instructions: 150000001 cycles: 52632664 heartbeat IPC: 2.467 cumulative IPC: 2.492 (Simulation time: 00 hr 10 min 40 sec)
Heartbeat CPU 0 instructions: 160000000 cycles: 56291651 heartbeat IPC: 2.733 cumulative IPC: 2.512 (Simulation time: 00 hr 11 min 24 sec)
Heartbeat CPU 0 instructions: 170000001 cycles: 60472265 heartbeat IPC: 2.392 cumulative IPC: 2.501 (Simulation time: 00 hr 12 min 10 sec)
Heartbeat CPU 0 instructions: 180000001 cycles: 63937266 heartbeat IPC: 2.886 cumulative IPC: 2.527 (Simulation time: 00 hr 12 min 54 sec)
Heartbeat CPU 0 instructions: 190000002 cycles: 67527991 heartbeat IPC: 2.785 cumulative IPC: 2.544 (Simulation time: 00 hr 13 min 38 sec)
Heartbeat CPU 0 instructions: 200000002 cycles: 71313371 heartbeat IPC: 2.642 cumulative IPC: 2.55 (Simulation time: 00 hr 14 min 22 sec)
Heartbeat CPU 0 instructions: 210000000 cycles: 74955304 heartbeat IPC: 2.746 cumulative IPC: 2.562 (Simulation time: 00 hr 15 min 04 sec)
Heartbeat CPU 0 instructions: 220000001 cycles: 78829096 heartbeat IPC: 2.581 cumulative IPC: 2.563 (Simulation time: 00 hr 15 min 47 sec)
Heartbeat CPU 0 instructions: 230000002 cycles: 82672692 heartbeat IPC: 2.602 cumulative IPC: 2.565 (Simulation time: 00 hr 16 min 30 sec)
Heartbeat CPU 0 instructions: 240000001 cycles: 86884508 heartbeat IPC: 2.374 cumulative IPC: 2.554 (Simulation time: 00 hr 17 min 14 sec)
Heartbeat CPU 0 instructions: 250000003 cycles: 91457630 heartbeat IPC: 2.187 cumulative IPC: 2.533 (Simulation time: 00 hr 18 min 00 sec)
Heartbeat CPU 0 instructions: 260000000 cycles: 95254458 heartbeat IPC: 2.634 cumulative IPC: 2.538 (Simulation time: 00 hr 18 min 43 sec)
Heartbeat CPU 0 instructions: 270000003 cycles: 102379693 heartbeat IPC: 1.403 cumulative IPC: 2.448 (Simulation time: 00 hr 19 min 43 sec)
Heartbeat CPU 0 instructions: 280000000 cycles: 112926890 heartbeat IPC: 0.9481 cumulative IPC: 2.29 (Simulation time: 00 hr 21 min 03 sec)
Heartbeat CPU 0 instructions: 290000000 cycles: 122212843 heartbeat IPC: 1.077 cumulative IPC: 2.188 (Simulation time: 00 hr 22 min 22 sec)
Heartbeat CPU 0 instructions: 300000003 cycles: 129437188 heartbeat IPC: 1.384 cumulative IPC: 2.138 (Simulation time: 00 hr 23 min 30 sec)
Heartbeat CPU 0 instructions: 310000004 cycles: 139491731 heartbeat IPC: 0.9946 cumulative IPC: 2.047 (Simulation time: 00 hr 24 min 51 sec)
Heartbeat CPU 0 instructions: 320000004 cycles: 144419305 heartbeat IPC: 2.029 cumulative IPC: 2.047 (Simulation time: 00 hr 25 min 41 sec)
Heartbeat CPU 0 instructions: 330000000 cycles: 148417840 heartbeat IPC: 2.501 cumulative IPC: 2.06 (Simulation time: 00 hr 26 min 25 sec)
Heartbeat CPU 0 instructions: 340000001 cycles: 152266539 heartbeat IPC: 2.598 cumulative IPC: 2.075 (Simulation time: 00 hr 27 min 08 sec)
Heartbeat CPU 0 instructions: 350000004 cycles: 156229771 heartbeat IPC: 2.523 cumulative IPC: 2.087 (Simulation time: 00 hr 27 min 52 sec)
Heartbeat CPU 0 instructions: 360000003 cycles: 159923860 heartbeat IPC: 2.707 cumulative IPC: 2.103 (Simulation time: 00 hr 28 min 37 sec)
Heartbeat CPU 0 instructions: 370000001 cycles: 163613884 heartbeat IPC: 2.71 cumulative IPC: 2.118 (Simulation time: 00 hr 29 min 21 sec)
Heartbeat CPU 0 instructions: 380000004 cycles: 167167494 heartbeat IPC: 2.814 cumulative IPC: 2.134 (Simulation time: 00 hr 30 min 05 sec)
Heartbeat CPU 0 instructions: 390000002 cycles: 170772412 heartbeat IPC: 2.774 cumulative IPC: 2.148 (Simulation time: 00 hr 30 min 49 sec)
Heartbeat CPU 0 instructions: 400000000 cycles: 174646034 heartbeat IPC: 2.582 cumulative IPC: 2.159 (Simulation time: 00 hr 31 min 35 sec)
Heartbeat CPU 0 instructions: 410000000 cycles: 180213902 heartbeat IPC: 1.796 cumulative IPC: 2.147 (Simulation time: 00 hr 32 min 31 sec)
Heartbeat CPU 0 instructions: 420000003 cycles: 187424714 heartbeat IPC: 1.387 cumulative IPC: 2.115 (Simulation time: 00 hr 33 min 33 sec)
Heartbeat CPU 0 instructions: 430000000 cycles: 193927933 heartbeat IPC: 1.538 cumulative IPC: 2.094 (Simulation time: 00 hr 34 min 34 sec)
Heartbeat CPU 0 instructions: 440000004 cycles: 199971901 heartbeat IPC: 1.655 cumulative IPC: 2.08 (Simulation time: 00 hr 35 min 32 sec)
Heartbeat CPU 0 instructions: 450000001 cycles: 206282141 heartbeat IPC: 1.585 cumulative IPC: 2.064 (Simulation time: 00 hr 36 min 31 sec)
Heartbeat CPU 0 instructions: 460000002 cycles: 213934869 heartbeat IPC: 1.307 cumulative IPC: 2.035 (Simulation time: 00 hr 37 min 38 sec)
Heartbeat CPU 0 instructions: 470000003 cycles: 220153161 heartbeat IPC: 1.608 cumulative IPC: 2.023 (Simulation time: 00 hr 38 min 40 sec)
Heartbeat CPU 0 instructions: 480000003 cycles: 223916085 heartbeat IPC: 2.658 cumulative IPC: 2.034 (Simulation time: 00 hr 39 min 26 sec)
Heartbeat CPU 0 instructions: 490000001 cycles: 227873518 heartbeat IPC: 2.527 cumulative IPC: 2.043 (Simulation time: 00 hr 40 min 12 sec)
Heartbeat CPU 0 instructions: 500000002 cycles: 231659511 heartbeat IPC: 2.641 cumulative IPC: 2.053 (Simulation time: 00 hr 40 min 58 sec)
Heartbeat CPU 0 instructions: 510000000 cycles: 235309029 heartbeat IPC: 2.74 cumulative IPC: 2.065 (Simulation time: 00 hr 41 min 41 sec)
Heartbeat CPU 0 instructions: 520000000 cycles: 239077881 heartbeat IPC: 2.653 cumulative IPC: 2.074 (Simulation time: 00 hr 42 min 24 sec)
Heartbeat CPU 0 instructions: 530000001 cycles: 246313978 heartbeat IPC: 1.382 cumulative IPC: 2.053 (Simulation time: 00 hr 43 min 26 sec)
Heartbeat CPU 0 instructions: 540000000 cycles: 253476885 heartbeat IPC: 1.396 cumulative IPC: 2.033 (Simulation time: 00 hr 44 min 33 sec)
Heartbeat CPU 0 instructions: 550000004 cycles: 260808524 heartbeat IPC: 1.364 cumulative IPC: 2.014 (Simulation time: 00 hr 45 min 41 sec)
Heartbeat CPU 0 instructions: 560000004 cycles: 264595275 heartbeat IPC: 2.641 cumulative IPC: 2.023 (Simulation time: 00 hr 46 min 25 sec)
Heartbeat CPU 0 instructions: 570000001 cycles: 267667886 heartbeat IPC: 3.255 cumulative IPC: 2.038 (Simulation time: 00 hr 47 min 07 sec)
Heartbeat CPU 0 instructions: 580000003 cycles: 271120742 heartbeat IPC: 2.896 cumulative IPC: 2.049 (Simulation time: 00 hr 47 min 50 sec)
Heartbeat CPU 0 instructions: 590000002 cycles: 274649505 heartbeat IPC: 2.834 cumulative IPC: 2.06 (Simulation time: 00 hr 48 min 32 sec)
Heartbeat CPU 0 instructions: 600000003 cycles: 277663940 heartbeat IPC: 3.317 cumulative IPC: 2.074 (Simulation time: 00 hr 49 min 14 sec)
Heartbeat CPU 0 instructions: 610000001 cycles: 281104073 heartbeat IPC: 2.907 cumulative IPC: 2.085 (Simulation time: 00 hr 49 min 56 sec)
Heartbeat CPU 0 instructions: 620000000 cycles: 285066484 heartbeat IPC: 2.524 cumulative IPC: 2.091 (Simulation time: 00 hr 50 min 39 sec)
Heartbeat CPU 0 instructions: 630000002 cycles: 288392401 heartbeat IPC: 3.007 cumulative IPC: 2.102 (Simulation time: 00 hr 51 min 21 sec)
Heartbeat CPU 0 instructions: 640000004 cycles: 292352415 heartbeat IPC: 2.525 cumulative IPC: 2.108 (Simulation time: 00 hr 52 min 04 sec)
Heartbeat CPU 0 instructions: 650000001 cycles: 296154507 heartbeat IPC: 2.63 cumulative IPC: 2.115 (Simulation time: 00 hr 52 min 50 sec)
Simulation finished CPU 0 instructions: 600000001 cycles: 283654446 cumulative IPC: 2.115 (Simulation time: 00 hr 52 min 50 sec)
Simulation complete CPU 0 instructions: 600000001 cycles: 283654446 cumulative IPC: 2.115 (Simulation time: 00 hr 52 min 50 sec)

ChampSim completed all CPUs

=== Simulation ===
CPU 0 runs traces/400.perlbench-50B.champsimtrace.xz
Region of Interest Statistics

CPU 0 cumulative IPC: 2.115 instructions: 600000001 cycles: 283654446
CPU 0 Branch Prediction Accuracy: 96.2% MPKI: 7.839 Average ROB Occupancy at Mispredict: 43.18
Branch type MPKI
BRANCH_DIRECT_JUMP: 0.0176
BRANCH_INDIRECT: 0.38
BRANCH_CONDITIONAL: 6.99
BRANCH_DIRECT_CALL: 0.0067
BRANCH_INDIRECT_CALL: 0.431
BRANCH_RETURN: 0.0161

LLC TOTAL        ACCESS:     783881 HIT:     657588 MISS:     126293
LLC LOAD         ACCESS:     585983 HIT:     478730 MISS:     107253
LLC RFO          ACCESS:      47516 HIT:      37627 MISS:       9889
LLC PREFETCH     ACCESS:          0 HIT:          0 MISS:          0
LLC WRITE        ACCESS:     128450 HIT:     128445 MISS:          5
LLC TRANSLATION  ACCESS:      21932 HIT:      12786 MISS:       9146
LLC PREFETCH REQUESTED:          0 ISSUED:          0 USEFUL:          0 USELESS:          0
LLC AVERAGE MISS LATENCY: 467.9 cycles
cpu0_DTLB TOTAL        ACCESS:  146514666 HIT:  145209737 MISS:    1304929
cpu0_DTLB LOAD         ACCESS:  146514666 HIT:  145209737 MISS:    1304929
cpu0_DTLB RFO          ACCESS:          0 HIT:          0 MISS:          0
cpu0_DTLB PREFETCH     ACCESS:          0 HIT:          0 MISS:          0
cpu0_DTLB WRITE        ACCESS:          0 HIT:          0 MISS:          0
cpu0_DTLB TRANSLATION  ACCESS:          0 HIT:          0 MISS:          0
cpu0_DTLB PREFETCH REQUESTED:          0 ISSUED:          0 USEFUL:          0 USELESS:          0
cpu0_DTLB AVERAGE MISS LATENCY: 9.832 cycles
cpu0_ITLB TOTAL        ACCESS:    8985275 HIT:    8800697 MISS:     184578
cpu0_ITLB LOAD         ACCESS:    8985275 HIT:    8800697 MISS:     184578
cpu0_ITLB RFO          ACCESS:          0 HIT:          0 MISS:          0
cpu0_ITLB PREFETCH     ACCESS:          0 HIT:          0 MISS:          0
cpu0_ITLB WRITE        ACCESS:          0 HIT:          0 MISS:          0
cpu0_ITLB TRANSLATION  ACCESS:          0 HIT:          0 MISS:          0
cpu0_ITLB PREFETCH REQUESTED:          0 ISSUED:          0 USEFUL:          0 USELESS:          0
cpu0_ITLB AVERAGE MISS LATENCY: 2.9 cycles
cpu0_L1D TOTAL        ACCESS:  193307317 HIT:  189675826 MISS:    3631491
cpu0_L1D LOAD         ACCESS:  107462243 HIT:  104466261 MISS:    2995982
cpu0_L1D RFO          ACCESS:          0 HIT:          0 MISS:          0
cpu0_L1D PREFETCH     ACCESS:          0 HIT:          0 MISS:          0
cpu0_L1D WRITE        ACCESS:   85816549 HIT:   85208140 MISS:     608409
cpu0_L1D TRANSLATION  ACCESS:      28525 HIT:       1425 MISS:      27100
cpu0_L1D PREFETCH REQUESTED:          0 ISSUED:          0 USEFUL:          0 USELESS:          0
cpu0_L1D AVERAGE MISS LATENCY: 22.88 cycles
cpu0_L1I TOTAL        ACCESS:   10419724 HIT:    8657850 MISS:    1761874
cpu0_L1I LOAD         ACCESS:   10419724 HIT:    8657850 MISS:    1761874
cpu0_L1I RFO          ACCESS:          0 HIT:          0 MISS:          0
cpu0_L1I PREFETCH     ACCESS:          0 HIT:          0 MISS:          0
cpu0_L1I WRITE        ACCESS:          0 HIT:          0 MISS:          0
cpu0_L1I TRANSLATION  ACCESS:          0 HIT:          0 MISS:          0
cpu0_L1I PREFETCH REQUESTED:          0 ISSUED:          0 USEFUL:          0 USELESS:          0
cpu0_L1I AVERAGE MISS LATENCY: 9.439 cycles
cpu0_L2C TOTAL        ACCESS:    3834809 HIT:    3176156 MISS:     658653
cpu0_L2C LOAD         ACCESS:    3105014 HIT:    2519031 MISS:     585983
cpu0_L2C RFO          ACCESS:     191512 HIT:     143996 MISS:      47516
cpu0_L2C PREFETCH     ACCESS:          0 HIT:          0 MISS:          0
cpu0_L2C WRITE        ACCESS:     511249 HIT:     508027 MISS:       3222
cpu0_L2C TRANSLATION  ACCESS:      27034 HIT:       5102 MISS:      21932
cpu0_L2C PREFETCH REQUESTED:          0 ISSUED:          0 USEFUL:          0 USELESS:          0
cpu0_L2C AVERAGE MISS LATENCY: 109.8 cycles
cpu0_STLB TOTAL        ACCESS:    1008519 HIT:     981824 MISS:      26695
cpu0_STLB LOAD         ACCESS:    1008519 HIT:     981824 MISS:      26695
cpu0_STLB RFO          ACCESS:          0 HIT:          0 MISS:          0
cpu0_STLB PREFETCH     ACCESS:          0 HIT:          0 MISS:          0
cpu0_STLB WRITE        ACCESS:          0 HIT:          0 MISS:          0
cpu0_STLB TRANSLATION  ACCESS:          0 HIT:          0 MISS:          0
cpu0_STLB PREFETCH REQUESTED:          0 ISSUED:          0 USEFUL:          0 USELESS:          0
cpu0_STLB AVERAGE MISS LATENCY: 253.7 cycles

DRAM Statistics

Channel 0 RQ ROW_BUFFER_HIT:      37884
  ROW_BUFFER_MISS:      88402
 AVG DBUS CONGESTED CYCLE: 3.701
WQ ROW_BUFFER_HIT: Channel 0 
  ROW_BUFFER_MISS:       1353
  FULL:       1772
