WARNING: physical memory size is smaller than virtual memory size.

*** ChampSim Multicore Out-of-Order Simulator ***
Warmup Instructions: 50000000
Simulation Instructions: 600000000
Number of CPUs: 1
Page size: 4096

CPU 0 Tage branch predictor
Off-chip DRAM Size: 4 GiB Channels: 1 Width: 64-bit Data Race: 3200 MT/s
Heartbeat CPU 0 instructions: 10000000 cycles: 2500061 heartbeat IPC: 4 cumulative IPC: 4 (Simulation time: 00 hr 00 min 43 sec)
Heartbeat CPU 0 instructions: 20000000 cycles: 5000061 heartbeat IPC: 4 cumulative IPC: 4 (Simulation time: 00 hr 01 min 24 sec)
Heartbeat CPU 0 instructions: 30000000 cycles: 7500061 heartbeat IPC: 4 cumulative IPC: 4 (Simulation time: 00 hr 02 min 04 sec)
Heartbeat CPU 0 instructions: 40000000 cycles: 10000061 heartbeat IPC: 4 cumulative IPC: 4 (Simulation time: 00 hr 02 min 44 sec)
Heartbeat CPU 0 instructions: 50000000 cycles: 12500061 heartbeat IPC: 4 cumulative IPC: 4 (Simulation time: 00 hr 03 min 26 sec)
Warmup finished CPU 0 instructions: 50000000 cycles: 12500062 cumulative IPC: 4 (Simulation time: 00 hr 03 min 26 sec)
Warmup complete CPU 0 instructions: 50000000 cycles: 12500062 cumulative IPC: 4 (Simulation time: 00 hr 03 min 26 sec)
Heartbeat CPU 0 instructions: 60000004 cycles: 15503677 heartbeat IPC: 3.329 cumulative IPC: 3.329 (Simulation time: 00 hr 04 min 17 sec)
Heartbeat CPU 0 instructions: 70000003 cycles: 18382317 heartbeat IPC: 3.474 cumulative IPC: 3.4 (Simulation time: 00 hr 05 min 04 sec)
Heartbeat CPU 0 instructions: 80000002 cycles: 21404747 heartbeat IPC: 3.309 cumulative IPC: 3.369 (Simulation time: 00 hr 05 min 50 sec)
Heartbeat CPU 0 instructions: 90000000 cycles: 24127135 heartbeat IPC: 3.673 cumulative IPC: 3.44 (Simulation time: 00 hr 06 min 38 sec)
Heartbeat CPU 0 instructions: 100000003 cycles: 26893697 heartbeat IPC: 3.615 cumulative IPC: 3.474 (Simulation time: 00 hr 07 min 26 sec)
Heartbeat CPU 0 instructions: 110000001 cycles: 29799971 heartbeat IPC: 3.441 cumulative IPC: 3.468 (Simulation time: 00 hr 08 min 13 sec)
Heartbeat CPU 0 instructions: 120000001 cycles: 32524189 heartbeat IPC: 3.671 cumulative IPC: 3.496 (Simulation time: 00 hr 08 min 58 sec)
Heartbeat CPU 0 instructions: 130000003 cycles: 35426960 heartbeat IPC: 3.445 cumulative IPC: 3.489 (Simulation time: 00 hr 09 min 45 sec)
Heartbeat CPU 0 instructions: 140000002 cycles: 38265022 heartbeat IPC: 3.524 cumulative IPC: 3.493 (Simulation time: 00 hr 10 min 31 sec)
Heartbeat CPU 0 instructions: 150000001 cycles: 41038933 heartbeat IPC: 3.605 cumulative IPC: 3.504 (Simulation time: 00 hr 11 min 17 sec)
Heartbeat CPU 0 instructions: 160000000 cycles: 43953820 heartbeat IPC: 3.431 cumulative IPC: 3.497 (Simulation time: 00 hr 12 min 03 sec)
Heartbeat CPU 0 instructions: 170000001 cycles: 46884845 heartbeat IPC: 3.412 cumulative IPC: 3.49 (Simulation time: 00 hr 12 min 50 sec)
Heartbeat CPU 0 instructions: 180000000 cycles: 49682531 heartbeat IPC: 3.574 cumulative IPC: 3.496 (Simulation time: 00 hr 13 min 37 sec)
Heartbeat CPU 0 instructions: 190000002 cycles: 52390539 heartbeat IPC: 3.693 cumulative IPC: 3.51 (Simulation time: 00 hr 14 min 21 sec)
Heartbeat CPU 0 instructions: 200000002 cycles: 55219937 heartbeat IPC: 3.534 cumulative IPC: 3.511 (Simulation time: 00 hr 15 min 06 sec)
Heartbeat CPU 0 instructions: 210000000 cycles: 58119126 heartbeat IPC: 3.449 cumulative IPC: 3.507 (Simulation time: 00 hr 15 min 51 sec)
Heartbeat CPU 0 instructions: 220000001 cycles: 60883566 heartbeat IPC: 3.617 cumulative IPC: 3.514 (Simulation time: 00 hr 16 min 36 sec)
Heartbeat CPU 0 instructions: 230000002 cycles: 63776820 heartbeat IPC: 3.456 cumulative IPC: 3.51 (Simulation time: 00 hr 17 min 21 sec)
Heartbeat CPU 0 instructions: 240000004 cycles: 66737011 heartbeat IPC: 3.378 cumulative IPC: 3.503 (Simulation time: 00 hr 18 min 06 sec)
Heartbeat CPU 0 instructions: 250000003 cycles: 69643379 heartbeat IPC: 3.441 cumulative IPC: 3.5 (Simulation time: 00 hr 18 min 51 sec)
Heartbeat CPU 0 instructions: 260000001 cycles: 72434967 heartbeat IPC: 3.582 cumulative IPC: 3.504 (Simulation time: 00 hr 19 min 36 sec)
Heartbeat CPU 0 instructions: 270000002 cycles: 77840334 heartbeat IPC: 1.85 cumulative IPC: 3.367 (Simulation time: 00 hr 20 min 35 sec)
Heartbeat CPU 0 instructions: 280000000 cycles: 85710761 heartbeat IPC: 1.271 cumulative IPC: 3.142 (Simulation time: 00 hr 21 min 49 sec)
Heartbeat CPU 0 instructions: 290000000 cycles: 92136828 heartbeat IPC: 1.556 cumulative IPC: 3.014 (Simulation time: 00 hr 22 min 55 sec)
Heartbeat CPU 0 instructions: 300000003 cycles: 97068084 heartbeat IPC: 2.028 cumulative IPC: 2.956 (Simulation time: 00 hr 23 min 55 sec)
Heartbeat CPU 0 instructions: 310000001 cycles: 104365299 heartbeat IPC: 1.37 cumulative IPC: 2.83 (Simulation time: 00 hr 25 min 09 sec)
Heartbeat CPU 0 instructions: 320000004 cycles: 107991747 heartbeat IPC: 2.758 cumulative IPC: 2.827 (Simulation time: 00 hr 26 min 00 sec)
Heartbeat CPU 0 instructions: 330000000 cycles: 111108999 heartbeat IPC: 3.208 cumulative IPC: 2.839 (Simulation time: 00 hr 26 min 47 sec)
Heartbeat CPU 0 instructions: 340000001 cycles: 113953238 heartbeat IPC: 3.516 cumulative IPC: 2.858 (Simulation time: 00 hr 27 min 33 sec)
Heartbeat CPU 0 instructions: 350000000 cycles: 116960443 heartbeat IPC: 3.325 cumulative IPC: 2.872 (Simulation time: 00 hr 28 min 20 sec)
Heartbeat CPU 0 instructions: 360000004 cycles: 119804926 heartbeat IPC: 3.516 cumulative IPC: 2.889 (Simulation time: 00 hr 29 min 05 sec)
Heartbeat CPU 0 instructions: 370000001 cycles: 122653426 heartbeat IPC: 3.511 cumulative IPC: 2.905 (Simulation time: 00 hr 29 min 51 sec)
Heartbeat CPU 0 instructions: 380000004 cycles: 125525776 heartbeat IPC: 3.481 cumulative IPC: 2.92 (Simulation time: 00 hr 30 min 37 sec)
Heartbeat CPU 0 instructions: 390000002 cycles: 128435915 heartbeat IPC: 3.436 cumulative IPC: 2.933 (Simulation time: 00 hr 31 min 23 sec)
Heartbeat CPU 0 instructions: 400000000 cycles: 131412304 heartbeat IPC: 3.36 cumulative IPC: 2.943 (Simulation time: 00 hr 32 min 09 sec)
Heartbeat CPU 0 instructions: 410000000 cycles: 135678711 heartbeat IPC: 2.344 cumulative IPC: 2.923 (Simulation time: 00 hr 33 min 02 sec)
Heartbeat CPU 0 instructions: 420000003 cycles: 141047266 heartbeat IPC: 1.863 cumulative IPC: 2.878 (Simulation time: 00 hr 34 min 03 sec)
Heartbeat CPU 0 instructions: 430000000 cycles: 145400806 heartbeat IPC: 2.297 cumulative IPC: 2.859 (Simulation time: 00 hr 35 min 00 sec)
Heartbeat CPU 0 instructions: 440000004 cycles: 149571530 heartbeat IPC: 2.398 cumulative IPC: 2.845 (Simulation time: 00 hr 35 min 55 sec)
Heartbeat CPU 0 instructions: 450000001 cycles: 153755706 heartbeat IPC: 2.39 cumulative IPC: 2.832 (Simulation time: 00 hr 36 min 50 sec)
Heartbeat CPU 0 instructions: 460000002 cycles: 159252786 heartbeat IPC: 1.819 cumulative IPC: 2.794 (Simulation time: 00 hr 37 min 52 sec)
Heartbeat CPU 0 instructions: 470000003 cycles: 164338703 heartbeat IPC: 1.966 cumulative IPC: 2.766 (Simulation time: 00 hr 38 min 51 sec)
Heartbeat CPU 0 instructions: 480000000 cycles: 167391731 heartbeat IPC: 3.275 cumulative IPC: 2.776 (Simulation time: 00 hr 39 min 37 sec)
Heartbeat CPU 0 instructions: 490000001 cycles: 170487432 heartbeat IPC: 3.23 cumulative IPC: 2.785 (Simulation time: 00 hr 40 min 23 sec)
Heartbeat CPU 0 instructions: 500000002 cycles: 173510040 heartbeat IPC: 3.308 cumulative IPC: 2.795 (Simulation time: 00 hr 41 min 09 sec)
Heartbeat CPU 0 instructions: 510000000 cycles: 176537173 heartbeat IPC: 3.303 cumulative IPC: 2.804 (Simulation time: 00 hr 41 min 55 sec)
Heartbeat CPU 0 instructions: 520000000 cycles: 179578231 heartbeat IPC: 3.288 cumulative IPC: 2.813 (Simulation time: 00 hr 42 min 41 sec)
Heartbeat CPU 0 instructions: 530000001 cycles: 184877311 heartbeat IPC: 1.887 cumulative IPC: 2.785 (Simulation time: 00 hr 43 min 41 sec)
Heartbeat CPU 0 instructions: 540000000 cycles: 189995659 heartbeat IPC: 1.954 cumulative IPC: 2.761 (Simulation time: 00 hr 44 min 42 sec)
Heartbeat CPU 0 instructions: 550000004 cycles: 196013419 heartbeat IPC: 1.662 cumulative IPC: 2.725 (Simulation time: 00 hr 45 min 46 sec)
Heartbeat CPU 0 instructions: 560000004 cycles: 199228862 heartbeat IPC: 3.11 cumulative IPC: 2.731 (Simulation time: 00 hr 46 min 32 sec)
Heartbeat CPU 0 instructions: 570000002 cycles: 202017604 heartbeat IPC: 3.586 cumulative IPC: 2.744 (Simulation time: 00 hr 47 min 17 sec)
Heartbeat CPU 0 instructions: 580000000 cycles: 204888955 heartbeat IPC: 3.483 cumulative IPC: 2.755 (Simulation time: 00 hr 48 min 02 sec)
Heartbeat CPU 0 instructions: 590000001 cycles: 207760149 heartbeat IPC: 3.483 cumulative IPC: 2.766 (Simulation time: 00 hr 48 min 47 sec)
Heartbeat CPU 0 instructions: 600000003 cycles: 210416820 heartbeat IPC: 3.764 cumulative IPC: 2.779 (Simulation time: 00 hr 49 min 35 sec)
Heartbeat CPU 0 instructions: 610000001 cycles: 213250740 heartbeat IPC: 3.529 cumulative IPC: 2.79 (Simulation time: 00 hr 50 min 22 sec)
Heartbeat CPU 0 instructions: 620000004 cycles: 216174775 heartbeat IPC: 3.42 cumulative IPC: 2.799 (Simulation time: 00 hr 51 min 10 sec)
Heartbeat CPU 0 instructions: 630000002 cycles: 218960689 heartbeat IPC: 3.589 cumulative IPC: 2.809 (Simulation time: 00 hr 52 min 00 sec)
Heartbeat CPU 0 instructions: 640000004 cycles: 221975315 heartbeat IPC: 3.317 cumulative IPC: 2.817 (Simulation time: 00 hr 52 min 49 sec)
Heartbeat CPU 0 instructions: 650000001 cycles: 224673038 heartbeat IPC: 3.707 cumulative IPC: 2.828 (Simulation time: 00 hr 53 min 38 sec)
Simulation finished CPU 0 instructions: 600000001 cycles: 212172977 cumulative IPC: 2.828 (Simulation time: 00 hr 53 min 38 sec)
Simulation complete CPU 0 instructions: 600000001 cycles: 212172977 cumulative IPC: 2.828 (Simulation time: 00 hr 53 min 38 sec)

ChampSim completed all CPUs

=== Simulation ===
CPU 0 runs traces/400.perlbench-50B.champsimtrace.xz
Region of Interest Statistics

CPU 0 cumulative IPC: 2.828 instructions: 600000001 cycles: 212172977
CPU 0 Branch Prediction Accuracy: 99.01% MPKI: 2.04 Average ROB Occupancy at Mispredict: 93.21
Branch type MPKI
BRANCH_DIRECT_JUMP: 0.0176
BRANCH_INDIRECT: 0.38
BRANCH_CONDITIONAL: 1.19
BRANCH_DIRECT_CALL: 0.0067
BRANCH_INDIRECT_CALL: 0.431
BRANCH_RETURN: 0.0161

LLC TOTAL        ACCESS:    1354757 HIT:    1130285 MISS:     224472
LLC LOAD         ACCESS:     578889 HIT:     479054 MISS:      99835
LLC RFO          ACCESS:      47483 HIT:      38807 MISS:       8676
LLC PREFETCH     ACCESS:     578889 HIT:     472433 MISS:     106456
LLC WRITE        ACCESS:     127402 HIT:     127385 MISS:         17
LLC TRANSLATION  ACCESS:      22094 HIT:      12606 MISS:       9488
LLC PREFETCH REQUESTED:     578889 ISSUED:     578889 USEFUL:      35276 USELESS:      20294
LLC AVERAGE MISS LATENCY: 508.5 cycles
cpu0_DTLB TOTAL        ACCESS:  133236299 HIT:  131882958 MISS:    1353341
cpu0_DTLB LOAD         ACCESS:  133236299 HIT:  131882958 MISS:    1353341
cpu0_DTLB RFO          ACCESS:          0 HIT:          0 MISS:          0
cpu0_DTLB PREFETCH     ACCESS:          0 HIT:          0 MISS:          0
cpu0_DTLB WRITE        ACCESS:          0 HIT:          0 MISS:          0
cpu0_DTLB TRANSLATION  ACCESS:          0 HIT:          0 MISS:          0
cpu0_DTLB PREFETCH REQUESTED:          0 ISSUED:          0 USEFUL:          0 USELESS:          0
cpu0_DTLB AVERAGE MISS LATENCY: 9.826 cycles
cpu0_ITLB TOTAL        ACCESS:    8984432 HIT:    8774925 MISS:     209507
cpu0_ITLB LOAD         ACCESS:    8984432 HIT:    8774925 MISS:     209507
cpu0_ITLB RFO          ACCESS:          0 HIT:          0 MISS:          0
cpu0_ITLB PREFETCH     ACCESS:          0 HIT:          0 MISS:          0
cpu0_ITLB WRITE        ACCESS:          0 HIT:          0 MISS:          0
cpu0_ITLB TRANSLATION  ACCESS:          0 HIT:          0 MISS:          0
cpu0_ITLB PREFETCH REQUESTED:          0 ISSUED:          0 USEFUL:          0 USELESS:          0
cpu0_ITLB AVERAGE MISS LATENCY: 2.415 cycles
cpu0_L1D TOTAL        ACCESS:  178302854 HIT:  174561866 MISS:    3740988
cpu0_L1D LOAD         ACCESS:   92782827 HIT:   89708836 MISS:    3073991
cpu0_L1D RFO          ACCESS:          0 HIT:          0 MISS:          0
cpu0_L1D PREFETCH     ACCESS:          0 HIT:          0 MISS:          0
cpu0_L1D WRITE        ACCESS:   85491495 HIT:   84851605 MISS:     639890
cpu0_L1D TRANSLATION  ACCESS:      28532 HIT:       1425 MISS:      27107
cpu0_L1D PREFETCH REQUESTED:          0 ISSUED:          0 USEFUL:          0 USELESS:          0
cpu0_L1D AVERAGE MISS LATENCY: 23.91 cycles
cpu0_L1I TOTAL        ACCESS:   10505247 HIT:    8606623 MISS:    1898624
cpu0_L1I LOAD         ACCESS:   10505247 HIT:    8606623 MISS:    1898624
cpu0_L1I RFO          ACCESS:          0 HIT:          0 MISS:          0
cpu0_L1I PREFETCH     ACCESS:          0 HIT:          0 MISS:          0
cpu0_L1I WRITE        ACCESS:          0 HIT:          0 MISS:          0
cpu0_L1I TRANSLATION  ACCESS:          0 HIT:          0 MISS:          0
cpu0_L1I PREFETCH REQUESTED:          0 ISSUED:          0 USEFUL:          0 USELESS:          0
cpu0_L1I AVERAGE MISS LATENCY: 8.256 cycles
cpu0_L2C TOTAL        ACCESS:    3840414 HIT:    3188990 MISS:     651424
cpu0_L2C LOAD         ACCESS:    3103838 HIT:    2524949 MISS:     578889
cpu0_L2C RFO          ACCESS:     194845 HIT:     147362 MISS:      47483
cpu0_L2C PREFETCH     ACCESS:          0 HIT:          0 MISS:          0
cpu0_L2C WRITE        ACCESS:     514697 HIT:     511739 MISS:       2958
cpu0_L2C TRANSLATION  ACCESS:      27034 HIT:       4940 MISS:      22094
cpu0_L2C PREFETCH REQUESTED:          0 ISSUED:          0 USEFUL:          0 USELESS:          0
cpu0_L2C AVERAGE MISS LATENCY: 123.6 cycles
cpu0_STLB TOTAL        ACCESS:    1009859 HIT:     983169 MISS:      26690
cpu0_STLB LOAD         ACCESS:    1009859 HIT:     983169 MISS:      26690
cpu0_STLB RFO          ACCESS:          0 HIT:          0 MISS:          0
cpu0_STLB PREFETCH     ACCESS:          0 HIT:          0 MISS:          0
cpu0_STLB WRITE        ACCESS:          0 HIT:          0 MISS:          0
cpu0_STLB TRANSLATION  ACCESS:          0 HIT:          0 MISS:          0
cpu0_STLB PREFETCH REQUESTED:          0 ISSUED:          0 USEFUL:          0 USELESS:          0
cpu0_STLB AVERAGE MISS LATENCY: 285.1 cycles

DRAM Statistics

Channel 0 RQ ROW_BUFFER_HIT:      54358
  ROW_BUFFER_MISS:     129450
 AVG DBUS CONGESTED CYCLE: 3.837
WQ ROW_BUFFER_HIT: Channel 0 
  ROW_BUFFER_MISS:        868
  FULL:       1122
