WARNING: physical memory size is smaller than virtual memory size.

*** ChampSim Multicore Out-of-Order Simulator ***
Warmup Instructions: 50000000
Simulation Instructions: 600000000
Number of CPUs: 1
Page size: 4096

Off-chip DRAM Size: 4 GiB Channels: 1 Width: 64-bit Data Race: 3200 MT/s
Heartbeat CPU 0 instructions: 10000001 cycles: 2500318 heartbeat IPC: 3.999 cumulative IPC: 3.999 (Simulation time: 00 hr 03 min 35 sec)
Heartbeat CPU 0 instructions: 20000002 cycles: 5037128 heartbeat IPC: 3.942 cumulative IPC: 3.971 (Simulation time: 00 hr 07 min 15 sec)
Heartbeat CPU 0 instructions: 30000002 cycles: 7537128 heartbeat IPC: 4 cumulative IPC: 3.98 (Simulation time: 00 hr 10 min 24 sec)
Heartbeat CPU 0 instructions: 40000002 cycles: 10037128 heartbeat IPC: 4 cumulative IPC: 3.985 (Simulation time: 00 hr 13 min 37 sec)
Heartbeat CPU 0 instructions: 50000002 cycles: 12537128 heartbeat IPC: 4 cumulative IPC: 3.988 (Simulation time: 00 hr 16 min 42 sec)
Warmup finished CPU 0 instructions: 50000002 cycles: 12537129 cumulative IPC: 3.988 (Simulation time: 00 hr 16 min 42 sec)
Warmup complete CPU 0 instructions: 50000002 cycles: 12537129 cumulative IPC: 3.988 (Simulation time: 00 hr 16 min 42 sec)
Heartbeat CPU 0 instructions: 60000000 cycles: 17693704 heartbeat IPC: 1.939 cumulative IPC: 1.939 (Simulation time: 00 hr 21 min 20 sec)
Heartbeat CPU 0 instructions: 70000002 cycles: 22579838 heartbeat IPC: 2.047 cumulative IPC: 1.991 (Simulation time: 00 hr 25 min 50 sec)
Heartbeat CPU 0 instructions: 80000001 cycles: 27936004 heartbeat IPC: 1.867 cumulative IPC: 1.948 (Simulation time: 00 hr 30 min 18 sec)
Heartbeat CPU 0 instructions: 90000001 cycles: 32810243 heartbeat IPC: 2.052 cumulative IPC: 1.973 (Simulation time: 00 hr 34 min 26 sec)
Heartbeat CPU 0 instructions: 100000000 cycles: 37914151 heartbeat IPC: 1.959 cumulative IPC: 1.97 (Simulation time: 00 hr 38 min 33 sec)
Heartbeat CPU 0 instructions: 110000000 cycles: 42796852 heartbeat IPC: 2.048 cumulative IPC: 1.983 (Simulation time: 00 hr 42 min 26 sec)
Heartbeat CPU 0 instructions: 120000001 cycles: 47985777 heartbeat IPC: 1.927 cumulative IPC: 1.975 (Simulation time: 00 hr 46 min 34 sec)
Heartbeat CPU 0 instructions: 130000001 cycles: 53133131 heartbeat IPC: 1.943 cumulative IPC: 1.971 (Simulation time: 00 hr 50 min 40 sec)
Heartbeat CPU 0 instructions: 140000001 cycles: 58431406 heartbeat IPC: 1.887 cumulative IPC: 1.961 (Simulation time: 00 hr 54 min 45 sec)
Heartbeat CPU 0 instructions: 150000001 cycles: 63730329 heartbeat IPC: 1.887 cumulative IPC: 1.953 (Simulation time: 00 hr 58 min 54 sec)
Heartbeat CPU 0 instructions: 160000004 cycles: 68914543 heartbeat IPC: 1.929 cumulative IPC: 1.951 (Simulation time: 01 hr 02 min 58 sec)
Heartbeat CPU 0 instructions: 170000000 cycles: 77621384 heartbeat IPC: 1.149 cumulative IPC: 1.844 (Simulation time: 01 hr 08 min 50 sec)
Heartbeat CPU 0 instructions: 180000004 cycles: 86039446 heartbeat IPC: 1.188 cumulative IPC: 1.769 (Simulation time: 01 hr 14 min 45 sec)
Heartbeat CPU 0 instructions: 190000001 cycles: 95871771 heartbeat IPC: 1.017 cumulative IPC: 1.68 (Simulation time: 01 hr 21 min 43 sec)
Heartbeat CPU 0 instructions: 200000003 cycles: 100593012 heartbeat IPC: 2.118 cumulative IPC: 1.703 (Simulation time: 01 hr 26 min 02 sec)
Heartbeat CPU 0 instructions: 210000001 cycles: 105478554 heartbeat IPC: 2.047 cumulative IPC: 1.722 (Simulation time: 01 hr 30 min 25 sec)
Heartbeat CPU 0 instructions: 220000000 cycles: 110288613 heartbeat IPC: 2.079 cumulative IPC: 1.739 (Simulation time: 01 hr 34 min 44 sec)
Heartbeat CPU 0 instructions: 230000002 cycles: 115535680 heartbeat IPC: 1.906 cumulative IPC: 1.748 (Simulation time: 01 hr 39 min 14 sec)
Heartbeat CPU 0 instructions: 240000000 cycles: 120342028 heartbeat IPC: 2.081 cumulative IPC: 1.762 (Simulation time: 01 hr 43 min 35 sec)
Heartbeat CPU 0 instructions: 250000000 cycles: 125457107 heartbeat IPC: 1.955 cumulative IPC: 1.771 (Simulation time: 01 hr 48 min 02 sec)
Heartbeat CPU 0 instructions: 260000000 cycles: 130443193 heartbeat IPC: 2.006 cumulative IPC: 1.781 (Simulation time: 01 hr 52 min 25 sec)
Heartbeat CPU 0 instructions: 270000002 cycles: 135294913 heartbeat IPC: 2.061 cumulative IPC: 1.792 (Simulation time: 01 hr 56 min 45 sec)
Heartbeat CPU 0 instructions: 280000002 cycles: 140178725 heartbeat IPC: 2.048 cumulative IPC: 1.802 (Simulation time: 02 hr 01 min 04 sec)
Heartbeat CPU 0 instructions: 290000001 cycles: 145519526 heartbeat IPC: 1.872 cumulative IPC: 1.805 (Simulation time: 02 hr 05 min 37 sec)
Heartbeat CPU 0 instructions: 300000003 cycles: 150528504 heartbeat IPC: 1.996 cumulative IPC: 1.812 (Simulation time: 02 hr 10 min 02 sec)
Heartbeat CPU 0 instructions: 310000001 cycles: 155769169 heartbeat IPC: 1.908 cumulative IPC: 1.815 (Simulation time: 02 hr 14 min 34 sec)
Heartbeat CPU 0 instructions: 320000003 cycles: 160930324 heartbeat IPC: 1.938 cumulative IPC: 1.819 (Simulation time: 02 hr 19 min 06 sec)
Heartbeat CPU 0 instructions: 330000003 cycles: 166157701 heartbeat IPC: 1.913 cumulative IPC: 1.823 (Simulation time: 02 hr 23 min 35 sec)
Heartbeat CPU 0 instructions: 340000000 cycles: 174577032 heartbeat IPC: 1.188 cumulative IPC: 1.79 (Simulation time: 02 hr 29 min 51 sec)
Heartbeat CPU 0 instructions: 350000000 cycles: 183207784 heartbeat IPC: 1.159 cumulative IPC: 1.758 (Simulation time: 02 hr 36 min 19 sec)
Heartbeat CPU 0 instructions: 360000004 cycles: 193083295 heartbeat IPC: 1.013 cumulative IPC: 1.717 (Simulation time: 02 hr 43 min 10 sec)
Heartbeat CPU 0 instructions: 370000000 cycles: 197466914 heartbeat IPC: 2.281 cumulative IPC: 1.73 (Simulation time: 02 hr 47 min 07 sec)
Heartbeat CPU 0 instructions: 380000001 cycles: 202357170 heartbeat IPC: 2.045 cumulative IPC: 1.738 (Simulation time: 02 hr 51 min 01 sec)
Heartbeat CPU 0 instructions: 390000002 cycles: 207161624 heartbeat IPC: 2.081 cumulative IPC: 1.747 (Simulation time: 02 hr 54 min 45 sec)
Heartbeat CPU 0 instructions: 400000004 cycles: 212082788 heartbeat IPC: 2.032 cumulative IPC: 1.754 (Simulation time: 02 hr 58 min 31 sec)
Heartbeat CPU 0 instructions: 410000000 cycles: 216776438 heartbeat IPC: 2.131 cumulative IPC: 1.763 (Simulation time: 03 hr 02 min 13 sec)
Heartbeat CPU 0 instructions: 420000000 cycles: 221838606 heartbeat IPC: 1.975 cumulative IPC: 1.768 (Simulation time: 03 hr 06 min 02 sec)
Heartbeat CPU 0 instructions: 430000001 cycles: 226289915 heartbeat IPC: 2.247 cumulative IPC: 1.778 (Simulation time: 03 hr 09 min 40 sec)
Heartbeat CPU 0 instructions: 440000000 cycles: 231626990 heartbeat IPC: 1.874 cumulative IPC: 1.78 (Simulation time: 03 hr 13 min 36 sec)
Heartbeat CPU 0 instructions: 450000002 cycles: 236267876 heartbeat IPC: 2.155 cumulative IPC: 1.788 (Simulation time: 03 hr 17 min 14 sec)
Heartbeat CPU 0 instructions: 460000000 cycles: 241043998 heartbeat IPC: 2.094 cumulative IPC: 1.794 (Simulation time: 03 hr 20 min 57 sec)
Heartbeat CPU 0 instructions: 470000000 cycles: 245999341 heartbeat IPC: 2.018 cumulative IPC: 1.799 (Simulation time: 03 hr 24 min 44 sec)
Heartbeat CPU 0 instructions: 480000003 cycles: 250751190 heartbeat IPC: 2.104 cumulative IPC: 1.805 (Simulation time: 03 hr 28 min 28 sec)
Heartbeat CPU 0 instructions: 490000000 cycles: 255349214 heartbeat IPC: 2.175 cumulative IPC: 1.812 (Simulation time: 03 hr 32 min 07 sec)
Heartbeat CPU 0 instructions: 500000000 cycles: 260352873 heartbeat IPC: 1.999 cumulative IPC: 1.816 (Simulation time: 03 hr 35 min 59 sec)
Heartbeat CPU 0 instructions: 510000003 cycles: 265938475 heartbeat IPC: 1.79 cumulative IPC: 1.815 (Simulation time: 03 hr 40 min 10 sec)
Heartbeat CPU 0 instructions: 520000001 cycles: 270591186 heartbeat IPC: 2.149 cumulative IPC: 1.821 (Simulation time: 03 hr 43 min 53 sec)
Heartbeat CPU 0 instructions: 530000002 cycles: 275695357 heartbeat IPC: 1.959 cumulative IPC: 1.824 (Simulation time: 03 hr 47 min 51 sec)
Heartbeat CPU 0 instructions: 540000000 cycles: 280779060 heartbeat IPC: 1.967 cumulative IPC: 1.827 (Simulation time: 03 hr 51 min 40 sec)
Heartbeat CPU 0 instructions: 550000001 cycles: 285558279 heartbeat IPC: 2.092 cumulative IPC: 1.831 (Simulation time: 03 hr 55 min 11 sec)
Heartbeat CPU 0 instructions: 560000000 cycles: 290713208 heartbeat IPC: 1.94 cumulative IPC: 1.833 (Simulation time: 03 hr 58 min 47 sec)
Heartbeat CPU 0 instructions: 570000004 cycles: 297084320 heartbeat IPC: 1.57 cumulative IPC: 1.827 (Simulation time: 04 hr 02 min 58 sec)
Heartbeat CPU 0 instructions: 580000003 cycles: 306572821 heartbeat IPC: 1.054 cumulative IPC: 1.803 (Simulation time: 04 hr 07 min 58 sec)
Heartbeat CPU 0 instructions: 590000002 cycles: 317780445 heartbeat IPC: 0.8922 cumulative IPC: 1.769 (Simulation time: 04 hr 12 min 46 sec)
Heartbeat CPU 0 instructions: 600000000 cycles: 322284099 heartbeat IPC: 2.22 cumulative IPC: 1.776 (Simulation time: 04 hr 15 min 05 sec)
Heartbeat CPU 0 instructions: 610000002 cycles: 326742138 heartbeat IPC: 2.243 cumulative IPC: 1.782 (Simulation time: 04 hr 17 min 02 sec)
Heartbeat CPU 0 instructions: 620000000 cycles: 331531397 heartbeat IPC: 2.088 cumulative IPC: 1.787 (Simulation time: 04 hr 18 min 31 sec)
Heartbeat CPU 0 instructions: 630000002 cycles: 336587283 heartbeat IPC: 1.978 cumulative IPC: 1.79 (Simulation time: 04 hr 19 min 50 sec)
Heartbeat CPU 0 instructions: 640000001 cycles: 341428331 heartbeat IPC: 2.066 cumulative IPC: 1.794 (Simulation time: 04 hr 20 min 48 sec)
Heartbeat CPU 0 instructions: 650000000 cycles: 345970844 heartbeat IPC: 2.201 cumulative IPC: 1.799 (Simulation time: 04 hr 21 min 27 sec)
Simulation finished CPU 0 instructions: 600000001 cycles: 333433717 cumulative IPC: 1.799 (Simulation time: 04 hr 21 min 27 sec)
Simulation complete CPU 0 instructions: 600000001 cycles: 333433717 cumulative IPC: 1.799 (Simulation time: 04 hr 21 min 27 sec)

ChampSim completed all CPUs

=== Simulation ===
CPU 0 runs traces/400.perlbench-41B.champsimtrace.xz
Region of Interest Statistics

CPU 0 cumulative IPC: 1.799 instructions: 600000001 cycles: 333433717
CPU 0 Branch Prediction Accuracy: 93.95% MPKI: 12.5 Average ROB Occupancy at Mispredict: 29.53
Branch type MPKI
BRANCH_DIRECT_JUMP: 0.0123
BRANCH_INDIRECT: 0.323
BRANCH_CONDITIONAL: 12
BRANCH_DIRECT_CALL: 0.0043
BRANCH_INDIRECT_CALL: 0.2
BRANCH_RETURN: 0.00828

LLC TOTAL        ACCESS:     541109 HIT:     349185 MISS:     191924
LLC LOAD         ACCESS:     403580 HIT:     224516 MISS:     179064
LLC RFO          ACCESS:      32583 HIT:      28281 MISS:       4302
LLC PREFETCH     ACCESS:          0 HIT:          0 MISS:          0
LLC WRITE        ACCESS:      85914 HIT:      85823 MISS:         91
LLC TRANSLATION  ACCESS:      19032 HIT:      10565 MISS:       8467
LLC PREFETCH REQUESTED:          0 ISSUED:          0 USEFUL:          0 USELESS:          0
LLC AVERAGE MISS LATENCY: 472.6 cycles
cpu0_DTLB TOTAL        ACCESS:  153692601 HIT:  153014628 MISS:     677973
cpu0_DTLB LOAD         ACCESS:  153692601 HIT:  153014628 MISS:     677973
cpu0_DTLB RFO          ACCESS:          0 HIT:          0 MISS:          0
cpu0_DTLB PREFETCH     ACCESS:          0 HIT:          0 MISS:          0
cpu0_DTLB WRITE        ACCESS:          0 HIT:          0 MISS:          0
cpu0_DTLB TRANSLATION  ACCESS:          0 HIT:          0 MISS:          0
cpu0_DTLB PREFETCH REQUESTED:          0 ISSUED:          0 USEFUL:          0 USELESS:          0
cpu0_DTLB AVERAGE MISS LATENCY: 12.86 cycles
cpu0_ITLB TOTAL        ACCESS:    4836272 HIT:    4778429 MISS:      57843
cpu0_ITLB LOAD         ACCESS:    4836272 HIT:    4778429 MISS:      57843
cpu0_ITLB RFO          ACCESS:          0 HIT:          0 MISS:          0
cpu0_ITLB PREFETCH     ACCESS:          0 HIT:          0 MISS:          0
cpu0_ITLB WRITE        ACCESS:          0 HIT:          0 MISS:          0
cpu0_ITLB TRANSLATION  ACCESS:          0 HIT:          0 MISS:          0
cpu0_ITLB PREFETCH REQUESTED:          0 ISSUED:          0 USEFUL:          0 USELESS:          0
cpu0_ITLB AVERAGE MISS LATENCY: 6.267 cycles
cpu0_L1D TOTAL        ACCESS:  200302515 HIT:  198590492 MISS:    1712023
cpu0_L1D LOAD         ACCESS:  117059610 HIT:  115714713 MISS:    1344897
cpu0_L1D RFO          ACCESS:          0 HIT:          0 MISS:          0
cpu0_L1D PREFETCH     ACCESS:          0 HIT:          0 MISS:          0
cpu0_L1D WRITE        ACCESS:   83218443 HIT:   82874744 MISS:     343699
cpu0_L1D TRANSLATION  ACCESS:      24462 HIT:       1035 MISS:      23427
cpu0_L1D PREFETCH REQUESTED:          0 ISSUED:          0 USEFUL:          0 USELESS:          0
cpu0_L1D AVERAGE MISS LATENCY: 60.46 cycles
cpu0_L1I TOTAL        ACCESS:    5578849 HIT:    4817323 MISS:     761526
cpu0_L1I LOAD         ACCESS:    5578849 HIT:    4817323 MISS:     761526
cpu0_L1I RFO          ACCESS:          0 HIT:          0 MISS:          0
cpu0_L1I PREFETCH     ACCESS:          0 HIT:          0 MISS:          0
cpu0_L1I WRITE        ACCESS:          0 HIT:          0 MISS:          0
cpu0_L1I TRANSLATION  ACCESS:          0 HIT:          0 MISS:          0
cpu0_L1I PREFETCH REQUESTED:          0 ISSUED:          0 USEFUL:          0 USELESS:          0
cpu0_L1I AVERAGE MISS LATENCY: 9.581 cycles
cpu0_L2C TOTAL        ACCESS:    1668182 HIT:    1211170 MISS:     457012
cpu0_L2C LOAD         ACCESS:    1317138 HIT:     913558 MISS:     403580
cpu0_L2C RFO          ACCESS:      88604 HIT:      56021 MISS:      32583
cpu0_L2C PREFETCH     ACCESS:          0 HIT:          0 MISS:          0
cpu0_L2C WRITE        ACCESS:     239098 HIT:     237281 MISS:       1817
cpu0_L2C TRANSLATION  ACCESS:      23342 HIT:       4310 MISS:      19032
cpu0_L2C PREFETCH REQUESTED:          0 ISSUED:          0 USEFUL:          0 USELESS:          0
cpu0_L2C AVERAGE MISS LATENCY: 218.8 cycles
cpu0_STLB TOTAL        ACCESS:     505284 HIT:     482495 MISS:      22789
cpu0_STLB LOAD         ACCESS:     505284 HIT:     482495 MISS:      22789
cpu0_STLB RFO          ACCESS:          0 HIT:          0 MISS:          0
cpu0_STLB PREFETCH     ACCESS:          0 HIT:          0 MISS:          0
cpu0_STLB WRITE        ACCESS:          0 HIT:          0 MISS:          0
cpu0_STLB TRANSLATION  ACCESS:          0 HIT:          0 MISS:          0
cpu0_STLB PREFETCH REQUESTED:          0 ISSUED:          0 USEFUL:          0 USELESS:          0
cpu0_STLB AVERAGE MISS LATENCY: 254.2 cycles

DRAM Statistics

Channel 0 RQ ROW_BUFFER_HIT:      56072
  ROW_BUFFER_MISS:     135761
 AVG DBUS CONGESTED CYCLE: 3.673
WQ ROW_BUFFER_HIT: Channel 0 
  ROW_BUFFER_MISS:        840
  FULL:        910
