WARNING: physical memory size is smaller than virtual memory size.

*** ChampSim Multicore Out-of-Order Simulator ***
Warmup Instructions: 50000000
Simulation Instructions: 600000000
Number of CPUs: 1
Page size: 4096

Off-chip DRAM Size: 4 GiB Channels: 1 Width: 64-bit Data Race: 3200 MT/s
Heartbeat CPU 0 instructions: 10000000 cycles: 2500061 heartbeat IPC: 4 cumulative IPC: 4 (Simulation time: 00 hr 02 min 10 sec)
Heartbeat CPU 0 instructions: 20000000 cycles: 5000061 heartbeat IPC: 4 cumulative IPC: 4 (Simulation time: 00 hr 04 min 22 sec)
Heartbeat CPU 0 instructions: 30000000 cycles: 7500061 heartbeat IPC: 4 cumulative IPC: 4 (Simulation time: 00 hr 06 min 42 sec)
Heartbeat CPU 0 instructions: 40000000 cycles: 10000061 heartbeat IPC: 4 cumulative IPC: 4 (Simulation time: 00 hr 09 min 00 sec)
Heartbeat CPU 0 instructions: 50000000 cycles: 12500061 heartbeat IPC: 4 cumulative IPC: 4 (Simulation time: 00 hr 11 min 15 sec)
Warmup finished CPU 0 instructions: 50000000 cycles: 12500062 cumulative IPC: 4 (Simulation time: 00 hr 11 min 15 sec)
Warmup complete CPU 0 instructions: 50000000 cycles: 12500062 cumulative IPC: 4 (Simulation time: 00 hr 11 min 15 sec)
Heartbeat CPU 0 instructions: 60000002 cycles: 16446623 heartbeat IPC: 2.534 cumulative IPC: 2.534 (Simulation time: 00 hr 14 min 23 sec)
Heartbeat CPU 0 instructions: 70000003 cycles: 20770663 heartbeat IPC: 2.313 cumulative IPC: 2.418 (Simulation time: 00 hr 17 min 33 sec)
Heartbeat CPU 0 instructions: 80000003 cycles: 25247437 heartbeat IPC: 2.234 cumulative IPC: 2.353 (Simulation time: 00 hr 20 min 42 sec)
Heartbeat CPU 0 instructions: 90000000 cycles: 28939876 heartbeat IPC: 2.708 cumulative IPC: 2.433 (Simulation time: 00 hr 23 min 37 sec)
Heartbeat CPU 0 instructions: 100000003 cycles: 32843908 heartbeat IPC: 2.561 cumulative IPC: 2.458 (Simulation time: 00 hr 26 min 45 sec)
Heartbeat CPU 0 instructions: 110000002 cycles: 36950135 heartbeat IPC: 2.435 cumulative IPC: 2.454 (Simulation time: 00 hr 29 min 58 sec)
Heartbeat CPU 0 instructions: 120000001 cycles: 40668359 heartbeat IPC: 2.689 cumulative IPC: 2.485 (Simulation time: 00 hr 32 min 58 sec)
Heartbeat CPU 0 instructions: 130000003 cycles: 44444328 heartbeat IPC: 2.648 cumulative IPC: 2.504 (Simulation time: 00 hr 35 min 55 sec)
Heartbeat CPU 0 instructions: 140000002 cycles: 48579315 heartbeat IPC: 2.418 cumulative IPC: 2.495 (Simulation time: 00 hr 39 min 02 sec)
Heartbeat CPU 0 instructions: 150000001 cycles: 52632664 heartbeat IPC: 2.467 cumulative IPC: 2.492 (Simulation time: 00 hr 42 min 05 sec)
Heartbeat CPU 0 instructions: 160000000 cycles: 56291651 heartbeat IPC: 2.733 cumulative IPC: 2.512 (Simulation time: 00 hr 45 min 06 sec)
Heartbeat CPU 0 instructions: 170000001 cycles: 60472265 heartbeat IPC: 2.392 cumulative IPC: 2.501 (Simulation time: 00 hr 48 min 20 sec)
Heartbeat CPU 0 instructions: 180000001 cycles: 63937266 heartbeat IPC: 2.886 cumulative IPC: 2.527 (Simulation time: 00 hr 51 min 18 sec)
Heartbeat CPU 0 instructions: 190000002 cycles: 67527991 heartbeat IPC: 2.785 cumulative IPC: 2.544 (Simulation time: 00 hr 54 min 18 sec)
Heartbeat CPU 0 instructions: 200000002 cycles: 71313371 heartbeat IPC: 2.642 cumulative IPC: 2.55 (Simulation time: 00 hr 57 min 20 sec)
Heartbeat CPU 0 instructions: 210000000 cycles: 74955304 heartbeat IPC: 2.746 cumulative IPC: 2.562 (Simulation time: 01 hr 00 min 17 sec)
Heartbeat CPU 0 instructions: 220000001 cycles: 78829096 heartbeat IPC: 2.581 cumulative IPC: 2.563 (Simulation time: 01 hr 03 min 19 sec)
Heartbeat CPU 0 instructions: 230000002 cycles: 82672692 heartbeat IPC: 2.602 cumulative IPC: 2.565 (Simulation time: 01 hr 06 min 25 sec)
Heartbeat CPU 0 instructions: 240000001 cycles: 86884508 heartbeat IPC: 2.374 cumulative IPC: 2.554 (Simulation time: 01 hr 09 min 37 sec)
Heartbeat CPU 0 instructions: 250000003 cycles: 91457630 heartbeat IPC: 2.187 cumulative IPC: 2.533 (Simulation time: 01 hr 12 min 50 sec)
Heartbeat CPU 0 instructions: 260000000 cycles: 95254458 heartbeat IPC: 2.634 cumulative IPC: 2.538 (Simulation time: 01 hr 15 min 51 sec)
Heartbeat CPU 0 instructions: 270000003 cycles: 102379693 heartbeat IPC: 1.403 cumulative IPC: 2.448 (Simulation time: 01 hr 20 min 14 sec)
Heartbeat CPU 0 instructions: 280000000 cycles: 112926890 heartbeat IPC: 0.9481 cumulative IPC: 2.29 (Simulation time: 01 hr 26 min 16 sec)
Heartbeat CPU 0 instructions: 290000000 cycles: 122214433 heartbeat IPC: 1.077 cumulative IPC: 2.187 (Simulation time: 01 hr 31 min 45 sec)
Heartbeat CPU 0 instructions: 300000003 cycles: 129438778 heartbeat IPC: 1.384 cumulative IPC: 2.138 (Simulation time: 01 hr 36 min 35 sec)
Heartbeat CPU 0 instructions: 310000004 cycles: 139517083 heartbeat IPC: 0.9922 cumulative IPC: 2.047 (Simulation time: 01 hr 42 min 26 sec)
Heartbeat CPU 0 instructions: 320000004 cycles: 144444970 heartbeat IPC: 2.029 cumulative IPC: 2.046 (Simulation time: 01 hr 46 min 00 sec)
Heartbeat CPU 0 instructions: 330000000 cycles: 148441458 heartbeat IPC: 2.502 cumulative IPC: 2.06 (Simulation time: 01 hr 49 min 16 sec)
Heartbeat CPU 0 instructions: 340000001 cycles: 152231690 heartbeat IPC: 2.638 cumulative IPC: 2.075 (Simulation time: 01 hr 52 min 16 sec)
Heartbeat CPU 0 instructions: 350000004 cycles: 156132775 heartbeat IPC: 2.563 cumulative IPC: 2.089 (Simulation time: 01 hr 55 min 26 sec)
Heartbeat CPU 0 instructions: 360000003 cycles: 159775960 heartbeat IPC: 2.745 cumulative IPC: 2.105 (Simulation time: 01 hr 58 min 00 sec)
Heartbeat CPU 0 instructions: 370000001 cycles: 163407921 heartbeat IPC: 2.753 cumulative IPC: 2.12 (Simulation time: 02 hr 00 min 33 sec)
Heartbeat CPU 0 instructions: 380000004 cycles: 166916220 heartbeat IPC: 2.85 cumulative IPC: 2.137 (Simulation time: 02 hr 03 min 03 sec)
Heartbeat CPU 0 instructions: 390000002 cycles: 170454079 heartbeat IPC: 2.827 cumulative IPC: 2.153 (Simulation time: 02 hr 05 min 34 sec)
Heartbeat CPU 0 instructions: 400000000 cycles: 174264845 heartbeat IPC: 2.624 cumulative IPC: 2.164 (Simulation time: 02 hr 08 min 14 sec)
Heartbeat CPU 0 instructions: 410000000 cycles: 179682664 heartbeat IPC: 1.846 cumulative IPC: 2.153 (Simulation time: 02 hr 11 min 28 sec)
Heartbeat CPU 0 instructions: 420000003 cycles: 186476144 heartbeat IPC: 1.472 cumulative IPC: 2.127 (Simulation time: 02 hr 15 min 14 sec)
Heartbeat CPU 0 instructions: 430000000 cycles: 192989144 heartbeat IPC: 1.535 cumulative IPC: 2.105 (Simulation time: 02 hr 19 min 00 sec)
Heartbeat CPU 0 instructions: 440000004 cycles: 199007443 heartbeat IPC: 1.662 cumulative IPC: 2.091 (Simulation time: 02 hr 22 min 36 sec)
Heartbeat CPU 0 instructions: 450000001 cycles: 205267636 heartbeat IPC: 1.597 cumulative IPC: 2.075 (Simulation time: 02 hr 26 min 14 sec)
Heartbeat CPU 0 instructions: 460000002 cycles: 212580923 heartbeat IPC: 1.367 cumulative IPC: 2.049 (Simulation time: 02 hr 30 min 14 sec)
Heartbeat CPU 0 instructions: 470000003 cycles: 218487260 heartbeat IPC: 1.693 cumulative IPC: 2.039 (Simulation time: 02 hr 33 min 44 sec)
Heartbeat CPU 0 instructions: 480000003 cycles: 222210395 heartbeat IPC: 2.686 cumulative IPC: 2.05 (Simulation time: 02 hr 36 min 20 sec)
Heartbeat CPU 0 instructions: 490000001 cycles: 225979192 heartbeat IPC: 2.653 cumulative IPC: 2.061 (Simulation time: 02 hr 38 min 55 sec)
Heartbeat CPU 0 instructions: 500000002 cycles: 229614034 heartbeat IPC: 2.751 cumulative IPC: 2.073 (Simulation time: 02 hr 41 min 29 sec)
Heartbeat CPU 0 instructions: 510000000 cycles: 233100882 heartbeat IPC: 2.868 cumulative IPC: 2.085 (Simulation time: 02 hr 44 min 00 sec)
Heartbeat CPU 0 instructions: 520000000 cycles: 236729552 heartbeat IPC: 2.756 cumulative IPC: 2.096 (Simulation time: 02 hr 46 min 33 sec)
Heartbeat CPU 0 instructions: 530000001 cycles: 243465183 heartbeat IPC: 1.485 cumulative IPC: 2.078 (Simulation time: 02 hr 50 min 18 sec)
Heartbeat CPU 0 instructions: 540000000 cycles: 250345397 heartbeat IPC: 1.453 cumulative IPC: 2.06 (Simulation time: 02 hr 54 min 09 sec)
Heartbeat CPU 0 instructions: 550000004 cycles: 257254624 heartbeat IPC: 1.447 cumulative IPC: 2.043 (Simulation time: 02 hr 57 min 59 sec)
Heartbeat CPU 0 instructions: 560000004 cycles: 261033470 heartbeat IPC: 2.646 cumulative IPC: 2.052 (Simulation time: 03 hr 00 min 34 sec)
Heartbeat CPU 0 instructions: 570000001 cycles: 264104571 heartbeat IPC: 3.256 cumulative IPC: 2.067 (Simulation time: 03 hr 02 min 55 sec)
Heartbeat CPU 0 instructions: 580000003 cycles: 267551332 heartbeat IPC: 2.901 cumulative IPC: 2.078 (Simulation time: 03 hr 05 min 12 sec)
Heartbeat CPU 0 instructions: 590000002 cycles: 271075127 heartbeat IPC: 2.838 cumulative IPC: 2.088 (Simulation time: 03 hr 07 min 35 sec)
Heartbeat CPU 0 instructions: 600000003 cycles: 274092506 heartbeat IPC: 3.314 cumulative IPC: 2.103 (Simulation time: 03 hr 09 min 41 sec)
Heartbeat CPU 0 instructions: 610000001 cycles: 277533125 heartbeat IPC: 2.906 cumulative IPC: 2.113 (Simulation time: 03 hr 11 min 50 sec)
Heartbeat CPU 0 instructions: 620000000 cycles: 281496279 heartbeat IPC: 2.523 cumulative IPC: 2.119 (Simulation time: 03 hr 14 min 02 sec)
Heartbeat CPU 0 instructions: 630000002 cycles: 284823567 heartbeat IPC: 3.005 cumulative IPC: 2.13 (Simulation time: 03 hr 15 min 43 sec)
Heartbeat CPU 0 instructions: 640000004 cycles: 288780161 heartbeat IPC: 2.527 cumulative IPC: 2.136 (Simulation time: 03 hr 17 min 24 sec)
Heartbeat CPU 0 instructions: 650000001 cycles: 292579294 heartbeat IPC: 2.632 cumulative IPC: 2.142 (Simulation time: 03 hr 18 min 44 sec)
Simulation finished CPU 0 instructions: 600000001 cycles: 280079233 cumulative IPC: 2.142 (Simulation time: 03 hr 18 min 44 sec)
Simulation complete CPU 0 instructions: 600000001 cycles: 280079233 cumulative IPC: 2.142 (Simulation time: 03 hr 18 min 44 sec)

ChampSim completed all CPUs

=== Simulation ===
CPU 0 runs traces/400.perlbench-50B.champsimtrace.xz
Region of Interest Statistics

CPU 0 cumulative IPC: 2.142 instructions: 600000001 cycles: 280079233
CPU 0 Branch Prediction Accuracy: 96.2% MPKI: 7.839 Average ROB Occupancy at Mispredict: 43.09
Branch type MPKI
BRANCH_DIRECT_JUMP: 0.0176
BRANCH_INDIRECT: 0.38
BRANCH_CONDITIONAL: 6.99
BRANCH_DIRECT_CALL: 0.0067
BRANCH_INDIRECT_CALL: 0.431
BRANCH_RETURN: 0.0161

LLC TOTAL        ACCESS:     783942 HIT:     669887 MISS:     114055
LLC LOAD         ACCESS:     585982 HIT:     490458 MISS:      95524
LLC RFO          ACCESS:      47515 HIT:      38154 MISS:       9361
LLC PREFETCH     ACCESS:          0 HIT:          0 MISS:          0
LLC WRITE        ACCESS:     128513 HIT:     128470 MISS:         43
LLC TRANSLATION  ACCESS:      21932 HIT:      12805 MISS:       9127
LLC PREFETCH REQUESTED:          0 ISSUED:          0 USEFUL:          0 USELESS:          0
LLC AVERAGE MISS LATENCY: 470.7 cycles
cpu0_DTLB TOTAL        ACCESS:  146518296 HIT:  145213727 MISS:    1304569
cpu0_DTLB LOAD         ACCESS:  146518296 HIT:  145213727 MISS:    1304569
cpu0_DTLB RFO          ACCESS:          0 HIT:          0 MISS:          0
cpu0_DTLB PREFETCH     ACCESS:          0 HIT:          0 MISS:          0
cpu0_DTLB WRITE        ACCESS:          0 HIT:          0 MISS:          0
cpu0_DTLB TRANSLATION  ACCESS:          0 HIT:          0 MISS:          0
cpu0_DTLB PREFETCH REQUESTED:          0 ISSUED:          0 USEFUL:          0 USELESS:          0
cpu0_DTLB AVERAGE MISS LATENCY: 9.764 cycles
cpu0_ITLB TOTAL        ACCESS:    8984438 HIT:    8799860 MISS:     184578
cpu0_ITLB LOAD         ACCESS:    8984438 HIT:    8799860 MISS:     184578
cpu0_ITLB RFO          ACCESS:          0 HIT:          0 MISS:          0
cpu0_ITLB PREFETCH     ACCESS:          0 HIT:          0 MISS:          0
cpu0_ITLB WRITE        ACCESS:          0 HIT:          0 MISS:          0
cpu0_ITLB TRANSLATION  ACCESS:          0 HIT:          0 MISS:          0
cpu0_ITLB PREFETCH REQUESTED:          0 ISSUED:          0 USEFUL:          0 USELESS:          0
cpu0_ITLB AVERAGE MISS LATENCY: 2.843 cycles
cpu0_L1D TOTAL        ACCESS:  193314548 HIT:  189686335 MISS:    3628213
cpu0_L1D LOAD         ACCESS:  107469659 HIT:  104475860 MISS:    2993799
cpu0_L1D RFO          ACCESS:          0 HIT:          0 MISS:          0
cpu0_L1D PREFETCH     ACCESS:          0 HIT:          0 MISS:          0
cpu0_L1D WRITE        ACCESS:   85816367 HIT:   85209050 MISS:     607317
cpu0_L1D TRANSLATION  ACCESS:      28522 HIT:       1425 MISS:      27097
cpu0_L1D PREFETCH REQUESTED:          0 ISSUED:          0 USEFUL:          0 USELESS:          0
cpu0_L1D AVERAGE MISS LATENCY: 21.46 cycles
cpu0_L1I TOTAL        ACCESS:   10418932 HIT:    8657108 MISS:    1761824
cpu0_L1I LOAD         ACCESS:   10418932 HIT:    8657108 MISS:    1761824
cpu0_L1I RFO          ACCESS:          0 HIT:          0 MISS:          0
cpu0_L1I PREFETCH     ACCESS:          0 HIT:          0 MISS:          0
cpu0_L1I WRITE        ACCESS:          0 HIT:          0 MISS:          0
cpu0_L1I TRANSLATION  ACCESS:          0 HIT:          0 MISS:          0
cpu0_L1I PREFETCH REQUESTED:          0 ISSUED:          0 USEFUL:          0 USELESS:          0
cpu0_L1I AVERAGE MISS LATENCY: 9.407 cycles
cpu0_L2C TOTAL        ACCESS:    3834875 HIT:    3176226 MISS:     658649
cpu0_L2C LOAD         ACCESS:    3105030 HIT:    2519048 MISS:     585982
cpu0_L2C RFO          ACCESS:     191498 HIT:     143983 MISS:      47515
cpu0_L2C PREFETCH     ACCESS:          0 HIT:          0 MISS:          0
cpu0_L2C WRITE        ACCESS:     511316 HIT:     508096 MISS:       3220
cpu0_L2C TRANSLATION  ACCESS:      27031 HIT:       5099 MISS:      21932
cpu0_L2C PREFETCH REQUESTED:          0 ISSUED:          0 USEFUL:          0 USELESS:          0
cpu0_L2C AVERAGE MISS LATENCY: 101.6 cycles
cpu0_STLB TOTAL        ACCESS:    1008448 HIT:     981755 MISS:      26693
cpu0_STLB LOAD         ACCESS:    1008448 HIT:     981755 MISS:      26693
cpu0_STLB RFO          ACCESS:          0 HIT:          0 MISS:          0
cpu0_STLB PREFETCH     ACCESS:          0 HIT:          0 MISS:          0
cpu0_STLB WRITE        ACCESS:          0 HIT:          0 MISS:          0
cpu0_STLB TRANSLATION  ACCESS:          0 HIT:          0 MISS:          0
cpu0_STLB PREFETCH REQUESTED:          0 ISSUED:          0 USEFUL:          0 USELESS:          0
cpu0_STLB AVERAGE MISS LATENCY: 249.9 cycles

DRAM Statistics

Channel 0 RQ ROW_BUFFER_HIT:      34923
  ROW_BUFFER_MISS:      79088
 AVG DBUS CONGESTED CYCLE: 3.703
WQ ROW_BUFFER_HIT: Channel 0 
  ROW_BUFFER_MISS:        502
  FULL:        936
