WARNING: physical memory size is smaller than virtual memory size.

*** ChampSim Multicore Out-of-Order Simulator ***
Warmup Instructions: 50000000
Simulation Instructions: 600000000
Number of CPUs: 1
Page size: 4096

Off-chip DRAM Size: 4 GiB Channels: 1 Width: 64-bit Data Race: 3200 MT/s
Heartbeat CPU 0 instructions: 10000001 cycles: 2500318 heartbeat IPC: 3.999 cumulative IPC: 3.999 (Simulation time: 00 hr 00 min 37 sec)
Heartbeat CPU 0 instructions: 20000002 cycles: 5037136 heartbeat IPC: 3.942 cumulative IPC: 3.971 (Simulation time: 00 hr 01 min 14 sec)
Heartbeat CPU 0 instructions: 30000002 cycles: 7537136 heartbeat IPC: 4 cumulative IPC: 3.98 (Simulation time: 00 hr 01 min 47 sec)
Heartbeat CPU 0 instructions: 40000002 cycles: 10037136 heartbeat IPC: 4 cumulative IPC: 3.985 (Simulation time: 00 hr 02 min 22 sec)
Heartbeat CPU 0 instructions: 50000002 cycles: 12537136 heartbeat IPC: 4 cumulative IPC: 3.988 (Simulation time: 00 hr 02 min 55 sec)
Warmup finished CPU 0 instructions: 50000002 cycles: 12537137 cumulative IPC: 3.988 (Simulation time: 00 hr 02 min 55 sec)
Warmup complete CPU 0 instructions: 50000002 cycles: 12537137 cumulative IPC: 3.988 (Simulation time: 00 hr 02 min 55 sec)
Heartbeat CPU 0 instructions: 60000000 cycles: 17125902 heartbeat IPC: 2.179 cumulative IPC: 2.179 (Simulation time: 00 hr 03 min 45 sec)
Heartbeat CPU 0 instructions: 70000004 cycles: 21380886 heartbeat IPC: 2.35 cumulative IPC: 2.261 (Simulation time: 00 hr 04 min 36 sec)
Heartbeat CPU 0 instructions: 80000001 cycles: 25959305 heartbeat IPC: 2.184 cumulative IPC: 2.235 (Simulation time: 00 hr 05 min 23 sec)
Heartbeat CPU 0 instructions: 90000001 cycles: 30073697 heartbeat IPC: 2.43 cumulative IPC: 2.281 (Simulation time: 00 hr 06 min 13 sec)
Heartbeat CPU 0 instructions: 100000000 cycles: 34111660 heartbeat IPC: 2.476 cumulative IPC: 2.318 (Simulation time: 00 hr 07 min 00 sec)
Heartbeat CPU 0 instructions: 110000000 cycles: 38329091 heartbeat IPC: 2.371 cumulative IPC: 2.326 (Simulation time: 00 hr 07 min 48 sec)
Heartbeat CPU 0 instructions: 120000001 cycles: 42324932 heartbeat IPC: 2.503 cumulative IPC: 2.35 (Simulation time: 00 hr 08 min 36 sec)
Heartbeat CPU 0 instructions: 130000001 cycles: 46042506 heartbeat IPC: 2.69 cumulative IPC: 2.388 (Simulation time: 00 hr 09 min 21 sec)
Heartbeat CPU 0 instructions: 140000001 cycles: 50180216 heartbeat IPC: 2.417 cumulative IPC: 2.391 (Simulation time: 00 hr 10 min 10 sec)
Heartbeat CPU 0 instructions: 150000001 cycles: 54357183 heartbeat IPC: 2.394 cumulative IPC: 2.391 (Simulation time: 00 hr 11 min 00 sec)
Heartbeat CPU 0 instructions: 160000004 cycles: 58746240 heartbeat IPC: 2.278 cumulative IPC: 2.38 (Simulation time: 00 hr 11 min 48 sec)
Heartbeat CPU 0 instructions: 170000000 cycles: 66050884 heartbeat IPC: 1.369 cumulative IPC: 2.242 (Simulation time: 00 hr 12 min 54 sec)
Heartbeat CPU 0 instructions: 180000004 cycles: 72681602 heartbeat IPC: 1.508 cumulative IPC: 2.161 (Simulation time: 00 hr 13 min 55 sec)
Heartbeat CPU 0 instructions: 190000001 cycles: 78578661 heartbeat IPC: 1.696 cumulative IPC: 2.12 (Simulation time: 00 hr 14 min 52 sec)
Heartbeat CPU 0 instructions: 200000004 cycles: 82080937 heartbeat IPC: 2.855 cumulative IPC: 2.157 (Simulation time: 00 hr 15 min 34 sec)
Heartbeat CPU 0 instructions: 210000001 cycles: 85790087 heartbeat IPC: 2.696 cumulative IPC: 2.184 (Simulation time: 00 hr 16 min 16 sec)
Heartbeat CPU 0 instructions: 220000000 cycles: 89622391 heartbeat IPC: 2.609 cumulative IPC: 2.205 (Simulation time: 00 hr 16 min 59 sec)
Heartbeat CPU 0 instructions: 230000002 cycles: 93866382 heartbeat IPC: 2.356 cumulative IPC: 2.213 (Simulation time: 00 hr 17 min 44 sec)
Heartbeat CPU 0 instructions: 240000000 cycles: 97799924 heartbeat IPC: 2.542 cumulative IPC: 2.228 (Simulation time: 00 hr 18 min 28 sec)
Heartbeat CPU 0 instructions: 250000000 cycles: 101796235 heartbeat IPC: 2.502 cumulative IPC: 2.241 (Simulation time: 00 hr 19 min 11 sec)
Heartbeat CPU 0 instructions: 260000000 cycles: 105656863 heartbeat IPC: 2.59 cumulative IPC: 2.255 (Simulation time: 00 hr 19 min 54 sec)
Heartbeat CPU 0 instructions: 270000002 cycles: 109287589 heartbeat IPC: 2.754 cumulative IPC: 2.274 (Simulation time: 00 hr 20 min 37 sec)
Heartbeat CPU 0 instructions: 280000002 cycles: 113217444 heartbeat IPC: 2.545 cumulative IPC: 2.284 (Simulation time: 00 hr 21 min 20 sec)
Heartbeat CPU 0 instructions: 290000001 cycles: 116915228 heartbeat IPC: 2.704 cumulative IPC: 2.299 (Simulation time: 00 hr 22 min 03 sec)
Heartbeat CPU 0 instructions: 300000003 cycles: 120436611 heartbeat IPC: 2.84 cumulative IPC: 2.317 (Simulation time: 00 hr 22 min 48 sec)
Heartbeat CPU 0 instructions: 310000001 cycles: 124218640 heartbeat IPC: 2.644 cumulative IPC: 2.328 (Simulation time: 00 hr 23 min 32 sec)
Heartbeat CPU 0 instructions: 320000003 cycles: 128035362 heartbeat IPC: 2.62 cumulative IPC: 2.338 (Simulation time: 00 hr 24 min 17 sec)
Heartbeat CPU 0 instructions: 330000003 cycles: 132061100 heartbeat IPC: 2.484 cumulative IPC: 2.343 (Simulation time: 00 hr 25 min 03 sec)
Heartbeat CPU 0 instructions: 340000000 cycles: 137997663 heartbeat IPC: 1.684 cumulative IPC: 2.311 (Simulation time: 00 hr 26 min 02 sec)
Heartbeat CPU 0 instructions: 350000000 cycles: 144719187 heartbeat IPC: 1.488 cumulative IPC: 2.27 (Simulation time: 00 hr 27 min 07 sec)
Heartbeat CPU 0 instructions: 360000004 cycles: 150875885 heartbeat IPC: 1.624 cumulative IPC: 2.241 (Simulation time: 00 hr 28 min 08 sec)
Heartbeat CPU 0 instructions: 370000000 cycles: 154119080 heartbeat IPC: 3.083 cumulative IPC: 2.26 (Simulation time: 00 hr 28 min 51 sec)
Heartbeat CPU 0 instructions: 380000001 cycles: 157343769 heartbeat IPC: 3.101 cumulative IPC: 2.279 (Simulation time: 00 hr 29 min 34 sec)
Heartbeat CPU 0 instructions: 390000004 cycles: 160953311 heartbeat IPC: 2.77 cumulative IPC: 2.291 (Simulation time: 00 hr 30 min 17 sec)
Heartbeat CPU 0 instructions: 400000004 cycles: 164682084 heartbeat IPC: 2.682 cumulative IPC: 2.3 (Simulation time: 00 hr 31 min 00 sec)
Heartbeat CPU 0 instructions: 410000001 cycles: 168114335 heartbeat IPC: 2.914 cumulative IPC: 2.314 (Simulation time: 00 hr 31 min 42 sec)
Heartbeat CPU 0 instructions: 420000003 cycles: 171823977 heartbeat IPC: 2.696 cumulative IPC: 2.323 (Simulation time: 00 hr 32 min 24 sec)
Heartbeat CPU 0 instructions: 430000001 cycles: 175318634 heartbeat IPC: 2.862 cumulative IPC: 2.334 (Simulation time: 00 hr 33 min 07 sec)
Heartbeat CPU 0 instructions: 440000004 cycles: 179131682 heartbeat IPC: 2.623 cumulative IPC: 2.341 (Simulation time: 00 hr 33 min 50 sec)
Heartbeat CPU 0 instructions: 450000002 cycles: 182627251 heartbeat IPC: 2.861 cumulative IPC: 2.352 (Simulation time: 00 hr 34 min 32 sec)
Heartbeat CPU 0 instructions: 460000000 cycles: 186093906 heartbeat IPC: 2.885 cumulative IPC: 2.362 (Simulation time: 00 hr 35 min 13 sec)
Heartbeat CPU 0 instructions: 470000000 cycles: 189383000 heartbeat IPC: 3.04 cumulative IPC: 2.375 (Simulation time: 00 hr 35 min 54 sec)
Heartbeat CPU 0 instructions: 480000003 cycles: 192994195 heartbeat IPC: 2.769 cumulative IPC: 2.383 (Simulation time: 00 hr 36 min 37 sec)
Heartbeat CPU 0 instructions: 490000000 cycles: 196489509 heartbeat IPC: 2.861 cumulative IPC: 2.392 (Simulation time: 00 hr 37 min 19 sec)
Heartbeat CPU 0 instructions: 500000000 cycles: 200056267 heartbeat IPC: 2.804 cumulative IPC: 2.4 (Simulation time: 00 hr 38 min 01 sec)
Heartbeat CPU 0 instructions: 510000003 cycles: 203482070 heartbeat IPC: 2.919 cumulative IPC: 2.409 (Simulation time: 00 hr 38 min 43 sec)
Heartbeat CPU 0 instructions: 520000001 cycles: 206656454 heartbeat IPC: 3.15 cumulative IPC: 2.421 (Simulation time: 00 hr 39 min 24 sec)
Heartbeat CPU 0 instructions: 530000002 cycles: 210130678 heartbeat IPC: 2.878 cumulative IPC: 2.429 (Simulation time: 00 hr 40 min 06 sec)
Heartbeat CPU 0 instructions: 540000000 cycles: 213460875 heartbeat IPC: 3.003 cumulative IPC: 2.439 (Simulation time: 00 hr 40 min 47 sec)
Heartbeat CPU 0 instructions: 550000001 cycles: 216994869 heartbeat IPC: 2.83 cumulative IPC: 2.445 (Simulation time: 00 hr 41 min 30 sec)
Heartbeat CPU 0 instructions: 560000000 cycles: 220660848 heartbeat IPC: 2.728 cumulative IPC: 2.45 (Simulation time: 00 hr 42 min 12 sec)
Heartbeat CPU 0 instructions: 570000004 cycles: 225222215 heartbeat IPC: 2.192 cumulative IPC: 2.445 (Simulation time: 00 hr 43 min 01 sec)
Heartbeat CPU 0 instructions: 580000003 cycles: 231784693 heartbeat IPC: 1.524 cumulative IPC: 2.417 (Simulation time: 00 hr 44 min 00 sec)
Heartbeat CPU 0 instructions: 590000002 cycles: 238980492 heartbeat IPC: 1.39 cumulative IPC: 2.385 (Simulation time: 00 hr 45 min 04 sec)
Heartbeat CPU 0 instructions: 600000000 cycles: 242487015 heartbeat IPC: 2.852 cumulative IPC: 2.392 (Simulation time: 00 hr 45 min 46 sec)
Heartbeat CPU 0 instructions: 610000000 cycles: 246168294 heartbeat IPC: 2.716 cumulative IPC: 2.397 (Simulation time: 00 hr 46 min 28 sec)
Heartbeat CPU 0 instructions: 620000001 cycles: 249502464 heartbeat IPC: 2.999 cumulative IPC: 2.405 (Simulation time: 00 hr 47 min 08 sec)
Heartbeat CPU 0 instructions: 630000002 cycles: 253617623 heartbeat IPC: 2.43 cumulative IPC: 2.406 (Simulation time: 00 hr 47 min 53 sec)
Heartbeat CPU 0 instructions: 640000001 cycles: 257450234 heartbeat IPC: 2.609 cumulative IPC: 2.409 (Simulation time: 00 hr 48 min 36 sec)
Heartbeat CPU 0 instructions: 650000000 cycles: 261144353 heartbeat IPC: 2.707 cumulative IPC: 2.413 (Simulation time: 00 hr 49 min 18 sec)
Simulation finished CPU 0 instructions: 600000001 cycles: 248607218 cumulative IPC: 2.413 (Simulation time: 00 hr 49 min 18 sec)
Simulation complete CPU 0 instructions: 600000001 cycles: 248607218 cumulative IPC: 2.413 (Simulation time: 00 hr 49 min 18 sec)

ChampSim completed all CPUs

=== Simulation ===
CPU 0 runs traces/400.perlbench-41B.champsimtrace.xz
Region of Interest Statistics

CPU 0 cumulative IPC: 2.413 instructions: 600000001 cycles: 248607218
CPU 0 Branch Prediction Accuracy: 96.56% MPKI: 7.112 Average ROB Occupancy at Mispredict: 46.68
Branch type MPKI
BRANCH_DIRECT_JUMP: 0.0123
BRANCH_INDIRECT: 0.323
BRANCH_CONDITIONAL: 6.56
BRANCH_DIRECT_CALL: 0.0043
BRANCH_INDIRECT_CALL: 0.2
BRANCH_RETURN: 0.00828

LLC TOTAL        ACCESS:     540455 HIT:     490027 MISS:      50428
LLC LOAD         ACCESS:     403228 HIT:     363720 MISS:      39508
LLC RFO          ACCESS:      32495 HIT:      28199 MISS:       4296
LLC PREFETCH     ACCESS:          0 HIT:          0 MISS:          0
LLC WRITE        ACCESS:      85518 HIT:      85507 MISS:         11
LLC TRANSLATION  ACCESS:      19214 HIT:      12601 MISS:       6613
LLC PREFETCH REQUESTED:          0 ISSUED:          0 USEFUL:          0 USELESS:          0
LLC AVERAGE MISS LATENCY: 488.3 cycles
cpu0_DTLB TOTAL        ACCESS:  141907178 HIT:  141222086 MISS:     685092
cpu0_DTLB LOAD         ACCESS:  141907178 HIT:  141222086 MISS:     685092
cpu0_DTLB RFO          ACCESS:          0 HIT:          0 MISS:          0
cpu0_DTLB PREFETCH     ACCESS:          0 HIT:          0 MISS:          0
cpu0_DTLB WRITE        ACCESS:          0 HIT:          0 MISS:          0
cpu0_DTLB TRANSLATION  ACCESS:          0 HIT:          0 MISS:          0
cpu0_DTLB PREFETCH REQUESTED:          0 ISSUED:          0 USEFUL:          0 USELESS:          0
cpu0_DTLB AVERAGE MISS LATENCY: 10.49 cycles
cpu0_ITLB TOTAL        ACCESS:    4857447 HIT:    4804340 MISS:      53107
cpu0_ITLB LOAD         ACCESS:    4857447 HIT:    4804340 MISS:      53107
cpu0_ITLB RFO          ACCESS:          0 HIT:          0 MISS:          0
cpu0_ITLB PREFETCH     ACCESS:          0 HIT:          0 MISS:          0
cpu0_ITLB WRITE        ACCESS:          0 HIT:          0 MISS:          0
cpu0_ITLB TRANSLATION  ACCESS:          0 HIT:          0 MISS:          0
cpu0_ITLB PREFETCH REQUESTED:          0 ISSUED:          0 USEFUL:          0 USELESS:          0
cpu0_ITLB AVERAGE MISS LATENCY: 5.001 cycles
cpu0_L1D TOTAL        ACCESS:  188592394 HIT:  186912753 MISS:    1679641
cpu0_L1D LOAD         ACCESS:  105225769 HIT:  103910508 MISS:    1315261
cpu0_L1D RFO          ACCESS:          0 HIT:          0 MISS:          0
cpu0_L1D PREFETCH     ACCESS:          0 HIT:          0 MISS:          0
cpu0_L1D WRITE        ACCESS:   83342159 HIT:   83001178 MISS:     340981
cpu0_L1D TRANSLATION  ACCESS:      24466 HIT:       1067 MISS:      23399
cpu0_L1D PREFETCH REQUESTED:          0 ISSUED:          0 USEFUL:          0 USELESS:          0
cpu0_L1D AVERAGE MISS LATENCY: 23.01 cycles
cpu0_L1I TOTAL        ACCESS:    5595494 HIT:    4852239 MISS:     743255
cpu0_L1I LOAD         ACCESS:    5595494 HIT:    4852239 MISS:     743255
cpu0_L1I RFO          ACCESS:          0 HIT:          0 MISS:          0
cpu0_L1I PREFETCH     ACCESS:          0 HIT:          0 MISS:          0
cpu0_L1I WRITE        ACCESS:          0 HIT:          0 MISS:          0
cpu0_L1I TRANSLATION  ACCESS:          0 HIT:          0 MISS:          0
cpu0_L1I PREFETCH REQUESTED:          0 ISSUED:          0 USEFUL:          0 USELESS:          0
cpu0_L1I AVERAGE MISS LATENCY: 9.018 cycles
cpu0_L2C TOTAL        ACCESS:    1666235 HIT:    1209486 MISS:     456749
cpu0_L2C LOAD         ACCESS:    1316057 HIT:     912829 MISS:     403228
cpu0_L2C RFO          ACCESS:      88292 HIT:      55797 MISS:      32495
cpu0_L2C PREFETCH     ACCESS:          0 HIT:          0 MISS:          0
cpu0_L2C WRITE        ACCESS:     238557 HIT:     236745 MISS:       1812
cpu0_L2C TRANSLATION  ACCESS:      23329 HIT:       4115 MISS:      19214
cpu0_L2C PREFETCH REQUESTED:          0 ISSUED:          0 USEFUL:          0 USELESS:          0
cpu0_L2C AVERAGE MISS LATENCY: 73.94 cycles
cpu0_STLB TOTAL        ACCESS:     506649 HIT:     483855 MISS:      22794
cpu0_STLB LOAD         ACCESS:     506649 HIT:     483855 MISS:      22794
cpu0_STLB RFO          ACCESS:          0 HIT:          0 MISS:          0
cpu0_STLB PREFETCH     ACCESS:          0 HIT:          0 MISS:          0
cpu0_STLB WRITE        ACCESS:          0 HIT:          0 MISS:          0
cpu0_STLB TRANSLATION  ACCESS:          0 HIT:          0 MISS:          0
cpu0_STLB PREFETCH REQUESTED:          0 ISSUED:          0 USEFUL:          0 USELESS:          0
cpu0_STLB AVERAGE MISS LATENCY: 183.6 cycles

DRAM Statistics

Channel 0 RQ ROW_BUFFER_HIT:      13360
  ROW_BUFFER_MISS:      37057
 AVG DBUS CONGESTED CYCLE: 3.697
WQ ROW_BUFFER_HIT: Channel 0 
  ROW_BUFFER_MISS:        512
  FULL:        981
