WARNING: physical memory size is smaller than virtual memory size.

*** ChampSim Multicore Out-of-Order Simulator ***
Warmup Instructions: 50000000
Simulation Instructions: 600000000
Number of CPUs: 1
Page size: 4096

Off-chip DRAM Size: 4 GiB Channels: 1 Width: 64-bit Data Race: 3200 MT/s
Heartbeat CPU 0 instructions: 10000000 cycles: 2500061 heartbeat IPC: 4 cumulative IPC: 4 (Simulation time: 00 hr 00 min 35 sec)
Heartbeat CPU 0 instructions: 20000000 cycles: 5000061 heartbeat IPC: 4 cumulative IPC: 4 (Simulation time: 00 hr 01 min 10 sec)
Heartbeat CPU 0 instructions: 30000000 cycles: 7500061 heartbeat IPC: 4 cumulative IPC: 4 (Simulation time: 00 hr 01 min 44 sec)
Heartbeat CPU 0 instructions: 40000000 cycles: 10000061 heartbeat IPC: 4 cumulative IPC: 4 (Simulation time: 00 hr 02 min 17 sec)
Heartbeat CPU 0 instructions: 50000000 cycles: 12500061 heartbeat IPC: 4 cumulative IPC: 4 (Simulation time: 00 hr 02 min 50 sec)
Warmup finished CPU 0 instructions: 50000000 cycles: 12500062 cumulative IPC: 4 (Simulation time: 00 hr 02 min 50 sec)
Warmup complete CPU 0 instructions: 50000000 cycles: 12500062 cumulative IPC: 4 (Simulation time: 00 hr 02 min 50 sec)
Heartbeat CPU 0 instructions: 60000002 cycles: 16907366 heartbeat IPC: 2.269 cumulative IPC: 2.269 (Simulation time: 00 hr 03 min 38 sec)
Heartbeat CPU 0 instructions: 70000003 cycles: 21889050 heartbeat IPC: 2.007 cumulative IPC: 2.13 (Simulation time: 00 hr 04 min 27 sec)
Heartbeat CPU 0 instructions: 80000001 cycles: 27230745 heartbeat IPC: 1.872 cumulative IPC: 2.037 (Simulation time: 00 hr 05 min 19 sec)
Heartbeat CPU 0 instructions: 90000000 cycles: 31527294 heartbeat IPC: 2.327 cumulative IPC: 2.102 (Simulation time: 00 hr 06 min 07 sec)
Heartbeat CPU 0 instructions: 100000003 cycles: 36379334 heartbeat IPC: 2.061 cumulative IPC: 2.094 (Simulation time: 00 hr 06 min 56 sec)
Heartbeat CPU 0 instructions: 110000002 cycles: 41247374 heartbeat IPC: 2.054 cumulative IPC: 2.087 (Simulation time: 00 hr 07 min 45 sec)
Heartbeat CPU 0 instructions: 120000001 cycles: 46240828 heartbeat IPC: 2.003 cumulative IPC: 2.075 (Simulation time: 00 hr 08 min 35 sec)
Heartbeat CPU 0 instructions: 130000003 cycles: 50807189 heartbeat IPC: 2.19 cumulative IPC: 2.088 (Simulation time: 00 hr 09 min 23 sec)
Heartbeat CPU 0 instructions: 140000002 cycles: 55694832 heartbeat IPC: 2.046 cumulative IPC: 2.084 (Simulation time: 00 hr 10 min 12 sec)
Heartbeat CPU 0 instructions: 150000001 cycles: 60360024 heartbeat IPC: 2.144 cumulative IPC: 2.089 (Simulation time: 00 hr 11 min 00 sec)
Heartbeat CPU 0 instructions: 160000000 cycles: 64996045 heartbeat IPC: 2.157 cumulative IPC: 2.095 (Simulation time: 00 hr 11 min 48 sec)
Heartbeat CPU 0 instructions: 170000000 cycles: 70325364 heartbeat IPC: 1.876 cumulative IPC: 2.075 (Simulation time: 00 hr 12 min 39 sec)
Heartbeat CPU 0 instructions: 180000001 cycles: 76043102 heartbeat IPC: 1.749 cumulative IPC: 2.046 (Simulation time: 00 hr 13 min 33 sec)
Heartbeat CPU 0 instructions: 190000002 cycles: 80511237 heartbeat IPC: 2.238 cumulative IPC: 2.058 (Simulation time: 00 hr 14 min 22 sec)
Heartbeat CPU 0 instructions: 200000002 cycles: 85411245 heartbeat IPC: 2.041 cumulative IPC: 2.057 (Simulation time: 00 hr 15 min 11 sec)
Heartbeat CPU 0 instructions: 210000000 cycles: 90413026 heartbeat IPC: 1.999 cumulative IPC: 2.054 (Simulation time: 00 hr 15 min 59 sec)
Heartbeat CPU 0 instructions: 220000001 cycles: 95334767 heartbeat IPC: 2.032 cumulative IPC: 2.052 (Simulation time: 00 hr 16 min 46 sec)
Heartbeat CPU 0 instructions: 230000002 cycles: 100578650 heartbeat IPC: 1.907 cumulative IPC: 2.044 (Simulation time: 00 hr 17 min 36 sec)
Heartbeat CPU 0 instructions: 240000001 cycles: 105540806 heartbeat IPC: 2.015 cumulative IPC: 2.042 (Simulation time: 00 hr 18 min 24 sec)
Heartbeat CPU 0 instructions: 250000003 cycles: 110715200 heartbeat IPC: 1.933 cumulative IPC: 2.036 (Simulation time: 00 hr 19 min 12 sec)
Heartbeat CPU 0 instructions: 260000001 cycles: 115571230 heartbeat IPC: 2.059 cumulative IPC: 2.037 (Simulation time: 00 hr 20 min 00 sec)
Heartbeat CPU 0 instructions: 270000000 cycles: 123225925 heartbeat IPC: 1.306 cumulative IPC: 1.987 (Simulation time: 00 hr 21 min 03 sec)
Heartbeat CPU 0 instructions: 280000000 cycles: 133946193 heartbeat IPC: 0.9328 cumulative IPC: 1.894 (Simulation time: 00 hr 22 min 27 sec)
Heartbeat CPU 0 instructions: 290000001 cycles: 143136432 heartbeat IPC: 1.088 cumulative IPC: 1.837 (Simulation time: 00 hr 23 min 45 sec)
Heartbeat CPU 0 instructions: 300000003 cycles: 150503717 heartbeat IPC: 1.357 cumulative IPC: 1.812 (Simulation time: 00 hr 24 min 51 sec)
Heartbeat CPU 0 instructions: 310000004 cycles: 160756885 heartbeat IPC: 0.9753 cumulative IPC: 1.754 (Simulation time: 00 hr 26 min 12 sec)
Heartbeat CPU 0 instructions: 320000004 cycles: 166318115 heartbeat IPC: 1.798 cumulative IPC: 1.755 (Simulation time: 00 hr 27 min 05 sec)
Heartbeat CPU 0 instructions: 330000000 cycles: 171529305 heartbeat IPC: 1.919 cumulative IPC: 1.761 (Simulation time: 00 hr 27 min 54 sec)
Heartbeat CPU 0 instructions: 340000001 cycles: 176268183 heartbeat IPC: 2.11 cumulative IPC: 1.771 (Simulation time: 00 hr 28 min 40 sec)
Heartbeat CPU 0 instructions: 350000000 cycles: 181195291 heartbeat IPC: 2.03 cumulative IPC: 1.778 (Simulation time: 00 hr 29 min 29 sec)
Heartbeat CPU 0 instructions: 360000003 cycles: 185918281 heartbeat IPC: 2.117 cumulative IPC: 1.788 (Simulation time: 00 hr 30 min 16 sec)
Heartbeat CPU 0 instructions: 370000001 cycles: 190631570 heartbeat IPC: 2.122 cumulative IPC: 1.796 (Simulation time: 00 hr 31 min 04 sec)
Heartbeat CPU 0 instructions: 380000004 cycles: 195621742 heartbeat IPC: 2.004 cumulative IPC: 1.802 (Simulation time: 00 hr 31 min 54 sec)
Heartbeat CPU 0 instructions: 390000002 cycles: 200529721 heartbeat IPC: 2.037 cumulative IPC: 1.808 (Simulation time: 00 hr 32 min 43 sec)
Heartbeat CPU 0 instructions: 400000000 cycles: 205528806 heartbeat IPC: 2 cumulative IPC: 1.813 (Simulation time: 00 hr 33 min 35 sec)
Heartbeat CPU 0 instructions: 410000000 cycles: 211609728 heartbeat IPC: 1.644 cumulative IPC: 1.808 (Simulation time: 00 hr 34 min 33 sec)
Heartbeat CPU 0 instructions: 420000001 cycles: 218694528 heartbeat IPC: 1.411 cumulative IPC: 1.794 (Simulation time: 00 hr 35 min 38 sec)
Heartbeat CPU 0 instructions: 430000000 cycles: 225279051 heartbeat IPC: 1.519 cumulative IPC: 1.786 (Simulation time: 00 hr 36 min 44 sec)
Heartbeat CPU 0 instructions: 440000002 cycles: 231727064 heartbeat IPC: 1.551 cumulative IPC: 1.779 (Simulation time: 00 hr 37 min 48 sec)
Heartbeat CPU 0 instructions: 450000000 cycles: 238038306 heartbeat IPC: 1.584 cumulative IPC: 1.774 (Simulation time: 00 hr 38 min 53 sec)
Heartbeat CPU 0 instructions: 460000002 cycles: 245486962 heartbeat IPC: 1.343 cumulative IPC: 1.76 (Simulation time: 00 hr 40 min 04 sec)
Heartbeat CPU 0 instructions: 470000000 cycles: 252160272 heartbeat IPC: 1.499 cumulative IPC: 1.752 (Simulation time: 00 hr 41 min 09 sec)
Heartbeat CPU 0 instructions: 480000000 cycles: 257115156 heartbeat IPC: 2.018 cumulative IPC: 1.758 (Simulation time: 00 hr 42 min 00 sec)
Heartbeat CPU 0 instructions: 490000001 cycles: 262009971 heartbeat IPC: 2.043 cumulative IPC: 1.763 (Simulation time: 00 hr 42 min 52 sec)
Heartbeat CPU 0 instructions: 500000002 cycles: 266896715 heartbeat IPC: 2.046 cumulative IPC: 1.769 (Simulation time: 00 hr 43 min 43 sec)
Heartbeat CPU 0 instructions: 510000000 cycles: 271860468 heartbeat IPC: 2.015 cumulative IPC: 1.774 (Simulation time: 00 hr 44 min 35 sec)
Heartbeat CPU 0 instructions: 520000000 cycles: 276894103 heartbeat IPC: 1.987 cumulative IPC: 1.778 (Simulation time: 00 hr 45 min 27 sec)
Heartbeat CPU 0 instructions: 530000001 cycles: 284011316 heartbeat IPC: 1.405 cumulative IPC: 1.768 (Simulation time: 00 hr 46 min 34 sec)
Heartbeat CPU 0 instructions: 540000000 cycles: 290932081 heartbeat IPC: 1.445 cumulative IPC: 1.76 (Simulation time: 00 hr 47 min 42 sec)
Heartbeat CPU 0 instructions: 550000002 cycles: 298354298 heartbeat IPC: 1.347 cumulative IPC: 1.749 (Simulation time: 00 hr 48 min 51 sec)
Heartbeat CPU 0 instructions: 560000004 cycles: 302758325 heartbeat IPC: 2.271 cumulative IPC: 1.757 (Simulation time: 00 hr 49 min 37 sec)
Heartbeat CPU 0 instructions: 570000001 cycles: 307114418 heartbeat IPC: 2.296 cumulative IPC: 1.765 (Simulation time: 00 hr 50 min 29 sec)
Heartbeat CPU 0 instructions: 580000003 cycles: 311246813 heartbeat IPC: 2.42 cumulative IPC: 1.774 (Simulation time: 00 hr 51 min 14 sec)
Heartbeat CPU 0 instructions: 590000001 cycles: 316054008 heartbeat IPC: 2.08 cumulative IPC: 1.779 (Simulation time: 00 hr 52 min 08 sec)
Heartbeat CPU 0 instructions: 600000003 cycles: 320645061 heartbeat IPC: 2.178 cumulative IPC: 1.785 (Simulation time: 00 hr 52 min 57 sec)
Heartbeat CPU 0 instructions: 610000001 cycles: 325438341 heartbeat IPC: 2.086 cumulative IPC: 1.789 (Simulation time: 00 hr 53 min 50 sec)
Heartbeat CPU 0 instructions: 620000000 cycles: 330453412 heartbeat IPC: 1.994 cumulative IPC: 1.793 (Simulation time: 00 hr 54 min 38 sec)
Heartbeat CPU 0 instructions: 630000002 cycles: 334659903 heartbeat IPC: 2.377 cumulative IPC: 1.8 (Simulation time: 00 hr 55 min 20 sec)
Heartbeat CPU 0 instructions: 640000004 cycles: 339930146 heartbeat IPC: 1.897 cumulative IPC: 1.802 (Simulation time: 00 hr 56 min 07 sec)
Heartbeat CPU 0 instructions: 650000001 cycles: 344671114 heartbeat IPC: 2.109 cumulative IPC: 1.806 (Simulation time: 00 hr 56 min 50 sec)
Simulation finished CPU 0 instructions: 600000001 cycles: 332171053 cumulative IPC: 1.806 (Simulation time: 00 hr 56 min 50 sec)
Simulation complete CPU 0 instructions: 600000001 cycles: 332171053 cumulative IPC: 1.806 (Simulation time: 00 hr 56 min 50 sec)

ChampSim completed all CPUs

=== Simulation ===
CPU 0 runs traces/400.perlbench-50B.champsimtrace.xz
Region of Interest Statistics

CPU 0 cumulative IPC: 1.806 instructions: 600000001 cycles: 332171053
CPU 0 Branch Prediction Accuracy: 93.83% MPKI: 12.71 Average ROB Occupancy at Mispredict: 29.17
Branch type MPKI
BRANCH_DIRECT_JUMP: 0.0176
BRANCH_INDIRECT: 0.38
BRANCH_CONDITIONAL: 11.9
BRANCH_DIRECT_CALL: 0.0067
BRANCH_INDIRECT_CALL: 0.431
BRANCH_RETURN: 0.0161

LLC TOTAL        ACCESS:     850211 HIT:     723235 MISS:     126976
LLC LOAD         ACCESS:     587080 HIT:     490462 MISS:      96618
LLC RFO          ACCESS:      47469 HIT:      37930 MISS:       9539
LLC PREFETCH     ACCESS:      65429 HIT:      53845 MISS:      11584
LLC WRITE        ACCESS:     128151 HIT:     128146 MISS:          5
LLC TRANSLATION  ACCESS:      22082 HIT:      12852 MISS:       9230
LLC PREFETCH REQUESTED:      65429 ISSUED:      65429 USEFUL:       7249 USELESS:        504
LLC AVERAGE MISS LATENCY: 473.5 cycles
cpu0_DTLB TOTAL        ACCESS:  156793599 HIT:  155493481 MISS:    1300118
cpu0_DTLB LOAD         ACCESS:  156793599 HIT:  155493481 MISS:    1300118
cpu0_DTLB RFO          ACCESS:          0 HIT:          0 MISS:          0
cpu0_DTLB PREFETCH     ACCESS:          0 HIT:          0 MISS:          0
cpu0_DTLB WRITE        ACCESS:          0 HIT:          0 MISS:          0
cpu0_DTLB TRANSLATION  ACCESS:          0 HIT:          0 MISS:          0
cpu0_DTLB PREFETCH REQUESTED:          0 ISSUED:          0 USEFUL:          0 USELESS:          0
cpu0_DTLB AVERAGE MISS LATENCY: 9.97 cycles
cpu0_ITLB TOTAL        ACCESS:    8932895 HIT:    8734305 MISS:     198590
cpu0_ITLB LOAD         ACCESS:    8932895 HIT:    8734305 MISS:     198590
cpu0_ITLB RFO          ACCESS:          0 HIT:          0 MISS:          0
cpu0_ITLB PREFETCH     ACCESS:          0 HIT:          0 MISS:          0
cpu0_ITLB WRITE        ACCESS:          0 HIT:          0 MISS:          0
cpu0_ITLB TRANSLATION  ACCESS:          0 HIT:          0 MISS:          0
cpu0_ITLB PREFETCH REQUESTED:          0 ISSUED:          0 USEFUL:          0 USELESS:          0
cpu0_ITLB AVERAGE MISS LATENCY: 2.633 cycles
cpu0_L1D TOTAL        ACCESS:  203655883 HIT:  200018568 MISS:    3637315
cpu0_L1D LOAD         ACCESS:  117978705 HIT:  114982683 MISS:    2996022
cpu0_L1D RFO          ACCESS:          0 HIT:          0 MISS:          0
cpu0_L1D PREFETCH     ACCESS:          0 HIT:          0 MISS:          0
cpu0_L1D WRITE        ACCESS:   85648632 HIT:   85034475 MISS:     614157
cpu0_L1D TRANSLATION  ACCESS:      28546 HIT:       1410 MISS:      27136
cpu0_L1D PREFETCH REQUESTED:          0 ISSUED:          0 USEFUL:          0 USELESS:          0
cpu0_L1D AVERAGE MISS LATENCY: 21.66 cycles
cpu0_L1I TOTAL        ACCESS:   10371503 HIT:    8574043 MISS:    1797460
cpu0_L1I LOAD         ACCESS:   10371503 HIT:    8574043 MISS:    1797460
cpu0_L1I RFO          ACCESS:          0 HIT:          0 MISS:          0
cpu0_L1I PREFETCH     ACCESS:          0 HIT:          0 MISS:          0
cpu0_L1I WRITE        ACCESS:          0 HIT:          0 MISS:          0
cpu0_L1I TRANSLATION  ACCESS:          0 HIT:          0 MISS:          0
cpu0_L1I PREFETCH REQUESTED:          0 ISSUED:          0 USEFUL:          0 USELESS:          0
cpu0_L1I AVERAGE MISS LATENCY: 9.208 cycles
cpu0_L2C TOTAL        ACCESS:    3837234 HIT:    3177358 MISS:     659876
cpu0_L2C LOAD         ACCESS:    3106484 HIT:    2519404 MISS:     587080
cpu0_L2C RFO          ACCESS:     191758 HIT:     144289 MISS:      47469
cpu0_L2C PREFETCH     ACCESS:          0 HIT:          0 MISS:          0
cpu0_L2C WRITE        ACCESS:     511931 HIT:     508686 MISS:       3245
cpu0_L2C TRANSLATION  ACCESS:      27061 HIT:       4979 MISS:      22082
cpu0_L2C PREFETCH REQUESTED:          0 ISSUED:          0 USEFUL:          0 USELESS:          0
cpu0_L2C AVERAGE MISS LATENCY: 102.4 cycles
cpu0_STLB TOTAL        ACCESS:    1009191 HIT:     982497 MISS:      26694
cpu0_STLB LOAD         ACCESS:    1009191 HIT:     982497 MISS:      26694
cpu0_STLB RFO          ACCESS:          0 HIT:          0 MISS:          0
cpu0_STLB PREFETCH     ACCESS:          0 HIT:          0 MISS:          0
cpu0_STLB WRITE        ACCESS:          0 HIT:          0 MISS:          0
cpu0_STLB TRANSLATION  ACCESS:          0 HIT:          0 MISS:          0
cpu0_STLB PREFETCH REQUESTED:          0 ISSUED:          0 USEFUL:          0 USELESS:          0
cpu0_STLB AVERAGE MISS LATENCY: 257.6 cycles

DRAM Statistics

Channel 0 RQ ROW_BUFFER_HIT:      38138
  ROW_BUFFER_MISS:      86745
 AVG DBUS CONGESTED CYCLE: 3.733
WQ ROW_BUFFER_HIT: Channel 0 
  ROW_BUFFER_MISS:       1117
  FULL:       1595
Final OPTGen Hits: 9236
Final OPTGen Access: 10468
Final OPTGEN Hit Rate: 88.2308
