WARNING: physical memory size is smaller than virtual memory size.

*** ChampSim Multicore Out-of-Order Simulator ***
Warmup Instructions: 50000000
Simulation Instructions: 600000000
Number of CPUs: 1
Page size: 4096

CPU 0 Tage branch predictor
Off-chip DRAM Size: 4 GiB Channels: 1 Width: 64-bit Data Race: 3200 MT/s
Heartbeat CPU 0 instructions: 10000000 cycles: 2500061 heartbeat IPC: 4 cumulative IPC: 4 (Simulation time: 00 hr 04 min 10 sec)
Heartbeat CPU 0 instructions: 20000000 cycles: 5000061 heartbeat IPC: 4 cumulative IPC: 4 (Simulation time: 00 hr 08 min 10 sec)
Heartbeat CPU 0 instructions: 30000000 cycles: 7500061 heartbeat IPC: 4 cumulative IPC: 4 (Simulation time: 00 hr 12 min 09 sec)
Heartbeat CPU 0 instructions: 40000000 cycles: 10000061 heartbeat IPC: 4 cumulative IPC: 4 (Simulation time: 00 hr 16 min 21 sec)
Heartbeat CPU 0 instructions: 50000000 cycles: 12500061 heartbeat IPC: 4 cumulative IPC: 4 (Simulation time: 00 hr 20 min 33 sec)
Warmup finished CPU 0 instructions: 50000000 cycles: 12500062 cumulative IPC: 4 (Simulation time: 00 hr 20 min 33 sec)
Warmup complete CPU 0 instructions: 50000000 cycles: 12500062 cumulative IPC: 4 (Simulation time: 00 hr 20 min 33 sec)
Heartbeat CPU 0 instructions: 60000004 cycles: 15503677 heartbeat IPC: 3.329 cumulative IPC: 3.329 (Simulation time: 00 hr 25 min 19 sec)
Heartbeat CPU 0 instructions: 70000003 cycles: 18382317 heartbeat IPC: 3.474 cumulative IPC: 3.4 (Simulation time: 00 hr 30 min 02 sec)
Heartbeat CPU 0 instructions: 80000002 cycles: 21404747 heartbeat IPC: 3.309 cumulative IPC: 3.369 (Simulation time: 00 hr 35 min 01 sec)
Heartbeat CPU 0 instructions: 90000000 cycles: 24127135 heartbeat IPC: 3.673 cumulative IPC: 3.44 (Simulation time: 00 hr 39 min 37 sec)
Heartbeat CPU 0 instructions: 100000003 cycles: 26893697 heartbeat IPC: 3.615 cumulative IPC: 3.474 (Simulation time: 00 hr 44 min 18 sec)
Heartbeat CPU 0 instructions: 110000001 cycles: 29799971 heartbeat IPC: 3.441 cumulative IPC: 3.468 (Simulation time: 00 hr 49 min 00 sec)
Heartbeat CPU 0 instructions: 120000001 cycles: 32524189 heartbeat IPC: 3.671 cumulative IPC: 3.496 (Simulation time: 00 hr 53 min 36 sec)
Heartbeat CPU 0 instructions: 130000003 cycles: 35426960 heartbeat IPC: 3.445 cumulative IPC: 3.489 (Simulation time: 00 hr 58 min 15 sec)
Heartbeat CPU 0 instructions: 140000002 cycles: 38265022 heartbeat IPC: 3.524 cumulative IPC: 3.493 (Simulation time: 01 hr 02 min 55 sec)
Heartbeat CPU 0 instructions: 150000001 cycles: 41038933 heartbeat IPC: 3.605 cumulative IPC: 3.504 (Simulation time: 01 hr 07 min 32 sec)
Heartbeat CPU 0 instructions: 160000000 cycles: 43953820 heartbeat IPC: 3.431 cumulative IPC: 3.497 (Simulation time: 01 hr 12 min 13 sec)
Heartbeat CPU 0 instructions: 170000001 cycles: 46884845 heartbeat IPC: 3.412 cumulative IPC: 3.49 (Simulation time: 01 hr 16 min 58 sec)
Heartbeat CPU 0 instructions: 180000000 cycles: 49682531 heartbeat IPC: 3.574 cumulative IPC: 3.496 (Simulation time: 01 hr 21 min 43 sec)
Heartbeat CPU 0 instructions: 190000002 cycles: 52390539 heartbeat IPC: 3.693 cumulative IPC: 3.51 (Simulation time: 01 hr 26 min 24 sec)
Heartbeat CPU 0 instructions: 200000002 cycles: 55219937 heartbeat IPC: 3.534 cumulative IPC: 3.511 (Simulation time: 01 hr 31 min 07 sec)
Heartbeat CPU 0 instructions: 210000000 cycles: 58119126 heartbeat IPC: 3.449 cumulative IPC: 3.507 (Simulation time: 01 hr 35 min 48 sec)
Heartbeat CPU 0 instructions: 220000001 cycles: 60883566 heartbeat IPC: 3.617 cumulative IPC: 3.514 (Simulation time: 01 hr 40 min 28 sec)
Heartbeat CPU 0 instructions: 230000002 cycles: 63776820 heartbeat IPC: 3.456 cumulative IPC: 3.51 (Simulation time: 01 hr 45 min 12 sec)
Heartbeat CPU 0 instructions: 240000004 cycles: 66737011 heartbeat IPC: 3.378 cumulative IPC: 3.503 (Simulation time: 01 hr 49 min 56 sec)
Heartbeat CPU 0 instructions: 250000003 cycles: 69643379 heartbeat IPC: 3.441 cumulative IPC: 3.5 (Simulation time: 01 hr 54 min 41 sec)
Heartbeat CPU 0 instructions: 260000001 cycles: 72434967 heartbeat IPC: 3.582 cumulative IPC: 3.504 (Simulation time: 01 hr 59 min 19 sec)
Heartbeat CPU 0 instructions: 270000002 cycles: 77840334 heartbeat IPC: 1.85 cumulative IPC: 3.367 (Simulation time: 02 hr 05 min 43 sec)
Heartbeat CPU 0 instructions: 280000000 cycles: 85711571 heartbeat IPC: 1.27 cumulative IPC: 3.142 (Simulation time: 02 hr 13 min 53 sec)
Heartbeat CPU 0 instructions: 290000000 cycles: 92170928 heartbeat IPC: 1.548 cumulative IPC: 3.012 (Simulation time: 02 hr 21 min 14 sec)
Heartbeat CPU 0 instructions: 300000003 cycles: 97107644 heartbeat IPC: 2.026 cumulative IPC: 2.955 (Simulation time: 02 hr 27 min 46 sec)
Heartbeat CPU 0 instructions: 310000001 cycles: 104432381 heartbeat IPC: 1.365 cumulative IPC: 2.828 (Simulation time: 02 hr 35 min 52 sec)
Heartbeat CPU 0 instructions: 320000004 cycles: 108066155 heartbeat IPC: 2.752 cumulative IPC: 2.825 (Simulation time: 02 hr 41 min 20 sec)
Heartbeat CPU 0 instructions: 330000000 cycles: 111201395 heartbeat IPC: 3.19 cumulative IPC: 2.837 (Simulation time: 02 hr 46 min 28 sec)
Heartbeat CPU 0 instructions: 340000001 cycles: 114117045 heartbeat IPC: 3.43 cumulative IPC: 2.854 (Simulation time: 02 hr 51 min 18 sec)
Heartbeat CPU 0 instructions: 350000000 cycles: 117174019 heartbeat IPC: 3.271 cumulative IPC: 2.866 (Simulation time: 02 hr 56 min 14 sec)
Heartbeat CPU 0 instructions: 360000004 cycles: 120060158 heartbeat IPC: 3.465 cumulative IPC: 2.882 (Simulation time: 03 hr 01 min 04 sec)
Heartbeat CPU 0 instructions: 370000001 cycles: 122949556 heartbeat IPC: 3.461 cumulative IPC: 2.897 (Simulation time: 03 hr 05 min 51 sec)
Heartbeat CPU 0 instructions: 380000004 cycles: 125855592 heartbeat IPC: 3.441 cumulative IPC: 2.911 (Simulation time: 03 hr 10 min 41 sec)
Heartbeat CPU 0 instructions: 390000002 cycles: 128811051 heartbeat IPC: 3.384 cumulative IPC: 2.923 (Simulation time: 03 hr 15 min 34 sec)
Heartbeat CPU 0 instructions: 400000000 cycles: 131826364 heartbeat IPC: 3.316 cumulative IPC: 2.933 (Simulation time: 03 hr 20 min 31 sec)
Heartbeat CPU 0 instructions: 410000000 cycles: 136359799 heartbeat IPC: 2.206 cumulative IPC: 2.907 (Simulation time: 03 hr 26 min 32 sec)
Heartbeat CPU 0 instructions: 420000003 cycles: 142297644 heartbeat IPC: 1.684 cumulative IPC: 2.851 (Simulation time: 03 hr 33 min 36 sec)
Heartbeat CPU 0 instructions: 430000000 cycles: 146729985 heartbeat IPC: 2.256 cumulative IPC: 2.831 (Simulation time: 03 hr 39 min 50 sec)
Heartbeat CPU 0 instructions: 440000004 cycles: 150974406 heartbeat IPC: 2.356 cumulative IPC: 2.816 (Simulation time: 03 hr 45 min 50 sec)
Heartbeat CPU 0 instructions: 450000001 cycles: 155258541 heartbeat IPC: 2.334 cumulative IPC: 2.802 (Simulation time: 03 hr 51 min 49 sec)
Heartbeat CPU 0 instructions: 460000002 cycles: 161003564 heartbeat IPC: 1.741 cumulative IPC: 2.761 (Simulation time: 03 hr 58 min 47 sec)
Heartbeat CPU 0 instructions: 470000003 cycles: 166120273 heartbeat IPC: 1.954 cumulative IPC: 2.734 (Simulation time: 04 hr 05 min 19 sec)
Heartbeat CPU 0 instructions: 480000000 cycles: 169237175 heartbeat IPC: 3.208 cumulative IPC: 2.743 (Simulation time: 04 hr 10 min 15 sec)
Heartbeat CPU 0 instructions: 490000001 cycles: 172504816 heartbeat IPC: 3.06 cumulative IPC: 2.75 (Simulation time: 04 hr 15 min 19 sec)
Heartbeat CPU 0 instructions: 500000002 cycles: 175670560 heartbeat IPC: 3.159 cumulative IPC: 2.758 (Simulation time: 04 hr 20 min 22 sec)
Heartbeat CPU 0 instructions: 510000000 cycles: 178834681 heartbeat IPC: 3.16 cumulative IPC: 2.766 (Simulation time: 04 hr 25 min 23 sec)
Heartbeat CPU 0 instructions: 520000000 cycles: 182013242 heartbeat IPC: 3.146 cumulative IPC: 2.773 (Simulation time: 04 hr 30 min 25 sec)
Heartbeat CPU 0 instructions: 530000001 cycles: 188009846 heartbeat IPC: 1.668 cumulative IPC: 2.735 (Simulation time: 04 hr 37 min 26 sec)
Heartbeat CPU 0 instructions: 540000000 cycles: 193627216 heartbeat IPC: 1.78 cumulative IPC: 2.705 (Simulation time: 04 hr 44 min 20 sec)
Heartbeat CPU 0 instructions: 550000004 cycles: 199906626 heartbeat IPC: 1.593 cumulative IPC: 2.668 (Simulation time: 04 hr 51 min 47 sec)
Heartbeat CPU 0 instructions: 560000004 cycles: 203117065 heartbeat IPC: 3.115 cumulative IPC: 2.676 (Simulation time: 04 hr 56 min 42 sec)
Heartbeat CPU 0 instructions: 570000002 cycles: 205908280 heartbeat IPC: 3.583 cumulative IPC: 2.689 (Simulation time: 05 hr 01 min 26 sec)
Heartbeat CPU 0 instructions: 580000000 cycles: 208785145 heartbeat IPC: 3.476 cumulative IPC: 2.7 (Simulation time: 05 hr 06 min 09 sec)
Heartbeat CPU 0 instructions: 590000001 cycles: 211660624 heartbeat IPC: 3.478 cumulative IPC: 2.711 (Simulation time: 05 hr 10 min 53 sec)
Heartbeat CPU 0 instructions: 600000003 cycles: 214316905 heartbeat IPC: 3.765 cumulative IPC: 2.725 (Simulation time: 05 hr 15 min 44 sec)
Heartbeat CPU 0 instructions: 610000001 cycles: 217146898 heartbeat IPC: 3.534 cumulative IPC: 2.736 (Simulation time: 05 hr 20 min 30 sec)
Heartbeat CPU 0 instructions: 620000004 cycles: 220067781 heartbeat IPC: 3.424 cumulative IPC: 2.746 (Simulation time: 05 hr 25 min 18 sec)
Heartbeat CPU 0 instructions: 630000002 cycles: 222853083 heartbeat IPC: 3.59 cumulative IPC: 2.757 (Simulation time: 05 hr 30 min 13 sec)
Heartbeat CPU 0 instructions: 640000004 cycles: 225878303 heartbeat IPC: 3.306 cumulative IPC: 2.765 (Simulation time: 05 hr 35 min 04 sec)
Heartbeat CPU 0 instructions: 650000001 cycles: 228577191 heartbeat IPC: 3.705 cumulative IPC: 2.777 (Simulation time: 05 hr 39 min 44 sec)
Simulation finished CPU 0 instructions: 600000001 cycles: 216077130 cumulative IPC: 2.777 (Simulation time: 05 hr 39 min 44 sec)
Simulation complete CPU 0 instructions: 600000001 cycles: 216077130 cumulative IPC: 2.777 (Simulation time: 05 hr 39 min 44 sec)

ChampSim completed all CPUs

=== Simulation ===
CPU 0 runs traces/400.perlbench-50B.champsimtrace.xz
Region of Interest Statistics

CPU 0 cumulative IPC: 2.777 instructions: 600000001 cycles: 216077130
CPU 0 Branch Prediction Accuracy: 99.01% MPKI: 2.04 Average ROB Occupancy at Mispredict: 93.43
Branch type MPKI
BRANCH_DIRECT_JUMP: 0.0176
BRANCH_INDIRECT: 0.38
BRANCH_CONDITIONAL: 1.19
BRANCH_DIRECT_CALL: 0.0067
BRANCH_INDIRECT_CALL: 0.431
BRANCH_RETURN: 0.0161

LLC TOTAL        ACCESS:    1354709 HIT:    1097838 MISS:     256871
LLC LOAD         ACCESS:     578899 HIT:     464264 MISS:     114635
LLC RFO          ACCESS:      47482 HIT:      36430 MISS:      11052
LLC PREFETCH     ACCESS:     578899 HIT:     457390 MISS:     121509
LLC WRITE        ACCESS:     127334 HIT:     127275 MISS:         59
LLC TRANSLATION  ACCESS:      22095 HIT:      12479 MISS:       9616
LLC PREFETCH REQUESTED:     578899 ISSUED:     578899 USEFUL:      46296 USELESS:      19848
LLC AVERAGE MISS LATENCY: 516.8 cycles
cpu0_DTLB TOTAL        ACCESS:  133233919 HIT:  131880306 MISS:    1353613
cpu0_DTLB LOAD         ACCESS:  133233919 HIT:  131880306 MISS:    1353613
cpu0_DTLB RFO          ACCESS:          0 HIT:          0 MISS:          0
cpu0_DTLB PREFETCH     ACCESS:          0 HIT:          0 MISS:          0
cpu0_DTLB WRITE        ACCESS:          0 HIT:          0 MISS:          0
cpu0_DTLB TRANSLATION  ACCESS:          0 HIT:          0 MISS:          0
cpu0_DTLB PREFETCH REQUESTED:          0 ISSUED:          0 USEFUL:          0 USELESS:          0
cpu0_DTLB AVERAGE MISS LATENCY: 10.03 cycles
cpu0_ITLB TOTAL        ACCESS:    8985170 HIT:    8775660 MISS:     209510
cpu0_ITLB LOAD         ACCESS:    8985170 HIT:    8775660 MISS:     209510
cpu0_ITLB RFO          ACCESS:          0 HIT:          0 MISS:          0
cpu0_ITLB PREFETCH     ACCESS:          0 HIT:          0 MISS:          0
cpu0_ITLB WRITE        ACCESS:          0 HIT:          0 MISS:          0
cpu0_ITLB TRANSLATION  ACCESS:          0 HIT:          0 MISS:          0
cpu0_ITLB PREFETCH REQUESTED:          0 ISSUED:          0 USEFUL:          0 USELESS:          0
cpu0_ITLB AVERAGE MISS LATENCY: 2.52 cycles
cpu0_L1D TOTAL        ACCESS:  178297707 HIT:  174546001 MISS:    3751706
cpu0_L1D LOAD         ACCESS:   92777897 HIT:   89698693 MISS:    3079204
cpu0_L1D RFO          ACCESS:          0 HIT:          0 MISS:          0
cpu0_L1D PREFETCH     ACCESS:          0 HIT:          0 MISS:          0
cpu0_L1D WRITE        ACCESS:   85491275 HIT:   84845887 MISS:     645388
cpu0_L1D TRANSLATION  ACCESS:      28535 HIT:       1421 MISS:      27114
cpu0_L1D PREFETCH REQUESTED:          0 ISSUED:          0 USEFUL:          0 USELESS:          0
cpu0_L1D AVERAGE MISS LATENCY: 26.59 cycles
cpu0_L1I TOTAL        ACCESS:   10505920 HIT:    8607379 MISS:    1898541
cpu0_L1I LOAD         ACCESS:   10505920 HIT:    8607379 MISS:    1898541
cpu0_L1I RFO          ACCESS:          0 HIT:          0 MISS:          0
cpu0_L1I PREFETCH     ACCESS:          0 HIT:          0 MISS:          0
cpu0_L1I WRITE        ACCESS:          0 HIT:          0 MISS:          0
cpu0_L1I TRANSLATION  ACCESS:          0 HIT:          0 MISS:          0
cpu0_L1I PREFETCH REQUESTED:          0 ISSUED:          0 USEFUL:          0 USELESS:          0
cpu0_L1I AVERAGE MISS LATENCY: 8.412 cycles
cpu0_L2C TOTAL        ACCESS:    3840337 HIT:    3188902 MISS:     651435
cpu0_L2C LOAD         ACCESS:    3103841 HIT:    2524942 MISS:     578899
cpu0_L2C RFO          ACCESS:     194851 HIT:     147369 MISS:      47482
cpu0_L2C PREFETCH     ACCESS:          0 HIT:          0 MISS:          0
cpu0_L2C WRITE        ACCESS:     514609 HIT:     511650 MISS:       2959
cpu0_L2C TRANSLATION  ACCESS:      27036 HIT:       4941 MISS:      22095
cpu0_L2C PREFETCH REQUESTED:          0 ISSUED:          0 USEFUL:          0 USELESS:          0
cpu0_L2C AVERAGE MISS LATENCY: 141 cycles
cpu0_STLB TOTAL        ACCESS:    1009858 HIT:     983166 MISS:      26692
cpu0_STLB LOAD         ACCESS:    1009858 HIT:     983166 MISS:      26692
cpu0_STLB RFO          ACCESS:          0 HIT:          0 MISS:          0
cpu0_STLB PREFETCH     ACCESS:          0 HIT:          0 MISS:          0
cpu0_STLB WRITE        ACCESS:          0 HIT:          0 MISS:          0
cpu0_STLB TRANSLATION  ACCESS:          0 HIT:          0 MISS:          0
cpu0_STLB PREFETCH REQUESTED:          0 ISSUED:          0 USEFUL:          0 USELESS:          0
cpu0_STLB AVERAGE MISS LATENCY: 297.1 cycles

DRAM Statistics

Channel 0 RQ ROW_BUFFER_HIT:      58237
  ROW_BUFFER_MISS:     153044
 AVG DBUS CONGESTED CYCLE: 3.847
WQ ROW_BUFFER_HIT: Channel 0 
  ROW_BUFFER_MISS:       3185
  FULL:       7920
