WARNING: physical memory size is smaller than virtual memory size.

*** ChampSim Multicore Out-of-Order Simulator ***
Warmup Instructions: 50000000
Simulation Instructions: 600000000
Number of CPUs: 1
Page size: 4096

Off-chip DRAM Size: 4 GiB Channels: 1 Width: 64-bit Data Race: 3200 MT/s
Heartbeat CPU 0 instructions: 10000001 cycles: 2500318 heartbeat IPC: 3.999 cumulative IPC: 3.999 (Simulation time: 00 hr 03 min 56 sec)
Heartbeat CPU 0 instructions: 20000002 cycles: 5037108 heartbeat IPC: 3.942 cumulative IPC: 3.971 (Simulation time: 00 hr 07 min 38 sec)
Heartbeat CPU 0 instructions: 30000002 cycles: 7537108 heartbeat IPC: 4 cumulative IPC: 3.98 (Simulation time: 00 hr 11 min 01 sec)
Heartbeat CPU 0 instructions: 40000002 cycles: 10037108 heartbeat IPC: 4 cumulative IPC: 3.985 (Simulation time: 00 hr 14 min 35 sec)
Heartbeat CPU 0 instructions: 50000002 cycles: 12537108 heartbeat IPC: 4 cumulative IPC: 3.988 (Simulation time: 00 hr 18 min 10 sec)
Warmup finished CPU 0 instructions: 50000002 cycles: 12537109 cumulative IPC: 3.988 (Simulation time: 00 hr 18 min 10 sec)
Warmup complete CPU 0 instructions: 50000002 cycles: 12537109 cumulative IPC: 3.988 (Simulation time: 00 hr 18 min 10 sec)
Heartbeat CPU 0 instructions: 60000001 cycles: 15668769 heartbeat IPC: 3.193 cumulative IPC: 3.193 (Simulation time: 00 hr 22 min 32 sec)
Heartbeat CPU 0 instructions: 70000004 cycles: 18829852 heartbeat IPC: 3.163 cumulative IPC: 3.178 (Simulation time: 00 hr 26 min 58 sec)
Heartbeat CPU 0 instructions: 80000001 cycles: 21988307 heartbeat IPC: 3.166 cumulative IPC: 3.174 (Simulation time: 00 hr 31 min 22 sec)
Heartbeat CPU 0 instructions: 90000001 cycles: 25017885 heartbeat IPC: 3.301 cumulative IPC: 3.205 (Simulation time: 00 hr 35 min 44 sec)
Heartbeat CPU 0 instructions: 100000000 cycles: 28033278 heartbeat IPC: 3.316 cumulative IPC: 3.227 (Simulation time: 00 hr 40 min 05 sec)
Heartbeat CPU 0 instructions: 110000000 cycles: 31070587 heartbeat IPC: 3.292 cumulative IPC: 3.237 (Simulation time: 00 hr 44 min 27 sec)
Heartbeat CPU 0 instructions: 120000001 cycles: 34130726 heartbeat IPC: 3.268 cumulative IPC: 3.242 (Simulation time: 00 hr 48 min 51 sec)
Heartbeat CPU 0 instructions: 130000001 cycles: 37037657 heartbeat IPC: 3.44 cumulative IPC: 3.265 (Simulation time: 00 hr 53 min 14 sec)
Heartbeat CPU 0 instructions: 140000001 cycles: 40154741 heartbeat IPC: 3.208 cumulative IPC: 3.259 (Simulation time: 00 hr 57 min 40 sec)
Heartbeat CPU 0 instructions: 150000001 cycles: 43268871 heartbeat IPC: 3.211 cumulative IPC: 3.254 (Simulation time: 01 hr 02 min 05 sec)
Heartbeat CPU 0 instructions: 160000004 cycles: 46389680 heartbeat IPC: 3.204 cumulative IPC: 3.249 (Simulation time: 01 hr 06 min 29 sec)
Heartbeat CPU 0 instructions: 170000000 cycles: 52088237 heartbeat IPC: 1.755 cumulative IPC: 3.034 (Simulation time: 01 hr 12 min 43 sec)
Heartbeat CPU 0 instructions: 180000004 cycles: 56875806 heartbeat IPC: 2.089 cumulative IPC: 2.932 (Simulation time: 01 hr 18 min 33 sec)
Heartbeat CPU 0 instructions: 190000001 cycles: 61165442 heartbeat IPC: 2.331 cumulative IPC: 2.879 (Simulation time: 01 hr 24 min 01 sec)
Heartbeat CPU 0 instructions: 200000004 cycles: 64001362 heartbeat IPC: 3.526 cumulative IPC: 2.915 (Simulation time: 01 hr 28 min 14 sec)
Heartbeat CPU 0 instructions: 210000001 cycles: 66889532 heartbeat IPC: 3.462 cumulative IPC: 2.944 (Simulation time: 01 hr 32 min 32 sec)
Heartbeat CPU 0 instructions: 220000000 cycles: 69764100 heartbeat IPC: 3.479 cumulative IPC: 2.971 (Simulation time: 01 hr 36 min 46 sec)
Heartbeat CPU 0 instructions: 230000004 cycles: 72620381 heartbeat IPC: 3.501 cumulative IPC: 2.996 (Simulation time: 01 hr 41 min 10 sec)
Heartbeat CPU 0 instructions: 240000002 cycles: 75543822 heartbeat IPC: 3.421 cumulative IPC: 3.016 (Simulation time: 01 hr 45 min 33 sec)
Heartbeat CPU 0 instructions: 250000000 cycles: 78420209 heartbeat IPC: 3.477 cumulative IPC: 3.036 (Simulation time: 01 hr 49 min 49 sec)
Heartbeat CPU 0 instructions: 260000002 cycles: 81251050 heartbeat IPC: 3.533 cumulative IPC: 3.056 (Simulation time: 01 hr 54 min 03 sec)
Heartbeat CPU 0 instructions: 270000002 cycles: 84085104 heartbeat IPC: 3.529 cumulative IPC: 3.075 (Simulation time: 01 hr 58 min 16 sec)
Heartbeat CPU 0 instructions: 280000002 cycles: 86884384 heartbeat IPC: 3.572 cumulative IPC: 3.094 (Simulation time: 02 hr 02 min 28 sec)
Heartbeat CPU 0 instructions: 290000002 cycles: 89780268 heartbeat IPC: 3.453 cumulative IPC: 3.107 (Simulation time: 02 hr 06 min 47 sec)
Heartbeat CPU 0 instructions: 300000003 cycles: 92515408 heartbeat IPC: 3.656 cumulative IPC: 3.126 (Simulation time: 02 hr 11 min 02 sec)
Heartbeat CPU 0 instructions: 310000001 cycles: 95373557 heartbeat IPC: 3.499 cumulative IPC: 3.139 (Simulation time: 02 hr 15 min 30 sec)
Heartbeat CPU 0 instructions: 320000003 cycles: 98297091 heartbeat IPC: 3.421 cumulative IPC: 3.148 (Simulation time: 02 hr 19 min 45 sec)
Heartbeat CPU 0 instructions: 330000003 cycles: 101149267 heartbeat IPC: 3.506 cumulative IPC: 3.16 (Simulation time: 02 hr 24 min 00 sec)
Heartbeat CPU 0 instructions: 340000000 cycles: 105662827 heartbeat IPC: 2.216 cumulative IPC: 3.114 (Simulation time: 02 hr 29 min 33 sec)
Heartbeat CPU 0 instructions: 350000000 cycles: 110459851 heartbeat IPC: 2.085 cumulative IPC: 3.064 (Simulation time: 02 hr 35 min 23 sec)
Heartbeat CPU 0 instructions: 360000004 cycles: 114941701 heartbeat IPC: 2.231 cumulative IPC: 3.027 (Simulation time: 02 hr 41 min 00 sec)
Heartbeat CPU 0 instructions: 370000000 cycles: 117779801 heartbeat IPC: 3.523 cumulative IPC: 3.041 (Simulation time: 02 hr 45 min 16 sec)
Heartbeat CPU 0 instructions: 380000001 cycles: 120603501 heartbeat IPC: 3.541 cumulative IPC: 3.054 (Simulation time: 02 hr 49 min 35 sec)
Heartbeat CPU 0 instructions: 390000002 cycles: 123542260 heartbeat IPC: 3.403 cumulative IPC: 3.063 (Simulation time: 02 hr 54 min 04 sec)
Heartbeat CPU 0 instructions: 400000004 cycles: 126428231 heartbeat IPC: 3.465 cumulative IPC: 3.073 (Simulation time: 02 hr 58 min 24 sec)
Heartbeat CPU 0 instructions: 410000001 cycles: 129305256 heartbeat IPC: 3.476 cumulative IPC: 3.083 (Simulation time: 03 hr 02 min 38 sec)
Heartbeat CPU 0 instructions: 420000002 cycles: 132291686 heartbeat IPC: 3.348 cumulative IPC: 3.09 (Simulation time: 03 hr 06 min 56 sec)
Heartbeat CPU 0 instructions: 430000001 cycles: 135199564 heartbeat IPC: 3.439 cumulative IPC: 3.098 (Simulation time: 03 hr 11 min 19 sec)
Heartbeat CPU 0 instructions: 440000004 cycles: 138244118 heartbeat IPC: 3.285 cumulative IPC: 3.102 (Simulation time: 03 hr 15 min 41 sec)
Heartbeat CPU 0 instructions: 450000002 cycles: 141053871 heartbeat IPC: 3.559 cumulative IPC: 3.112 (Simulation time: 03 hr 19 min 56 sec)
Heartbeat CPU 0 instructions: 460000000 cycles: 143922814 heartbeat IPC: 3.486 cumulative IPC: 3.121 (Simulation time: 03 hr 24 min 12 sec)
Heartbeat CPU 0 instructions: 470000001 cycles: 146699778 heartbeat IPC: 3.601 cumulative IPC: 3.131 (Simulation time: 03 hr 28 min 25 sec)
Heartbeat CPU 0 instructions: 480000003 cycles: 149668985 heartbeat IPC: 3.368 cumulative IPC: 3.136 (Simulation time: 03 hr 32 min 51 sec)
Heartbeat CPU 0 instructions: 490000004 cycles: 152454990 heartbeat IPC: 3.589 cumulative IPC: 3.145 (Simulation time: 03 hr 37 min 04 sec)
Heartbeat CPU 0 instructions: 500000004 cycles: 155400902 heartbeat IPC: 3.395 cumulative IPC: 3.15 (Simulation time: 03 hr 41 min 22 sec)
Heartbeat CPU 0 instructions: 510000003 cycles: 158304865 heartbeat IPC: 3.444 cumulative IPC: 3.156 (Simulation time: 03 hr 45 min 44 sec)
Heartbeat CPU 0 instructions: 520000001 cycles: 161090545 heartbeat IPC: 3.59 cumulative IPC: 3.164 (Simulation time: 03 hr 50 min 02 sec)
Heartbeat CPU 0 instructions: 530000001 cycles: 164003692 heartbeat IPC: 3.433 cumulative IPC: 3.169 (Simulation time: 03 hr 54 min 20 sec)
Heartbeat CPU 0 instructions: 540000001 cycles: 166894981 heartbeat IPC: 3.459 cumulative IPC: 3.174 (Simulation time: 03 hr 58 min 36 sec)
Heartbeat CPU 0 instructions: 550000001 cycles: 169851666 heartbeat IPC: 3.382 cumulative IPC: 3.178 (Simulation time: 04 hr 02 min 56 sec)
Heartbeat CPU 0 instructions: 560000004 cycles: 172837721 heartbeat IPC: 3.349 cumulative IPC: 3.182 (Simulation time: 04 hr 07 min 16 sec)
Heartbeat CPU 0 instructions: 570000004 cycles: 176560684 heartbeat IPC: 2.686 cumulative IPC: 3.17 (Simulation time: 04 hr 12 min 10 sec)
Heartbeat CPU 0 instructions: 580000003 cycles: 181202812 heartbeat IPC: 2.154 cumulative IPC: 3.142 (Simulation time: 04 hr 17 min 58 sec)
Heartbeat CPU 0 instructions: 590000002 cycles: 186146556 heartbeat IPC: 2.023 cumulative IPC: 3.11 (Simulation time: 04 hr 23 min 56 sec)
Heartbeat CPU 0 instructions: 600000000 cycles: 189047062 heartbeat IPC: 3.448 cumulative IPC: 3.116 (Simulation time: 04 hr 28 min 15 sec)
Heartbeat CPU 0 instructions: 610000002 cycles: 191932096 heartbeat IPC: 3.466 cumulative IPC: 3.122 (Simulation time: 04 hr 32 min 31 sec)
Heartbeat CPU 0 instructions: 620000001 cycles: 194696121 heartbeat IPC: 3.618 cumulative IPC: 3.129 (Simulation time: 04 hr 36 min 45 sec)
Heartbeat CPU 0 instructions: 630000002 cycles: 197673219 heartbeat IPC: 3.359 cumulative IPC: 3.133 (Simulation time: 04 hr 41 min 05 sec)
Heartbeat CPU 0 instructions: 640000004 cycles: 200624343 heartbeat IPC: 3.389 cumulative IPC: 3.137 (Simulation time: 04 hr 45 min 26 sec)
Heartbeat CPU 0 instructions: 650000000 cycles: 203401097 heartbeat IPC: 3.601 cumulative IPC: 3.144 (Simulation time: 04 hr 49 min 51 sec)
Simulation finished CPU 0 instructions: 600000001 cycles: 190863990 cumulative IPC: 3.144 (Simulation time: 04 hr 49 min 51 sec)
Simulation complete CPU 0 instructions: 600000001 cycles: 190863990 cumulative IPC: 3.144 (Simulation time: 04 hr 49 min 51 sec)

ChampSim completed all CPUs

=== Simulation ===
CPU 0 runs traces/400.perlbench-41B.champsimtrace.xz
Region of Interest Statistics

CPU 0 cumulative IPC: 3.144 instructions: 600000001 cycles: 190863990
CPU 0 Branch Prediction Accuracy: 98.9% MPKI: 2.275 Average ROB Occupancy at Mispredict: 90.05
Branch type MPKI
BRANCH_DIRECT_JUMP: 0.0123
BRANCH_INDIRECT: 0.323
BRANCH_CONDITIONAL: 1.73
BRANCH_DIRECT_CALL: 0.0043
BRANCH_INDIRECT_CALL: 0.2
BRANCH_RETURN: 0.00828

LLC TOTAL        ACCESS:     594106 HIT:     547986 MISS:      46120
LLC LOAD         ACCESS:     403655 HIT:     372527 MISS:      31128
LLC RFO          ACCESS:      32580 HIT:      28549 MISS:       4031
LLC PREFETCH     ACCESS:      53077 HIT:      48817 MISS:       4260
LLC WRITE        ACCESS:      85690 HIT:      85592 MISS:         98
LLC TRANSLATION  ACCESS:      19104 HIT:      12501 MISS:       6603
LLC PREFETCH REQUESTED:      53077 ISSUED:      53077 USEFUL:       2549 USELESS:        127
LLC AVERAGE MISS LATENCY: 566.2 cycles
cpu0_DTLB TOTAL        ACCESS:  131068371 HIT:  130369178 MISS:     699193
cpu0_DTLB LOAD         ACCESS:  131068371 HIT:  130369178 MISS:     699193
cpu0_DTLB RFO          ACCESS:          0 HIT:          0 MISS:          0
cpu0_DTLB PREFETCH     ACCESS:          0 HIT:          0 MISS:          0
cpu0_DTLB WRITE        ACCESS:          0 HIT:          0 MISS:          0
cpu0_DTLB TRANSLATION  ACCESS:          0 HIT:          0 MISS:          0
cpu0_DTLB PREFETCH REQUESTED:          0 ISSUED:          0 USEFUL:          0 USELESS:          0
cpu0_DTLB AVERAGE MISS LATENCY: 10.11 cycles
cpu0_ITLB TOTAL        ACCESS:    4849460 HIT:    4788626 MISS:      60834
cpu0_ITLB LOAD         ACCESS:    4849460 HIT:    4788626 MISS:      60834
cpu0_ITLB RFO          ACCESS:          0 HIT:          0 MISS:          0
cpu0_ITLB PREFETCH     ACCESS:          0 HIT:          0 MISS:          0
cpu0_ITLB WRITE        ACCESS:          0 HIT:          0 MISS:          0
cpu0_ITLB TRANSLATION  ACCESS:          0 HIT:          0 MISS:          0
cpu0_ITLB PREFETCH REQUESTED:          0 ISSUED:          0 USEFUL:          0 USELESS:          0
cpu0_ITLB AVERAGE MISS LATENCY: 3.972 cycles
cpu0_L1D TOTAL        ACCESS:  176749712 HIT:  175030064 MISS:    1719648
cpu0_L1D LOAD         ACCESS:   93672300 HIT:   92330341 MISS:    1341959
cpu0_L1D RFO          ACCESS:          0 HIT:          0 MISS:          0
cpu0_L1D PREFETCH     ACCESS:          0 HIT:          0 MISS:          0
cpu0_L1D WRITE        ACCESS:   83052945 HIT:   82698659 MISS:     354286
cpu0_L1D TRANSLATION  ACCESS:      24467 HIT:       1064 MISS:      23403
cpu0_L1D PREFETCH REQUESTED:          0 ISSUED:          0 USEFUL:          0 USELESS:          0
cpu0_L1D AVERAGE MISS LATENCY: 21.13 cycles
cpu0_L1I TOTAL        ACCESS:    5627320 HIT:    4828559 MISS:     798761
cpu0_L1I LOAD         ACCESS:    5627320 HIT:    4828559 MISS:     798761
cpu0_L1I RFO          ACCESS:          0 HIT:          0 MISS:          0
cpu0_L1I PREFETCH     ACCESS:          0 HIT:          0 MISS:          0
cpu0_L1I WRITE        ACCESS:          0 HIT:          0 MISS:          0
cpu0_L1I TRANSLATION  ACCESS:          0 HIT:          0 MISS:          0
cpu0_L1I PREFETCH REQUESTED:          0 ISSUED:          0 USEFUL:          0 USELESS:          0
cpu0_L1I AVERAGE MISS LATENCY: 8.1 cycles
cpu0_L2C TOTAL        ACCESS:    1668438 HIT:    1211303 MISS:     457135
cpu0_L2C LOAD         ACCESS:    1315458 HIT:     911803 MISS:     403655
cpu0_L2C RFO          ACCESS:      89454 HIT:      56874 MISS:      32580
cpu0_L2C PREFETCH     ACCESS:          0 HIT:          0 MISS:          0
cpu0_L2C WRITE        ACCESS:     240207 HIT:     238411 MISS:       1796
cpu0_L2C TRANSLATION  ACCESS:      23319 HIT:       4215 MISS:      19104
cpu0_L2C PREFETCH REQUESTED:          0 ISSUED:          0 USEFUL:          0 USELESS:          0
cpu0_L2C AVERAGE MISS LATENCY: 70.91 cycles
cpu0_STLB TOTAL        ACCESS:     507460 HIT:     484675 MISS:      22785
cpu0_STLB LOAD         ACCESS:     507460 HIT:     484675 MISS:      22785
cpu0_STLB RFO          ACCESS:          0 HIT:          0 MISS:          0
cpu0_STLB PREFETCH     ACCESS:          0 HIT:          0 MISS:          0
cpu0_STLB WRITE        ACCESS:          0 HIT:          0 MISS:          0
cpu0_STLB TRANSLATION  ACCESS:          0 HIT:          0 MISS:          0
cpu0_STLB PREFETCH REQUESTED:          0 ISSUED:          0 USEFUL:          0 USELESS:          0
cpu0_STLB AVERAGE MISS LATENCY: 183.2 cycles

DRAM Statistics

Channel 0 RQ ROW_BUFFER_HIT:      13497
  ROW_BUFFER_MISS:      31887
 AVG DBUS CONGESTED CYCLE: 3.786
WQ ROW_BUFFER_HIT: Channel 0 
  ROW_BUFFER_MISS:        254
  FULL:        550
