WARNING: physical memory size is smaller than virtual memory size.

*** ChampSim Multicore Out-of-Order Simulator ***
Warmup Instructions: 50000000
Simulation Instructions: 600000000
Number of CPUs: 1
Page size: 4096

Off-chip DRAM Size: 4 GiB Channels: 1 Width: 64-bit Data Race: 3200 MT/s
Heartbeat CPU 0 instructions: 10000001 cycles: 2500318 heartbeat IPC: 3.999 cumulative IPC: 3.999 (Simulation time: 00 hr 00 min 36 sec)
Heartbeat CPU 0 instructions: 20000002 cycles: 5037128 heartbeat IPC: 3.942 cumulative IPC: 3.971 (Simulation time: 00 hr 01 min 14 sec)
Heartbeat CPU 0 instructions: 30000002 cycles: 7537128 heartbeat IPC: 4 cumulative IPC: 3.98 (Simulation time: 00 hr 01 min 49 sec)
Heartbeat CPU 0 instructions: 40000002 cycles: 10037128 heartbeat IPC: 4 cumulative IPC: 3.985 (Simulation time: 00 hr 02 min 24 sec)
Heartbeat CPU 0 instructions: 50000002 cycles: 12537128 heartbeat IPC: 4 cumulative IPC: 3.988 (Simulation time: 00 hr 02 min 56 sec)
Warmup finished CPU 0 instructions: 50000002 cycles: 12537129 cumulative IPC: 3.988 (Simulation time: 00 hr 02 min 56 sec)
Warmup complete CPU 0 instructions: 50000002 cycles: 12537129 cumulative IPC: 3.988 (Simulation time: 00 hr 02 min 56 sec)
Heartbeat CPU 0 instructions: 60000000 cycles: 17692744 heartbeat IPC: 1.94 cumulative IPC: 1.94 (Simulation time: 00 hr 03 min 46 sec)
Heartbeat CPU 0 instructions: 70000002 cycles: 22578853 heartbeat IPC: 2.047 cumulative IPC: 1.992 (Simulation time: 00 hr 04 min 38 sec)
Heartbeat CPU 0 instructions: 80000001 cycles: 27934579 heartbeat IPC: 1.867 cumulative IPC: 1.948 (Simulation time: 00 hr 05 min 32 sec)
Heartbeat CPU 0 instructions: 90000001 cycles: 32807838 heartbeat IPC: 2.052 cumulative IPC: 1.973 (Simulation time: 00 hr 06 min 20 sec)
Heartbeat CPU 0 instructions: 100000000 cycles: 37910416 heartbeat IPC: 1.96 cumulative IPC: 1.971 (Simulation time: 00 hr 07 min 09 sec)
Heartbeat CPU 0 instructions: 110000000 cycles: 42792572 heartbeat IPC: 2.048 cumulative IPC: 1.983 (Simulation time: 00 hr 07 min 56 sec)
Heartbeat CPU 0 instructions: 120000001 cycles: 47980992 heartbeat IPC: 1.927 cumulative IPC: 1.975 (Simulation time: 00 hr 08 min 44 sec)
Heartbeat CPU 0 instructions: 130000001 cycles: 53127011 heartbeat IPC: 1.943 cumulative IPC: 1.971 (Simulation time: 00 hr 09 min 33 sec)
Heartbeat CPU 0 instructions: 140000001 cycles: 58422846 heartbeat IPC: 1.888 cumulative IPC: 1.961 (Simulation time: 00 hr 10 min 21 sec)
Heartbeat CPU 0 instructions: 150000001 cycles: 63720989 heartbeat IPC: 1.887 cumulative IPC: 1.954 (Simulation time: 00 hr 11 min 10 sec)
Heartbeat CPU 0 instructions: 160000004 cycles: 68904123 heartbeat IPC: 1.929 cumulative IPC: 1.951 (Simulation time: 00 hr 11 min 58 sec)
Heartbeat CPU 0 instructions: 170000000 cycles: 76607346 heartbeat IPC: 1.298 cumulative IPC: 1.873 (Simulation time: 00 hr 13 min 01 sec)
Heartbeat CPU 0 instructions: 180000004 cycles: 83150040 heartbeat IPC: 1.528 cumulative IPC: 1.841 (Simulation time: 00 hr 14 min 00 sec)
Heartbeat CPU 0 instructions: 190000001 cycles: 89424117 heartbeat IPC: 1.594 cumulative IPC: 1.821 (Simulation time: 00 hr 15 min 01 sec)
Heartbeat CPU 0 instructions: 200000003 cycles: 93905679 heartbeat IPC: 2.231 cumulative IPC: 1.843 (Simulation time: 00 hr 15 min 49 sec)
Heartbeat CPU 0 instructions: 210000001 cycles: 98611079 heartbeat IPC: 2.125 cumulative IPC: 1.859 (Simulation time: 00 hr 16 min 39 sec)
Heartbeat CPU 0 instructions: 220000000 cycles: 103310409 heartbeat IPC: 2.128 cumulative IPC: 1.873 (Simulation time: 00 hr 17 min 29 sec)
Heartbeat CPU 0 instructions: 230000002 cycles: 108183908 heartbeat IPC: 2.052 cumulative IPC: 1.882 (Simulation time: 00 hr 18 min 18 sec)
Heartbeat CPU 0 instructions: 240000000 cycles: 112753789 heartbeat IPC: 2.188 cumulative IPC: 1.896 (Simulation time: 00 hr 19 min 08 sec)
Heartbeat CPU 0 instructions: 250000000 cycles: 117576613 heartbeat IPC: 2.073 cumulative IPC: 1.904 (Simulation time: 00 hr 19 min 58 sec)
Heartbeat CPU 0 instructions: 260000000 cycles: 122272780 heartbeat IPC: 2.129 cumulative IPC: 1.914 (Simulation time: 00 hr 20 min 46 sec)
Heartbeat CPU 0 instructions: 270000002 cycles: 126932671 heartbeat IPC: 2.146 cumulative IPC: 1.923 (Simulation time: 00 hr 21 min 33 sec)
Heartbeat CPU 0 instructions: 280000002 cycles: 131593013 heartbeat IPC: 2.146 cumulative IPC: 1.932 (Simulation time: 00 hr 22 min 19 sec)
Heartbeat CPU 0 instructions: 290000001 cycles: 136755946 heartbeat IPC: 1.937 cumulative IPC: 1.932 (Simulation time: 00 hr 23 min 08 sec)
Heartbeat CPU 0 instructions: 300000003 cycles: 141494939 heartbeat IPC: 2.11 cumulative IPC: 1.939 (Simulation time: 00 hr 23 min 55 sec)
Heartbeat CPU 0 instructions: 310000001 cycles: 146429696 heartbeat IPC: 2.026 cumulative IPC: 1.942 (Simulation time: 00 hr 24 min 45 sec)
Heartbeat CPU 0 instructions: 320000003 cycles: 151363113 heartbeat IPC: 2.027 cumulative IPC: 1.945 (Simulation time: 00 hr 25 min 35 sec)
Heartbeat CPU 0 instructions: 330000003 cycles: 156269932 heartbeat IPC: 2.038 cumulative IPC: 1.948 (Simulation time: 00 hr 26 min 24 sec)
Heartbeat CPU 0 instructions: 340000000 cycles: 162572295 heartbeat IPC: 1.587 cumulative IPC: 1.933 (Simulation time: 00 hr 27 min 24 sec)
Heartbeat CPU 0 instructions: 350000000 cycles: 169253243 heartbeat IPC: 1.497 cumulative IPC: 1.914 (Simulation time: 00 hr 28 min 28 sec)
Heartbeat CPU 0 instructions: 360000004 cycles: 175765761 heartbeat IPC: 1.536 cumulative IPC: 1.899 (Simulation time: 00 hr 29 min 30 sec)
Heartbeat CPU 0 instructions: 370000000 cycles: 179965784 heartbeat IPC: 2.381 cumulative IPC: 1.911 (Simulation time: 00 hr 30 min 16 sec)
Heartbeat CPU 0 instructions: 380000001 cycles: 184682867 heartbeat IPC: 2.12 cumulative IPC: 1.917 (Simulation time: 00 hr 31 min 06 sec)
Heartbeat CPU 0 instructions: 390000002 cycles: 189366228 heartbeat IPC: 2.135 cumulative IPC: 1.923 (Simulation time: 00 hr 31 min 55 sec)
Heartbeat CPU 0 instructions: 400000004 cycles: 194210361 heartbeat IPC: 2.064 cumulative IPC: 1.927 (Simulation time: 00 hr 32 min 46 sec)
Heartbeat CPU 0 instructions: 410000000 cycles: 198703565 heartbeat IPC: 2.226 cumulative IPC: 1.934 (Simulation time: 00 hr 33 min 33 sec)
Heartbeat CPU 0 instructions: 420000000 cycles: 203485831 heartbeat IPC: 2.091 cumulative IPC: 1.938 (Simulation time: 00 hr 34 min 23 sec)
Heartbeat CPU 0 instructions: 430000001 cycles: 207768509 heartbeat IPC: 2.335 cumulative IPC: 1.946 (Simulation time: 00 hr 35 min 10 sec)
Heartbeat CPU 0 instructions: 440000000 cycles: 212844734 heartbeat IPC: 1.97 cumulative IPC: 1.947 (Simulation time: 00 hr 36 min 01 sec)
Heartbeat CPU 0 instructions: 450000002 cycles: 217268523 heartbeat IPC: 2.261 cumulative IPC: 1.954 (Simulation time: 00 hr 36 min 48 sec)
Heartbeat CPU 0 instructions: 460000000 cycles: 221851132 heartbeat IPC: 2.182 cumulative IPC: 1.959 (Simulation time: 00 hr 37 min 37 sec)
Heartbeat CPU 0 instructions: 470000000 cycles: 226639040 heartbeat IPC: 2.089 cumulative IPC: 1.962 (Simulation time: 00 hr 38 min 27 sec)
Heartbeat CPU 0 instructions: 480000003 cycles: 231201848 heartbeat IPC: 2.192 cumulative IPC: 1.966 (Simulation time: 00 hr 39 min 14 sec)
Heartbeat CPU 0 instructions: 490000000 cycles: 235665442 heartbeat IPC: 2.24 cumulative IPC: 1.972 (Simulation time: 00 hr 40 min 02 sec)
Heartbeat CPU 0 instructions: 500000000 cycles: 240543015 heartbeat IPC: 2.05 cumulative IPC: 1.974 (Simulation time: 00 hr 40 min 53 sec)
Heartbeat CPU 0 instructions: 510000003 cycles: 245931196 heartbeat IPC: 1.856 cumulative IPC: 1.971 (Simulation time: 00 hr 41 min 46 sec)
Heartbeat CPU 0 instructions: 520000001 cycles: 250362634 heartbeat IPC: 2.257 cumulative IPC: 1.976 (Simulation time: 00 hr 42 min 34 sec)
Heartbeat CPU 0 instructions: 530000002 cycles: 255295215 heartbeat IPC: 2.027 cumulative IPC: 1.977 (Simulation time: 00 hr 43 min 25 sec)
Heartbeat CPU 0 instructions: 540000000 cycles: 260198382 heartbeat IPC: 2.039 cumulative IPC: 1.979 (Simulation time: 00 hr 44 min 15 sec)
Heartbeat CPU 0 instructions: 550000001 cycles: 264830832 heartbeat IPC: 2.159 cumulative IPC: 1.982 (Simulation time: 00 hr 45 min 05 sec)
Heartbeat CPU 0 instructions: 560000000 cycles: 269730442 heartbeat IPC: 2.041 cumulative IPC: 1.983 (Simulation time: 00 hr 45 min 56 sec)
Heartbeat CPU 0 instructions: 570000004 cycles: 275029056 heartbeat IPC: 1.887 cumulative IPC: 1.981 (Simulation time: 00 hr 46 min 52 sec)
Heartbeat CPU 0 instructions: 580000003 cycles: 281852204 heartbeat IPC: 1.466 cumulative IPC: 1.968 (Simulation time: 00 hr 47 min 56 sec)
Heartbeat CPU 0 instructions: 590000002 cycles: 288964611 heartbeat IPC: 1.406 cumulative IPC: 1.953 (Simulation time: 00 hr 49 min 04 sec)
Heartbeat CPU 0 instructions: 600000000 cycles: 293294837 heartbeat IPC: 2.309 cumulative IPC: 1.959 (Simulation time: 00 hr 49 min 54 sec)
Heartbeat CPU 0 instructions: 610000002 cycles: 297595088 heartbeat IPC: 2.325 cumulative IPC: 1.965 (Simulation time: 00 hr 50 min 43 sec)
Heartbeat CPU 0 instructions: 620000000 cycles: 302295424 heartbeat IPC: 2.128 cumulative IPC: 1.967 (Simulation time: 00 hr 51 min 37 sec)
Heartbeat CPU 0 instructions: 630000002 cycles: 307215141 heartbeat IPC: 2.033 cumulative IPC: 1.968 (Simulation time: 00 hr 52 min 30 sec)
Heartbeat CPU 0 instructions: 640000001 cycles: 311996056 heartbeat IPC: 2.092 cumulative IPC: 1.97 (Simulation time: 00 hr 53 min 23 sec)
Heartbeat CPU 0 instructions: 650000000 cycles: 316486018 heartbeat IPC: 2.227 cumulative IPC: 1.974 (Simulation time: 00 hr 54 min 14 sec)
Simulation finished CPU 0 instructions: 600000001 cycles: 303948891 cumulative IPC: 1.974 (Simulation time: 00 hr 54 min 14 sec)
Simulation complete CPU 0 instructions: 600000001 cycles: 303948891 cumulative IPC: 1.974 (Simulation time: 00 hr 54 min 14 sec)

ChampSim completed all CPUs

=== Simulation ===
CPU 0 runs traces/400.perlbench-41B.champsimtrace.xz
Region of Interest Statistics

CPU 0 cumulative IPC: 1.974 instructions: 600000001 cycles: 303948891
CPU 0 Branch Prediction Accuracy: 93.95% MPKI: 12.5 Average ROB Occupancy at Mispredict: 29.27
Branch type MPKI
BRANCH_DIRECT_JUMP: 0.0123
BRANCH_INDIRECT: 0.323
BRANCH_CONDITIONAL: 12
BRANCH_DIRECT_CALL: 0.0043
BRANCH_INDIRECT_CALL: 0.2
BRANCH_RETURN: 0.00828

LLC TOTAL        ACCESS:     541379 HIT:     492816 MISS:      48563
LLC LOAD         ACCESS:     403743 HIT:     365668 MISS:      38075
LLC RFO          ACCESS:      32587 HIT:      28670 MISS:       3917
LLC PREFETCH     ACCESS:          0 HIT:          0 MISS:          0
LLC WRITE        ACCESS:      85846 HIT:      85839 MISS:          7
LLC TRANSLATION  ACCESS:      19203 HIT:      12639 MISS:       6564
LLC PREFETCH REQUESTED:          0 ISSUED:          0 USEFUL:          0 USELESS:          0
LLC AVERAGE MISS LATENCY: 474.5 cycles
cpu0_DTLB TOTAL        ACCESS:  153696443 HIT:  153019722 MISS:     676721
cpu0_DTLB LOAD         ACCESS:  153696443 HIT:  153019722 MISS:     676721
cpu0_DTLB RFO          ACCESS:          0 HIT:          0 MISS:          0
cpu0_DTLB PREFETCH     ACCESS:          0 HIT:          0 MISS:          0
cpu0_DTLB WRITE        ACCESS:          0 HIT:          0 MISS:          0
cpu0_DTLB TRANSLATION  ACCESS:          0 HIT:          0 MISS:          0
cpu0_DTLB PREFETCH REQUESTED:          0 ISSUED:          0 USEFUL:          0 USELESS:          0
cpu0_DTLB AVERAGE MISS LATENCY: 10.64 cycles
cpu0_ITLB TOTAL        ACCESS:    4838919 HIT:    4781067 MISS:      57852
cpu0_ITLB LOAD         ACCESS:    4838919 HIT:    4781067 MISS:      57852
cpu0_ITLB RFO          ACCESS:          0 HIT:          0 MISS:          0
cpu0_ITLB PREFETCH     ACCESS:          0 HIT:          0 MISS:          0
cpu0_ITLB WRITE        ACCESS:          0 HIT:          0 MISS:          0
cpu0_ITLB TRANSLATION  ACCESS:          0 HIT:          0 MISS:          0
cpu0_ITLB PREFETCH REQUESTED:          0 ISSUED:          0 USEFUL:          0 USELESS:          0
cpu0_ITLB AVERAGE MISS LATENCY: 4.363 cycles
cpu0_L1D TOTAL        ACCESS:  200327793 HIT:  198647447 MISS:    1680346
cpu0_L1D LOAD         ACCESS:  117084793 HIT:  115770955 MISS:    1313838
cpu0_L1D RFO          ACCESS:          0 HIT:          0 MISS:          0
cpu0_L1D PREFETCH     ACCESS:          0 HIT:          0 MISS:          0
cpu0_L1D WRITE        ACCESS:   83218532 HIT:   82875448 MISS:     343084
cpu0_L1D TRANSLATION  ACCESS:      24468 HIT:       1044 MISS:      23424
cpu0_L1D PREFETCH REQUESTED:          0 ISSUED:          0 USEFUL:          0 USELESS:          0
cpu0_L1D AVERAGE MISS LATENCY: 22.19 cycles
cpu0_L1I TOTAL        ACCESS:    5581207 HIT:    4819672 MISS:     761535
cpu0_L1I LOAD         ACCESS:    5581207 HIT:    4819672 MISS:     761535
cpu0_L1I RFO          ACCESS:          0 HIT:          0 MISS:          0
cpu0_L1I PREFETCH     ACCESS:          0 HIT:          0 MISS:          0
cpu0_L1I WRITE        ACCESS:          0 HIT:          0 MISS:          0
cpu0_L1I TRANSLATION  ACCESS:          0 HIT:          0 MISS:          0
cpu0_L1I PREFETCH REQUESTED:          0 ISSUED:          0 USEFUL:          0 USELESS:          0
cpu0_L1I AVERAGE MISS LATENCY: 8.723 cycles
cpu0_L2C TOTAL        ACCESS:    1668196 HIT:    1210853 MISS:     457343
cpu0_L2C LOAD         ACCESS:    1317210 HIT:     913467 MISS:     403743
cpu0_L2C RFO          ACCESS:      88566 HIT:      55979 MISS:      32587
cpu0_L2C PREFETCH     ACCESS:          0 HIT:          0 MISS:          0
cpu0_L2C WRITE        ACCESS:     239076 HIT:     237266 MISS:       1810
cpu0_L2C TRANSLATION  ACCESS:      23344 HIT:       4141 MISS:      19203
cpu0_L2C PREFETCH REQUESTED:          0 ISSUED:          0 USEFUL:          0 USELESS:          0
cpu0_L2C AVERAGE MISS LATENCY: 70.42 cycles
cpu0_STLB TOTAL        ACCESS:     505167 HIT:     482378 MISS:      22789
cpu0_STLB LOAD         ACCESS:     505167 HIT:     482378 MISS:      22789
cpu0_STLB RFO          ACCESS:          0 HIT:          0 MISS:          0
cpu0_STLB PREFETCH     ACCESS:          0 HIT:          0 MISS:          0
cpu0_STLB WRITE        ACCESS:          0 HIT:          0 MISS:          0
cpu0_STLB TRANSLATION  ACCESS:          0 HIT:          0 MISS:          0
cpu0_STLB PREFETCH REQUESTED:          0 ISSUED:          0 USEFUL:          0 USELESS:          0
cpu0_STLB AVERAGE MISS LATENCY: 181.4 cycles

DRAM Statistics

Channel 0 RQ ROW_BUFFER_HIT:      13597
  ROW_BUFFER_MISS:      34958
 AVG DBUS CONGESTED CYCLE: 3.689
WQ ROW_BUFFER_HIT: Channel 0 
  ROW_BUFFER_MISS:        104
  FULL:        244
