WARNING: physical memory size is smaller than virtual memory size.

*** ChampSim Multicore Out-of-Order Simulator ***
Warmup Instructions: 50000000
Simulation Instructions: 600000000
Number of CPUs: 1
Page size: 4096

CPU 0 Tage branch predictor
Off-chip DRAM Size: 4 GiB Channels: 1 Width: 64-bit Data Race: 3200 MT/s
Heartbeat CPU 0 instructions: 10000001 cycles: 2500318 heartbeat IPC: 3.999 cumulative IPC: 3.999 (Simulation time: 00 hr 04 min 36 sec)
Heartbeat CPU 0 instructions: 20000002 cycles: 5037133 heartbeat IPC: 3.942 cumulative IPC: 3.971 (Simulation time: 00 hr 09 min 06 sec)
Heartbeat CPU 0 instructions: 30000002 cycles: 7537133 heartbeat IPC: 4 cumulative IPC: 3.98 (Simulation time: 00 hr 13 min 26 sec)
Heartbeat CPU 0 instructions: 40000002 cycles: 10037133 heartbeat IPC: 4 cumulative IPC: 3.985 (Simulation time: 00 hr 17 min 49 sec)
Heartbeat CPU 0 instructions: 50000002 cycles: 12537133 heartbeat IPC: 4 cumulative IPC: 3.988 (Simulation time: 00 hr 22 min 15 sec)
Warmup finished CPU 0 instructions: 50000002 cycles: 12537134 cumulative IPC: 3.988 (Simulation time: 00 hr 22 min 15 sec)
Warmup complete CPU 0 instructions: 50000002 cycles: 12537134 cumulative IPC: 3.988 (Simulation time: 00 hr 22 min 15 sec)
Heartbeat CPU 0 instructions: 60000001 cycles: 15497933 heartbeat IPC: 3.377 cumulative IPC: 3.377 (Simulation time: 00 hr 27 min 21 sec)
Heartbeat CPU 0 instructions: 70000004 cycles: 18555730 heartbeat IPC: 3.27 cumulative IPC: 3.323 (Simulation time: 00 hr 32 min 35 sec)
Heartbeat CPU 0 instructions: 80000001 cycles: 21588864 heartbeat IPC: 3.297 cumulative IPC: 3.314 (Simulation time: 00 hr 37 min 41 sec)
Heartbeat CPU 0 instructions: 90000001 cycles: 24522206 heartbeat IPC: 3.409 cumulative IPC: 3.337 (Simulation time: 00 hr 42 min 49 sec)
Heartbeat CPU 0 instructions: 100000000 cycles: 27421496 heartbeat IPC: 3.449 cumulative IPC: 3.359 (Simulation time: 00 hr 47 min 57 sec)
Heartbeat CPU 0 instructions: 110000000 cycles: 30353314 heartbeat IPC: 3.411 cumulative IPC: 3.368 (Simulation time: 00 hr 53 min 01 sec)
Heartbeat CPU 0 instructions: 120000001 cycles: 33315950 heartbeat IPC: 3.375 cumulative IPC: 3.369 (Simulation time: 00 hr 57 min 58 sec)
Heartbeat CPU 0 instructions: 130000001 cycles: 36159639 heartbeat IPC: 3.517 cumulative IPC: 3.387 (Simulation time: 01 hr 02 min 56 sec)
Heartbeat CPU 0 instructions: 140000001 cycles: 39184049 heartbeat IPC: 3.306 cumulative IPC: 3.378 (Simulation time: 01 hr 07 min 56 sec)
Heartbeat CPU 0 instructions: 150000001 cycles: 42175838 heartbeat IPC: 3.342 cumulative IPC: 3.374 (Simulation time: 01 hr 12 min 53 sec)
Heartbeat CPU 0 instructions: 160000004 cycles: 45165928 heartbeat IPC: 3.344 cumulative IPC: 3.371 (Simulation time: 01 hr 17 min 51 sec)
Heartbeat CPU 0 instructions: 170000000 cycles: 50660928 heartbeat IPC: 1.82 cumulative IPC: 3.148 (Simulation time: 01 hr 24 min 38 sec)
Heartbeat CPU 0 instructions: 180000004 cycles: 55431273 heartbeat IPC: 2.096 cumulative IPC: 3.031 (Simulation time: 01 hr 31 min 03 sec)
Heartbeat CPU 0 instructions: 190000001 cycles: 59825212 heartbeat IPC: 2.276 cumulative IPC: 2.961 (Simulation time: 01 hr 37 min 08 sec)
Heartbeat CPU 0 instructions: 200000004 cycles: 62581041 heartbeat IPC: 3.629 cumulative IPC: 2.997 (Simulation time: 01 hr 41 min 55 sec)
Heartbeat CPU 0 instructions: 210000001 cycles: 65384032 heartbeat IPC: 3.568 cumulative IPC: 3.028 (Simulation time: 01 hr 46 min 42 sec)
Heartbeat CPU 0 instructions: 220000000 cycles: 68184484 heartbeat IPC: 3.571 cumulative IPC: 3.055 (Simulation time: 01 hr 51 min 30 sec)
Heartbeat CPU 0 instructions: 230000002 cycles: 70892586 heartbeat IPC: 3.693 cumulative IPC: 3.085 (Simulation time: 01 hr 56 min 16 sec)
Heartbeat CPU 0 instructions: 240000003 cycles: 73725615 heartbeat IPC: 3.53 cumulative IPC: 3.105 (Simulation time: 02 hr 01 min 08 sec)
Heartbeat CPU 0 instructions: 250000000 cycles: 76511430 heartbeat IPC: 3.59 cumulative IPC: 3.126 (Simulation time: 02 hr 05 min 58 sec)
Heartbeat CPU 0 instructions: 260000002 cycles: 79237543 heartbeat IPC: 3.668 cumulative IPC: 3.148 (Simulation time: 02 hr 10 min 45 sec)
Heartbeat CPU 0 instructions: 270000002 cycles: 81982738 heartbeat IPC: 3.643 cumulative IPC: 3.168 (Simulation time: 02 hr 15 min 31 sec)
Heartbeat CPU 0 instructions: 280000002 cycles: 84688451 heartbeat IPC: 3.696 cumulative IPC: 3.188 (Simulation time: 02 hr 20 min 15 sec)
Heartbeat CPU 0 instructions: 290000002 cycles: 87500751 heartbeat IPC: 3.556 cumulative IPC: 3.202 (Simulation time: 02 hr 25 min 06 sec)
Heartbeat CPU 0 instructions: 300000003 cycles: 90172015 heartbeat IPC: 3.744 cumulative IPC: 3.22 (Simulation time: 02 hr 29 min 55 sec)
Heartbeat CPU 0 instructions: 310000001 cycles: 92943197 heartbeat IPC: 3.609 cumulative IPC: 3.234 (Simulation time: 02 hr 34 min 42 sec)
Heartbeat CPU 0 instructions: 320000003 cycles: 95754940 heartbeat IPC: 3.557 cumulative IPC: 3.244 (Simulation time: 02 hr 39 min 30 sec)
Heartbeat CPU 0 instructions: 330000003 cycles: 98463743 heartbeat IPC: 3.692 cumulative IPC: 3.259 (Simulation time: 02 hr 44 min 17 sec)
Heartbeat CPU 0 instructions: 340000000 cycles: 102852300 heartbeat IPC: 2.279 cumulative IPC: 3.211 (Simulation time: 02 hr 50 min 16 sec)
Heartbeat CPU 0 instructions: 350000000 cycles: 107699213 heartbeat IPC: 2.063 cumulative IPC: 3.153 (Simulation time: 02 hr 56 min 45 sec)
Heartbeat CPU 0 instructions: 360000004 cycles: 112368977 heartbeat IPC: 2.141 cumulative IPC: 3.105 (Simulation time: 03 hr 03 min 02 sec)
Heartbeat CPU 0 instructions: 370000000 cycles: 115182042 heartbeat IPC: 3.555 cumulative IPC: 3.118 (Simulation time: 03 hr 07 min 50 sec)
Heartbeat CPU 0 instructions: 380000003 cycles: 117944563 heartbeat IPC: 3.62 cumulative IPC: 3.131 (Simulation time: 03 hr 12 min 41 sec)
Heartbeat CPU 0 instructions: 390000002 cycles: 120817127 heartbeat IPC: 3.481 cumulative IPC: 3.14 (Simulation time: 03 hr 17 min 34 sec)
Heartbeat CPU 0 instructions: 400000004 cycles: 123654147 heartbeat IPC: 3.525 cumulative IPC: 3.15 (Simulation time: 03 hr 22 min 25 sec)
Heartbeat CPU 0 instructions: 410000002 cycles: 126422106 heartbeat IPC: 3.613 cumulative IPC: 3.161 (Simulation time: 03 hr 27 min 10 sec)
Heartbeat CPU 0 instructions: 420000003 cycles: 129269480 heartbeat IPC: 3.512 cumulative IPC: 3.17 (Simulation time: 03 hr 32 min 00 sec)
Heartbeat CPU 0 instructions: 430000001 cycles: 132145055 heartbeat IPC: 3.478 cumulative IPC: 3.177 (Simulation time: 03 hr 36 min 53 sec)
Heartbeat CPU 0 instructions: 440000004 cycles: 135078855 heartbeat IPC: 3.409 cumulative IPC: 3.183 (Simulation time: 03 hr 41 min 47 sec)
Heartbeat CPU 0 instructions: 450000002 cycles: 137817509 heartbeat IPC: 3.651 cumulative IPC: 3.193 (Simulation time: 03 hr 46 min 32 sec)
Heartbeat CPU 0 instructions: 460000000 cycles: 140588966 heartbeat IPC: 3.608 cumulative IPC: 3.202 (Simulation time: 03 hr 51 min 20 sec)
Heartbeat CPU 0 instructions: 470000001 cycles: 143301545 heartbeat IPC: 3.687 cumulative IPC: 3.212 (Simulation time: 03 hr 56 min 04 sec)
Heartbeat CPU 0 instructions: 480000003 cycles: 146185065 heartbeat IPC: 3.468 cumulative IPC: 3.217 (Simulation time: 04 hr 00 min 54 sec)
Heartbeat CPU 0 instructions: 490000004 cycles: 148903297 heartbeat IPC: 3.679 cumulative IPC: 3.227 (Simulation time: 04 hr 05 min 39 sec)
Heartbeat CPU 0 instructions: 500000004 cycles: 151781055 heartbeat IPC: 3.475 cumulative IPC: 3.232 (Simulation time: 04 hr 10 min 30 sec)
Heartbeat CPU 0 instructions: 510000003 cycles: 154625307 heartbeat IPC: 3.516 cumulative IPC: 3.237 (Simulation time: 04 hr 15 min 23 sec)
Heartbeat CPU 0 instructions: 520000001 cycles: 157323463 heartbeat IPC: 3.706 cumulative IPC: 3.246 (Simulation time: 04 hr 20 min 13 sec)
Heartbeat CPU 0 instructions: 530000001 cycles: 160168951 heartbeat IPC: 3.514 cumulative IPC: 3.251 (Simulation time: 04 hr 25 min 02 sec)
Heartbeat CPU 0 instructions: 540000000 cycles: 162965758 heartbeat IPC: 3.576 cumulative IPC: 3.257 (Simulation time: 04 hr 29 min 51 sec)
Heartbeat CPU 0 instructions: 550000001 cycles: 165817677 heartbeat IPC: 3.506 cumulative IPC: 3.262 (Simulation time: 04 hr 34 min 42 sec)
Heartbeat CPU 0 instructions: 560000000 cycles: 168666191 heartbeat IPC: 3.511 cumulative IPC: 3.267 (Simulation time: 04 hr 39 min 34 sec)
Heartbeat CPU 0 instructions: 570000004 cycles: 172277200 heartbeat IPC: 2.769 cumulative IPC: 3.255 (Simulation time: 04 hr 45 min 03 sec)
Heartbeat CPU 0 instructions: 580000003 cycles: 177106129 heartbeat IPC: 2.071 cumulative IPC: 3.221 (Simulation time: 04 hr 51 min 29 sec)
Heartbeat CPU 0 instructions: 590000002 cycles: 182328974 heartbeat IPC: 1.915 cumulative IPC: 3.18 (Simulation time: 04 hr 58 min 12 sec)
Heartbeat CPU 0 instructions: 600000004 cycles: 185204740 heartbeat IPC: 3.477 cumulative IPC: 3.185 (Simulation time: 05 hr 03 min 04 sec)
Heartbeat CPU 0 instructions: 610000002 cycles: 188034520 heartbeat IPC: 3.534 cumulative IPC: 3.191 (Simulation time: 05 hr 08 min 00 sec)
Heartbeat CPU 0 instructions: 620000001 cycles: 190731321 heartbeat IPC: 3.708 cumulative IPC: 3.199 (Simulation time: 05 hr 12 min 45 sec)
Heartbeat CPU 0 instructions: 630000002 cycles: 193586023 heartbeat IPC: 3.503 cumulative IPC: 3.204 (Simulation time: 05 hr 17 min 35 sec)
Heartbeat CPU 0 instructions: 640000004 cycles: 196485547 heartbeat IPC: 3.449 cumulative IPC: 3.207 (Simulation time: 05 hr 22 min 27 sec)
Heartbeat CPU 0 instructions: 650000000 cycles: 199189926 heartbeat IPC: 3.698 cumulative IPC: 3.215 (Simulation time: 05 hr 27 min 10 sec)
Simulation finished CPU 0 instructions: 600000001 cycles: 186652794 cumulative IPC: 3.215 (Simulation time: 05 hr 27 min 10 sec)
Simulation complete CPU 0 instructions: 600000001 cycles: 186652794 cumulative IPC: 3.215 (Simulation time: 05 hr 27 min 10 sec)

ChampSim completed all CPUs

=== Simulation ===
CPU 0 runs traces/400.perlbench-41B.champsimtrace.xz
Region of Interest Statistics

CPU 0 cumulative IPC: 3.215 instructions: 600000001 cycles: 186652794
CPU 0 Branch Prediction Accuracy: 99.19% MPKI: 1.684 Average ROB Occupancy at Mispredict: 100.4
Branch type MPKI
BRANCH_DIRECT_JUMP: 0.0123
BRANCH_INDIRECT: 0.323
BRANCH_CONDITIONAL: 1.14
BRANCH_DIRECT_CALL: 0.0043
BRANCH_INDIRECT_CALL: 0.2
BRANCH_RETURN: 0.00828

LLC TOTAL        ACCESS:     540465 HIT:     489900 MISS:      50565
LLC LOAD         ACCESS:     403369 HIT:     363728 MISS:      39641
LLC RFO          ACCESS:      32515 HIT:      28193 MISS:       4322
LLC PREFETCH     ACCESS:          0 HIT:          0 MISS:          0
LLC WRITE        ACCESS:      85514 HIT:      85493 MISS:         21
LLC TRANSLATION  ACCESS:      19067 HIT:      12486 MISS:       6581
LLC PREFETCH REQUESTED:          0 ISSUED:          0 USEFUL:          0 USELESS:          0
LLC AVERAGE MISS LATENCY: 541.5 cycles
cpu0_DTLB TOTAL        ACCESS:  129749813 HIT:  129048589 MISS:     701224
cpu0_DTLB LOAD         ACCESS:  129749813 HIT:  129048589 MISS:     701224
cpu0_DTLB RFO          ACCESS:          0 HIT:          0 MISS:          0
cpu0_DTLB PREFETCH     ACCESS:          0 HIT:          0 MISS:          0
cpu0_DTLB WRITE        ACCESS:          0 HIT:          0 MISS:          0
cpu0_DTLB TRANSLATION  ACCESS:          0 HIT:          0 MISS:          0
cpu0_DTLB PREFETCH REQUESTED:          0 ISSUED:          0 USEFUL:          0 USELESS:          0
cpu0_DTLB AVERAGE MISS LATENCY: 10.23 cycles
cpu0_ITLB TOTAL        ACCESS:    4860820 HIT:    4798719 MISS:      62101
cpu0_ITLB LOAD         ACCESS:    4860820 HIT:    4798719 MISS:      62101
cpu0_ITLB RFO          ACCESS:          0 HIT:          0 MISS:          0
cpu0_ITLB PREFETCH     ACCESS:          0 HIT:          0 MISS:          0
cpu0_ITLB WRITE        ACCESS:          0 HIT:          0 MISS:          0
cpu0_ITLB TRANSLATION  ACCESS:          0 HIT:          0 MISS:          0
cpu0_ITLB PREFETCH REQUESTED:          0 ISSUED:          0 USEFUL:          0 USELESS:          0
cpu0_ITLB AVERAGE MISS LATENCY: 3.977 cycles
cpu0_L1D TOTAL        ACCESS:  174379888 HIT:  172651286 MISS:    1728602
cpu0_L1D LOAD         ACCESS:   91357174 HIT:   90009615 MISS:    1347559
cpu0_L1D RFO          ACCESS:          0 HIT:          0 MISS:          0
cpu0_L1D PREFETCH     ACCESS:          0 HIT:          0 MISS:          0
cpu0_L1D WRITE        ACCESS:   82998252 HIT:   82640606 MISS:     357646
cpu0_L1D TRANSLATION  ACCESS:      24462 HIT:       1065 MISS:      23397
cpu0_L1D PREFETCH REQUESTED:          0 ISSUED:          0 USEFUL:          0 USELESS:          0
cpu0_L1D AVERAGE MISS LATENCY: 23.03 cycles
cpu0_L1I TOTAL        ACCESS:    5640759 HIT:    4836736 MISS:     804023
cpu0_L1I LOAD         ACCESS:    5640759 HIT:    4836736 MISS:     804023
cpu0_L1I RFO          ACCESS:          0 HIT:          0 MISS:          0
cpu0_L1I PREFETCH     ACCESS:          0 HIT:          0 MISS:          0
cpu0_L1I WRITE        ACCESS:          0 HIT:          0 MISS:          0
cpu0_L1I TRANSLATION  ACCESS:          0 HIT:          0 MISS:          0
cpu0_L1I PREFETCH REQUESTED:          0 ISSUED:          0 USEFUL:          0 USELESS:          0
cpu0_L1I AVERAGE MISS LATENCY: 8.2 cycles
cpu0_L2C TOTAL        ACCESS:    1668490 HIT:    1211733 MISS:     456757
cpu0_L2C LOAD         ACCESS:    1315379 HIT:     912009 MISS:     403370
cpu0_L2C RFO          ACCESS:      89529 HIT:      57013 MISS:      32516
cpu0_L2C PREFETCH     ACCESS:          0 HIT:          0 MISS:          0
cpu0_L2C WRITE        ACCESS:     240263 HIT:     238459 MISS:       1804
cpu0_L2C TRANSLATION  ACCESS:      23319 HIT:       4252 MISS:      19067
cpu0_L2C PREFETCH REQUESTED:          0 ISSUED:          0 USEFUL:          0 USELESS:          0
cpu0_L2C AVERAGE MISS LATENCY: 79.98 cycles
cpu0_STLB TOTAL        ACCESS:     507971 HIT:     485185 MISS:      22786
cpu0_STLB LOAD         ACCESS:     507971 HIT:     485185 MISS:      22786
cpu0_STLB RFO          ACCESS:          0 HIT:          0 MISS:          0
cpu0_STLB PREFETCH     ACCESS:          0 HIT:          0 MISS:          0
cpu0_STLB WRITE        ACCESS:          0 HIT:          0 MISS:          0
cpu0_STLB TRANSLATION  ACCESS:          0 HIT:          0 MISS:          0
cpu0_STLB PREFETCH REQUESTED:          0 ISSUED:          0 USEFUL:          0 USELESS:          0
cpu0_STLB AVERAGE MISS LATENCY: 188.8 cycles

DRAM Statistics

Channel 0 RQ ROW_BUFFER_HIT:      12870
  ROW_BUFFER_MISS:      37673
 AVG DBUS CONGESTED CYCLE: 3.754
WQ ROW_BUFFER_HIT: Channel 0 
  ROW_BUFFER_MISS:        696
  FULL:       1023
