WARNING: physical memory size is smaller than virtual memory size.

*** ChampSim Multicore Out-of-Order Simulator ***
Warmup Instructions: 50000000
Simulation Instructions: 600000000
Number of CPUs: 1
Page size: 4096

Off-chip DRAM Size: 4 GiB Channels: 1 Width: 64-bit Data Race: 3200 MT/s
Heartbeat CPU 0 instructions: 10000000 cycles: 2500061 heartbeat IPC: 4 cumulative IPC: 4 (Simulation time: 00 hr 03 min 17 sec)
Heartbeat CPU 0 instructions: 20000000 cycles: 5000061 heartbeat IPC: 4 cumulative IPC: 4 (Simulation time: 00 hr 06 min 45 sec)
Heartbeat CPU 0 instructions: 30000000 cycles: 7500061 heartbeat IPC: 4 cumulative IPC: 4 (Simulation time: 00 hr 09 min 59 sec)
Heartbeat CPU 0 instructions: 40000000 cycles: 10000061 heartbeat IPC: 4 cumulative IPC: 4 (Simulation time: 00 hr 13 min 13 sec)
Heartbeat CPU 0 instructions: 50000000 cycles: 12500061 heartbeat IPC: 4 cumulative IPC: 4 (Simulation time: 00 hr 16 min 32 sec)
Warmup finished CPU 0 instructions: 50000000 cycles: 12500062 cumulative IPC: 4 (Simulation time: 00 hr 16 min 32 sec)
Warmup complete CPU 0 instructions: 50000000 cycles: 12500062 cumulative IPC: 4 (Simulation time: 00 hr 16 min 32 sec)
Heartbeat CPU 0 instructions: 60000002 cycles: 16444688 heartbeat IPC: 2.535 cumulative IPC: 2.535 (Simulation time: 00 hr 21 min 15 sec)
Heartbeat CPU 0 instructions: 70000003 cycles: 20760893 heartbeat IPC: 2.317 cumulative IPC: 2.421 (Simulation time: 00 hr 25 min 56 sec)
Heartbeat CPU 0 instructions: 80000003 cycles: 25229157 heartbeat IPC: 2.238 cumulative IPC: 2.357 (Simulation time: 00 hr 30 min 42 sec)
Heartbeat CPU 0 instructions: 90000000 cycles: 28920814 heartbeat IPC: 2.709 cumulative IPC: 2.436 (Simulation time: 00 hr 35 min 02 sec)
Heartbeat CPU 0 instructions: 100000003 cycles: 32818788 heartbeat IPC: 2.565 cumulative IPC: 2.461 (Simulation time: 00 hr 39 min 31 sec)
Heartbeat CPU 0 instructions: 110000002 cycles: 36920325 heartbeat IPC: 2.438 cumulative IPC: 2.457 (Simulation time: 00 hr 44 min 06 sec)
Heartbeat CPU 0 instructions: 120000001 cycles: 40635683 heartbeat IPC: 2.692 cumulative IPC: 2.488 (Simulation time: 00 hr 48 min 28 sec)
Heartbeat CPU 0 instructions: 130000003 cycles: 44404658 heartbeat IPC: 2.653 cumulative IPC: 2.507 (Simulation time: 00 hr 52 min 55 sec)
Heartbeat CPU 0 instructions: 140000002 cycles: 48538024 heartbeat IPC: 2.419 cumulative IPC: 2.497 (Simulation time: 00 hr 57 min 30 sec)
Heartbeat CPU 0 instructions: 150000001 cycles: 52589949 heartbeat IPC: 2.468 cumulative IPC: 2.494 (Simulation time: 01 hr 02 min 03 sec)
Heartbeat CPU 0 instructions: 160000000 cycles: 56247531 heartbeat IPC: 2.734 cumulative IPC: 2.514 (Simulation time: 01 hr 06 min 24 sec)
Heartbeat CPU 0 instructions: 170000001 cycles: 60421737 heartbeat IPC: 2.396 cumulative IPC: 2.504 (Simulation time: 01 hr 11 min 01 sec)
Heartbeat CPU 0 instructions: 180000001 cycles: 63882371 heartbeat IPC: 2.89 cumulative IPC: 2.53 (Simulation time: 01 hr 15 min 18 sec)
Heartbeat CPU 0 instructions: 190000002 cycles: 67465761 heartbeat IPC: 2.791 cumulative IPC: 2.547 (Simulation time: 01 hr 19 min 41 sec)
Heartbeat CPU 0 instructions: 200000002 cycles: 71249161 heartbeat IPC: 2.643 cumulative IPC: 2.553 (Simulation time: 01 hr 24 min 08 sec)
Heartbeat CPU 0 instructions: 210000000 cycles: 74888079 heartbeat IPC: 2.748 cumulative IPC: 2.565 (Simulation time: 01 hr 28 min 30 sec)
Heartbeat CPU 0 instructions: 220000001 cycles: 78754029 heartbeat IPC: 2.587 cumulative IPC: 2.566 (Simulation time: 01 hr 32 min 58 sec)
Heartbeat CPU 0 instructions: 230000002 cycles: 82594747 heartbeat IPC: 2.604 cumulative IPC: 2.568 (Simulation time: 01 hr 37 min 26 sec)
Heartbeat CPU 0 instructions: 240000001 cycles: 86801493 heartbeat IPC: 2.377 cumulative IPC: 2.557 (Simulation time: 01 hr 42 min 04 sec)
Heartbeat CPU 0 instructions: 250000003 cycles: 91366485 heartbeat IPC: 2.191 cumulative IPC: 2.536 (Simulation time: 01 hr 46 min 50 sec)
Heartbeat CPU 0 instructions: 260000000 cycles: 95158973 heartbeat IPC: 2.637 cumulative IPC: 2.541 (Simulation time: 01 hr 51 min 13 sec)
Heartbeat CPU 0 instructions: 270000003 cycles: 102228918 heartbeat IPC: 1.414 cumulative IPC: 2.452 (Simulation time: 01 hr 57 min 44 sec)
Heartbeat CPU 0 instructions: 280000000 cycles: 112630929 heartbeat IPC: 0.9614 cumulative IPC: 2.297 (Simulation time: 02 hr 06 min 26 sec)
Heartbeat CPU 0 instructions: 290000000 cycles: 121811002 heartbeat IPC: 1.089 cumulative IPC: 2.196 (Simulation time: 02 hr 14 min 26 sec)
Heartbeat CPU 0 instructions: 300000003 cycles: 129010482 heartbeat IPC: 1.389 cumulative IPC: 2.146 (Simulation time: 02 hr 21 min 23 sec)
Heartbeat CPU 0 instructions: 310000004 cycles: 138989759 heartbeat IPC: 1.002 cumulative IPC: 2.056 (Simulation time: 02 hr 30 min 13 sec)
Heartbeat CPU 0 instructions: 320000004 cycles: 143899582 heartbeat IPC: 2.037 cumulative IPC: 2.055 (Simulation time: 02 hr 35 min 35 sec)
Heartbeat CPU 0 instructions: 330000000 cycles: 147902149 heartbeat IPC: 2.498 cumulative IPC: 2.068 (Simulation time: 02 hr 40 min 16 sec)
Heartbeat CPU 0 instructions: 340000001 cycles: 151760852 heartbeat IPC: 2.592 cumulative IPC: 2.082 (Simulation time: 02 hr 44 min 48 sec)
Heartbeat CPU 0 instructions: 350000004 cycles: 155726067 heartbeat IPC: 2.522 cumulative IPC: 2.095 (Simulation time: 02 hr 49 min 25 sec)
Heartbeat CPU 0 instructions: 360000003 cycles: 159426537 heartbeat IPC: 2.702 cumulative IPC: 2.11 (Simulation time: 02 hr 53 min 49 sec)
Heartbeat CPU 0 instructions: 370000001 cycles: 163109300 heartbeat IPC: 2.715 cumulative IPC: 2.125 (Simulation time: 02 hr 58 min 15 sec)
Heartbeat CPU 0 instructions: 380000004 cycles: 166661207 heartbeat IPC: 2.815 cumulative IPC: 2.141 (Simulation time: 03 hr 02 min 41 sec)
Heartbeat CPU 0 instructions: 390000002 cycles: 170255878 heartbeat IPC: 2.782 cumulative IPC: 2.155 (Simulation time: 03 hr 07 min 08 sec)
Heartbeat CPU 0 instructions: 400000000 cycles: 174136458 heartbeat IPC: 2.577 cumulative IPC: 2.165 (Simulation time: 03 hr 11 min 44 sec)
Heartbeat CPU 0 instructions: 410000000 cycles: 179762497 heartbeat IPC: 1.777 cumulative IPC: 2.152 (Simulation time: 03 hr 17 min 28 sec)
Heartbeat CPU 0 instructions: 420000003 cycles: 186919237 heartbeat IPC: 1.397 cumulative IPC: 2.121 (Simulation time: 03 hr 24 min 15 sec)
Heartbeat CPU 0 instructions: 430000000 cycles: 193410680 heartbeat IPC: 1.54 cumulative IPC: 2.1 (Simulation time: 03 hr 30 min 49 sec)
Heartbeat CPU 0 instructions: 440000004 cycles: 199442015 heartbeat IPC: 1.658 cumulative IPC: 2.086 (Simulation time: 03 hr 37 min 01 sec)
Heartbeat CPU 0 instructions: 450000001 cycles: 205720487 heartbeat IPC: 1.593 cumulative IPC: 2.07 (Simulation time: 03 hr 43 min 20 sec)
Heartbeat CPU 0 instructions: 460000002 cycles: 213326982 heartbeat IPC: 1.315 cumulative IPC: 2.042 (Simulation time: 03 hr 50 min 33 sec)
Heartbeat CPU 0 instructions: 470000003 cycles: 219431533 heartbeat IPC: 1.638 cumulative IPC: 2.03 (Simulation time: 03 hr 56 min 44 sec)
Heartbeat CPU 0 instructions: 480000003 cycles: 223198198 heartbeat IPC: 2.655 cumulative IPC: 2.041 (Simulation time: 04 hr 01 min 15 sec)
Heartbeat CPU 0 instructions: 490000001 cycles: 227199952 heartbeat IPC: 2.499 cumulative IPC: 2.049 (Simulation time: 04 hr 05 min 54 sec)
Heartbeat CPU 0 instructions: 500000002 cycles: 231024657 heartbeat IPC: 2.615 cumulative IPC: 2.059 (Simulation time: 04 hr 10 min 27 sec)
Heartbeat CPU 0 instructions: 510000000 cycles: 234677431 heartbeat IPC: 2.738 cumulative IPC: 2.07 (Simulation time: 04 hr 14 min 54 sec)
Heartbeat CPU 0 instructions: 520000000 cycles: 238483635 heartbeat IPC: 2.627 cumulative IPC: 2.08 (Simulation time: 04 hr 19 min 26 sec)
Heartbeat CPU 0 instructions: 530000001 cycles: 245845217 heartbeat IPC: 1.358 cumulative IPC: 2.057 (Simulation time: 04 hr 26 min 19 sec)
Heartbeat CPU 0 instructions: 540000000 cycles: 253009695 heartbeat IPC: 1.396 cumulative IPC: 2.037 (Simulation time: 04 hr 33 min 12 sec)
Heartbeat CPU 0 instructions: 550000004 cycles: 260236213 heartbeat IPC: 1.384 cumulative IPC: 2.018 (Simulation time: 04 hr 40 min 15 sec)
Heartbeat CPU 0 instructions: 560000004 cycles: 264016326 heartbeat IPC: 2.645 cumulative IPC: 2.028 (Simulation time: 04 hr 44 min 43 sec)
Heartbeat CPU 0 instructions: 570000001 cycles: 267092838 heartbeat IPC: 3.25 cumulative IPC: 2.042 (Simulation time: 04 hr 48 min 51 sec)
Heartbeat CPU 0 instructions: 580000003 cycles: 270528766 heartbeat IPC: 2.91 cumulative IPC: 2.054 (Simulation time: 04 hr 53 min 07 sec)
Heartbeat CPU 0 instructions: 590000002 cycles: 274055708 heartbeat IPC: 2.835 cumulative IPC: 2.065 (Simulation time: 04 hr 57 min 37 sec)
Heartbeat CPU 0 instructions: 600000003 cycles: 277067521 heartbeat IPC: 3.32 cumulative IPC: 2.079 (Simulation time: 05 hr 01 min 47 sec)
Heartbeat CPU 0 instructions: 610000001 cycles: 280508336 heartbeat IPC: 2.906 cumulative IPC: 2.089 (Simulation time: 05 hr 06 min 08 sec)
Heartbeat CPU 0 instructions: 620000000 cycles: 284468159 heartbeat IPC: 2.525 cumulative IPC: 2.096 (Simulation time: 05 hr 10 min 50 sec)
Heartbeat CPU 0 instructions: 630000002 cycles: 287794502 heartbeat IPC: 3.006 cumulative IPC: 2.107 (Simulation time: 05 hr 15 min 11 sec)
Heartbeat CPU 0 instructions: 640000004 cycles: 291764404 heartbeat IPC: 2.519 cumulative IPC: 2.113 (Simulation time: 05 hr 19 min 46 sec)
Heartbeat CPU 0 instructions: 650000001 cycles: 295566430 heartbeat IPC: 2.63 cumulative IPC: 2.12 (Simulation time: 05 hr 24 min 17 sec)
Simulation finished CPU 0 instructions: 600000001 cycles: 283066369 cumulative IPC: 2.12 (Simulation time: 05 hr 24 min 17 sec)
Simulation complete CPU 0 instructions: 600000001 cycles: 283066369 cumulative IPC: 2.12 (Simulation time: 05 hr 24 min 17 sec)

ChampSim completed all CPUs

=== Simulation ===
CPU 0 runs traces/400.perlbench-50B.champsimtrace.xz
Region of Interest Statistics

CPU 0 cumulative IPC: 2.12 instructions: 600000001 cycles: 283066369
CPU 0 Branch Prediction Accuracy: 96.2% MPKI: 7.839 Average ROB Occupancy at Mispredict: 43.13
Branch type MPKI
BRANCH_DIRECT_JUMP: 0.0176
BRANCH_INDIRECT: 0.38
BRANCH_CONDITIONAL: 6.99
BRANCH_DIRECT_CALL: 0.0067
BRANCH_INDIRECT_CALL: 0.431
BRANCH_RETURN: 0.0161

LLC TOTAL        ACCESS:     837726 HIT:     704704 MISS:     133022
LLC LOAD         ACCESS:     576513 HIT:     474710 MISS:     101803
LLC RFO          ACCESS:      47517 HIT:      37598 MISS:       9919
LLC PREFETCH     ACCESS:      64254 HIT:      52168 MISS:      12086
LLC WRITE        ACCESS:     127353 HIT:     127324 MISS:         29
LLC TRANSLATION  ACCESS:      22089 HIT:      12904 MISS:       9185
LLC PREFETCH REQUESTED:      64254 ISSUED:      64254 USEFUL:       7527 USELESS:        587
LLC AVERAGE MISS LATENCY: 470 cycles
cpu0_DTLB TOTAL        ACCESS:  146518866 HIT:  145214070 MISS:    1304796
cpu0_DTLB LOAD         ACCESS:  146518866 HIT:  145214070 MISS:    1304796
cpu0_DTLB RFO          ACCESS:          0 HIT:          0 MISS:          0
cpu0_DTLB PREFETCH     ACCESS:          0 HIT:          0 MISS:          0
cpu0_DTLB WRITE        ACCESS:          0 HIT:          0 MISS:          0
cpu0_DTLB TRANSLATION  ACCESS:          0 HIT:          0 MISS:          0
cpu0_DTLB PREFETCH REQUESTED:          0 ISSUED:          0 USEFUL:          0 USELESS:          0
cpu0_DTLB AVERAGE MISS LATENCY: 9.853 cycles
cpu0_ITLB TOTAL        ACCESS:    8985524 HIT:    8801030 MISS:     184494
cpu0_ITLB LOAD         ACCESS:    8985524 HIT:    8801030 MISS:     184494
cpu0_ITLB RFO          ACCESS:          0 HIT:          0 MISS:          0
cpu0_ITLB PREFETCH     ACCESS:          0 HIT:          0 MISS:          0
cpu0_ITLB WRITE        ACCESS:          0 HIT:          0 MISS:          0
cpu0_ITLB TRANSLATION  ACCESS:          0 HIT:          0 MISS:          0
cpu0_ITLB PREFETCH REQUESTED:          0 ISSUED:          0 USEFUL:          0 USELESS:          0
cpu0_ITLB AVERAGE MISS LATENCY: 2.929 cycles
cpu0_L1D TOTAL        ACCESS:  193316890 HIT:  189688786 MISS:    3628104
cpu0_L1D LOAD         ACCESS:  107470844 HIT:  104479012 MISS:    2991832
cpu0_L1D RFO          ACCESS:          0 HIT:          0 MISS:          0
cpu0_L1D PREFETCH     ACCESS:          0 HIT:          0 MISS:          0
cpu0_L1D WRITE        ACCESS:   85817522 HIT:   85208351 MISS:     609171
cpu0_L1D TRANSLATION  ACCESS:      28524 HIT:       1423 MISS:      27101
cpu0_L1D PREFETCH REQUESTED:          0 ISSUED:          0 USEFUL:          0 USELESS:          0
cpu0_L1D AVERAGE MISS LATENCY: 22.24 cycles
cpu0_L1I TOTAL        ACCESS:   10419974 HIT:    8658075 MISS:    1761899
cpu0_L1I LOAD         ACCESS:   10419974 HIT:    8658075 MISS:    1761899
cpu0_L1I RFO          ACCESS:          0 HIT:          0 MISS:          0
cpu0_L1I PREFETCH     ACCESS:          0 HIT:          0 MISS:          0
cpu0_L1I WRITE        ACCESS:          0 HIT:          0 MISS:          0
cpu0_L1I TRANSLATION  ACCESS:          0 HIT:          0 MISS:          0
cpu0_L1I PREFETCH REQUESTED:          0 ISSUED:          0 USEFUL:          0 USELESS:          0
cpu0_L1I AVERAGE MISS LATENCY: 9.439 cycles
cpu0_L2C TOTAL        ACCESS:    3834869 HIT:    3185584 MISS:     649285
cpu0_L2C LOAD         ACCESS:    3105057 HIT:    2528544 MISS:     576513
cpu0_L2C RFO          ACCESS:     191519 HIT:     144001 MISS:      47518
cpu0_L2C PREFETCH     ACCESS:          0 HIT:          0 MISS:          0
cpu0_L2C WRITE        ACCESS:     511258 HIT:     508093 MISS:       3165
cpu0_L2C TRANSLATION  ACCESS:      27035 HIT:       4946 MISS:      22089
cpu0_L2C PREFETCH REQUESTED:          0 ISSUED:          0 USEFUL:          0 USELESS:          0
cpu0_L2C AVERAGE MISS LATENCY: 107.4 cycles
cpu0_STLB TOTAL        ACCESS:    1008179 HIT:     981485 MISS:      26694
cpu0_STLB LOAD         ACCESS:    1008179 HIT:     981485 MISS:      26694
cpu0_STLB RFO          ACCESS:          0 HIT:          0 MISS:          0
cpu0_STLB PREFETCH     ACCESS:          0 HIT:          0 MISS:          0
cpu0_STLB WRITE        ACCESS:          0 HIT:          0 MISS:          0
cpu0_STLB TRANSLATION  ACCESS:          0 HIT:          0 MISS:          0
cpu0_STLB PREFETCH REQUESTED:          0 ISSUED:          0 USEFUL:          0 USELESS:          0
cpu0_STLB AVERAGE MISS LATENCY: 255.2 cycles

DRAM Statistics

Channel 0 RQ ROW_BUFFER_HIT:      39831
  ROW_BUFFER_MISS:      90940
 AVG DBUS CONGESTED CYCLE: 3.733
WQ ROW_BUFFER_HIT: Channel 0 
  ROW_BUFFER_MISS:       1718
  FULL:       1979
