WARNING: physical memory size is smaller than virtual memory size.

*** ChampSim Multicore Out-of-Order Simulator ***
Warmup Instructions: 50000000
Simulation Instructions: 600000000
Number of CPUs: 1
Page size: 4096

Off-chip DRAM Size: 4 GiB Channels: 1 Width: 64-bit Data Race: 3200 MT/s
Heartbeat CPU 0 instructions: 10000001 cycles: 2500318 heartbeat IPC: 3.999 cumulative IPC: 3.999 (Simulation time: 00 hr 03 min 40 sec)
Heartbeat CPU 0 instructions: 20000002 cycles: 5037128 heartbeat IPC: 3.942 cumulative IPC: 3.971 (Simulation time: 00 hr 07 min 23 sec)
Heartbeat CPU 0 instructions: 30000002 cycles: 7537128 heartbeat IPC: 4 cumulative IPC: 3.98 (Simulation time: 00 hr 10 min 40 sec)
Heartbeat CPU 0 instructions: 40000002 cycles: 10037128 heartbeat IPC: 4 cumulative IPC: 3.985 (Simulation time: 00 hr 14 min 01 sec)
Heartbeat CPU 0 instructions: 50000002 cycles: 12537128 heartbeat IPC: 4 cumulative IPC: 3.988 (Simulation time: 00 hr 17 min 24 sec)
Warmup finished CPU 0 instructions: 50000002 cycles: 12537129 cumulative IPC: 3.988 (Simulation time: 00 hr 17 min 24 sec)
Warmup complete CPU 0 instructions: 50000002 cycles: 12537129 cumulative IPC: 3.988 (Simulation time: 00 hr 17 min 24 sec)
Heartbeat CPU 0 instructions: 60000000 cycles: 17692744 heartbeat IPC: 1.94 cumulative IPC: 1.94 (Simulation time: 00 hr 22 min 39 sec)
Heartbeat CPU 0 instructions: 70000002 cycles: 22578853 heartbeat IPC: 2.047 cumulative IPC: 1.992 (Simulation time: 00 hr 27 min 45 sec)
Heartbeat CPU 0 instructions: 80000001 cycles: 27934579 heartbeat IPC: 1.867 cumulative IPC: 1.948 (Simulation time: 00 hr 33 min 02 sec)
Heartbeat CPU 0 instructions: 90000001 cycles: 32808213 heartbeat IPC: 2.052 cumulative IPC: 1.973 (Simulation time: 00 hr 38 min 04 sec)
Heartbeat CPU 0 instructions: 100000000 cycles: 37911116 heartbeat IPC: 1.96 cumulative IPC: 1.971 (Simulation time: 00 hr 43 min 14 sec)
Heartbeat CPU 0 instructions: 110000000 cycles: 42793922 heartbeat IPC: 2.048 cumulative IPC: 1.983 (Simulation time: 00 hr 48 min 15 sec)
Heartbeat CPU 0 instructions: 120000001 cycles: 47982352 heartbeat IPC: 1.927 cumulative IPC: 1.975 (Simulation time: 00 hr 53 min 27 sec)
Heartbeat CPU 0 instructions: 130000001 cycles: 53130171 heartbeat IPC: 1.943 cumulative IPC: 1.971 (Simulation time: 00 hr 58 min 42 sec)
Heartbeat CPU 0 instructions: 140000001 cycles: 58427481 heartbeat IPC: 1.888 cumulative IPC: 1.961 (Simulation time: 01 hr 03 min 58 sec)
Heartbeat CPU 0 instructions: 150000001 cycles: 63728785 heartbeat IPC: 1.886 cumulative IPC: 1.953 (Simulation time: 01 hr 09 min 17 sec)
Heartbeat CPU 0 instructions: 160000004 cycles: 68915268 heartbeat IPC: 1.928 cumulative IPC: 1.951 (Simulation time: 01 hr 14 min 29 sec)
Heartbeat CPU 0 instructions: 170000000 cycles: 76688343 heartbeat IPC: 1.286 cumulative IPC: 1.871 (Simulation time: 01 hr 21 min 31 sec)
Heartbeat CPU 0 instructions: 180000004 cycles: 83307135 heartbeat IPC: 1.511 cumulative IPC: 1.837 (Simulation time: 01 hr 27 min 59 sec)
Heartbeat CPU 0 instructions: 190000001 cycles: 89546825 heartbeat IPC: 1.603 cumulative IPC: 1.818 (Simulation time: 01 hr 34 min 10 sec)
Heartbeat CPU 0 instructions: 200000003 cycles: 94026429 heartbeat IPC: 2.232 cumulative IPC: 1.841 (Simulation time: 01 hr 39 min 02 sec)
Heartbeat CPU 0 instructions: 210000001 cycles: 98727984 heartbeat IPC: 2.127 cumulative IPC: 1.856 (Simulation time: 01 hr 44 min 00 sec)
Heartbeat CPU 0 instructions: 220000000 cycles: 103424184 heartbeat IPC: 2.129 cumulative IPC: 1.87 (Simulation time: 01 hr 48 min 57 sec)
Heartbeat CPU 0 instructions: 230000002 cycles: 108295000 heartbeat IPC: 2.053 cumulative IPC: 1.88 (Simulation time: 01 hr 53 min 55 sec)
Heartbeat CPU 0 instructions: 240000000 cycles: 112863451 heartbeat IPC: 2.189 cumulative IPC: 1.894 (Simulation time: 01 hr 58 min 49 sec)
Heartbeat CPU 0 instructions: 250000000 cycles: 117686859 heartbeat IPC: 2.073 cumulative IPC: 1.902 (Simulation time: 02 hr 03 min 49 sec)
Heartbeat CPU 0 instructions: 260000000 cycles: 122380971 heartbeat IPC: 2.13 cumulative IPC: 1.912 (Simulation time: 02 hr 08 min 47 sec)
Heartbeat CPU 0 instructions: 270000002 cycles: 127039390 heartbeat IPC: 2.147 cumulative IPC: 1.921 (Simulation time: 02 hr 13 min 43 sec)
Heartbeat CPU 0 instructions: 280000002 cycles: 131698748 heartbeat IPC: 2.146 cumulative IPC: 1.93 (Simulation time: 02 hr 18 min 39 sec)
Heartbeat CPU 0 instructions: 290000001 cycles: 136860070 heartbeat IPC: 1.937 cumulative IPC: 1.93 (Simulation time: 02 hr 23 min 31 sec)
Heartbeat CPU 0 instructions: 300000003 cycles: 141600673 heartbeat IPC: 2.109 cumulative IPC: 1.937 (Simulation time: 02 hr 28 min 19 sec)
Heartbeat CPU 0 instructions: 310000001 cycles: 146531342 heartbeat IPC: 2.028 cumulative IPC: 1.94 (Simulation time: 02 hr 33 min 10 sec)
Heartbeat CPU 0 instructions: 320000003 cycles: 151461419 heartbeat IPC: 2.028 cumulative IPC: 1.944 (Simulation time: 02 hr 38 min 09 sec)
Heartbeat CPU 0 instructions: 330000003 cycles: 156364597 heartbeat IPC: 2.039 cumulative IPC: 1.947 (Simulation time: 02 hr 43 min 08 sec)
Heartbeat CPU 0 instructions: 340000000 cycles: 162737709 heartbeat IPC: 1.569 cumulative IPC: 1.931 (Simulation time: 02 hr 49 min 16 sec)
Heartbeat CPU 0 instructions: 350000000 cycles: 169552661 heartbeat IPC: 1.467 cumulative IPC: 1.911 (Simulation time: 02 hr 55 min 50 sec)
Heartbeat CPU 0 instructions: 360000004 cycles: 176114378 heartbeat IPC: 1.524 cumulative IPC: 1.895 (Simulation time: 03 hr 02 min 09 sec)
Heartbeat CPU 0 instructions: 370000000 cycles: 180316183 heartbeat IPC: 2.38 cumulative IPC: 1.907 (Simulation time: 03 hr 06 min 51 sec)
Heartbeat CPU 0 instructions: 380000001 cycles: 185034205 heartbeat IPC: 2.12 cumulative IPC: 1.913 (Simulation time: 03 hr 11 min 51 sec)
Heartbeat CPU 0 instructions: 390000002 cycles: 189716207 heartbeat IPC: 2.136 cumulative IPC: 1.919 (Simulation time: 03 hr 16 min 47 sec)
Heartbeat CPU 0 instructions: 400000004 cycles: 194563599 heartbeat IPC: 2.063 cumulative IPC: 1.923 (Simulation time: 03 hr 21 min 52 sec)
Heartbeat CPU 0 instructions: 410000000 cycles: 199059319 heartbeat IPC: 2.224 cumulative IPC: 1.93 (Simulation time: 03 hr 26 min 43 sec)
Heartbeat CPU 0 instructions: 420000000 cycles: 203841825 heartbeat IPC: 2.091 cumulative IPC: 1.934 (Simulation time: 03 hr 31 min 42 sec)
Heartbeat CPU 0 instructions: 430000001 cycles: 208129675 heartbeat IPC: 2.332 cumulative IPC: 1.943 (Simulation time: 03 hr 36 min 29 sec)
Heartbeat CPU 0 instructions: 440000000 cycles: 213212351 heartbeat IPC: 1.967 cumulative IPC: 1.943 (Simulation time: 03 hr 41 min 39 sec)
Heartbeat CPU 0 instructions: 450000002 cycles: 217638551 heartbeat IPC: 2.259 cumulative IPC: 1.95 (Simulation time: 03 hr 46 min 27 sec)
Heartbeat CPU 0 instructions: 460000000 cycles: 222220365 heartbeat IPC: 2.183 cumulative IPC: 1.955 (Simulation time: 03 hr 51 min 19 sec)
Heartbeat CPU 0 instructions: 470000000 cycles: 227009593 heartbeat IPC: 2.088 cumulative IPC: 1.958 (Simulation time: 03 hr 56 min 22 sec)
Heartbeat CPU 0 instructions: 480000003 cycles: 231574383 heartbeat IPC: 2.191 cumulative IPC: 1.963 (Simulation time: 04 hr 01 min 16 sec)
Heartbeat CPU 0 instructions: 490000000 cycles: 236039897 heartbeat IPC: 2.239 cumulative IPC: 1.969 (Simulation time: 04 hr 06 min 06 sec)
Heartbeat CPU 0 instructions: 500000000 cycles: 240920760 heartbeat IPC: 2.049 cumulative IPC: 1.97 (Simulation time: 04 hr 11 min 12 sec)
Heartbeat CPU 0 instructions: 510000003 cycles: 246309950 heartbeat IPC: 1.856 cumulative IPC: 1.968 (Simulation time: 04 hr 16 min 34 sec)
Heartbeat CPU 0 instructions: 520000001 cycles: 250744296 heartbeat IPC: 2.255 cumulative IPC: 1.973 (Simulation time: 04 hr 21 min 25 sec)
Heartbeat CPU 0 instructions: 530000002 cycles: 255679654 heartbeat IPC: 2.026 cumulative IPC: 1.974 (Simulation time: 04 hr 26 min 34 sec)
Heartbeat CPU 0 instructions: 540000000 cycles: 260585150 heartbeat IPC: 2.039 cumulative IPC: 1.975 (Simulation time: 04 hr 31 min 50 sec)
Heartbeat CPU 0 instructions: 550000001 cycles: 265219272 heartbeat IPC: 2.158 cumulative IPC: 1.979 (Simulation time: 04 hr 36 min 48 sec)
Heartbeat CPU 0 instructions: 560000000 cycles: 270123737 heartbeat IPC: 2.039 cumulative IPC: 1.98 (Simulation time: 04 hr 41 min 57 sec)
Heartbeat CPU 0 instructions: 570000004 cycles: 275466311 heartbeat IPC: 1.872 cumulative IPC: 1.978 (Simulation time: 04 hr 47 min 30 sec)
Heartbeat CPU 0 instructions: 580000003 cycles: 282474186 heartbeat IPC: 1.427 cumulative IPC: 1.963 (Simulation time: 04 hr 54 min 16 sec)
Heartbeat CPU 0 instructions: 590000002 cycles: 289714829 heartbeat IPC: 1.381 cumulative IPC: 1.948 (Simulation time: 05 hr 01 min 13 sec)
Heartbeat CPU 0 instructions: 600000000 cycles: 294049472 heartbeat IPC: 2.307 cumulative IPC: 1.954 (Simulation time: 05 hr 06 min 02 sec)
Heartbeat CPU 0 instructions: 610000002 cycles: 298360638 heartbeat IPC: 2.32 cumulative IPC: 1.959 (Simulation time: 05 hr 11 min 00 sec)
Heartbeat CPU 0 instructions: 620000000 cycles: 303060195 heartbeat IPC: 2.128 cumulative IPC: 1.962 (Simulation time: 05 hr 16 min 04 sec)
Heartbeat CPU 0 instructions: 630000002 cycles: 307980881 heartbeat IPC: 2.032 cumulative IPC: 1.963 (Simulation time: 05 hr 21 min 22 sec)
Heartbeat CPU 0 instructions: 640000001 cycles: 312763420 heartbeat IPC: 2.091 cumulative IPC: 1.965 (Simulation time: 05 hr 26 min 31 sec)
Heartbeat CPU 0 instructions: 650000000 cycles: 317256856 heartbeat IPC: 2.225 cumulative IPC: 1.969 (Simulation time: 05 hr 31 min 36 sec)
Simulation finished CPU 0 instructions: 600000001 cycles: 304719729 cumulative IPC: 1.969 (Simulation time: 05 hr 31 min 36 sec)
Simulation complete CPU 0 instructions: 600000001 cycles: 304719729 cumulative IPC: 1.969 (Simulation time: 05 hr 31 min 36 sec)

ChampSim completed all CPUs

=== Simulation ===
CPU 0 runs traces/400.perlbench-41B.champsimtrace.xz
Region of Interest Statistics

CPU 0 cumulative IPC: 1.969 instructions: 600000001 cycles: 304719729
CPU 0 Branch Prediction Accuracy: 93.95% MPKI: 12.5 Average ROB Occupancy at Mispredict: 29.29
Branch type MPKI
BRANCH_DIRECT_JUMP: 0.0123
BRANCH_INDIRECT: 0.323
BRANCH_CONDITIONAL: 12
BRANCH_DIRECT_CALL: 0.0043
BRANCH_INDIRECT_CALL: 0.2
BRANCH_RETURN: 0.00828

LLC TOTAL        ACCESS:     540573 HIT:     489780 MISS:      50793
LLC LOAD         ACCESS:     403255 HIT:     363406 MISS:      39849
LLC RFO          ACCESS:      32596 HIT:      28276 MISS:       4320
LLC PREFETCH     ACCESS:          0 HIT:          0 MISS:          0
LLC WRITE        ACCESS:      85747 HIT:      85723 MISS:         24
LLC TRANSLATION  ACCESS:      18975 HIT:      12375 MISS:       6600
LLC PREFETCH REQUESTED:          0 ISSUED:          0 USEFUL:          0 USELESS:          0
LLC AVERAGE MISS LATENCY: 478.1 cycles
cpu0_DTLB TOTAL        ACCESS:  153694598 HIT:  153017960 MISS:     676638
cpu0_DTLB LOAD         ACCESS:  153694598 HIT:  153017960 MISS:     676638
cpu0_DTLB RFO          ACCESS:          0 HIT:          0 MISS:          0
cpu0_DTLB PREFETCH     ACCESS:          0 HIT:          0 MISS:          0
cpu0_DTLB WRITE        ACCESS:          0 HIT:          0 MISS:          0
cpu0_DTLB TRANSLATION  ACCESS:          0 HIT:          0 MISS:          0
cpu0_DTLB PREFETCH REQUESTED:          0 ISSUED:          0 USEFUL:          0 USELESS:          0
cpu0_DTLB AVERAGE MISS LATENCY: 10.74 cycles
cpu0_ITLB TOTAL        ACCESS:    4838899 HIT:    4781049 MISS:      57850
cpu0_ITLB LOAD         ACCESS:    4838899 HIT:    4781049 MISS:      57850
cpu0_ITLB RFO          ACCESS:          0 HIT:          0 MISS:          0
cpu0_ITLB PREFETCH     ACCESS:          0 HIT:          0 MISS:          0
cpu0_ITLB WRITE        ACCESS:          0 HIT:          0 MISS:          0
cpu0_ITLB TRANSLATION  ACCESS:          0 HIT:          0 MISS:          0
cpu0_ITLB PREFETCH REQUESTED:          0 ISSUED:          0 USEFUL:          0 USELESS:          0
cpu0_ITLB AVERAGE MISS LATENCY: 4.497 cycles
cpu0_L1D TOTAL        ACCESS:  200325571 HIT:  198643727 MISS:    1681844
cpu0_L1D LOAD         ACCESS:  117082706 HIT:  115768544 MISS:    1314162
cpu0_L1D RFO          ACCESS:          0 HIT:          0 MISS:          0
cpu0_L1D PREFETCH     ACCESS:          0 HIT:          0 MISS:          0
cpu0_L1D WRITE        ACCESS:   83218400 HIT:   82874137 MISS:     344263
cpu0_L1D TRANSLATION  ACCESS:      24465 HIT:       1046 MISS:      23419
cpu0_L1D PREFETCH REQUESTED:          0 ISSUED:          0 USEFUL:          0 USELESS:          0
cpu0_L1D AVERAGE MISS LATENCY: 22.82 cycles
cpu0_L1I TOTAL        ACCESS:    5581180 HIT:    4819686 MISS:     761494
cpu0_L1I LOAD         ACCESS:    5581180 HIT:    4819686 MISS:     761494
cpu0_L1I RFO          ACCESS:          0 HIT:          0 MISS:          0
cpu0_L1I PREFETCH     ACCESS:          0 HIT:          0 MISS:          0
cpu0_L1I WRITE        ACCESS:          0 HIT:          0 MISS:          0
cpu0_L1I TRANSLATION  ACCESS:          0 HIT:          0 MISS:          0
cpu0_L1I PREFETCH REQUESTED:          0 ISSUED:          0 USEFUL:          0 USELESS:          0
cpu0_L1I AVERAGE MISS LATENCY: 8.844 cycles
cpu0_L2C TOTAL        ACCESS:    1668152 HIT:    1211527 MISS:     456625
cpu0_L2C LOAD         ACCESS:    1317207 HIT:     913952 MISS:     403255
cpu0_L2C RFO          ACCESS:      88572 HIT:      55976 MISS:      32596
cpu0_L2C PREFETCH     ACCESS:          0 HIT:          0 MISS:          0
cpu0_L2C WRITE        ACCESS:     239033 HIT:     237234 MISS:       1799
cpu0_L2C TRANSLATION  ACCESS:      23340 HIT:       4365 MISS:      18975
cpu0_L2C PREFETCH REQUESTED:          0 ISSUED:          0 USEFUL:          0 USELESS:          0
cpu0_L2C AVERAGE MISS LATENCY: 73.22 cycles
cpu0_STLB TOTAL        ACCESS:     505160 HIT:     482371 MISS:      22789
cpu0_STLB LOAD         ACCESS:     505160 HIT:     482371 MISS:      22789
cpu0_STLB RFO          ACCESS:          0 HIT:          0 MISS:          0
cpu0_STLB PREFETCH     ACCESS:          0 HIT:          0 MISS:          0
cpu0_STLB WRITE        ACCESS:          0 HIT:          0 MISS:          0
cpu0_STLB TRANSLATION  ACCESS:          0 HIT:          0 MISS:          0
cpu0_STLB PREFETCH REQUESTED:          0 ISSUED:          0 USEFUL:          0 USELESS:          0
cpu0_STLB AVERAGE MISS LATENCY: 185 cycles

DRAM Statistics

Channel 0 RQ ROW_BUFFER_HIT:      13267
  ROW_BUFFER_MISS:      37502
 AVG DBUS CONGESTED CYCLE: 3.69
WQ ROW_BUFFER_HIT: Channel 0 
  ROW_BUFFER_MISS:        628
  FULL:       1127
