WARNING: physical memory size is smaller than virtual memory size.

*** ChampSim Multicore Out-of-Order Simulator ***
Warmup Instructions: 50000000
Simulation Instructions: 600000000
Number of CPUs: 1
Page size: 4096

CPU 0 Tage branch predictor
Off-chip DRAM Size: 4 GiB Channels: 1 Width: 64-bit Data Race: 3200 MT/s
Heartbeat CPU 0 instructions: 10000000 cycles: 2500061 heartbeat IPC: 4 cumulative IPC: 4 (Simulation time: 00 hr 00 min 40 sec)
Heartbeat CPU 0 instructions: 20000000 cycles: 5000061 heartbeat IPC: 4 cumulative IPC: 4 (Simulation time: 00 hr 01 min 20 sec)
Heartbeat CPU 0 instructions: 30000000 cycles: 7500061 heartbeat IPC: 4 cumulative IPC: 4 (Simulation time: 00 hr 02 min 00 sec)
Heartbeat CPU 0 instructions: 40000000 cycles: 10000061 heartbeat IPC: 4 cumulative IPC: 4 (Simulation time: 00 hr 02 min 44 sec)
Heartbeat CPU 0 instructions: 50000000 cycles: 12500061 heartbeat IPC: 4 cumulative IPC: 4 (Simulation time: 00 hr 03 min 24 sec)
Warmup finished CPU 0 instructions: 50000000 cycles: 12500062 cumulative IPC: 4 (Simulation time: 00 hr 03 min 24 sec)
Warmup complete CPU 0 instructions: 50000000 cycles: 12500062 cumulative IPC: 4 (Simulation time: 00 hr 03 min 24 sec)
Heartbeat CPU 0 instructions: 60000004 cycles: 15504489 heartbeat IPC: 3.328 cumulative IPC: 3.328 (Simulation time: 00 hr 04 min 15 sec)
Heartbeat CPU 0 instructions: 70000003 cycles: 18370762 heartbeat IPC: 3.489 cumulative IPC: 3.407 (Simulation time: 00 hr 05 min 04 sec)
Heartbeat CPU 0 instructions: 80000002 cycles: 21382300 heartbeat IPC: 3.321 cumulative IPC: 3.378 (Simulation time: 00 hr 05 min 53 sec)
Heartbeat CPU 0 instructions: 90000000 cycles: 24100329 heartbeat IPC: 3.679 cumulative IPC: 3.448 (Simulation time: 00 hr 06 min 41 sec)
Heartbeat CPU 0 instructions: 100000003 cycles: 26857493 heartbeat IPC: 3.627 cumulative IPC: 3.483 (Simulation time: 00 hr 07 min 27 sec)
Heartbeat CPU 0 instructions: 110000001 cycles: 29755202 heartbeat IPC: 3.451 cumulative IPC: 3.477 (Simulation time: 00 hr 08 min 14 sec)
Heartbeat CPU 0 instructions: 120000001 cycles: 32471687 heartbeat IPC: 3.681 cumulative IPC: 3.505 (Simulation time: 00 hr 09 min 02 sec)
Heartbeat CPU 0 instructions: 130000003 cycles: 35371153 heartbeat IPC: 3.449 cumulative IPC: 3.498 (Simulation time: 00 hr 09 min 51 sec)
Heartbeat CPU 0 instructions: 140000002 cycles: 38204957 heartbeat IPC: 3.529 cumulative IPC: 3.501 (Simulation time: 00 hr 10 min 37 sec)
Heartbeat CPU 0 instructions: 150000001 cycles: 40975005 heartbeat IPC: 3.61 cumulative IPC: 3.512 (Simulation time: 00 hr 11 min 22 sec)
Heartbeat CPU 0 instructions: 160000000 cycles: 43892634 heartbeat IPC: 3.427 cumulative IPC: 3.504 (Simulation time: 00 hr 12 min 08 sec)
Heartbeat CPU 0 instructions: 170000001 cycles: 46821114 heartbeat IPC: 3.415 cumulative IPC: 3.496 (Simulation time: 00 hr 12 min 55 sec)
Heartbeat CPU 0 instructions: 180000000 cycles: 49612148 heartbeat IPC: 3.583 cumulative IPC: 3.503 (Simulation time: 00 hr 13 min 41 sec)
Heartbeat CPU 0 instructions: 190000002 cycles: 52319155 heartbeat IPC: 3.694 cumulative IPC: 3.516 (Simulation time: 00 hr 14 min 26 sec)
Heartbeat CPU 0 instructions: 200000002 cycles: 55139904 heartbeat IPC: 3.545 cumulative IPC: 3.518 (Simulation time: 00 hr 15 min 11 sec)
Heartbeat CPU 0 instructions: 210000000 cycles: 58032602 heartbeat IPC: 3.457 cumulative IPC: 3.514 (Simulation time: 00 hr 15 min 55 sec)
Heartbeat CPU 0 instructions: 220000001 cycles: 60784611 heartbeat IPC: 3.634 cumulative IPC: 3.521 (Simulation time: 00 hr 16 min 40 sec)
Heartbeat CPU 0 instructions: 230000002 cycles: 63673784 heartbeat IPC: 3.461 cumulative IPC: 3.517 (Simulation time: 00 hr 17 min 24 sec)
Heartbeat CPU 0 instructions: 240000004 cycles: 66624801 heartbeat IPC: 3.389 cumulative IPC: 3.51 (Simulation time: 00 hr 18 min 11 sec)
Heartbeat CPU 0 instructions: 250000003 cycles: 69515661 heartbeat IPC: 3.459 cumulative IPC: 3.508 (Simulation time: 00 hr 18 min 58 sec)
Heartbeat CPU 0 instructions: 260000001 cycles: 72300103 heartbeat IPC: 3.591 cumulative IPC: 3.512 (Simulation time: 00 hr 19 min 44 sec)
Heartbeat CPU 0 instructions: 270000002 cycles: 78059363 heartbeat IPC: 1.736 cumulative IPC: 3.356 (Simulation time: 00 hr 20 min 49 sec)
Heartbeat CPU 0 instructions: 280000000 cycles: 86488783 heartbeat IPC: 1.186 cumulative IPC: 3.109 (Simulation time: 00 hr 22 min 11 sec)
Heartbeat CPU 0 instructions: 290000000 cycles: 93386228 heartbeat IPC: 1.45 cumulative IPC: 2.967 (Simulation time: 00 hr 23 min 24 sec)
Heartbeat CPU 0 instructions: 300000003 cycles: 98380291 heartbeat IPC: 2.002 cumulative IPC: 2.911 (Simulation time: 00 hr 24 min 28 sec)
Heartbeat CPU 0 instructions: 310000001 cycles: 105665573 heartbeat IPC: 1.373 cumulative IPC: 2.791 (Simulation time: 00 hr 25 min 48 sec)
Heartbeat CPU 0 instructions: 320000004 cycles: 109309565 heartbeat IPC: 2.744 cumulative IPC: 2.789 (Simulation time: 00 hr 26 min 42 sec)
Heartbeat CPU 0 instructions: 330000000 cycles: 112410695 heartbeat IPC: 3.225 cumulative IPC: 2.803 (Simulation time: 00 hr 27 min 31 sec)
Heartbeat CPU 0 instructions: 340000001 cycles: 115222468 heartbeat IPC: 3.556 cumulative IPC: 2.823 (Simulation time: 00 hr 28 min 19 sec)
Heartbeat CPU 0 instructions: 350000000 cycles: 118185835 heartbeat IPC: 3.375 cumulative IPC: 2.839 (Simulation time: 00 hr 29 min 06 sec)
Heartbeat CPU 0 instructions: 360000004 cycles: 120967424 heartbeat IPC: 3.595 cumulative IPC: 2.858 (Simulation time: 00 hr 29 min 51 sec)
Heartbeat CPU 0 instructions: 370000001 cycles: 123765746 heartbeat IPC: 3.574 cumulative IPC: 2.876 (Simulation time: 00 hr 30 min 39 sec)
Heartbeat CPU 0 instructions: 380000004 cycles: 126596920 heartbeat IPC: 3.532 cumulative IPC: 2.892 (Simulation time: 00 hr 31 min 24 sec)
Heartbeat CPU 0 instructions: 390000002 cycles: 129452228 heartbeat IPC: 3.502 cumulative IPC: 2.907 (Simulation time: 00 hr 32 min 09 sec)
Heartbeat CPU 0 instructions: 400000000 cycles: 132358915 heartbeat IPC: 3.44 cumulative IPC: 2.92 (Simulation time: 00 hr 32 min 55 sec)
Heartbeat CPU 0 instructions: 410000000 cycles: 136600136 heartbeat IPC: 2.358 cumulative IPC: 2.901 (Simulation time: 00 hr 33 min 48 sec)
Heartbeat CPU 0 instructions: 420000003 cycles: 141854179 heartbeat IPC: 1.903 cumulative IPC: 2.86 (Simulation time: 00 hr 34 min 49 sec)
Heartbeat CPU 0 instructions: 430000000 cycles: 146236923 heartbeat IPC: 2.282 cumulative IPC: 2.841 (Simulation time: 00 hr 35 min 46 sec)
Heartbeat CPU 0 instructions: 440000004 cycles: 150453884 heartbeat IPC: 2.371 cumulative IPC: 2.827 (Simulation time: 00 hr 36 min 41 sec)
Heartbeat CPU 0 instructions: 450000001 cycles: 154713129 heartbeat IPC: 2.348 cumulative IPC: 2.813 (Simulation time: 00 hr 37 min 37 sec)
Heartbeat CPU 0 instructions: 460000002 cycles: 160091834 heartbeat IPC: 1.859 cumulative IPC: 2.778 (Simulation time: 00 hr 38 min 43 sec)
Heartbeat CPU 0 instructions: 470000003 cycles: 164602714 heartbeat IPC: 2.217 cumulative IPC: 2.761 (Simulation time: 00 hr 39 min 43 sec)
Heartbeat CPU 0 instructions: 480000000 cycles: 167599940 heartbeat IPC: 3.336 cumulative IPC: 2.772 (Simulation time: 00 hr 40 min 32 sec)
Heartbeat CPU 0 instructions: 490000001 cycles: 170622064 heartbeat IPC: 3.309 cumulative IPC: 2.783 (Simulation time: 00 hr 41 min 20 sec)
Heartbeat CPU 0 instructions: 500000002 cycles: 173563852 heartbeat IPC: 3.399 cumulative IPC: 2.794 (Simulation time: 00 hr 42 min 08 sec)
Heartbeat CPU 0 instructions: 510000000 cycles: 176508398 heartbeat IPC: 3.396 cumulative IPC: 2.805 (Simulation time: 00 hr 42 min 56 sec)
Heartbeat CPU 0 instructions: 520000000 cycles: 179464041 heartbeat IPC: 3.383 cumulative IPC: 2.815 (Simulation time: 00 hr 43 min 44 sec)
Heartbeat CPU 0 instructions: 530000001 cycles: 184576187 heartbeat IPC: 1.956 cumulative IPC: 2.789 (Simulation time: 00 hr 44 min 48 sec)
Heartbeat CPU 0 instructions: 540000000 cycles: 189519424 heartbeat IPC: 2.023 cumulative IPC: 2.768 (Simulation time: 00 hr 45 min 51 sec)
Heartbeat CPU 0 instructions: 550000004 cycles: 194892946 heartbeat IPC: 1.861 cumulative IPC: 2.741 (Simulation time: 00 hr 46 min 57 sec)
Heartbeat CPU 0 instructions: 560000004 cycles: 198047224 heartbeat IPC: 3.17 cumulative IPC: 2.749 (Simulation time: 00 hr 47 min 44 sec)
Heartbeat CPU 0 instructions: 570000002 cycles: 200826494 heartbeat IPC: 3.598 cumulative IPC: 2.761 (Simulation time: 00 hr 48 min 29 sec)
Heartbeat CPU 0 instructions: 580000000 cycles: 203663272 heartbeat IPC: 3.525 cumulative IPC: 2.773 (Simulation time: 00 hr 49 min 13 sec)
Heartbeat CPU 0 instructions: 590000001 cycles: 206515603 heartbeat IPC: 3.506 cumulative IPC: 2.783 (Simulation time: 00 hr 49 min 58 sec)
Heartbeat CPU 0 instructions: 600000003 cycles: 209169504 heartbeat IPC: 3.768 cumulative IPC: 2.797 (Simulation time: 00 hr 50 min 43 sec)
Heartbeat CPU 0 instructions: 610000001 cycles: 211983364 heartbeat IPC: 3.554 cumulative IPC: 2.807 (Simulation time: 00 hr 51 min 29 sec)
Heartbeat CPU 0 instructions: 620000004 cycles: 214894727 heartbeat IPC: 3.435 cumulative IPC: 2.816 (Simulation time: 00 hr 52 min 17 sec)
Heartbeat CPU 0 instructions: 630000002 cycles: 217672632 heartbeat IPC: 3.6 cumulative IPC: 2.827 (Simulation time: 00 hr 53 min 04 sec)
Heartbeat CPU 0 instructions: 640000004 cycles: 220683081 heartbeat IPC: 3.322 cumulative IPC: 2.834 (Simulation time: 00 hr 53 min 54 sec)
Heartbeat CPU 0 instructions: 650000001 cycles: 223378445 heartbeat IPC: 3.71 cumulative IPC: 2.845 (Simulation time: 00 hr 54 min 41 sec)
Simulation finished CPU 0 instructions: 600000001 cycles: 210878384 cumulative IPC: 2.845 (Simulation time: 00 hr 54 min 41 sec)
Simulation complete CPU 0 instructions: 600000001 cycles: 210878384 cumulative IPC: 2.845 (Simulation time: 00 hr 54 min 41 sec)

ChampSim completed all CPUs

=== Simulation ===
CPU 0 runs traces/400.perlbench-50B.champsimtrace.xz
Region of Interest Statistics

CPU 0 cumulative IPC: 2.845 instructions: 600000001 cycles: 210878384
CPU 0 Branch Prediction Accuracy: 99.01% MPKI: 2.04 Average ROB Occupancy at Mispredict: 93.43
Branch type MPKI
BRANCH_DIRECT_JUMP: 0.0176
BRANCH_INDIRECT: 0.38
BRANCH_CONDITIONAL: 1.19
BRANCH_DIRECT_CALL: 0.0067
BRANCH_INDIRECT_CALL: 0.431
BRANCH_RETURN: 0.0161

LLC TOTAL        ACCESS:     771408 HIT:     646036 MISS:     125372
LLC LOAD         ACCESS:     575622 HIT:     469114 MISS:     106508
LLC RFO          ACCESS:      46990 HIT:      37251 MISS:       9739
LLC PREFETCH     ACCESS:          0 HIT:          0 MISS:          0
LLC WRITE        ACCESS:     126616 HIT:     126607 MISS:          9
LLC TRANSLATION  ACCESS:      22180 HIT:      13064 MISS:       9116
LLC PREFETCH REQUESTED:          0 ISSUED:          0 USEFUL:          0 USELESS:          0
LLC AVERAGE MISS LATENCY: 515.1 cycles
cpu0_DTLB TOTAL        ACCESS:  133215774 HIT:  131861807 MISS:    1353967
cpu0_DTLB LOAD         ACCESS:  133215774 HIT:  131861807 MISS:    1353967
cpu0_DTLB RFO          ACCESS:          0 HIT:          0 MISS:          0
cpu0_DTLB PREFETCH     ACCESS:          0 HIT:          0 MISS:          0
cpu0_DTLB WRITE        ACCESS:          0 HIT:          0 MISS:          0
cpu0_DTLB TRANSLATION  ACCESS:          0 HIT:          0 MISS:          0
cpu0_DTLB PREFETCH REQUESTED:          0 ISSUED:          0 USEFUL:          0 USELESS:          0
cpu0_DTLB AVERAGE MISS LATENCY: 9.473 cycles
cpu0_ITLB TOTAL        ACCESS:    8985770 HIT:    8776356 MISS:     209414
cpu0_ITLB LOAD         ACCESS:    8985770 HIT:    8776356 MISS:     209414
cpu0_ITLB RFO          ACCESS:          0 HIT:          0 MISS:          0
cpu0_ITLB PREFETCH     ACCESS:          0 HIT:          0 MISS:          0
cpu0_ITLB WRITE        ACCESS:          0 HIT:          0 MISS:          0
cpu0_ITLB TRANSLATION  ACCESS:          0 HIT:          0 MISS:          0
cpu0_ITLB PREFETCH REQUESTED:          0 ISSUED:          0 USEFUL:          0 USELESS:          0
cpu0_ITLB AVERAGE MISS LATENCY: 2.378 cycles
cpu0_L1D TOTAL        ACCESS:  178280719 HIT:  174538027 MISS:    3742692
cpu0_L1D LOAD         ACCESS:   92761916 HIT:   89686913 MISS:    3075003
cpu0_L1D RFO          ACCESS:          0 HIT:          0 MISS:          0
cpu0_L1D PREFETCH     ACCESS:          0 HIT:          0 MISS:          0
cpu0_L1D WRITE        ACCESS:   85490276 HIT:   84849691 MISS:     640585
cpu0_L1D TRANSLATION  ACCESS:      28527 HIT:       1423 MISS:      27104
cpu0_L1D PREFETCH REQUESTED:          0 ISSUED:          0 USEFUL:          0 USELESS:          0
cpu0_L1D AVERAGE MISS LATENCY: 22.91 cycles
cpu0_L1I TOTAL        ACCESS:   10505973 HIT:    8607233 MISS:    1898740
cpu0_L1I LOAD         ACCESS:   10505973 HIT:    8607233 MISS:    1898740
cpu0_L1I RFO          ACCESS:          0 HIT:          0 MISS:          0
cpu0_L1I PREFETCH     ACCESS:          0 HIT:          0 MISS:          0
cpu0_L1I WRITE        ACCESS:          0 HIT:          0 MISS:          0
cpu0_L1I TRANSLATION  ACCESS:          0 HIT:          0 MISS:          0
cpu0_L1I PREFETCH REQUESTED:          0 ISSUED:          0 USEFUL:          0 USELESS:          0
cpu0_L1I AVERAGE MISS LATENCY: 8.513 cycles
cpu0_L2C TOTAL        ACCESS:    3840634 HIT:    3192717 MISS:     647917
cpu0_L2C LOAD         ACCESS:    3103898 HIT:    2528276 MISS:     575622
cpu0_L2C RFO          ACCESS:     194835 HIT:     147845 MISS:      46990
cpu0_L2C PREFETCH     ACCESS:          0 HIT:          0 MISS:          0
cpu0_L2C WRITE        ACCESS:     514870 HIT:     511745 MISS:       3125
cpu0_L2C TRANSLATION  ACCESS:      27031 HIT:       4851 MISS:      22180
cpu0_L2C PREFETCH REQUESTED:          0 ISSUED:          0 USEFUL:          0 USELESS:          0
cpu0_L2C AVERAGE MISS LATENCY: 119.8 cycles
cpu0_STLB TOTAL        ACCESS:    1009706 HIT:     983017 MISS:      26689
cpu0_STLB LOAD         ACCESS:    1009706 HIT:     983017 MISS:      26689
cpu0_STLB RFO          ACCESS:          0 HIT:          0 MISS:          0
cpu0_STLB PREFETCH     ACCESS:          0 HIT:          0 MISS:          0
cpu0_STLB WRITE        ACCESS:          0 HIT:          0 MISS:          0
cpu0_STLB TRANSLATION  ACCESS:          0 HIT:          0 MISS:          0
cpu0_STLB PREFETCH REQUESTED:          0 ISSUED:          0 USEFUL:          0 USELESS:          0
cpu0_STLB AVERAGE MISS LATENCY: 266 cycles

DRAM Statistics

Channel 0 RQ ROW_BUFFER_HIT:      37145
  ROW_BUFFER_MISS:      88210
 AVG DBUS CONGESTED CYCLE: 3.746
WQ ROW_BUFFER_HIT: Channel 0 
  ROW_BUFFER_MISS:       1286
  FULL:       1674
