WARNING: physical memory size is smaller than virtual memory size.

*** ChampSim Multicore Out-of-Order Simulator ***
Warmup Instructions: 50000000
Simulation Instructions: 600000000
Number of CPUs: 1
Page size: 4096

Off-chip DRAM Size: 4 GiB Channels: 1 Width: 64-bit Data Race: 3200 MT/s
Heartbeat CPU 0 instructions: 10000001 cycles: 2500318 heartbeat IPC: 3.999 cumulative IPC: 3.999 (Simulation time: 00 hr 00 min 37 sec)
Heartbeat CPU 0 instructions: 20000002 cycles: 5037121 heartbeat IPC: 3.942 cumulative IPC: 3.971 (Simulation time: 00 hr 01 min 12 sec)
Heartbeat CPU 0 instructions: 30000002 cycles: 7537121 heartbeat IPC: 4 cumulative IPC: 3.98 (Simulation time: 00 hr 01 min 45 sec)
Heartbeat CPU 0 instructions: 40000002 cycles: 10037121 heartbeat IPC: 4 cumulative IPC: 3.985 (Simulation time: 00 hr 02 min 19 sec)
Heartbeat CPU 0 instructions: 50000002 cycles: 12537121 heartbeat IPC: 4 cumulative IPC: 3.988 (Simulation time: 00 hr 02 min 54 sec)
Warmup finished CPU 0 instructions: 50000002 cycles: 12537122 cumulative IPC: 3.988 (Simulation time: 00 hr 02 min 54 sec)
Warmup complete CPU 0 instructions: 50000002 cycles: 12537122 cumulative IPC: 3.988 (Simulation time: 00 hr 02 min 54 sec)
Heartbeat CPU 0 instructions: 60000000 cycles: 17117275 heartbeat IPC: 2.183 cumulative IPC: 2.183 (Simulation time: 00 hr 03 min 43 sec)
Heartbeat CPU 0 instructions: 70000004 cycles: 21361846 heartbeat IPC: 2.356 cumulative IPC: 2.266 (Simulation time: 00 hr 04 min 30 sec)
Heartbeat CPU 0 instructions: 80000001 cycles: 25917157 heartbeat IPC: 2.195 cumulative IPC: 2.242 (Simulation time: 00 hr 05 min 18 sec)
Heartbeat CPU 0 instructions: 90000001 cycles: 30008353 heartbeat IPC: 2.444 cumulative IPC: 2.289 (Simulation time: 00 hr 06 min 04 sec)
Heartbeat CPU 0 instructions: 100000000 cycles: 34025074 heartbeat IPC: 2.49 cumulative IPC: 2.327 (Simulation time: 00 hr 06 min 50 sec)
Heartbeat CPU 0 instructions: 110000000 cycles: 38229875 heartbeat IPC: 2.378 cumulative IPC: 2.335 (Simulation time: 00 hr 07 min 37 sec)
Heartbeat CPU 0 instructions: 120000001 cycles: 42211245 heartbeat IPC: 2.512 cumulative IPC: 2.359 (Simulation time: 00 hr 08 min 22 sec)
Heartbeat CPU 0 instructions: 130000001 cycles: 45909232 heartbeat IPC: 2.704 cumulative IPC: 2.397 (Simulation time: 00 hr 09 min 07 sec)
Heartbeat CPU 0 instructions: 140000001 cycles: 50031641 heartbeat IPC: 2.426 cumulative IPC: 2.4 (Simulation time: 00 hr 09 min 53 sec)
Heartbeat CPU 0 instructions: 150000001 cycles: 54192592 heartbeat IPC: 2.403 cumulative IPC: 2.401 (Simulation time: 00 hr 10 min 40 sec)
Heartbeat CPU 0 instructions: 160000004 cycles: 58574658 heartbeat IPC: 2.282 cumulative IPC: 2.389 (Simulation time: 00 hr 11 min 28 sec)
Heartbeat CPU 0 instructions: 170000000 cycles: 65614974 heartbeat IPC: 1.42 cumulative IPC: 2.261 (Simulation time: 00 hr 12 min 33 sec)
Heartbeat CPU 0 instructions: 180000004 cycles: 72340123 heartbeat IPC: 1.487 cumulative IPC: 2.174 (Simulation time: 00 hr 13 min 37 sec)
Heartbeat CPU 0 instructions: 190000001 cycles: 78662892 heartbeat IPC: 1.582 cumulative IPC: 2.117 (Simulation time: 00 hr 14 min 39 sec)
Heartbeat CPU 0 instructions: 200000004 cycles: 82199466 heartbeat IPC: 2.828 cumulative IPC: 2.153 (Simulation time: 00 hr 15 min 22 sec)
Heartbeat CPU 0 instructions: 210000001 cycles: 85928825 heartbeat IPC: 2.681 cumulative IPC: 2.18 (Simulation time: 00 hr 16 min 06 sec)
Heartbeat CPU 0 instructions: 220000000 cycles: 89781509 heartbeat IPC: 2.596 cumulative IPC: 2.201 (Simulation time: 00 hr 16 min 51 sec)
Heartbeat CPU 0 instructions: 230000002 cycles: 94104213 heartbeat IPC: 2.313 cumulative IPC: 2.207 (Simulation time: 00 hr 17 min 38 sec)
Heartbeat CPU 0 instructions: 240000000 cycles: 98086660 heartbeat IPC: 2.511 cumulative IPC: 2.221 (Simulation time: 00 hr 18 min 23 sec)
Heartbeat CPU 0 instructions: 250000000 cycles: 102140578 heartbeat IPC: 2.467 cumulative IPC: 2.232 (Simulation time: 00 hr 19 min 09 sec)
Heartbeat CPU 0 instructions: 260000000 cycles: 106060393 heartbeat IPC: 2.551 cumulative IPC: 2.245 (Simulation time: 00 hr 19 min 55 sec)
Heartbeat CPU 0 instructions: 270000002 cycles: 109729939 heartbeat IPC: 2.725 cumulative IPC: 2.264 (Simulation time: 00 hr 20 min 38 sec)
Heartbeat CPU 0 instructions: 280000002 cycles: 113698536 heartbeat IPC: 2.52 cumulative IPC: 2.274 (Simulation time: 00 hr 21 min 22 sec)
Heartbeat CPU 0 instructions: 290000001 cycles: 117431279 heartbeat IPC: 2.679 cumulative IPC: 2.288 (Simulation time: 00 hr 22 min 05 sec)
Heartbeat CPU 0 instructions: 300000003 cycles: 121009331 heartbeat IPC: 2.795 cumulative IPC: 2.305 (Simulation time: 00 hr 22 min 49 sec)
Heartbeat CPU 0 instructions: 310000001 cycles: 124845254 heartbeat IPC: 2.607 cumulative IPC: 2.315 (Simulation time: 00 hr 23 min 35 sec)
Heartbeat CPU 0 instructions: 320000003 cycles: 128712512 heartbeat IPC: 2.586 cumulative IPC: 2.324 (Simulation time: 00 hr 24 min 19 sec)
Heartbeat CPU 0 instructions: 330000003 cycles: 132792572 heartbeat IPC: 2.451 cumulative IPC: 2.328 (Simulation time: 00 hr 25 min 05 sec)
Heartbeat CPU 0 instructions: 340000000 cycles: 139034758 heartbeat IPC: 1.602 cumulative IPC: 2.293 (Simulation time: 00 hr 26 min 06 sec)
Heartbeat CPU 0 instructions: 350000000 cycles: 145897410 heartbeat IPC: 1.457 cumulative IPC: 2.25 (Simulation time: 00 hr 27 min 12 sec)
Heartbeat CPU 0 instructions: 360000004 cycles: 152292862 heartbeat IPC: 1.564 cumulative IPC: 2.218 (Simulation time: 00 hr 28 min 14 sec)
Heartbeat CPU 0 instructions: 370000000 cycles: 155556483 heartbeat IPC: 3.064 cumulative IPC: 2.237 (Simulation time: 00 hr 28 min 57 sec)
Heartbeat CPU 0 instructions: 380000001 cycles: 158801825 heartbeat IPC: 3.081 cumulative IPC: 2.256 (Simulation time: 00 hr 29 min 39 sec)
Heartbeat CPU 0 instructions: 390000004 cycles: 162422389 heartbeat IPC: 2.762 cumulative IPC: 2.268 (Simulation time: 00 hr 30 min 23 sec)
Heartbeat CPU 0 instructions: 400000004 cycles: 166159892 heartbeat IPC: 2.676 cumulative IPC: 2.278 (Simulation time: 00 hr 31 min 06 sec)
Heartbeat CPU 0 instructions: 410000001 cycles: 169621090 heartbeat IPC: 2.889 cumulative IPC: 2.292 (Simulation time: 00 hr 31 min 48 sec)
Heartbeat CPU 0 instructions: 420000003 cycles: 173372005 heartbeat IPC: 2.666 cumulative IPC: 2.3 (Simulation time: 00 hr 32 min 30 sec)
Heartbeat CPU 0 instructions: 430000001 cycles: 176897112 heartbeat IPC: 2.837 cumulative IPC: 2.312 (Simulation time: 00 hr 33 min 13 sec)
Heartbeat CPU 0 instructions: 440000004 cycles: 180752285 heartbeat IPC: 2.594 cumulative IPC: 2.318 (Simulation time: 00 hr 33 min 56 sec)
Heartbeat CPU 0 instructions: 450000002 cycles: 184285942 heartbeat IPC: 2.83 cumulative IPC: 2.329 (Simulation time: 00 hr 34 min 38 sec)
Heartbeat CPU 0 instructions: 460000000 cycles: 187780680 heartbeat IPC: 2.861 cumulative IPC: 2.34 (Simulation time: 00 hr 35 min 19 sec)
Heartbeat CPU 0 instructions: 470000000 cycles: 191098377 heartbeat IPC: 3.014 cumulative IPC: 2.352 (Simulation time: 00 hr 36 min 00 sec)
Heartbeat CPU 0 instructions: 480000003 cycles: 194732833 heartbeat IPC: 2.751 cumulative IPC: 2.36 (Simulation time: 00 hr 36 min 41 sec)
Heartbeat CPU 0 instructions: 490000000 cycles: 198248739 heartbeat IPC: 2.844 cumulative IPC: 2.369 (Simulation time: 00 hr 37 min 22 sec)
Heartbeat CPU 0 instructions: 500000000 cycles: 201831020 heartbeat IPC: 2.792 cumulative IPC: 2.377 (Simulation time: 00 hr 38 min 04 sec)
Heartbeat CPU 0 instructions: 510000003 cycles: 205289570 heartbeat IPC: 2.891 cumulative IPC: 2.386 (Simulation time: 00 hr 38 min 46 sec)
Heartbeat CPU 0 instructions: 520000001 cycles: 208497177 heartbeat IPC: 3.118 cumulative IPC: 2.398 (Simulation time: 00 hr 39 min 27 sec)
Heartbeat CPU 0 instructions: 530000002 cycles: 211996220 heartbeat IPC: 2.858 cumulative IPC: 2.407 (Simulation time: 00 hr 40 min 09 sec)
Heartbeat CPU 0 instructions: 540000000 cycles: 215354233 heartbeat IPC: 2.978 cumulative IPC: 2.416 (Simulation time: 00 hr 40 min 52 sec)
Heartbeat CPU 0 instructions: 550000001 cycles: 218916554 heartbeat IPC: 2.807 cumulative IPC: 2.423 (Simulation time: 00 hr 41 min 36 sec)
Heartbeat CPU 0 instructions: 560000000 cycles: 222616088 heartbeat IPC: 2.703 cumulative IPC: 2.428 (Simulation time: 00 hr 42 min 21 sec)
Heartbeat CPU 0 instructions: 570000004 cycles: 227308612 heartbeat IPC: 2.131 cumulative IPC: 2.421 (Simulation time: 00 hr 43 min 12 sec)
Heartbeat CPU 0 instructions: 580000003 cycles: 234280150 heartbeat IPC: 1.434 cumulative IPC: 2.39 (Simulation time: 00 hr 44 min 20 sec)
Heartbeat CPU 0 instructions: 590000002 cycles: 241949587 heartbeat IPC: 1.304 cumulative IPC: 2.354 (Simulation time: 00 hr 45 min 31 sec)
Heartbeat CPU 0 instructions: 600000000 cycles: 245478296 heartbeat IPC: 2.834 cumulative IPC: 2.361 (Simulation time: 00 hr 46 min 14 sec)
Heartbeat CPU 0 instructions: 610000000 cycles: 249180141 heartbeat IPC: 2.701 cumulative IPC: 2.366 (Simulation time: 00 hr 46 min 57 sec)
Heartbeat CPU 0 instructions: 620000001 cycles: 252524279 heartbeat IPC: 2.99 cumulative IPC: 2.375 (Simulation time: 00 hr 47 min 43 sec)
Heartbeat CPU 0 instructions: 630000002 cycles: 256654435 heartbeat IPC: 2.421 cumulative IPC: 2.376 (Simulation time: 00 hr 48 min 31 sec)
Heartbeat CPU 0 instructions: 640000001 cycles: 260492803 heartbeat IPC: 2.605 cumulative IPC: 2.379 (Simulation time: 00 hr 49 min 18 sec)
Heartbeat CPU 0 instructions: 650000000 cycles: 264195326 heartbeat IPC: 2.701 cumulative IPC: 2.384 (Simulation time: 00 hr 50 min 03 sec)
Simulation finished CPU 0 instructions: 600000001 cycles: 251658206 cumulative IPC: 2.384 (Simulation time: 00 hr 50 min 03 sec)
Simulation complete CPU 0 instructions: 600000001 cycles: 251658206 cumulative IPC: 2.384 (Simulation time: 00 hr 50 min 03 sec)

ChampSim completed all CPUs

=== Simulation ===
CPU 0 runs traces/400.perlbench-41B.champsimtrace.xz
Region of Interest Statistics

CPU 0 cumulative IPC: 2.384 instructions: 600000001 cycles: 251658206
CPU 0 Branch Prediction Accuracy: 96.56% MPKI: 7.112 Average ROB Occupancy at Mispredict: 46.71
Branch type MPKI
BRANCH_DIRECT_JUMP: 0.0123
BRANCH_INDIRECT: 0.323
BRANCH_CONDITIONAL: 6.56
BRANCH_DIRECT_CALL: 0.0043
BRANCH_INDIRECT_CALL: 0.2
BRANCH_RETURN: 0.00828

LLC TOTAL        ACCESS:     937577 HIT:     838581 MISS:      98996
LLC LOAD         ACCESS:     400533 HIT:     358051 MISS:      42482
LLC RFO          ACCESS:      32464 HIT:      26936 MISS:       5528
LLC PREFETCH     ACCESS:     400533 HIT:     356695 MISS:      43838
LLC WRITE        ACCESS:      84974 HIT:      84939 MISS:         35
LLC TRANSLATION  ACCESS:      19073 HIT:      11960 MISS:       7113
LLC PREFETCH REQUESTED:     400533 ISSUED:     400533 USEFUL:      12699 USELESS:      15657
LLC AVERAGE MISS LATENCY: 498.3 cycles
cpu0_DTLB TOTAL        ACCESS:  141908124 HIT:  141223031 MISS:     685093
cpu0_DTLB LOAD         ACCESS:  141908124 HIT:  141223031 MISS:     685093
cpu0_DTLB RFO          ACCESS:          0 HIT:          0 MISS:          0
cpu0_DTLB PREFETCH     ACCESS:          0 HIT:          0 MISS:          0
cpu0_DTLB WRITE        ACCESS:          0 HIT:          0 MISS:          0
cpu0_DTLB TRANSLATION  ACCESS:          0 HIT:          0 MISS:          0
cpu0_DTLB PREFETCH REQUESTED:          0 ISSUED:          0 USEFUL:          0 USELESS:          0
cpu0_DTLB AVERAGE MISS LATENCY: 11.14 cycles
cpu0_ITLB TOTAL        ACCESS:    4858077 HIT:    4804928 MISS:      53149
cpu0_ITLB LOAD         ACCESS:    4858077 HIT:    4804928 MISS:      53149
cpu0_ITLB RFO          ACCESS:          0 HIT:          0 MISS:          0
cpu0_ITLB PREFETCH     ACCESS:          0 HIT:          0 MISS:          0
cpu0_ITLB WRITE        ACCESS:          0 HIT:          0 MISS:          0
cpu0_ITLB TRANSLATION  ACCESS:          0 HIT:          0 MISS:          0
cpu0_ITLB PREFETCH REQUESTED:          0 ISSUED:          0 USEFUL:          0 USELESS:          0
cpu0_ITLB AVERAGE MISS LATENCY: 5.673 cycles
cpu0_L1D TOTAL        ACCESS:  188593818 HIT:  186908897 MISS:    1684921
cpu0_L1D LOAD         ACCESS:  105226838 HIT:  103910990 MISS:    1315848
cpu0_L1D RFO          ACCESS:          0 HIT:          0 MISS:          0
cpu0_L1D PREFETCH     ACCESS:          0 HIT:          0 MISS:          0
cpu0_L1D WRITE        ACCESS:   83342520 HIT:   82996845 MISS:     345675
cpu0_L1D TRANSLATION  ACCESS:      24460 HIT:       1062 MISS:      23398
cpu0_L1D PREFETCH REQUESTED:          0 ISSUED:          0 USEFUL:          0 USELESS:          0
cpu0_L1D AVERAGE MISS LATENCY: 25.94 cycles
cpu0_L1I TOTAL        ACCESS:    5595994 HIT:    4852648 MISS:     743346
cpu0_L1I LOAD         ACCESS:    5595994 HIT:    4852648 MISS:     743346
cpu0_L1I RFO          ACCESS:          0 HIT:          0 MISS:          0
cpu0_L1I PREFETCH     ACCESS:          0 HIT:          0 MISS:          0
cpu0_L1I WRITE        ACCESS:          0 HIT:          0 MISS:          0
cpu0_L1I TRANSLATION  ACCESS:          0 HIT:          0 MISS:          0
cpu0_L1I PREFETCH REQUESTED:          0 ISSUED:          0 USEFUL:          0 USELESS:          0
cpu0_L1I AVERAGE MISS LATENCY: 9.003 cycles
cpu0_L2C TOTAL        ACCESS:    1666068 HIT:    1212235 MISS:     453833
cpu0_L2C LOAD         ACCESS:    1316068 HIT:     915535 MISS:     400533
cpu0_L2C RFO          ACCESS:      88288 HIT:      55824 MISS:      32464
cpu0_L2C PREFETCH     ACCESS:          0 HIT:          0 MISS:          0
cpu0_L2C WRITE        ACCESS:     238381 HIT:     236618 MISS:       1763
cpu0_L2C TRANSLATION  ACCESS:      23331 HIT:       4258 MISS:      19073
cpu0_L2C PREFETCH REQUESTED:          0 ISSUED:          0 USEFUL:          0 USELESS:          0
cpu0_L2C AVERAGE MISS LATENCY: 85.89 cycles
cpu0_STLB TOTAL        ACCESS:     506715 HIT:     483921 MISS:      22794
cpu0_STLB LOAD         ACCESS:     506715 HIT:     483921 MISS:      22794
cpu0_STLB RFO          ACCESS:          0 HIT:          0 MISS:          0
cpu0_STLB PREFETCH     ACCESS:          0 HIT:          0 MISS:          0
cpu0_STLB WRITE        ACCESS:          0 HIT:          0 MISS:          0
cpu0_STLB TRANSLATION  ACCESS:          0 HIT:          0 MISS:          0
cpu0_STLB PREFETCH REQUESTED:          0 ISSUED:          0 USEFUL:          0 USELESS:          0
cpu0_STLB AVERAGE MISS LATENCY: 205.1 cycles

DRAM Statistics

Channel 0 RQ ROW_BUFFER_HIT:      19505
  ROW_BUFFER_MISS:      66764
 AVG DBUS CONGESTED CYCLE: 3.809
WQ ROW_BUFFER_HIT: Channel 0 
  ROW_BUFFER_MISS:       2185
  FULL:       3010
