WARNING: physical memory size is smaller than virtual memory size.

*** ChampSim Multicore Out-of-Order Simulator ***
Warmup Instructions: 50000000
Simulation Instructions: 600000000
Number of CPUs: 1
Page size: 4096

Off-chip DRAM Size: 4 GiB Channels: 1 Width: 64-bit Data Race: 3200 MT/s
Heartbeat CPU 0 instructions: 10000000 cycles: 2500061 heartbeat IPC: 4 cumulative IPC: 4 (Simulation time: 00 hr 00 min 35 sec)
Heartbeat CPU 0 instructions: 20000000 cycles: 5000061 heartbeat IPC: 4 cumulative IPC: 4 (Simulation time: 00 hr 01 min 07 sec)
Heartbeat CPU 0 instructions: 30000000 cycles: 7500061 heartbeat IPC: 4 cumulative IPC: 4 (Simulation time: 00 hr 01 min 44 sec)
Heartbeat CPU 0 instructions: 40000000 cycles: 10000061 heartbeat IPC: 4 cumulative IPC: 4 (Simulation time: 00 hr 02 min 17 sec)
Heartbeat CPU 0 instructions: 50000000 cycles: 12500061 heartbeat IPC: 4 cumulative IPC: 4 (Simulation time: 00 hr 02 min 51 sec)
Warmup finished CPU 0 instructions: 50000000 cycles: 12500062 cumulative IPC: 4 (Simulation time: 00 hr 02 min 51 sec)
Warmup complete CPU 0 instructions: 50000000 cycles: 12500062 cumulative IPC: 4 (Simulation time: 00 hr 02 min 51 sec)
Heartbeat CPU 0 instructions: 60000002 cycles: 16911341 heartbeat IPC: 2.267 cumulative IPC: 2.267 (Simulation time: 00 hr 03 min 41 sec)
Heartbeat CPU 0 instructions: 70000003 cycles: 21897820 heartbeat IPC: 2.005 cumulative IPC: 2.128 (Simulation time: 00 hr 04 min 33 sec)
Heartbeat CPU 0 instructions: 80000001 cycles: 27247190 heartbeat IPC: 1.869 cumulative IPC: 2.034 (Simulation time: 00 hr 05 min 25 sec)
Heartbeat CPU 0 instructions: 90000000 cycles: 31546012 heartbeat IPC: 2.326 cumulative IPC: 2.1 (Simulation time: 00 hr 06 min 09 sec)
Heartbeat CPU 0 instructions: 100000003 cycles: 36406147 heartbeat IPC: 2.058 cumulative IPC: 2.092 (Simulation time: 00 hr 06 min 53 sec)
Heartbeat CPU 0 instructions: 110000002 cycles: 41284204 heartbeat IPC: 2.05 cumulative IPC: 2.084 (Simulation time: 00 hr 07 min 37 sec)
Heartbeat CPU 0 instructions: 120000001 cycles: 46280693 heartbeat IPC: 2.001 cumulative IPC: 2.072 (Simulation time: 00 hr 08 min 20 sec)
Heartbeat CPU 0 instructions: 130000003 cycles: 50851474 heartbeat IPC: 2.188 cumulative IPC: 2.086 (Simulation time: 00 hr 09 min 01 sec)
Heartbeat CPU 0 instructions: 140000002 cycles: 55744742 heartbeat IPC: 2.044 cumulative IPC: 2.081 (Simulation time: 00 hr 09 min 44 sec)
Heartbeat CPU 0 instructions: 150000001 cycles: 60416524 heartbeat IPC: 2.141 cumulative IPC: 2.087 (Simulation time: 00 hr 10 min 25 sec)
Heartbeat CPU 0 instructions: 160000000 cycles: 65057180 heartbeat IPC: 2.155 cumulative IPC: 2.093 (Simulation time: 00 hr 11 min 08 sec)
Heartbeat CPU 0 instructions: 170000000 cycles: 70394497 heartbeat IPC: 1.874 cumulative IPC: 2.073 (Simulation time: 00 hr 11 min 53 sec)
Heartbeat CPU 0 instructions: 180000001 cycles: 76116472 heartbeat IPC: 1.748 cumulative IPC: 2.043 (Simulation time: 00 hr 12 min 40 sec)
Heartbeat CPU 0 instructions: 190000002 cycles: 80593267 heartbeat IPC: 2.234 cumulative IPC: 2.056 (Simulation time: 00 hr 13 min 23 sec)
Heartbeat CPU 0 instructions: 200000002 cycles: 85503685 heartbeat IPC: 2.036 cumulative IPC: 2.055 (Simulation time: 00 hr 14 min 06 sec)
Heartbeat CPU 0 instructions: 210000000 cycles: 90509961 heartbeat IPC: 1.997 cumulative IPC: 2.051 (Simulation time: 00 hr 14 min 50 sec)
Heartbeat CPU 0 instructions: 220000001 cycles: 95435925 heartbeat IPC: 2.03 cumulative IPC: 2.05 (Simulation time: 00 hr 15 min 33 sec)
Heartbeat CPU 0 instructions: 230000002 cycles: 100684992 heartbeat IPC: 1.905 cumulative IPC: 2.041 (Simulation time: 00 hr 16 min 18 sec)
Heartbeat CPU 0 instructions: 240000001 cycles: 105652106 heartbeat IPC: 2.013 cumulative IPC: 2.04 (Simulation time: 00 hr 17 min 01 sec)
Heartbeat CPU 0 instructions: 250000003 cycles: 110840378 heartbeat IPC: 1.927 cumulative IPC: 2.034 (Simulation time: 00 hr 17 min 44 sec)
Heartbeat CPU 0 instructions: 260000001 cycles: 115702940 heartbeat IPC: 2.057 cumulative IPC: 2.035 (Simulation time: 00 hr 18 min 27 sec)
Heartbeat CPU 0 instructions: 270000000 cycles: 123412770 heartbeat IPC: 1.297 cumulative IPC: 1.984 (Simulation time: 00 hr 19 min 24 sec)
Heartbeat CPU 0 instructions: 280000000 cycles: 134300678 heartbeat IPC: 0.9185 cumulative IPC: 1.888 (Simulation time: 00 hr 20 min 38 sec)
Heartbeat CPU 0 instructions: 290000001 cycles: 143603266 heartbeat IPC: 1.075 cumulative IPC: 1.831 (Simulation time: 00 hr 21 min 46 sec)
Heartbeat CPU 0 instructions: 300000003 cycles: 150985187 heartbeat IPC: 1.355 cumulative IPC: 1.805 (Simulation time: 00 hr 23 min 48 sec)
Heartbeat CPU 0 instructions: 310000004 cycles: 161313367 heartbeat IPC: 0.9682 cumulative IPC: 1.747 (Simulation time: 00 hr 26 min 07 sec)
Heartbeat CPU 0 instructions: 320000004 cycles: 166891853 heartbeat IPC: 1.793 cumulative IPC: 1.749 (Simulation time: 00 hr 27 min 41 sec)
Heartbeat CPU 0 instructions: 330000000 cycles: 172112604 heartbeat IPC: 1.915 cumulative IPC: 1.754 (Simulation time: 00 hr 29 min 07 sec)
Heartbeat CPU 0 instructions: 340000001 cycles: 176851391 heartbeat IPC: 2.11 cumulative IPC: 1.765 (Simulation time: 00 hr 30 min 29 sec)
Heartbeat CPU 0 instructions: 350000000 cycles: 181776043 heartbeat IPC: 2.031 cumulative IPC: 1.772 (Simulation time: 00 hr 31 min 14 sec)
Heartbeat CPU 0 instructions: 360000003 cycles: 186496336 heartbeat IPC: 2.119 cumulative IPC: 1.782 (Simulation time: 00 hr 31 min 57 sec)
Heartbeat CPU 0 instructions: 370000001 cycles: 191207364 heartbeat IPC: 2.123 cumulative IPC: 1.791 (Simulation time: 00 hr 32 min 40 sec)
Heartbeat CPU 0 instructions: 380000004 cycles: 196197774 heartbeat IPC: 2.004 cumulative IPC: 1.796 (Simulation time: 00 hr 33 min 25 sec)
Heartbeat CPU 0 instructions: 390000002 cycles: 201105514 heartbeat IPC: 2.038 cumulative IPC: 1.803 (Simulation time: 00 hr 34 min 09 sec)
Heartbeat CPU 0 instructions: 400000000 cycles: 206098357 heartbeat IPC: 2.003 cumulative IPC: 1.808 (Simulation time: 00 hr 34 min 53 sec)
Heartbeat CPU 0 instructions: 410000000 cycles: 212170982 heartbeat IPC: 1.647 cumulative IPC: 1.803 (Simulation time: 00 hr 35 min 43 sec)
Heartbeat CPU 0 instructions: 420000001 cycles: 219252968 heartbeat IPC: 1.412 cumulative IPC: 1.79 (Simulation time: 00 hr 36 min 40 sec)
Heartbeat CPU 0 instructions: 430000000 cycles: 225832641 heartbeat IPC: 1.52 cumulative IPC: 1.781 (Simulation time: 00 hr 37 min 37 sec)
Heartbeat CPU 0 instructions: 440000002 cycles: 232276802 heartbeat IPC: 1.552 cumulative IPC: 1.775 (Simulation time: 00 hr 38 min 31 sec)
Heartbeat CPU 0 instructions: 450000000 cycles: 238593986 heartbeat IPC: 1.583 cumulative IPC: 1.769 (Simulation time: 00 hr 39 min 25 sec)
Heartbeat CPU 0 instructions: 460000002 cycles: 246046797 heartbeat IPC: 1.342 cumulative IPC: 1.756 (Simulation time: 00 hr 40 min 25 sec)
Heartbeat CPU 0 instructions: 470000000 cycles: 252674152 heartbeat IPC: 1.509 cumulative IPC: 1.749 (Simulation time: 00 hr 41 min 20 sec)
Heartbeat CPU 0 instructions: 480000000 cycles: 257616621 heartbeat IPC: 2.023 cumulative IPC: 1.754 (Simulation time: 00 hr 42 min 04 sec)
Heartbeat CPU 0 instructions: 490000001 cycles: 262506438 heartbeat IPC: 2.045 cumulative IPC: 1.76 (Simulation time: 00 hr 42 min 49 sec)
Heartbeat CPU 0 instructions: 500000002 cycles: 267387380 heartbeat IPC: 2.049 cumulative IPC: 1.765 (Simulation time: 00 hr 43 min 33 sec)
Heartbeat CPU 0 instructions: 510000000 cycles: 272350773 heartbeat IPC: 2.015 cumulative IPC: 1.77 (Simulation time: 00 hr 44 min 17 sec)
Heartbeat CPU 0 instructions: 520000000 cycles: 277381376 heartbeat IPC: 1.988 cumulative IPC: 1.774 (Simulation time: 00 hr 45 min 01 sec)
Heartbeat CPU 0 instructions: 530000001 cycles: 284476727 heartbeat IPC: 1.409 cumulative IPC: 1.765 (Simulation time: 00 hr 45 min 58 sec)
Heartbeat CPU 0 instructions: 540000000 cycles: 291382694 heartbeat IPC: 1.448 cumulative IPC: 1.757 (Simulation time: 00 hr 46 min 54 sec)
Heartbeat CPU 0 instructions: 550000002 cycles: 298811813 heartbeat IPC: 1.346 cumulative IPC: 1.746 (Simulation time: 00 hr 47 min 53 sec)
Heartbeat CPU 0 instructions: 560000004 cycles: 303217304 heartbeat IPC: 2.27 cumulative IPC: 1.754 (Simulation time: 00 hr 48 min 34 sec)
Heartbeat CPU 0 instructions: 570000001 cycles: 307571516 heartbeat IPC: 2.297 cumulative IPC: 1.762 (Simulation time: 00 hr 49 min 14 sec)
Heartbeat CPU 0 instructions: 580000003 cycles: 311705091 heartbeat IPC: 2.419 cumulative IPC: 1.771 (Simulation time: 00 hr 49 min 53 sec)
Heartbeat CPU 0 instructions: 590000001 cycles: 316511533 heartbeat IPC: 2.081 cumulative IPC: 1.776 (Simulation time: 00 hr 50 min 34 sec)
Heartbeat CPU 0 instructions: 600000003 cycles: 321102412 heartbeat IPC: 2.178 cumulative IPC: 1.782 (Simulation time: 00 hr 51 min 15 sec)
Heartbeat CPU 0 instructions: 610000001 cycles: 325894551 heartbeat IPC: 2.087 cumulative IPC: 1.787 (Simulation time: 00 hr 51 min 57 sec)
Heartbeat CPU 0 instructions: 620000000 cycles: 330907657 heartbeat IPC: 1.995 cumulative IPC: 1.79 (Simulation time: 00 hr 52 min 37 sec)
Heartbeat CPU 0 instructions: 630000002 cycles: 335115675 heartbeat IPC: 2.376 cumulative IPC: 1.798 (Simulation time: 00 hr 53 min 14 sec)
Heartbeat CPU 0 instructions: 640000004 cycles: 340384386 heartbeat IPC: 1.898 cumulative IPC: 1.799 (Simulation time: 00 hr 53 min 57 sec)
Heartbeat CPU 0 instructions: 650000001 cycles: 345124710 heartbeat IPC: 2.11 cumulative IPC: 1.804 (Simulation time: 00 hr 54 min 35 sec)
Simulation finished CPU 0 instructions: 600000001 cycles: 332624649 cumulative IPC: 1.804 (Simulation time: 00 hr 54 min 35 sec)
Simulation complete CPU 0 instructions: 600000001 cycles: 332624649 cumulative IPC: 1.804 (Simulation time: 00 hr 54 min 35 sec)

ChampSim completed all CPUs

=== Simulation ===
CPU 0 runs traces/400.perlbench-50B.champsimtrace.xz
Region of Interest Statistics

CPU 0 cumulative IPC: 1.804 instructions: 600000001 cycles: 332624649
CPU 0 Branch Prediction Accuracy: 93.83% MPKI: 12.71 Average ROB Occupancy at Mispredict: 29.2
Branch type MPKI
BRANCH_DIRECT_JUMP: 0.0176
BRANCH_INDIRECT: 0.38
BRANCH_CONDITIONAL: 11.9
BRANCH_DIRECT_CALL: 0.0067
BRANCH_INDIRECT_CALL: 0.431
BRANCH_RETURN: 0.0161

LLC TOTAL        ACCESS:     784912 HIT:     664746 MISS:     120166
LLC LOAD         ACCESS:     587219 HIT:     485763 MISS:     101456
LLC RFO          ACCESS:      47456 HIT:      37951 MISS:       9505
LLC PREFETCH     ACCESS:          0 HIT:          0 MISS:          0
LLC WRITE        ACCESS:     128122 HIT:     128120 MISS:          2
LLC TRANSLATION  ACCESS:      22115 HIT:      12912 MISS:       9203
LLC PREFETCH REQUESTED:          0 ISSUED:          0 USEFUL:          0 USELESS:          0
LLC AVERAGE MISS LATENCY: 469.5 cycles
cpu0_DTLB TOTAL        ACCESS:  156789041 HIT:  155488808 MISS:    1300233
cpu0_DTLB LOAD         ACCESS:  156789041 HIT:  155488808 MISS:    1300233
cpu0_DTLB RFO          ACCESS:          0 HIT:          0 MISS:          0
cpu0_DTLB PREFETCH     ACCESS:          0 HIT:          0 MISS:          0
cpu0_DTLB WRITE        ACCESS:          0 HIT:          0 MISS:          0
cpu0_DTLB TRANSLATION  ACCESS:          0 HIT:          0 MISS:          0
cpu0_DTLB PREFETCH REQUESTED:          0 ISSUED:          0 USEFUL:          0 USELESS:          0
cpu0_DTLB AVERAGE MISS LATENCY: 9.962 cycles
cpu0_ITLB TOTAL        ACCESS:    8932523 HIT:    8733931 MISS:     198592
cpu0_ITLB LOAD         ACCESS:    8932523 HIT:    8733931 MISS:     198592
cpu0_ITLB RFO          ACCESS:          0 HIT:          0 MISS:          0
cpu0_ITLB PREFETCH     ACCESS:          0 HIT:          0 MISS:          0
cpu0_ITLB WRITE        ACCESS:          0 HIT:          0 MISS:          0
cpu0_ITLB TRANSLATION  ACCESS:          0 HIT:          0 MISS:          0
cpu0_ITLB PREFETCH REQUESTED:          0 ISSUED:          0 USEFUL:          0 USELESS:          0
cpu0_ITLB AVERAGE MISS LATENCY: 2.627 cycles
cpu0_L1D TOTAL        ACCESS:  203649670 HIT:  200009628 MISS:    3640042
cpu0_L1D LOAD         ACCESS:  117972757 HIT:  114973899 MISS:    2998858
cpu0_L1D RFO          ACCESS:          0 HIT:          0 MISS:          0
cpu0_L1D PREFETCH     ACCESS:          0 HIT:          0 MISS:          0
cpu0_L1D WRITE        ACCESS:   85648365 HIT:   85034317 MISS:     614048
cpu0_L1D TRANSLATION  ACCESS:      28548 HIT:       1412 MISS:      27136
cpu0_L1D PREFETCH REQUESTED:          0 ISSUED:          0 USEFUL:          0 USELESS:          0
cpu0_L1D AVERAGE MISS LATENCY: 22.19 cycles
cpu0_L1I TOTAL        ACCESS:   10371181 HIT:    8573695 MISS:    1797486
cpu0_L1I LOAD         ACCESS:   10371181 HIT:    8573695 MISS:    1797486
cpu0_L1I RFO          ACCESS:          0 HIT:          0 MISS:          0
cpu0_L1I PREFETCH     ACCESS:          0 HIT:          0 MISS:          0
cpu0_L1I WRITE        ACCESS:          0 HIT:          0 MISS:          0
cpu0_L1I TRANSLATION  ACCESS:          0 HIT:          0 MISS:          0
cpu0_L1I PREFETCH REQUESTED:          0 ISSUED:          0 USEFUL:          0 USELESS:          0
cpu0_L1I AVERAGE MISS LATENCY: 9.205 cycles
cpu0_L2C TOTAL        ACCESS:    3837227 HIT:    3177204 MISS:     660023
cpu0_L2C LOAD         ACCESS:    3106473 HIT:    2519254 MISS:     587219
cpu0_L2C RFO          ACCESS:     191753 HIT:     144297 MISS:      47456
cpu0_L2C PREFETCH     ACCESS:          0 HIT:          0 MISS:          0
cpu0_L2C WRITE        ACCESS:     511941 HIT:     508708 MISS:       3233
cpu0_L2C TRANSLATION  ACCESS:      27060 HIT:       4945 MISS:      22115
cpu0_L2C PREFETCH REQUESTED:          0 ISSUED:          0 USEFUL:          0 USELESS:          0
cpu0_L2C AVERAGE MISS LATENCY: 105.6 cycles
cpu0_STLB TOTAL        ACCESS:    1009190 HIT:     982495 MISS:      26695
cpu0_STLB LOAD         ACCESS:    1009190 HIT:     982495 MISS:      26695
cpu0_STLB RFO          ACCESS:          0 HIT:          0 MISS:          0
cpu0_STLB PREFETCH     ACCESS:          0 HIT:          0 MISS:          0
cpu0_STLB WRITE        ACCESS:          0 HIT:          0 MISS:          0
cpu0_STLB TRANSLATION  ACCESS:          0 HIT:          0 MISS:          0
cpu0_STLB PREFETCH REQUESTED:          0 ISSUED:          0 USEFUL:          0 USELESS:          0
cpu0_STLB AVERAGE MISS LATENCY: 257.2 cycles

DRAM Statistics

Channel 0 RQ ROW_BUFFER_HIT:      36015
  ROW_BUFFER_MISS:      84149
 AVG DBUS CONGESTED CYCLE: 3.703
WQ ROW_BUFFER_HIT: Channel 0 
  ROW_BUFFER_MISS:        988
  FULL:       1369
Final OPTGen Hits: 8501
Final OPTGen Access: 10472
Final OPTGEN Hit Rate: 81.1784
