WARNING: physical memory size is smaller than virtual memory size.

*** ChampSim Multicore Out-of-Order Simulator ***
Warmup Instructions: 50000000
Simulation Instructions: 600000000
Number of CPUs: 1
Page size: 4096

Off-chip DRAM Size: 4 GiB Channels: 1 Width: 64-bit Data Race: 3200 MT/s
Heartbeat CPU 0 instructions: 10000000 cycles: 2500061 heartbeat IPC: 4 cumulative IPC: 4 (Simulation time: 00 hr 03 min 28 sec)
Heartbeat CPU 0 instructions: 20000000 cycles: 5000061 heartbeat IPC: 4 cumulative IPC: 4 (Simulation time: 00 hr 06 min 56 sec)
Heartbeat CPU 0 instructions: 30000000 cycles: 7500061 heartbeat IPC: 4 cumulative IPC: 4 (Simulation time: 00 hr 10 min 21 sec)
Heartbeat CPU 0 instructions: 40000000 cycles: 10000061 heartbeat IPC: 4 cumulative IPC: 4 (Simulation time: 00 hr 13 min 49 sec)
Heartbeat CPU 0 instructions: 50000000 cycles: 12500061 heartbeat IPC: 4 cumulative IPC: 4 (Simulation time: 00 hr 17 min 17 sec)
Warmup finished CPU 0 instructions: 50000000 cycles: 12500062 cumulative IPC: 4 (Simulation time: 00 hr 17 min 17 sec)
Warmup complete CPU 0 instructions: 50000000 cycles: 12500062 cumulative IPC: 4 (Simulation time: 00 hr 17 min 17 sec)
Heartbeat CPU 0 instructions: 60000002 cycles: 16234877 heartbeat IPC: 2.678 cumulative IPC: 2.678 (Simulation time: 00 hr 21 min 56 sec)
Heartbeat CPU 0 instructions: 70000003 cycles: 20384493 heartbeat IPC: 2.41 cumulative IPC: 2.537 (Simulation time: 00 hr 26 min 42 sec)
Heartbeat CPU 0 instructions: 80000003 cycles: 24573354 heartbeat IPC: 2.387 cumulative IPC: 2.485 (Simulation time: 00 hr 31 min 30 sec)
Heartbeat CPU 0 instructions: 90000000 cycles: 27800220 heartbeat IPC: 3.099 cumulative IPC: 2.614 (Simulation time: 00 hr 35 min 48 sec)
Heartbeat CPU 0 instructions: 100000003 cycles: 31798706 heartbeat IPC: 2.501 cumulative IPC: 2.591 (Simulation time: 00 hr 40 min 36 sec)
Heartbeat CPU 0 instructions: 110000002 cycles: 35755549 heartbeat IPC: 2.527 cumulative IPC: 2.58 (Simulation time: 00 hr 45 min 15 sec)
Heartbeat CPU 0 instructions: 120000001 cycles: 39306886 heartbeat IPC: 2.816 cumulative IPC: 2.611 (Simulation time: 00 hr 49 min 54 sec)
Heartbeat CPU 0 instructions: 130000003 cycles: 42948233 heartbeat IPC: 2.746 cumulative IPC: 2.627 (Simulation time: 00 hr 54 min 27 sec)
Heartbeat CPU 0 instructions: 140000002 cycles: 46892221 heartbeat IPC: 2.536 cumulative IPC: 2.617 (Simulation time: 00 hr 59 min 12 sec)
Heartbeat CPU 0 instructions: 150000001 cycles: 50773305 heartbeat IPC: 2.577 cumulative IPC: 2.613 (Simulation time: 01 hr 03 min 52 sec)
Heartbeat CPU 0 instructions: 160000000 cycles: 54405209 heartbeat IPC: 2.753 cumulative IPC: 2.625 (Simulation time: 01 hr 08 min 31 sec)
Heartbeat CPU 0 instructions: 170000001 cycles: 58351423 heartbeat IPC: 2.534 cumulative IPC: 2.617 (Simulation time: 01 hr 13 min 12 sec)
Heartbeat CPU 0 instructions: 180000001 cycles: 61764090 heartbeat IPC: 2.93 cumulative IPC: 2.639 (Simulation time: 01 hr 17 min 42 sec)
Heartbeat CPU 0 instructions: 190000002 cycles: 65224477 heartbeat IPC: 2.89 cumulative IPC: 2.655 (Simulation time: 01 hr 22 min 14 sec)
Heartbeat CPU 0 instructions: 200000002 cycles: 68940576 heartbeat IPC: 2.691 cumulative IPC: 2.658 (Simulation time: 01 hr 26 min 52 sec)
Heartbeat CPU 0 instructions: 210000000 cycles: 72475080 heartbeat IPC: 2.829 cumulative IPC: 2.668 (Simulation time: 01 hr 31 min 33 sec)
Heartbeat CPU 0 instructions: 220000001 cycles: 76167941 heartbeat IPC: 2.708 cumulative IPC: 2.67 (Simulation time: 01 hr 36 min 05 sec)
Heartbeat CPU 0 instructions: 230000002 cycles: 79852925 heartbeat IPC: 2.714 cumulative IPC: 2.672 (Simulation time: 01 hr 40 min 41 sec)
Heartbeat CPU 0 instructions: 240000004 cycles: 83832061 heartbeat IPC: 2.513 cumulative IPC: 2.664 (Simulation time: 01 hr 45 min 27 sec)
Heartbeat CPU 0 instructions: 250000003 cycles: 88129989 heartbeat IPC: 2.327 cumulative IPC: 2.644 (Simulation time: 01 hr 50 min 17 sec)
Heartbeat CPU 0 instructions: 260000001 cycles: 91769124 heartbeat IPC: 2.748 cumulative IPC: 2.649 (Simulation time: 01 hr 54 min 51 sec)
Heartbeat CPU 0 instructions: 270000003 cycles: 98676936 heartbeat IPC: 1.448 cumulative IPC: 2.553 (Simulation time: 02 hr 01 min 28 sec)
Heartbeat CPU 0 instructions: 280000000 cycles: 108778068 heartbeat IPC: 0.99 cumulative IPC: 2.389 (Simulation time: 02 hr 10 min 16 sec)
Heartbeat CPU 0 instructions: 290000000 cycles: 118250658 heartbeat IPC: 1.056 cumulative IPC: 2.269 (Simulation time: 02 hr 18 min 53 sec)
Heartbeat CPU 0 instructions: 300000000 cycles: 126110320 heartbeat IPC: 1.272 cumulative IPC: 2.201 (Simulation time: 02 hr 26 min 26 sec)
Heartbeat CPU 0 instructions: 310000004 cycles: 136731311 heartbeat IPC: 0.9415 cumulative IPC: 2.093 (Simulation time: 02 hr 35 min 43 sec)
Heartbeat CPU 0 instructions: 320000004 cycles: 141978180 heartbeat IPC: 1.906 cumulative IPC: 2.085 (Simulation time: 02 hr 41 min 29 sec)
Heartbeat CPU 0 instructions: 330000000 cycles: 145901688 heartbeat IPC: 2.549 cumulative IPC: 2.099 (Simulation time: 02 hr 46 min 22 sec)
Heartbeat CPU 0 instructions: 340000001 cycles: 149724583 heartbeat IPC: 2.616 cumulative IPC: 2.113 (Simulation time: 02 hr 51 min 05 sec)
Heartbeat CPU 0 instructions: 350000004 cycles: 153691937 heartbeat IPC: 2.521 cumulative IPC: 2.125 (Simulation time: 02 hr 55 min 54 sec)
Heartbeat CPU 0 instructions: 360000003 cycles: 157432448 heartbeat IPC: 2.673 cumulative IPC: 2.139 (Simulation time: 03 hr 00 min 35 sec)
Heartbeat CPU 0 instructions: 370000001 cycles: 161126287 heartbeat IPC: 2.707 cumulative IPC: 2.153 (Simulation time: 03 hr 05 min 15 sec)
Heartbeat CPU 0 instructions: 380000004 cycles: 164672533 heartbeat IPC: 2.82 cumulative IPC: 2.169 (Simulation time: 03 hr 09 min 53 sec)
Heartbeat CPU 0 instructions: 390000002 cycles: 168270313 heartbeat IPC: 2.779 cumulative IPC: 2.183 (Simulation time: 03 hr 14 min 31 sec)
Heartbeat CPU 0 instructions: 400000000 cycles: 172178683 heartbeat IPC: 2.559 cumulative IPC: 2.192 (Simulation time: 03 hr 19 min 20 sec)
Heartbeat CPU 0 instructions: 410000000 cycles: 177997748 heartbeat IPC: 1.718 cumulative IPC: 2.175 (Simulation time: 03 hr 25 min 23 sec)
Heartbeat CPU 0 instructions: 420000001 cycles: 185474035 heartbeat IPC: 1.338 cumulative IPC: 2.139 (Simulation time: 03 hr 32 min 33 sec)
Heartbeat CPU 0 instructions: 430000002 cycles: 192655680 heartbeat IPC: 1.392 cumulative IPC: 2.109 (Simulation time: 03 hr 39 min 46 sec)
Heartbeat CPU 0 instructions: 440000002 cycles: 199324818 heartbeat IPC: 1.499 cumulative IPC: 2.088 (Simulation time: 03 hr 46 min 32 sec)
Heartbeat CPU 0 instructions: 450000001 cycles: 206342936 heartbeat IPC: 1.425 cumulative IPC: 2.064 (Simulation time: 03 hr 53 min 35 sec)
Heartbeat CPU 0 instructions: 460000002 cycles: 214647269 heartbeat IPC: 1.204 cumulative IPC: 2.028 (Simulation time: 04 hr 01 min 37 sec)
Heartbeat CPU 0 instructions: 470000003 cycles: 221628975 heartbeat IPC: 1.432 cumulative IPC: 2.008 (Simulation time: 04 hr 08 min 30 sec)
Heartbeat CPU 0 instructions: 480000003 cycles: 225448300 heartbeat IPC: 2.618 cumulative IPC: 2.019 (Simulation time: 04 hr 12 min 57 sec)
Heartbeat CPU 0 instructions: 490000001 cycles: 229375179 heartbeat IPC: 2.547 cumulative IPC: 2.029 (Simulation time: 04 hr 17 min 41 sec)
Heartbeat CPU 0 instructions: 500000002 cycles: 233150061 heartbeat IPC: 2.649 cumulative IPC: 2.039 (Simulation time: 04 hr 22 min 24 sec)
Heartbeat CPU 0 instructions: 510000000 cycles: 236915166 heartbeat IPC: 2.656 cumulative IPC: 2.05 (Simulation time: 04 hr 27 min 05 sec)
Heartbeat CPU 0 instructions: 520000000 cycles: 240713063 heartbeat IPC: 2.633 cumulative IPC: 2.059 (Simulation time: 04 hr 31 min 49 sec)
Heartbeat CPU 0 instructions: 530000001 cycles: 248458083 heartbeat IPC: 1.291 cumulative IPC: 2.034 (Simulation time: 04 hr 39 min 08 sec)
Heartbeat CPU 0 instructions: 540000000 cycles: 256304318 heartbeat IPC: 1.274 cumulative IPC: 2.01 (Simulation time: 04 hr 46 min 38 sec)
Heartbeat CPU 0 instructions: 550000002 cycles: 264393949 heartbeat IPC: 1.236 cumulative IPC: 1.985 (Simulation time: 04 hr 54 min 17 sec)
Heartbeat CPU 0 instructions: 560000004 cycles: 268284146 heartbeat IPC: 2.571 cumulative IPC: 1.994 (Simulation time: 04 hr 59 min 05 sec)
Heartbeat CPU 0 instructions: 570000001 cycles: 271368430 heartbeat IPC: 3.242 cumulative IPC: 2.009 (Simulation time: 05 hr 03 min 28 sec)
Heartbeat CPU 0 instructions: 580000003 cycles: 274755968 heartbeat IPC: 2.952 cumulative IPC: 2.021 (Simulation time: 05 hr 07 min 55 sec)
Heartbeat CPU 0 instructions: 590000001 cycles: 278235276 heartbeat IPC: 2.874 cumulative IPC: 2.032 (Simulation time: 05 hr 12 min 25 sec)
Heartbeat CPU 0 instructions: 600000003 cycles: 281169791 heartbeat IPC: 3.408 cumulative IPC: 2.047 (Simulation time: 05 hr 16 min 41 sec)
Heartbeat CPU 0 instructions: 610000001 cycles: 284613236 heartbeat IPC: 2.904 cumulative IPC: 2.058 (Simulation time: 05 hr 21 min 12 sec)
Heartbeat CPU 0 instructions: 620000000 cycles: 288100585 heartbeat IPC: 2.868 cumulative IPC: 2.068 (Simulation time: 05 hr 25 min 45 sec)
Heartbeat CPU 0 instructions: 630000002 cycles: 291260921 heartbeat IPC: 3.164 cumulative IPC: 2.081 (Simulation time: 05 hr 30 min 05 sec)
Heartbeat CPU 0 instructions: 640000004 cycles: 294962018 heartbeat IPC: 2.702 cumulative IPC: 2.089 (Simulation time: 05 hr 34 min 43 sec)
Heartbeat CPU 0 instructions: 650000001 cycles: 298344088 heartbeat IPC: 2.957 cumulative IPC: 2.099 (Simulation time: 05 hr 39 min 10 sec)
Simulation finished CPU 0 instructions: 600000001 cycles: 285844027 cumulative IPC: 2.099 (Simulation time: 05 hr 39 min 10 sec)
Simulation complete CPU 0 instructions: 600000001 cycles: 285844027 cumulative IPC: 2.099 (Simulation time: 05 hr 39 min 10 sec)

ChampSim completed all CPUs

=== Simulation ===
CPU 0 runs traces/400.perlbench-50B.champsimtrace.xz
Region of Interest Statistics

CPU 0 cumulative IPC: 2.099 instructions: 600000001 cycles: 285844027
CPU 0 Branch Prediction Accuracy: 96.09% MPKI: 8.064 Average ROB Occupancy at Mispredict: 39.82
Branch type MPKI
BRANCH_DIRECT_JUMP: 0.0176
BRANCH_INDIRECT: 0.38
BRANCH_CONDITIONAL: 7.21
BRANCH_DIRECT_CALL: 0.0067
BRANCH_INDIRECT_CALL: 0.431
BRANCH_RETURN: 0.0161

LLC TOTAL        ACCESS:    1388677 HIT:    1203169 MISS:     185508
LLC LOAD         ACCESS:     595195 HIT:     515184 MISS:      80011
LLC RFO          ACCESS:      47393 HIT:      37805 MISS:       9588
LLC PREFETCH     ACCESS:     595195 HIT:     509555 MISS:      85640
LLC WRITE        ACCESS:     128811 HIT:     128278 MISS:        533
LLC TRANSLATION  ACCESS:      22083 HIT:      12347 MISS:       9736
LLC PREFETCH REQUESTED:     595195 ISSUED:     595195 USEFUL:      32433 USELESS:      12708
LLC AVERAGE MISS LATENCY: 451.1 cycles
cpu0_DTLB TOTAL        ACCESS:  146303235 HIT:  145010091 MISS:    1293144
cpu0_DTLB LOAD         ACCESS:  146303235 HIT:  145010091 MISS:    1293144
cpu0_DTLB RFO          ACCESS:          0 HIT:          0 MISS:          0
cpu0_DTLB PREFETCH     ACCESS:          0 HIT:          0 MISS:          0
cpu0_DTLB WRITE        ACCESS:          0 HIT:          0 MISS:          0
cpu0_DTLB TRANSLATION  ACCESS:          0 HIT:          0 MISS:          0
cpu0_DTLB PREFETCH REQUESTED:          0 ISSUED:          0 USEFUL:          0 USELESS:          0
cpu0_DTLB AVERAGE MISS LATENCY: 10.22 cycles
cpu0_ITLB TOTAL        ACCESS:    8992326 HIT:    8819955 MISS:     172371
cpu0_ITLB LOAD         ACCESS:    8992326 HIT:    8819955 MISS:     172371
cpu0_ITLB RFO          ACCESS:          0 HIT:          0 MISS:          0
cpu0_ITLB PREFETCH     ACCESS:          0 HIT:          0 MISS:          0
cpu0_ITLB WRITE        ACCESS:          0 HIT:          0 MISS:          0
cpu0_ITLB TRANSLATION  ACCESS:          0 HIT:          0 MISS:          0
cpu0_ITLB PREFETCH REQUESTED:          0 ISSUED:          0 USEFUL:          0 USELESS:          0
cpu0_ITLB AVERAGE MISS LATENCY: 3.286 cycles
cpu0_L1D TOTAL        ACCESS:  193047080 HIT:  189469488 MISS:    3577592
cpu0_L1D LOAD         ACCESS:  107230750 HIT:  104280865 MISS:    2949885
cpu0_L1D RFO          ACCESS:          0 HIT:          0 MISS:          0
cpu0_L1D PREFETCH     ACCESS:          0 HIT:          0 MISS:          0
cpu0_L1D WRITE        ACCESS:   85787804 HIT:   85187194 MISS:     600610
cpu0_L1D TRANSLATION  ACCESS:      28526 HIT:       1429 MISS:      27097
cpu0_L1D PREFETCH REQUESTED:          0 ISSUED:          0 USEFUL:          0 USELESS:          0
cpu0_L1D AVERAGE MISS LATENCY: 20.62 cycles
cpu0_L1I TOTAL        ACCESS:   10426936 HIT:    8712288 MISS:    1714648
cpu0_L1I LOAD         ACCESS:   10426936 HIT:    8712288 MISS:    1714648
cpu0_L1I RFO          ACCESS:          0 HIT:          0 MISS:          0
cpu0_L1I PREFETCH     ACCESS:          0 HIT:          0 MISS:          0
cpu0_L1I WRITE        ACCESS:          0 HIT:          0 MISS:          0
cpu0_L1I TRANSLATION  ACCESS:          0 HIT:          0 MISS:          0
cpu0_L1I PREFETCH REQUESTED:          0 ISSUED:          0 USEFUL:          0 USELESS:          0
cpu0_L1I AVERAGE MISS LATENCY: 9.426 cycles
cpu0_L2C TOTAL        ACCESS:    3833816 HIT:    3165828 MISS:     667988
cpu0_L2C LOAD         ACCESS:    3105551 HIT:    2510356 MISS:     595195
cpu0_L2C RFO          ACCESS:     190672 HIT:     143279 MISS:      47393
cpu0_L2C PREFETCH     ACCESS:          0 HIT:          0 MISS:          0
cpu0_L2C WRITE        ACCESS:     510552 HIT:     507235 MISS:       3317
cpu0_L2C TRANSLATION  ACCESS:      27041 HIT:       4958 MISS:      22083
cpu0_L2C PREFETCH REQUESTED:          0 ISSUED:          0 USEFUL:          0 USELESS:          0
cpu0_L2C AVERAGE MISS LATENCY: 92.5 cycles
cpu0_STLB TOTAL        ACCESS:    1009073 HIT:     982379 MISS:      26694
cpu0_STLB LOAD         ACCESS:    1009073 HIT:     982379 MISS:      26694
cpu0_STLB RFO          ACCESS:          0 HIT:          0 MISS:          0
cpu0_STLB PREFETCH     ACCESS:          0 HIT:          0 MISS:          0
cpu0_STLB WRITE        ACCESS:          0 HIT:          0 MISS:          0
cpu0_STLB TRANSLATION  ACCESS:          0 HIT:          0 MISS:          0
cpu0_STLB PREFETCH REQUESTED:          0 ISSUED:          0 USEFUL:          0 USELESS:          0
cpu0_STLB AVERAGE MISS LATENCY: 265.1 cycles

DRAM Statistics

Channel 0 RQ ROW_BUFFER_HIT:      44975
  ROW_BUFFER_MISS:     114137
 AVG DBUS CONGESTED CYCLE: 3.797
WQ ROW_BUFFER_HIT: Channel 0 
  ROW_BUFFER_MISS:       1938
  FULL:       2876
