WARNING: physical memory size is smaller than virtual memory size.

*** ChampSim Multicore Out-of-Order Simulator ***
Warmup Instructions: 50000000
Simulation Instructions: 600000000
Number of CPUs: 1
Page size: 4096

CPU 0 Tage branch predictor
Off-chip DRAM Size: 4 GiB Channels: 1 Width: 64-bit Data Race: 3200 MT/s
Heartbeat CPU 0 instructions: 10000000 cycles: 2500061 heartbeat IPC: 4 cumulative IPC: 4 (Simulation time: 00 hr 02 min 07 sec)
Heartbeat CPU 0 instructions: 20000000 cycles: 5000061 heartbeat IPC: 4 cumulative IPC: 4 (Simulation time: 00 hr 04 min 43 sec)
Heartbeat CPU 0 instructions: 30000000 cycles: 7500061 heartbeat IPC: 4 cumulative IPC: 4 (Simulation time: 00 hr 07 min 28 sec)
Heartbeat CPU 0 instructions: 40000000 cycles: 10000061 heartbeat IPC: 4 cumulative IPC: 4 (Simulation time: 00 hr 10 min 13 sec)
Heartbeat CPU 0 instructions: 50000000 cycles: 12500061 heartbeat IPC: 4 cumulative IPC: 4 (Simulation time: 00 hr 13 min 02 sec)
Warmup finished CPU 0 instructions: 50000000 cycles: 12500062 cumulative IPC: 4 (Simulation time: 00 hr 13 min 02 sec)
Warmup complete CPU 0 instructions: 50000000 cycles: 12500062 cumulative IPC: 4 (Simulation time: 00 hr 13 min 02 sec)
Heartbeat CPU 0 instructions: 60000004 cycles: 15504574 heartbeat IPC: 3.328 cumulative IPC: 3.328 (Simulation time: 00 hr 16 min 19 sec)
Heartbeat CPU 0 instructions: 70000003 cycles: 18375027 heartbeat IPC: 3.484 cumulative IPC: 3.404 (Simulation time: 00 hr 19 min 35 sec)
Heartbeat CPU 0 instructions: 80000002 cycles: 21385455 heartbeat IPC: 3.322 cumulative IPC: 3.376 (Simulation time: 00 hr 22 min 49 sec)
Heartbeat CPU 0 instructions: 90000000 cycles: 24106445 heartbeat IPC: 3.675 cumulative IPC: 3.446 (Simulation time: 00 hr 25 min 51 sec)
Heartbeat CPU 0 instructions: 100000003 cycles: 26861573 heartbeat IPC: 3.63 cumulative IPC: 3.482 (Simulation time: 00 hr 29 min 09 sec)
Heartbeat CPU 0 instructions: 110000001 cycles: 29760716 heartbeat IPC: 3.449 cumulative IPC: 3.476 (Simulation time: 00 hr 32 min 18 sec)
Heartbeat CPU 0 instructions: 120000001 cycles: 32476957 heartbeat IPC: 3.682 cumulative IPC: 3.504 (Simulation time: 00 hr 35 min 25 sec)
Heartbeat CPU 0 instructions: 130000003 cycles: 35373828 heartbeat IPC: 3.452 cumulative IPC: 3.497 (Simulation time: 00 hr 38 min 39 sec)
Heartbeat CPU 0 instructions: 140000002 cycles: 38209923 heartbeat IPC: 3.526 cumulative IPC: 3.501 (Simulation time: 00 hr 41 min 54 sec)
Heartbeat CPU 0 instructions: 150000001 cycles: 40979169 heartbeat IPC: 3.611 cumulative IPC: 3.511 (Simulation time: 00 hr 45 min 04 sec)
Heartbeat CPU 0 instructions: 160000000 cycles: 43896422 heartbeat IPC: 3.428 cumulative IPC: 3.504 (Simulation time: 00 hr 48 min 13 sec)
Heartbeat CPU 0 instructions: 170000001 cycles: 46819705 heartbeat IPC: 3.421 cumulative IPC: 3.497 (Simulation time: 00 hr 51 min 27 sec)
Heartbeat CPU 0 instructions: 180000000 cycles: 49612091 heartbeat IPC: 3.581 cumulative IPC: 3.503 (Simulation time: 00 hr 54 min 47 sec)
Heartbeat CPU 0 instructions: 190000002 cycles: 52318430 heartbeat IPC: 3.695 cumulative IPC: 3.516 (Simulation time: 00 hr 58 min 00 sec)
Heartbeat CPU 0 instructions: 200000002 cycles: 55141199 heartbeat IPC: 3.543 cumulative IPC: 3.518 (Simulation time: 01 hr 01 min 11 sec)
Heartbeat CPU 0 instructions: 210000000 cycles: 58032005 heartbeat IPC: 3.459 cumulative IPC: 3.514 (Simulation time: 01 hr 04 min 30 sec)
Heartbeat CPU 0 instructions: 220000001 cycles: 60781438 heartbeat IPC: 3.637 cumulative IPC: 3.521 (Simulation time: 01 hr 07 min 40 sec)
Heartbeat CPU 0 instructions: 230000002 cycles: 63668564 heartbeat IPC: 3.464 cumulative IPC: 3.518 (Simulation time: 01 hr 10 min 51 sec)
Heartbeat CPU 0 instructions: 240000004 cycles: 66619176 heartbeat IPC: 3.389 cumulative IPC: 3.511 (Simulation time: 01 hr 14 min 05 sec)
Heartbeat CPU 0 instructions: 250000003 cycles: 69509596 heartbeat IPC: 3.46 cumulative IPC: 3.508 (Simulation time: 01 hr 17 min 22 sec)
Heartbeat CPU 0 instructions: 260000001 cycles: 72292418 heartbeat IPC: 3.593 cumulative IPC: 3.512 (Simulation time: 01 hr 20 min 34 sec)
Heartbeat CPU 0 instructions: 270000002 cycles: 78010768 heartbeat IPC: 1.749 cumulative IPC: 3.358 (Simulation time: 01 hr 25 min 05 sec)
Heartbeat CPU 0 instructions: 280000000 cycles: 86354408 heartbeat IPC: 1.199 cumulative IPC: 3.114 (Simulation time: 01 hr 30 min 54 sec)
Heartbeat CPU 0 instructions: 290000000 cycles: 93154678 heartbeat IPC: 1.471 cumulative IPC: 2.976 (Simulation time: 01 hr 36 min 05 sec)
Heartbeat CPU 0 instructions: 300000003 cycles: 98139904 heartbeat IPC: 2.006 cumulative IPC: 2.919 (Simulation time: 01 hr 40 min 41 sec)
Heartbeat CPU 0 instructions: 310000001 cycles: 105411567 heartbeat IPC: 1.375 cumulative IPC: 2.798 (Simulation time: 01 hr 46 min 12 sec)
Heartbeat CPU 0 instructions: 320000004 cycles: 109048537 heartbeat IPC: 2.75 cumulative IPC: 2.797 (Simulation time: 01 hr 49 min 59 sec)
Heartbeat CPU 0 instructions: 330000000 cycles: 112138492 heartbeat IPC: 3.236 cumulative IPC: 2.81 (Simulation time: 01 hr 53 min 20 sec)
Heartbeat CPU 0 instructions: 340000001 cycles: 114903037 heartbeat IPC: 3.617 cumulative IPC: 2.832 (Simulation time: 01 hr 56 min 32 sec)
Heartbeat CPU 0 instructions: 350000000 cycles: 117816764 heartbeat IPC: 3.432 cumulative IPC: 2.849 (Simulation time: 01 hr 59 min 36 sec)
Heartbeat CPU 0 instructions: 360000004 cycles: 120562420 heartbeat IPC: 3.642 cumulative IPC: 2.869 (Simulation time: 02 hr 02 min 18 sec)
Heartbeat CPU 0 instructions: 370000001 cycles: 123317024 heartbeat IPC: 3.63 cumulative IPC: 2.888 (Simulation time: 02 hr 05 min 02 sec)
Heartbeat CPU 0 instructions: 380000004 cycles: 126110791 heartbeat IPC: 3.579 cumulative IPC: 2.905 (Simulation time: 02 hr 07 min 48 sec)
Heartbeat CPU 0 instructions: 390000002 cycles: 128909743 heartbeat IPC: 3.573 cumulative IPC: 2.921 (Simulation time: 02 hr 10 min 31 sec)
Heartbeat CPU 0 instructions: 400000000 cycles: 131770455 heartbeat IPC: 3.496 cumulative IPC: 2.935 (Simulation time: 02 hr 13 min 17 sec)
Heartbeat CPU 0 instructions: 410000000 cycles: 135856459 heartbeat IPC: 2.447 cumulative IPC: 2.918 (Simulation time: 02 hr 16 min 32 sec)
Heartbeat CPU 0 instructions: 420000003 cycles: 140743229 heartbeat IPC: 2.046 cumulative IPC: 2.885 (Simulation time: 02 hr 20 min 10 sec)
Heartbeat CPU 0 instructions: 430000000 cycles: 145117806 heartbeat IPC: 2.286 cumulative IPC: 2.865 (Simulation time: 02 hr 23 min 46 sec)
Heartbeat CPU 0 instructions: 440000004 cycles: 149318149 heartbeat IPC: 2.381 cumulative IPC: 2.851 (Simulation time: 02 hr 27 min 15 sec)
Heartbeat CPU 0 instructions: 450000001 cycles: 153520606 heartbeat IPC: 2.38 cumulative IPC: 2.836 (Simulation time: 02 hr 30 min 42 sec)
Heartbeat CPU 0 instructions: 460000002 cycles: 158647814 heartbeat IPC: 1.95 cumulative IPC: 2.805 (Simulation time: 02 hr 34 min 31 sec)
Heartbeat CPU 0 instructions: 470000003 cycles: 162923136 heartbeat IPC: 2.339 cumulative IPC: 2.792 (Simulation time: 02 hr 37 min 59 sec)
Heartbeat CPU 0 instructions: 480000000 cycles: 165869759 heartbeat IPC: 3.394 cumulative IPC: 2.804 (Simulation time: 02 hr 40 min 49 sec)
Heartbeat CPU 0 instructions: 490000001 cycles: 168760984 heartbeat IPC: 3.459 cumulative IPC: 2.816 (Simulation time: 02 hr 43 min 38 sec)
Heartbeat CPU 0 instructions: 500000002 cycles: 171588631 heartbeat IPC: 3.537 cumulative IPC: 2.829 (Simulation time: 02 hr 46 min 23 sec)
Heartbeat CPU 0 instructions: 510000000 cycles: 174427377 heartbeat IPC: 3.523 cumulative IPC: 2.841 (Simulation time: 02 hr 49 min 11 sec)
Heartbeat CPU 0 instructions: 520000000 cycles: 177278489 heartbeat IPC: 3.507 cumulative IPC: 2.852 (Simulation time: 02 hr 51 min 57 sec)
Heartbeat CPU 0 instructions: 530000001 cycles: 181982045 heartbeat IPC: 2.126 cumulative IPC: 2.832 (Simulation time: 02 hr 55 min 35 sec)
Heartbeat CPU 0 instructions: 540000000 cycles: 186656431 heartbeat IPC: 2.139 cumulative IPC: 2.814 (Simulation time: 02 hr 59 min 15 sec)
Heartbeat CPU 0 instructions: 550000004 cycles: 191668648 heartbeat IPC: 1.995 cumulative IPC: 2.791 (Simulation time: 03 hr 03 min 01 sec)
Heartbeat CPU 0 instructions: 560000004 cycles: 194808715 heartbeat IPC: 3.185 cumulative IPC: 2.797 (Simulation time: 03 hr 05 min 50 sec)
Heartbeat CPU 0 instructions: 570000002 cycles: 197585395 heartbeat IPC: 3.601 cumulative IPC: 2.81 (Simulation time: 03 hr 08 min 26 sec)
Heartbeat CPU 0 instructions: 580000000 cycles: 200420933 heartbeat IPC: 3.527 cumulative IPC: 2.82 (Simulation time: 03 hr 10 min 56 sec)
Heartbeat CPU 0 instructions: 590000001 cycles: 203268523 heartbeat IPC: 3.512 cumulative IPC: 2.831 (Simulation time: 03 hr 13 min 15 sec)
Heartbeat CPU 0 instructions: 600000003 cycles: 205920112 heartbeat IPC: 3.771 cumulative IPC: 2.844 (Simulation time: 03 hr 15 min 23 sec)
Heartbeat CPU 0 instructions: 610000001 cycles: 208735277 heartbeat IPC: 3.552 cumulative IPC: 2.854 (Simulation time: 03 hr 17 min 28 sec)
Heartbeat CPU 0 instructions: 620000004 cycles: 211648996 heartbeat IPC: 3.432 cumulative IPC: 2.862 (Simulation time: 03 hr 19 min 21 sec)
Heartbeat CPU 0 instructions: 630000002 cycles: 214428975 heartbeat IPC: 3.597 cumulative IPC: 2.872 (Simulation time: 03 hr 20 min 47 sec)
Heartbeat CPU 0 instructions: 640000004 cycles: 217435386 heartbeat IPC: 3.326 cumulative IPC: 2.879 (Simulation time: 03 hr 21 min 50 sec)
Heartbeat CPU 0 instructions: 650000001 cycles: 220127927 heartbeat IPC: 3.714 cumulative IPC: 2.89 (Simulation time: 03 hr 22 min 40 sec)
Simulation finished CPU 0 instructions: 600000001 cycles: 207627866 cumulative IPC: 2.89 (Simulation time: 03 hr 22 min 40 sec)
Simulation complete CPU 0 instructions: 600000001 cycles: 207627866 cumulative IPC: 2.89 (Simulation time: 03 hr 22 min 40 sec)

ChampSim completed all CPUs

=== Simulation ===
CPU 0 runs traces/400.perlbench-50B.champsimtrace.xz
Region of Interest Statistics

CPU 0 cumulative IPC: 2.89 instructions: 600000001 cycles: 207627866
CPU 0 Branch Prediction Accuracy: 99.01% MPKI: 2.04 Average ROB Occupancy at Mispredict: 93.19
Branch type MPKI
BRANCH_DIRECT_JUMP: 0.0176
BRANCH_INDIRECT: 0.38
BRANCH_CONDITIONAL: 1.19
BRANCH_DIRECT_CALL: 0.0067
BRANCH_INDIRECT_CALL: 0.431
BRANCH_RETURN: 0.0161

LLC TOTAL        ACCESS:     836214 HIT:     716559 MISS:     119655
LLC LOAD         ACCESS:     576039 HIT:     485985 MISS:      90054
LLC RFO          ACCESS:      47062 HIT:      37793 MISS:       9269
LLC PREFETCH     ACCESS:      64342 HIT:      53133 MISS:      11209
LLC WRITE        ACCESS:     126753 HIT:     126725 MISS:         28
LLC TRANSLATION  ACCESS:      22018 HIT:      12923 MISS:       9095
LLC PREFETCH REQUESTED:      64342 ISSUED:      64342 USEFUL:       6554 USELESS:        953
LLC AVERAGE MISS LATENCY: 529.8 cycles
cpu0_DTLB TOTAL        ACCESS:  133220774 HIT:  131866823 MISS:    1353951
cpu0_DTLB LOAD         ACCESS:  133220774 HIT:  131866823 MISS:    1353951
cpu0_DTLB RFO          ACCESS:          0 HIT:          0 MISS:          0
cpu0_DTLB PREFETCH     ACCESS:          0 HIT:          0 MISS:          0
cpu0_DTLB WRITE        ACCESS:          0 HIT:          0 MISS:          0
cpu0_DTLB TRANSLATION  ACCESS:          0 HIT:          0 MISS:          0
cpu0_DTLB PREFETCH REQUESTED:          0 ISSUED:          0 USEFUL:          0 USELESS:          0
cpu0_DTLB AVERAGE MISS LATENCY: 9.422 cycles
cpu0_ITLB TOTAL        ACCESS:    8983749 HIT:    8774302 MISS:     209447
cpu0_ITLB LOAD         ACCESS:    8983749 HIT:    8774302 MISS:     209447
cpu0_ITLB RFO          ACCESS:          0 HIT:          0 MISS:          0
cpu0_ITLB PREFETCH     ACCESS:          0 HIT:          0 MISS:          0
cpu0_ITLB WRITE        ACCESS:          0 HIT:          0 MISS:          0
cpu0_ITLB TRANSLATION  ACCESS:          0 HIT:          0 MISS:          0
cpu0_ITLB PREFETCH REQUESTED:          0 ISSUED:          0 USEFUL:          0 USELESS:          0
cpu0_ITLB AVERAGE MISS LATENCY: 2.298 cycles
cpu0_L1D TOTAL        ACCESS:  178289103 HIT:  174553241 MISS:    3735862
cpu0_L1D LOAD         ACCESS:   92769893 HIT:   89700298 MISS:    3069595
cpu0_L1D RFO          ACCESS:          0 HIT:          0 MISS:          0
cpu0_L1D PREFETCH     ACCESS:          0 HIT:          0 MISS:          0
cpu0_L1D WRITE        ACCESS:   85490681 HIT:   84851524 MISS:     639157
cpu0_L1D TRANSLATION  ACCESS:      28529 HIT:       1419 MISS:      27110
cpu0_L1D PREFETCH REQUESTED:          0 ISSUED:          0 USEFUL:          0 USELESS:          0
cpu0_L1D AVERAGE MISS LATENCY: 21.24 cycles
cpu0_L1I TOTAL        ACCESS:   10504238 HIT:    8605692 MISS:    1898546
cpu0_L1I LOAD         ACCESS:   10504238 HIT:    8605692 MISS:    1898546
cpu0_L1I RFO          ACCESS:          0 HIT:          0 MISS:          0
cpu0_L1I PREFETCH     ACCESS:          0 HIT:          0 MISS:          0
cpu0_L1I WRITE        ACCESS:          0 HIT:          0 MISS:          0
cpu0_L1I TRANSLATION  ACCESS:          0 HIT:          0 MISS:          0
cpu0_L1I PREFETCH REQUESTED:          0 ISSUED:          0 USEFUL:          0 USELESS:          0
cpu0_L1I AVERAGE MISS LATENCY: 8.488 cycles
cpu0_L2C TOTAL        ACCESS:    3840718 HIT:    3192450 MISS:     648268
cpu0_L2C LOAD         ACCESS:    3103902 HIT:    2527863 MISS:     576039
cpu0_L2C RFO          ACCESS:     194823 HIT:     147761 MISS:      47062
cpu0_L2C PREFETCH     ACCESS:          0 HIT:          0 MISS:          0
cpu0_L2C WRITE        ACCESS:     514958 HIT:     511809 MISS:       3149
cpu0_L2C TRANSLATION  ACCESS:      27035 HIT:       5017 MISS:      22018
cpu0_L2C PREFETCH REQUESTED:          0 ISSUED:          0 USEFUL:          0 USELESS:          0
cpu0_L2C AVERAGE MISS LATENCY: 108.4 cycles
cpu0_STLB TOTAL        ACCESS:    1009650 HIT:     982960 MISS:      26690
cpu0_STLB LOAD         ACCESS:    1009650 HIT:     982960 MISS:      26690
cpu0_STLB RFO          ACCESS:          0 HIT:          0 MISS:          0
cpu0_STLB PREFETCH     ACCESS:          0 HIT:          0 MISS:          0
cpu0_STLB WRITE        ACCESS:          0 HIT:          0 MISS:          0
cpu0_STLB TRANSLATION  ACCESS:          0 HIT:          0 MISS:          0
cpu0_STLB PREFETCH REQUESTED:          0 ISSUED:          0 USEFUL:          0 USELESS:          0
cpu0_STLB AVERAGE MISS LATENCY: 262.1 cycles

DRAM Statistics

Channel 0 RQ ROW_BUFFER_HIT:      36434
  ROW_BUFFER_MISS:      80926
 AVG DBUS CONGESTED CYCLE: 3.779
WQ ROW_BUFFER_HIT: Channel 0 
  ROW_BUFFER_MISS:        541
  FULL:        984
