WARNING: physical memory size is smaller than virtual memory size.

*** ChampSim Multicore Out-of-Order Simulator ***
Warmup Instructions: 50000000
Simulation Instructions: 600000000
Number of CPUs: 1
Page size: 4096

Off-chip DRAM Size: 4 GiB Channels: 1 Width: 64-bit Data Race: 3200 MT/s
Heartbeat CPU 0 instructions: 10000000 cycles: 2500062 heartbeat IPC: 4 cumulative IPC: 4 (Simulation time: 00 hr 01 min 50 sec)
Heartbeat CPU 0 instructions: 20000000 cycles: 5000062 heartbeat IPC: 4 cumulative IPC: 4 (Simulation time: 00 hr 04 min 23 sec)
Heartbeat CPU 0 instructions: 30000000 cycles: 7500062 heartbeat IPC: 4 cumulative IPC: 4 (Simulation time: 00 hr 07 min 38 sec)
Heartbeat CPU 0 instructions: 40000000 cycles: 10000062 heartbeat IPC: 4 cumulative IPC: 4 (Simulation time: 00 hr 10 min 58 sec)
Heartbeat CPU 0 instructions: 50000000 cycles: 12500062 heartbeat IPC: 4 cumulative IPC: 4 (Simulation time: 00 hr 14 min 19 sec)
Warmup finished CPU 0 instructions: 50000000 cycles: 12500063 cumulative IPC: 4 (Simulation time: 00 hr 14 min 19 sec)
Warmup complete CPU 0 instructions: 50000000 cycles: 12500063 cumulative IPC: 4 (Simulation time: 00 hr 14 min 19 sec)
Heartbeat CPU 0 instructions: 60000002 cycles: 16267015 heartbeat IPC: 2.655 cumulative IPC: 2.655 (Simulation time: 00 hr 18 min 51 sec)
Heartbeat CPU 0 instructions: 70000003 cycles: 20449824 heartbeat IPC: 2.391 cumulative IPC: 2.516 (Simulation time: 00 hr 23 min 30 sec)
Heartbeat CPU 0 instructions: 80000003 cycles: 24691532 heartbeat IPC: 2.358 cumulative IPC: 2.461 (Simulation time: 00 hr 28 min 13 sec)
Heartbeat CPU 0 instructions: 90000000 cycles: 27946450 heartbeat IPC: 3.072 cumulative IPC: 2.59 (Simulation time: 00 hr 32 min 27 sec)
Heartbeat CPU 0 instructions: 100000003 cycles: 31979509 heartbeat IPC: 2.48 cumulative IPC: 2.567 (Simulation time: 00 hr 37 min 04 sec)
Heartbeat CPU 0 instructions: 110000002 cycles: 35964794 heartbeat IPC: 2.509 cumulative IPC: 2.557 (Simulation time: 00 hr 41 min 39 sec)
Heartbeat CPU 0 instructions: 120000001 cycles: 39534363 heartbeat IPC: 2.801 cumulative IPC: 2.589 (Simulation time: 00 hr 46 min 03 sec)
Heartbeat CPU 0 instructions: 130000003 cycles: 43220176 heartbeat IPC: 2.713 cumulative IPC: 2.604 (Simulation time: 00 hr 50 min 29 sec)
Heartbeat CPU 0 instructions: 140000002 cycles: 47182407 heartbeat IPC: 2.524 cumulative IPC: 2.595 (Simulation time: 00 hr 55 min 04 sec)
Heartbeat CPU 0 instructions: 150000001 cycles: 51094465 heartbeat IPC: 2.556 cumulative IPC: 2.591 (Simulation time: 00 hr 59 min 37 sec)
Heartbeat CPU 0 instructions: 160000000 cycles: 54749673 heartbeat IPC: 2.736 cumulative IPC: 2.604 (Simulation time: 01 hr 04 min 02 sec)
Heartbeat CPU 0 instructions: 170000001 cycles: 58727025 heartbeat IPC: 2.514 cumulative IPC: 2.596 (Simulation time: 01 hr 08 min 40 sec)
Heartbeat CPU 0 instructions: 180000001 cycles: 62161657 heartbeat IPC: 2.912 cumulative IPC: 2.618 (Simulation time: 01 hr 13 min 03 sec)
Heartbeat CPU 0 instructions: 190000002 cycles: 65633417 heartbeat IPC: 2.88 cumulative IPC: 2.635 (Simulation time: 01 hr 17 min 26 sec)
Heartbeat CPU 0 instructions: 200000002 cycles: 69391130 heartbeat IPC: 2.661 cumulative IPC: 2.637 (Simulation time: 01 hr 21 min 55 sec)
Heartbeat CPU 0 instructions: 210000000 cycles: 72931429 heartbeat IPC: 2.825 cumulative IPC: 2.648 (Simulation time: 01 hr 26 min 17 sec)
Heartbeat CPU 0 instructions: 220000001 cycles: 76640652 heartbeat IPC: 2.696 cumulative IPC: 2.65 (Simulation time: 01 hr 30 min 45 sec)
Heartbeat CPU 0 instructions: 230000002 cycles: 80354228 heartbeat IPC: 2.693 cumulative IPC: 2.653 (Simulation time: 01 hr 35 min 12 sec)
Heartbeat CPU 0 instructions: 240000004 cycles: 84332138 heartbeat IPC: 2.514 cumulative IPC: 2.645 (Simulation time: 01 hr 39 min 49 sec)
Heartbeat CPU 0 instructions: 250000003 cycles: 88676107 heartbeat IPC: 2.302 cumulative IPC: 2.625 (Simulation time: 01 hr 44 min 34 sec)
Heartbeat CPU 0 instructions: 260000001 cycles: 92334790 heartbeat IPC: 2.733 cumulative IPC: 2.63 (Simulation time: 01 hr 49 min 01 sec)
Heartbeat CPU 0 instructions: 270000003 cycles: 99475188 heartbeat IPC: 1.4 cumulative IPC: 2.529 (Simulation time: 01 hr 55 min 38 sec)
Heartbeat CPU 0 instructions: 280000000 cycles: 109930660 heartbeat IPC: 0.9564 cumulative IPC: 2.361 (Simulation time: 02 hr 04 min 33 sec)
Heartbeat CPU 0 instructions: 290000000 cycles: 119561946 heartbeat IPC: 1.038 cumulative IPC: 2.242 (Simulation time: 02 hr 12 min 59 sec)
Heartbeat CPU 0 instructions: 300000000 cycles: 127393225 heartbeat IPC: 1.277 cumulative IPC: 2.176 (Simulation time: 02 hr 20 min 28 sec)
Heartbeat CPU 0 instructions: 310000004 cycles: 137929289 heartbeat IPC: 0.9491 cumulative IPC: 2.073 (Simulation time: 02 hr 29 min 31 sec)
Heartbeat CPU 0 instructions: 320000004 cycles: 143180524 heartbeat IPC: 1.904 cumulative IPC: 2.066 (Simulation time: 02 hr 35 min 10 sec)
Heartbeat CPU 0 instructions: 330000000 cycles: 147134566 heartbeat IPC: 2.529 cumulative IPC: 2.08 (Simulation time: 02 hr 39 min 53 sec)
Heartbeat CPU 0 instructions: 340000001 cycles: 151234589 heartbeat IPC: 2.439 cumulative IPC: 2.09 (Simulation time: 02 hr 44 min 38 sec)
Heartbeat CPU 0 instructions: 350000004 cycles: 155476666 heartbeat IPC: 2.357 cumulative IPC: 2.098 (Simulation time: 02 hr 49 min 34 sec)
Heartbeat CPU 0 instructions: 360000003 cycles: 159478847 heartbeat IPC: 2.499 cumulative IPC: 2.109 (Simulation time: 02 hr 54 min 19 sec)
Heartbeat CPU 0 instructions: 370000001 cycles: 163390566 heartbeat IPC: 2.556 cumulative IPC: 2.121 (Simulation time: 02 hr 59 min 00 sec)
Heartbeat CPU 0 instructions: 380000004 cycles: 167163876 heartbeat IPC: 2.65 cumulative IPC: 2.134 (Simulation time: 03 hr 03 min 38 sec)
Heartbeat CPU 0 instructions: 390000002 cycles: 171042941 heartbeat IPC: 2.578 cumulative IPC: 2.145 (Simulation time: 03 hr 08 min 20 sec)
Heartbeat CPU 0 instructions: 400000000 cycles: 175235223 heartbeat IPC: 2.385 cumulative IPC: 2.151 (Simulation time: 03 hr 13 min 12 sec)
Heartbeat CPU 0 instructions: 410000000 cycles: 182087660 heartbeat IPC: 1.459 cumulative IPC: 2.123 (Simulation time: 03 hr 19 min 46 sec)
Heartbeat CPU 0 instructions: 420000001 cycles: 191686673 heartbeat IPC: 1.042 cumulative IPC: 2.065 (Simulation time: 03 hr 28 min 06 sec)
Heartbeat CPU 0 instructions: 430000002 cycles: 199135333 heartbeat IPC: 1.343 cumulative IPC: 2.036 (Simulation time: 03 hr 35 min 18 sec)
Heartbeat CPU 0 instructions: 440000002 cycles: 205991797 heartbeat IPC: 1.458 cumulative IPC: 2.016 (Simulation time: 03 hr 42 min 02 sec)
Heartbeat CPU 0 instructions: 450000001 cycles: 213231864 heartbeat IPC: 1.381 cumulative IPC: 1.993 (Simulation time: 03 hr 49 min 04 sec)
Heartbeat CPU 0 instructions: 460000002 cycles: 222661642 heartbeat IPC: 1.06 cumulative IPC: 1.951 (Simulation time: 03 hr 57 min 26 sec)
Heartbeat CPU 0 instructions: 470000003 cycles: 231227254 heartbeat IPC: 1.167 cumulative IPC: 1.92 (Simulation time: 04 hr 05 min 15 sec)
Heartbeat CPU 0 instructions: 480000003 cycles: 235388646 heartbeat IPC: 2.403 cumulative IPC: 1.929 (Simulation time: 04 hr 10 min 04 sec)
Heartbeat CPU 0 instructions: 490000001 cycles: 240013817 heartbeat IPC: 2.162 cumulative IPC: 1.934 (Simulation time: 04 hr 15 min 11 sec)
Heartbeat CPU 0 instructions: 500000002 cycles: 244302794 heartbeat IPC: 2.332 cumulative IPC: 1.941 (Simulation time: 04 hr 20 min 07 sec)
Heartbeat CPU 0 instructions: 510000000 cycles: 248610665 heartbeat IPC: 2.321 cumulative IPC: 1.948 (Simulation time: 04 hr 25 min 03 sec)
Heartbeat CPU 0 instructions: 520000000 cycles: 252978437 heartbeat IPC: 2.289 cumulative IPC: 1.954 (Simulation time: 04 hr 29 min 58 sec)
Heartbeat CPU 0 instructions: 530000001 cycles: 263138142 heartbeat IPC: 0.9843 cumulative IPC: 1.915 (Simulation time: 04 hr 38 min 33 sec)
Heartbeat CPU 0 instructions: 540000000 cycles: 272740143 heartbeat IPC: 1.041 cumulative IPC: 1.883 (Simulation time: 04 hr 47 min 03 sec)
Heartbeat CPU 0 instructions: 550000002 cycles: 283198820 heartbeat IPC: 0.9561 cumulative IPC: 1.847 (Simulation time: 04 hr 56 min 18 sec)
Heartbeat CPU 0 instructions: 560000004 cycles: 287227050 heartbeat IPC: 2.482 cumulative IPC: 1.856 (Simulation time: 05 hr 01 min 01 sec)
Heartbeat CPU 0 instructions: 570000001 cycles: 290346434 heartbeat IPC: 3.206 cumulative IPC: 1.872 (Simulation time: 05 hr 05 min 17 sec)
Heartbeat CPU 0 instructions: 580000003 cycles: 293793145 heartbeat IPC: 2.901 cumulative IPC: 1.884 (Simulation time: 05 hr 09 min 47 sec)
Heartbeat CPU 0 instructions: 590000001 cycles: 297323655 heartbeat IPC: 2.832 cumulative IPC: 1.896 (Simulation time: 05 hr 14 min 20 sec)
Heartbeat CPU 0 instructions: 600000003 cycles: 300278018 heartbeat IPC: 3.385 cumulative IPC: 1.911 (Simulation time: 05 hr 18 min 33 sec)
Heartbeat CPU 0 instructions: 610000001 cycles: 303759798 heartbeat IPC: 2.872 cumulative IPC: 1.923 (Simulation time: 05 hr 22 min 59 sec)
Heartbeat CPU 0 instructions: 620000000 cycles: 307280039 heartbeat IPC: 2.841 cumulative IPC: 1.934 (Simulation time: 05 hr 27 min 37 sec)
Heartbeat CPU 0 instructions: 630000002 cycles: 310459529 heartbeat IPC: 3.145 cumulative IPC: 1.947 (Simulation time: 05 hr 32 min 04 sec)
Heartbeat CPU 0 instructions: 640000004 cycles: 314190080 heartbeat IPC: 2.681 cumulative IPC: 1.956 (Simulation time: 05 hr 36 min 38 sec)
Heartbeat CPU 0 instructions: 650000001 cycles: 317582891 heartbeat IPC: 2.947 cumulative IPC: 1.967 (Simulation time: 05 hr 40 min 59 sec)
Simulation finished CPU 0 instructions: 600000001 cycles: 305082829 cumulative IPC: 1.967 (Simulation time: 05 hr 40 min 59 sec)
Simulation complete CPU 0 instructions: 600000001 cycles: 305082829 cumulative IPC: 1.967 (Simulation time: 05 hr 40 min 59 sec)

ChampSim completed all CPUs

=== Simulation ===
CPU 0 runs traces/400.perlbench-50B.champsimtrace.xz
Region of Interest Statistics

CPU 0 cumulative IPC: 1.967 instructions: 600000001 cycles: 305082829
CPU 0 Branch Prediction Accuracy: 96.09% MPKI: 8.064 Average ROB Occupancy at Mispredict: 40.2
Branch type MPKI
BRANCH_DIRECT_JUMP: 0.0176
BRANCH_INDIRECT: 0.38
BRANCH_CONDITIONAL: 7.21
BRANCH_DIRECT_CALL: 0.0067
BRANCH_INDIRECT_CALL: 0.431
BRANCH_RETURN: 0.0161

LLC TOTAL        ACCESS:    1228856 HIT:     890891 MISS:     337965
LLC LOAD         ACCESS:     594607 HIT:     467411 MISS:     127196
LLC RFO          ACCESS:      47624 HIT:      34157 MISS:      13467
LLC PREFETCH     ACCESS:     435062 HIT:     247592 MISS:     187470
LLC WRITE        ACCESS:     129342 HIT:     129235 MISS:        107
LLC TRANSLATION  ACCESS:      22221 HIT:      12496 MISS:       9725
LLC PREFETCH REQUESTED:     435103 ISSUED:     435062 USEFUL:      72417 USELESS:      68498
LLC AVERAGE MISS LATENCY: 624.1 cycles
cpu0_DTLB TOTAL        ACCESS:  146286898 HIT:  144993160 MISS:    1293738
cpu0_DTLB LOAD         ACCESS:  146286898 HIT:  144993160 MISS:    1293738
cpu0_DTLB RFO          ACCESS:          0 HIT:          0 MISS:          0
cpu0_DTLB PREFETCH     ACCESS:          0 HIT:          0 MISS:          0
cpu0_DTLB WRITE        ACCESS:          0 HIT:          0 MISS:          0
cpu0_DTLB TRANSLATION  ACCESS:          0 HIT:          0 MISS:          0
cpu0_DTLB PREFETCH REQUESTED:          0 ISSUED:          0 USEFUL:          0 USELESS:          0
cpu0_DTLB AVERAGE MISS LATENCY: 10.68 cycles
cpu0_ITLB TOTAL        ACCESS:    8991772 HIT:    8819393 MISS:     172379
cpu0_ITLB LOAD         ACCESS:    8991772 HIT:    8819393 MISS:     172379
cpu0_ITLB RFO          ACCESS:          0 HIT:          0 MISS:          0
cpu0_ITLB PREFETCH     ACCESS:          0 HIT:          0 MISS:          0
cpu0_ITLB WRITE        ACCESS:          0 HIT:          0 MISS:          0
cpu0_ITLB TRANSLATION  ACCESS:          0 HIT:          0 MISS:          0
cpu0_ITLB PREFETCH REQUESTED:          0 ISSUED:          0 USEFUL:          0 USELESS:          0
cpu0_ITLB AVERAGE MISS LATENCY: 3.578 cycles
cpu0_L1D TOTAL        ACCESS:  193020774 HIT:  189431205 MISS:    3589569
cpu0_L1D LOAD         ACCESS:  107204362 HIT:  104249816 MISS:    2954546
cpu0_L1D RFO          ACCESS:          0 HIT:          0 MISS:          0
cpu0_L1D PREFETCH     ACCESS:          0 HIT:          0 MISS:          0
cpu0_L1D WRITE        ACCESS:   85787882 HIT:   85179952 MISS:     607930
cpu0_L1D TRANSLATION  ACCESS:      28530 HIT:       1437 MISS:      27093
cpu0_L1D PREFETCH REQUESTED:          0 ISSUED:          0 USEFUL:          0 USELESS:          0
cpu0_L1D AVERAGE MISS LATENCY: 30.27 cycles
cpu0_L1I TOTAL        ACCESS:   10426228 HIT:    8711564 MISS:    1714664
cpu0_L1I LOAD         ACCESS:   10426228 HIT:    8711564 MISS:    1714664
cpu0_L1I RFO          ACCESS:          0 HIT:          0 MISS:          0
cpu0_L1I PREFETCH     ACCESS:          0 HIT:          0 MISS:          0
cpu0_L1I WRITE        ACCESS:          0 HIT:          0 MISS:          0
cpu0_L1I TRANSLATION  ACCESS:          0 HIT:          0 MISS:          0
cpu0_L1I PREFETCH REQUESTED:          0 ISSUED:          0 USEFUL:          0 USELESS:          0
cpu0_L1I AVERAGE MISS LATENCY: 9.98 cycles
cpu0_L2C TOTAL        ACCESS:    3833601 HIT:    3165720 MISS:     667881
cpu0_L2C LOAD         ACCESS:    3105432 HIT:    2510825 MISS:     594607
cpu0_L2C RFO          ACCESS:     190707 HIT:     143083 MISS:      47624
cpu0_L2C PREFETCH     ACCESS:          0 HIT:          0 MISS:          0
cpu0_L2C WRITE        ACCESS:     510419 HIT:     506990 MISS:       3429
cpu0_L2C TRANSLATION  ACCESS:      27043 HIT:       4822 MISS:      22221
cpu0_L2C PREFETCH REQUESTED:          0 ISSUED:          0 USEFUL:          0 USELESS:          0
cpu0_L2C AVERAGE MISS LATENCY: 147.2 cycles
cpu0_STLB TOTAL        ACCESS:    1009145 HIT:     982449 MISS:      26696
cpu0_STLB LOAD         ACCESS:    1009145 HIT:     982449 MISS:      26696
cpu0_STLB RFO          ACCESS:          0 HIT:          0 MISS:          0
cpu0_STLB PREFETCH     ACCESS:          0 HIT:          0 MISS:          0
cpu0_STLB WRITE        ACCESS:          0 HIT:          0 MISS:          0
cpu0_STLB TRANSLATION  ACCESS:          0 HIT:          0 MISS:          0
cpu0_STLB PREFETCH REQUESTED:          0 ISSUED:          0 USEFUL:          0 USELESS:          0
cpu0_STLB AVERAGE MISS LATENCY: 289.9 cycles

DRAM Statistics

Channel 0 RQ ROW_BUFFER_HIT:     135497
  ROW_BUFFER_MISS:     193353
 AVG DBUS CONGESTED CYCLE: 3.889
WQ ROW_BUFFER_HIT: Channel 0 
  ROW_BUFFER_MISS:       4777
  FULL:      15445
