WARNING: physical memory size is smaller than virtual memory size.

*** ChampSim Multicore Out-of-Order Simulator ***
Warmup Instructions: 50000000
Simulation Instructions: 600000000
Number of CPUs: 1
Page size: 4096

Off-chip DRAM Size: 4 GiB Channels: 1 Width: 64-bit Data Race: 3200 MT/s
Heartbeat CPU 0 instructions: 10000001 cycles: 2500319 heartbeat IPC: 3.999 cumulative IPC: 3.999 (Simulation time: 00 hr 02 min 07 sec)
Heartbeat CPU 0 instructions: 20000002 cycles: 5037115 heartbeat IPC: 3.942 cumulative IPC: 3.971 (Simulation time: 00 hr 05 min 19 sec)
Heartbeat CPU 0 instructions: 30000002 cycles: 7537115 heartbeat IPC: 4 cumulative IPC: 3.98 (Simulation time: 00 hr 08 min 44 sec)
Heartbeat CPU 0 instructions: 40000002 cycles: 10037115 heartbeat IPC: 4 cumulative IPC: 3.985 (Simulation time: 00 hr 12 min 10 sec)
Heartbeat CPU 0 instructions: 50000002 cycles: 12537115 heartbeat IPC: 4 cumulative IPC: 3.988 (Simulation time: 00 hr 15 min 35 sec)
Warmup finished CPU 0 instructions: 50000002 cycles: 12537116 cumulative IPC: 3.988 (Simulation time: 00 hr 15 min 35 sec)
Warmup complete CPU 0 instructions: 50000002 cycles: 12537116 cumulative IPC: 3.988 (Simulation time: 00 hr 15 min 35 sec)
Heartbeat CPU 0 instructions: 60000000 cycles: 16950946 heartbeat IPC: 2.266 cumulative IPC: 2.266 (Simulation time: 00 hr 20 min 25 sec)
Heartbeat CPU 0 instructions: 70000002 cycles: 21064952 heartbeat IPC: 2.431 cumulative IPC: 2.345 (Simulation time: 00 hr 25 min 11 sec)
Heartbeat CPU 0 instructions: 80000001 cycles: 25545238 heartbeat IPC: 2.232 cumulative IPC: 2.306 (Simulation time: 00 hr 30 min 06 sec)
Heartbeat CPU 0 instructions: 90000003 cycles: 29485627 heartbeat IPC: 2.538 cumulative IPC: 2.36 (Simulation time: 00 hr 34 min 44 sec)
Heartbeat CPU 0 instructions: 100000000 cycles: 33590703 heartbeat IPC: 2.436 cumulative IPC: 2.375 (Simulation time: 00 hr 39 min 26 sec)
Heartbeat CPU 0 instructions: 110000000 cycles: 37697929 heartbeat IPC: 2.435 cumulative IPC: 2.385 (Simulation time: 00 hr 44 min 06 sec)
Heartbeat CPU 0 instructions: 120000001 cycles: 41643953 heartbeat IPC: 2.534 cumulative IPC: 2.405 (Simulation time: 00 hr 48 min 46 sec)
Heartbeat CPU 0 instructions: 130000001 cycles: 45348750 heartbeat IPC: 2.699 cumulative IPC: 2.438 (Simulation time: 00 hr 53 min 22 sec)
Heartbeat CPU 0 instructions: 140000001 cycles: 49462022 heartbeat IPC: 2.431 cumulative IPC: 2.437 (Simulation time: 00 hr 58 min 05 sec)
Heartbeat CPU 0 instructions: 150000001 cycles: 53568125 heartbeat IPC: 2.435 cumulative IPC: 2.437 (Simulation time: 01 hr 02 min 49 sec)
Heartbeat CPU 0 instructions: 160000004 cycles: 57764838 heartbeat IPC: 2.383 cumulative IPC: 2.432 (Simulation time: 01 hr 07 min 35 sec)
Heartbeat CPU 0 instructions: 170000001 cycles: 66685671 heartbeat IPC: 1.121 cumulative IPC: 2.216 (Simulation time: 01 hr 15 min 25 sec)
Heartbeat CPU 0 instructions: 180000004 cycles: 75606973 heartbeat IPC: 1.121 cumulative IPC: 2.061 (Simulation time: 01 hr 23 min 25 sec)
Heartbeat CPU 0 instructions: 190000001 cycles: 83889380 heartbeat IPC: 1.207 cumulative IPC: 1.962 (Simulation time: 01 hr 30 min 59 sec)
Heartbeat CPU 0 instructions: 200000004 cycles: 87591865 heartbeat IPC: 2.701 cumulative IPC: 1.999 (Simulation time: 01 hr 35 min 31 sec)
Heartbeat CPU 0 instructions: 210000001 cycles: 91266633 heartbeat IPC: 2.721 cumulative IPC: 2.032 (Simulation time: 01 hr 40 min 01 sec)
Heartbeat CPU 0 instructions: 220000000 cycles: 94992854 heartbeat IPC: 2.684 cumulative IPC: 2.062 (Simulation time: 01 hr 44 min 34 sec)
Heartbeat CPU 0 instructions: 230000002 cycles: 99274082 heartbeat IPC: 2.336 cumulative IPC: 2.075 (Simulation time: 01 hr 49 min 21 sec)
Heartbeat CPU 0 instructions: 240000002 cycles: 103222419 heartbeat IPC: 2.533 cumulative IPC: 2.095 (Simulation time: 01 hr 54 min 00 sec)
Heartbeat CPU 0 instructions: 250000000 cycles: 107277660 heartbeat IPC: 2.466 cumulative IPC: 2.111 (Simulation time: 01 hr 58 min 44 sec)
Heartbeat CPU 0 instructions: 260000000 cycles: 111169414 heartbeat IPC: 2.57 cumulative IPC: 2.129 (Simulation time: 02 hr 03 min 22 sec)
Heartbeat CPU 0 instructions: 270000002 cycles: 114895497 heartbeat IPC: 2.684 cumulative IPC: 2.149 (Simulation time: 02 hr 07 min 52 sec)
Heartbeat CPU 0 instructions: 280000002 cycles: 118871594 heartbeat IPC: 2.515 cumulative IPC: 2.163 (Simulation time: 02 hr 12 min 33 sec)
Heartbeat CPU 0 instructions: 290000002 cycles: 122589599 heartbeat IPC: 2.69 cumulative IPC: 2.181 (Simulation time: 02 hr 17 min 07 sec)
Heartbeat CPU 0 instructions: 300000003 cycles: 126239887 heartbeat IPC: 2.74 cumulative IPC: 2.199 (Simulation time: 02 hr 21 min 37 sec)
Heartbeat CPU 0 instructions: 310000001 cycles: 130102357 heartbeat IPC: 2.589 cumulative IPC: 2.212 (Simulation time: 02 hr 26 min 13 sec)
Heartbeat CPU 0 instructions: 320000003 cycles: 133977128 heartbeat IPC: 2.581 cumulative IPC: 2.223 (Simulation time: 02 hr 30 min 48 sec)
Heartbeat CPU 0 instructions: 330000003 cycles: 138078000 heartbeat IPC: 2.439 cumulative IPC: 2.23 (Simulation time: 02 hr 35 min 32 sec)
Heartbeat CPU 0 instructions: 340000000 cycles: 146523431 heartbeat IPC: 1.184 cumulative IPC: 2.164 (Simulation time: 02 hr 43 min 04 sec)
Heartbeat CPU 0 instructions: 350000000 cycles: 155586340 heartbeat IPC: 1.103 cumulative IPC: 2.097 (Simulation time: 02 hr 51 min 10 sec)
Heartbeat CPU 0 instructions: 360000004 cycles: 163906347 heartbeat IPC: 1.202 cumulative IPC: 2.048 (Simulation time: 02 hr 58 min 42 sec)
Heartbeat CPU 0 instructions: 370000001 cycles: 167253449 heartbeat IPC: 2.988 cumulative IPC: 2.068 (Simulation time: 03 hr 03 min 01 sec)
Heartbeat CPU 0 instructions: 380000001 cycles: 170528503 heartbeat IPC: 3.053 cumulative IPC: 2.089 (Simulation time: 03 hr 07 min 21 sec)
Heartbeat CPU 0 instructions: 390000004 cycles: 174008364 heartbeat IPC: 2.874 cumulative IPC: 2.106 (Simulation time: 03 hr 11 min 46 sec)
Heartbeat CPU 0 instructions: 400000004 cycles: 177499347 heartbeat IPC: 2.865 cumulative IPC: 2.122 (Simulation time: 03 hr 16 min 11 sec)
Heartbeat CPU 0 instructions: 410000001 cycles: 181114015 heartbeat IPC: 2.767 cumulative IPC: 2.136 (Simulation time: 03 hr 20 min 38 sec)
Heartbeat CPU 0 instructions: 420000002 cycles: 184973958 heartbeat IPC: 2.591 cumulative IPC: 2.146 (Simulation time: 03 hr 25 min 14 sec)
Heartbeat CPU 0 instructions: 430000001 cycles: 188443444 heartbeat IPC: 2.882 cumulative IPC: 2.16 (Simulation time: 03 hr 29 min 42 sec)
Heartbeat CPU 0 instructions: 440000004 cycles: 192228824 heartbeat IPC: 2.642 cumulative IPC: 2.17 (Simulation time: 03 hr 34 min 14 sec)
Heartbeat CPU 0 instructions: 450000002 cycles: 195597391 heartbeat IPC: 2.969 cumulative IPC: 2.185 (Simulation time: 03 hr 38 min 34 sec)
Heartbeat CPU 0 instructions: 460000000 cycles: 198994414 heartbeat IPC: 2.944 cumulative IPC: 2.199 (Simulation time: 03 hr 42 min 55 sec)
Heartbeat CPU 0 instructions: 470000001 cycles: 202355553 heartbeat IPC: 2.975 cumulative IPC: 2.213 (Simulation time: 03 hr 47 min 19 sec)
Heartbeat CPU 0 instructions: 480000003 cycles: 205945789 heartbeat IPC: 2.785 cumulative IPC: 2.223 (Simulation time: 03 hr 51 min 44 sec)
Heartbeat CPU 0 instructions: 490000000 cycles: 209350746 heartbeat IPC: 2.937 cumulative IPC: 2.236 (Simulation time: 03 hr 56 min 04 sec)
Heartbeat CPU 0 instructions: 500000004 cycles: 212881052 heartbeat IPC: 2.833 cumulative IPC: 2.246 (Simulation time: 04 hr 00 min 33 sec)
Heartbeat CPU 0 instructions: 510000003 cycles: 216398047 heartbeat IPC: 2.843 cumulative IPC: 2.256 (Simulation time: 04 hr 05 min 02 sec)
Heartbeat CPU 0 instructions: 520000000 cycles: 219605669 heartbeat IPC: 3.118 cumulative IPC: 2.27 (Simulation time: 04 hr 09 min 21 sec)
Heartbeat CPU 0 instructions: 530000002 cycles: 223155394 heartbeat IPC: 2.817 cumulative IPC: 2.279 (Simulation time: 04 hr 13 min 48 sec)
Heartbeat CPU 0 instructions: 540000000 cycles: 226537879 heartbeat IPC: 2.956 cumulative IPC: 2.29 (Simulation time: 04 hr 18 min 07 sec)
Heartbeat CPU 0 instructions: 550000001 cycles: 230087033 heartbeat IPC: 2.818 cumulative IPC: 2.298 (Simulation time: 04 hr 22 min 32 sec)
Heartbeat CPU 0 instructions: 560000004 cycles: 233781615 heartbeat IPC: 2.707 cumulative IPC: 2.305 (Simulation time: 04 hr 27 min 03 sec)
Heartbeat CPU 0 instructions: 570000004 cycles: 239289135 heartbeat IPC: 1.816 cumulative IPC: 2.293 (Simulation time: 04 hr 32 min 45 sec)
Heartbeat CPU 0 instructions: 580000003 cycles: 248575071 heartbeat IPC: 1.077 cumulative IPC: 2.245 (Simulation time: 04 hr 40 min 55 sec)
Heartbeat CPU 0 instructions: 590000002 cycles: 259303687 heartbeat IPC: 0.9321 cumulative IPC: 2.188 (Simulation time: 04 hr 50 min 11 sec)
Heartbeat CPU 0 instructions: 600000000 cycles: 262884819 heartbeat IPC: 2.792 cumulative IPC: 2.197 (Simulation time: 04 hr 54 min 37 sec)
Heartbeat CPU 0 instructions: 610000002 cycles: 266563835 heartbeat IPC: 2.718 cumulative IPC: 2.204 (Simulation time: 04 hr 59 min 15 sec)
Heartbeat CPU 0 instructions: 620000001 cycles: 269896091 heartbeat IPC: 3.001 cumulative IPC: 2.215 (Simulation time: 05 hr 03 min 36 sec)
Heartbeat CPU 0 instructions: 630000002 cycles: 273918800 heartbeat IPC: 2.486 cumulative IPC: 2.219 (Simulation time: 05 hr 08 min 25 sec)
Heartbeat CPU 0 instructions: 640000001 cycles: 277640940 heartbeat IPC: 2.687 cumulative IPC: 2.226 (Simulation time: 05 hr 12 min 58 sec)
Heartbeat CPU 0 instructions: 650000000 cycles: 281259974 heartbeat IPC: 2.763 cumulative IPC: 2.233 (Simulation time: 05 hr 17 min 35 sec)
Simulation finished CPU 0 instructions: 600000001 cycles: 268722860 cumulative IPC: 2.233 (Simulation time: 05 hr 17 min 35 sec)
Simulation complete CPU 0 instructions: 600000001 cycles: 268722860 cumulative IPC: 2.233 (Simulation time: 05 hr 17 min 35 sec)

ChampSim completed all CPUs

=== Simulation ===
CPU 0 runs traces/400.perlbench-41B.champsimtrace.xz
Region of Interest Statistics

CPU 0 cumulative IPC: 2.233 instructions: 600000001 cycles: 268722860
CPU 0 Branch Prediction Accuracy: 96.64% MPKI: 6.948 Average ROB Occupancy at Mispredict: 45.56
Branch type MPKI
BRANCH_DIRECT_JUMP: 0.0123
BRANCH_INDIRECT: 0.323
BRANCH_CONDITIONAL: 6.4
BRANCH_DIRECT_CALL: 0.0043
BRANCH_INDIRECT_CALL: 0.2
BRANCH_RETURN: 0.00828

LLC TOTAL        ACCESS:     831679 HIT:     620998 MISS:     210681
LLC LOAD         ACCESS:     398236 HIT:     316110 MISS:      82126
LLC RFO          ACCESS:      32166 HIT:      24252 MISS:       7914
LLC PREFETCH     ACCESS:     298292 HIT:     185699 MISS:     112593
LLC WRITE        ACCESS:      84058 HIT:      83899 MISS:        159
LLC TRANSLATION  ACCESS:      18927 HIT:      11038 MISS:       7889
LLC PREFETCH REQUESTED:     298299 ISSUED:     298292 USEFUL:      42688 USELESS:      53640
LLC AVERAGE MISS LATENCY: 599.5 cycles
cpu0_DTLB TOTAL        ACCESS:  141364334 HIT:  140690260 MISS:     674074
cpu0_DTLB LOAD         ACCESS:  141364334 HIT:  140690260 MISS:     674074
cpu0_DTLB RFO          ACCESS:          0 HIT:          0 MISS:          0
cpu0_DTLB PREFETCH     ACCESS:          0 HIT:          0 MISS:          0
cpu0_DTLB WRITE        ACCESS:          0 HIT:          0 MISS:          0
cpu0_DTLB TRANSLATION  ACCESS:          0 HIT:          0 MISS:          0
cpu0_DTLB PREFETCH REQUESTED:          0 ISSUED:          0 USEFUL:          0 USELESS:          0
cpu0_DTLB AVERAGE MISS LATENCY: 12.58 cycles
cpu0_ITLB TOTAL        ACCESS:    4857775 HIT:    4811130 MISS:      46645
cpu0_ITLB LOAD         ACCESS:    4857775 HIT:    4811130 MISS:      46645
cpu0_ITLB RFO          ACCESS:          0 HIT:          0 MISS:          0
cpu0_ITLB PREFETCH     ACCESS:          0 HIT:          0 MISS:          0
cpu0_ITLB WRITE        ACCESS:          0 HIT:          0 MISS:          0
cpu0_ITLB TRANSLATION  ACCESS:          0 HIT:          0 MISS:          0
cpu0_ITLB PREFETCH REQUESTED:          0 ISSUED:          0 USEFUL:          0 USELESS:          0
cpu0_ITLB AVERAGE MISS LATENCY: 8.442 cycles
cpu0_L1D TOTAL        ACCESS:  188014614 HIT:  186342232 MISS:    1672382
cpu0_L1D LOAD         ACCESS:  104688704 HIT:  103386897 MISS:    1301807
cpu0_L1D RFO          ACCESS:          0 HIT:          0 MISS:          0
cpu0_L1D PREFETCH     ACCESS:          0 HIT:          0 MISS:          0
cpu0_L1D WRITE        ACCESS:   83301445 HIT:   82954271 MISS:     347174
cpu0_L1D TRANSLATION  ACCESS:      24465 HIT:       1064 MISS:      23401
cpu0_L1D PREFETCH REQUESTED:          0 ISSUED:          0 USEFUL:          0 USELESS:          0
cpu0_L1D AVERAGE MISS LATENCY: 40.16 cycles
cpu0_L1I TOTAL        ACCESS:    5595493 HIT:    4875334 MISS:     720159
cpu0_L1I LOAD         ACCESS:    5595493 HIT:    4875334 MISS:     720159
cpu0_L1I RFO          ACCESS:          0 HIT:          0 MISS:          0
cpu0_L1I PREFETCH     ACCESS:          0 HIT:          0 MISS:          0
cpu0_L1I WRITE        ACCESS:          0 HIT:          0 MISS:          0
cpu0_L1I TRANSLATION  ACCESS:          0 HIT:          0 MISS:          0
cpu0_L1I PREFETCH REQUESTED:          0 ISSUED:          0 USEFUL:          0 USELESS:          0
cpu0_L1I AVERAGE MISS LATENCY: 10.93 cycles
cpu0_L2C TOTAL        ACCESS:    1666395 HIT:    1215427 MISS:     450968
cpu0_L2C LOAD         ACCESS:    1316601 HIT:     918365 MISS:     398236
cpu0_L2C RFO          ACCESS:      88073 HIT:      55907 MISS:      32166
cpu0_L2C PREFETCH     ACCESS:          0 HIT:          0 MISS:          0
cpu0_L2C WRITE        ACCESS:     238379 HIT:     236740 MISS:       1639
cpu0_L2C TRANSLATION  ACCESS:      23342 HIT:       4415 MISS:      18927
cpu0_L2C PREFETCH REQUESTED:          0 ISSUED:          0 USEFUL:          0 USELESS:          0
cpu0_L2C AVERAGE MISS LATENCY: 141 cycles
cpu0_STLB TOTAL        ACCESS:     505794 HIT:     483004 MISS:      22790
cpu0_STLB LOAD         ACCESS:     505794 HIT:     483004 MISS:      22790
cpu0_STLB RFO          ACCESS:          0 HIT:          0 MISS:          0
cpu0_STLB PREFETCH     ACCESS:          0 HIT:          0 MISS:          0
cpu0_STLB WRITE        ACCESS:          0 HIT:          0 MISS:          0
cpu0_STLB TRANSLATION  ACCESS:          0 HIT:          0 MISS:          0
cpu0_STLB PREFETCH REQUESTED:          0 ISSUED:          0 USEFUL:          0 USELESS:          0
cpu0_STLB AVERAGE MISS LATENCY: 242.4 cycles

DRAM Statistics

Channel 0 RQ ROW_BUFFER_HIT:      70987
  ROW_BUFFER_MISS:     132962
 AVG DBUS CONGESTED CYCLE: 3.875
WQ ROW_BUFFER_HIT: Channel 0 
  ROW_BUFFER_MISS:       5077
  FULL:      12520
