WARNING: physical memory size is smaller than virtual memory size.

*** ChampSim Multicore Out-of-Order Simulator ***
Warmup Instructions: 50000000
Simulation Instructions: 600000000
Number of CPUs: 1
Page size: 4096

Off-chip DRAM Size: 4 GiB Channels: 1 Width: 64-bit Data Race: 3200 MT/s
Heartbeat CPU 0 instructions: 10000000 cycles: 2500061 heartbeat IPC: 4 cumulative IPC: 4 (Simulation time: 00 hr 00 min 52 sec)
Heartbeat CPU 0 instructions: 20000000 cycles: 5000061 heartbeat IPC: 4 cumulative IPC: 4 (Simulation time: 00 hr 01 min 55 sec)
Heartbeat CPU 0 instructions: 30000000 cycles: 7500061 heartbeat IPC: 4 cumulative IPC: 4 (Simulation time: 00 hr 03 min 27 sec)
Heartbeat CPU 0 instructions: 40000000 cycles: 10000061 heartbeat IPC: 4 cumulative IPC: 4 (Simulation time: 00 hr 05 min 05 sec)
Heartbeat CPU 0 instructions: 50000000 cycles: 12500061 heartbeat IPC: 4 cumulative IPC: 4 (Simulation time: 00 hr 07 min 17 sec)
Warmup finished CPU 0 instructions: 50000000 cycles: 12500062 cumulative IPC: 4 (Simulation time: 00 hr 07 min 17 sec)
Warmup complete CPU 0 instructions: 50000000 cycles: 12500062 cumulative IPC: 4 (Simulation time: 00 hr 07 min 17 sec)
Heartbeat CPU 0 instructions: 60000002 cycles: 16435783 heartbeat IPC: 2.541 cumulative IPC: 2.541 (Simulation time: 00 hr 10 min 20 sec)
Heartbeat CPU 0 instructions: 70000003 cycles: 20749204 heartbeat IPC: 2.318 cumulative IPC: 2.424 (Simulation time: 00 hr 13 min 32 sec)
Heartbeat CPU 0 instructions: 80000003 cycles: 25212938 heartbeat IPC: 2.24 cumulative IPC: 2.36 (Simulation time: 00 hr 16 min 54 sec)
Heartbeat CPU 0 instructions: 90000000 cycles: 28902625 heartbeat IPC: 2.71 cumulative IPC: 2.439 (Simulation time: 00 hr 19 min 51 sec)
Heartbeat CPU 0 instructions: 100000003 cycles: 32797283 heartbeat IPC: 2.568 cumulative IPC: 2.463 (Simulation time: 00 hr 22 min 52 sec)
Heartbeat CPU 0 instructions: 110000002 cycles: 36888882 heartbeat IPC: 2.444 cumulative IPC: 2.46 (Simulation time: 00 hr 25 min 58 sec)
Heartbeat CPU 0 instructions: 120000001 cycles: 40602045 heartbeat IPC: 2.693 cumulative IPC: 2.491 (Simulation time: 00 hr 28 min 57 sec)
Heartbeat CPU 0 instructions: 130000003 cycles: 44366187 heartbeat IPC: 2.657 cumulative IPC: 2.511 (Simulation time: 00 hr 32 min 01 sec)
Heartbeat CPU 0 instructions: 140000002 cycles: 48491614 heartbeat IPC: 2.424 cumulative IPC: 2.501 (Simulation time: 00 hr 35 min 06 sec)
Heartbeat CPU 0 instructions: 150000001 cycles: 52535644 heartbeat IPC: 2.473 cumulative IPC: 2.498 (Simulation time: 00 hr 38 min 12 sec)
Heartbeat CPU 0 instructions: 160000000 cycles: 56184366 heartbeat IPC: 2.741 cumulative IPC: 2.518 (Simulation time: 00 hr 41 min 09 sec)
Heartbeat CPU 0 instructions: 170000001 cycles: 60350038 heartbeat IPC: 2.401 cumulative IPC: 2.508 (Simulation time: 00 hr 44 min 13 sec)
Heartbeat CPU 0 instructions: 180000001 cycles: 63805525 heartbeat IPC: 2.894 cumulative IPC: 2.534 (Simulation time: 00 hr 47 min 07 sec)
Heartbeat CPU 0 instructions: 190000002 cycles: 67382191 heartbeat IPC: 2.796 cumulative IPC: 2.551 (Simulation time: 00 hr 50 min 11 sec)
Heartbeat CPU 0 instructions: 200000002 cycles: 71153161 heartbeat IPC: 2.652 cumulative IPC: 2.557 (Simulation time: 00 hr 53 min 14 sec)
Heartbeat CPU 0 instructions: 210000000 cycles: 74788089 heartbeat IPC: 2.751 cumulative IPC: 2.569 (Simulation time: 00 hr 56 min 08 sec)
Heartbeat CPU 0 instructions: 220000001 cycles: 78655984 heartbeat IPC: 2.585 cumulative IPC: 2.57 (Simulation time: 00 hr 59 min 07 sec)
Heartbeat CPU 0 instructions: 230000002 cycles: 82491062 heartbeat IPC: 2.608 cumulative IPC: 2.572 (Simulation time: 01 hr 02 min 05 sec)
Heartbeat CPU 0 instructions: 240000001 cycles: 86693138 heartbeat IPC: 2.38 cumulative IPC: 2.561 (Simulation time: 01 hr 05 min 11 sec)
Heartbeat CPU 0 instructions: 250000003 cycles: 91251932 heartbeat IPC: 2.194 cumulative IPC: 2.54 (Simulation time: 01 hr 08 min 23 sec)
Heartbeat CPU 0 instructions: 260000000 cycles: 95043028 heartbeat IPC: 2.638 cumulative IPC: 2.544 (Simulation time: 01 hr 11 min 29 sec)
Heartbeat CPU 0 instructions: 270000003 cycles: 101666040 heartbeat IPC: 1.51 cumulative IPC: 2.467 (Simulation time: 01 hr 15 min 43 sec)
Heartbeat CPU 0 instructions: 280000000 cycles: 111310609 heartbeat IPC: 1.037 cumulative IPC: 2.328 (Simulation time: 01 hr 21 min 24 sec)
Heartbeat CPU 0 instructions: 290000000 cycles: 119905223 heartbeat IPC: 1.164 cumulative IPC: 2.235 (Simulation time: 01 hr 26 min 35 sec)
Heartbeat CPU 0 instructions: 300000003 cycles: 126985139 heartbeat IPC: 1.412 cumulative IPC: 2.184 (Simulation time: 01 hr 31 min 18 sec)
Heartbeat CPU 0 instructions: 310000004 cycles: 136833395 heartbeat IPC: 1.015 cumulative IPC: 2.091 (Simulation time: 01 hr 37 min 12 sec)
Heartbeat CPU 0 instructions: 320000004 cycles: 141709536 heartbeat IPC: 2.051 cumulative IPC: 2.09 (Simulation time: 01 hr 40 min 44 sec)
Heartbeat CPU 0 instructions: 330000000 cycles: 145692909 heartbeat IPC: 2.51 cumulative IPC: 2.102 (Simulation time: 01 hr 43 min 58 sec)
Heartbeat CPU 0 instructions: 340000001 cycles: 149481572 heartbeat IPC: 2.639 cumulative IPC: 2.117 (Simulation time: 01 hr 47 min 04 sec)
Heartbeat CPU 0 instructions: 350000004 cycles: 153379687 heartbeat IPC: 2.565 cumulative IPC: 2.129 (Simulation time: 01 hr 50 min 13 sec)
Heartbeat CPU 0 instructions: 360000003 cycles: 157021261 heartbeat IPC: 2.746 cumulative IPC: 2.145 (Simulation time: 01 hr 53 min 10 sec)
Heartbeat CPU 0 instructions: 370000001 cycles: 160655937 heartbeat IPC: 2.751 cumulative IPC: 2.16 (Simulation time: 01 hr 56 min 09 sec)
Heartbeat CPU 0 instructions: 380000004 cycles: 164171195 heartbeat IPC: 2.845 cumulative IPC: 2.176 (Simulation time: 01 hr 59 min 06 sec)
Heartbeat CPU 0 instructions: 390000002 cycles: 167706832 heartbeat IPC: 2.828 cumulative IPC: 2.191 (Simulation time: 02 hr 01 min 52 sec)
Heartbeat CPU 0 instructions: 400000000 cycles: 171524091 heartbeat IPC: 2.62 cumulative IPC: 2.201 (Simulation time: 02 hr 04 min 29 sec)
Heartbeat CPU 0 instructions: 410000000 cycles: 176883524 heartbeat IPC: 1.866 cumulative IPC: 2.19 (Simulation time: 02 hr 07 min 40 sec)
Heartbeat CPU 0 instructions: 420000003 cycles: 183718166 heartbeat IPC: 1.463 cumulative IPC: 2.161 (Simulation time: 02 hr 11 min 25 sec)
Heartbeat CPU 0 instructions: 430000000 cycles: 190207607 heartbeat IPC: 1.541 cumulative IPC: 2.138 (Simulation time: 02 hr 15 min 12 sec)
Heartbeat CPU 0 instructions: 440000004 cycles: 196180755 heartbeat IPC: 1.674 cumulative IPC: 2.123 (Simulation time: 02 hr 18 min 41 sec)
Heartbeat CPU 0 instructions: 450000001 cycles: 202391005 heartbeat IPC: 1.61 cumulative IPC: 2.106 (Simulation time: 02 hr 22 min 14 sec)
Heartbeat CPU 0 instructions: 460000002 cycles: 210041876 heartbeat IPC: 1.307 cumulative IPC: 2.076 (Simulation time: 02 hr 26 min 21 sec)
Heartbeat CPU 0 instructions: 470000003 cycles: 216270406 heartbeat IPC: 1.606 cumulative IPC: 2.061 (Simulation time: 02 hr 29 min 57 sec)
Heartbeat CPU 0 instructions: 480000003 cycles: 220021296 heartbeat IPC: 2.666 cumulative IPC: 2.072 (Simulation time: 02 hr 32 min 30 sec)
Heartbeat CPU 0 instructions: 490000001 cycles: 223898607 heartbeat IPC: 2.579 cumulative IPC: 2.081 (Simulation time: 02 hr 35 min 06 sec)
Heartbeat CPU 0 instructions: 500000002 cycles: 227637131 heartbeat IPC: 2.675 cumulative IPC: 2.092 (Simulation time: 02 hr 37 min 40 sec)
Heartbeat CPU 0 instructions: 510000000 cycles: 231232870 heartbeat IPC: 2.781 cumulative IPC: 2.103 (Simulation time: 02 hr 40 min 14 sec)
Heartbeat CPU 0 instructions: 520000000 cycles: 234998582 heartbeat IPC: 2.656 cumulative IPC: 2.112 (Simulation time: 02 hr 42 min 53 sec)
Heartbeat CPU 0 instructions: 530000001 cycles: 242171853 heartbeat IPC: 1.394 cumulative IPC: 2.09 (Simulation time: 02 hr 46 min 44 sec)
Heartbeat CPU 0 instructions: 540000000 cycles: 249501741 heartbeat IPC: 1.364 cumulative IPC: 2.067 (Simulation time: 02 hr 50 min 45 sec)
Heartbeat CPU 0 instructions: 550000004 cycles: 257005531 heartbeat IPC: 1.333 cumulative IPC: 2.045 (Simulation time: 02 hr 54 min 48 sec)
Heartbeat CPU 0 instructions: 560000004 cycles: 260812705 heartbeat IPC: 2.627 cumulative IPC: 2.054 (Simulation time: 02 hr 57 min 23 sec)
Heartbeat CPU 0 instructions: 570000001 cycles: 263891787 heartbeat IPC: 3.248 cumulative IPC: 2.068 (Simulation time: 02 hr 59 min 47 sec)
Heartbeat CPU 0 instructions: 580000003 cycles: 267332601 heartbeat IPC: 2.906 cumulative IPC: 2.08 (Simulation time: 03 hr 02 min 11 sec)
Heartbeat CPU 0 instructions: 590000002 cycles: 270861762 heartbeat IPC: 2.834 cumulative IPC: 2.09 (Simulation time: 03 hr 04 min 40 sec)
Heartbeat CPU 0 instructions: 600000003 cycles: 273879540 heartbeat IPC: 3.314 cumulative IPC: 2.104 (Simulation time: 03 hr 07 min 02 sec)
Heartbeat CPU 0 instructions: 610000001 cycles: 277321598 heartbeat IPC: 2.905 cumulative IPC: 2.115 (Simulation time: 03 hr 09 min 28 sec)
Heartbeat CPU 0 instructions: 620000000 cycles: 281287449 heartbeat IPC: 2.522 cumulative IPC: 2.121 (Simulation time: 03 hr 11 min 58 sec)
Heartbeat CPU 0 instructions: 630000002 cycles: 284616066 heartbeat IPC: 3.004 cumulative IPC: 2.131 (Simulation time: 03 hr 14 min 09 sec)
Heartbeat CPU 0 instructions: 640000004 cycles: 288580584 heartbeat IPC: 2.522 cumulative IPC: 2.137 (Simulation time: 03 hr 16 min 23 sec)
Heartbeat CPU 0 instructions: 650000001 cycles: 292383415 heartbeat IPC: 2.63 cumulative IPC: 2.144 (Simulation time: 03 hr 18 min 28 sec)
Simulation finished CPU 0 instructions: 600000001 cycles: 279883354 cumulative IPC: 2.144 (Simulation time: 03 hr 18 min 28 sec)
Simulation complete CPU 0 instructions: 600000001 cycles: 279883354 cumulative IPC: 2.144 (Simulation time: 03 hr 18 min 28 sec)

ChampSim completed all CPUs

=== Simulation ===
CPU 0 runs traces/400.perlbench-50B.champsimtrace.xz
Region of Interest Statistics

CPU 0 cumulative IPC: 2.144 instructions: 600000001 cycles: 279883354
CPU 0 Branch Prediction Accuracy: 96.2% MPKI: 7.839 Average ROB Occupancy at Mispredict: 42.96
Branch type MPKI
BRANCH_DIRECT_JUMP: 0.0176
BRANCH_INDIRECT: 0.38
BRANCH_CONDITIONAL: 6.99
BRANCH_DIRECT_CALL: 0.0067
BRANCH_INDIRECT_CALL: 0.431
BRANCH_RETURN: 0.0161

LLC TOTAL        ACCESS:    1354246 HIT:    1159167 MISS:     195079
LLC LOAD         ACCESS:     578595 HIT:     498354 MISS:      80241
LLC RFO          ACCESS:      47470 HIT:      38426 MISS:       9044
LLC PREFETCH     ACCESS:     578595 HIT:     482222 MISS:      96373
LLC WRITE        ACCESS:     127472 HIT:     127326 MISS:        146
LLC TRANSLATION  ACCESS:      22114 HIT:      12839 MISS:       9275
LLC PREFETCH REQUESTED:     578595 ISSUED:     578595 USEFUL:      33235 USELESS:      22822
LLC AVERAGE MISS LATENCY: 469.9 cycles
cpu0_DTLB TOTAL        ACCESS:  146526133 HIT:  145221488 MISS:    1304645
cpu0_DTLB LOAD         ACCESS:  146526133 HIT:  145221488 MISS:    1304645
cpu0_DTLB RFO          ACCESS:          0 HIT:          0 MISS:          0
cpu0_DTLB PREFETCH     ACCESS:          0 HIT:          0 MISS:          0
cpu0_DTLB WRITE        ACCESS:          0 HIT:          0 MISS:          0
cpu0_DTLB TRANSLATION  ACCESS:          0 HIT:          0 MISS:          0
cpu0_DTLB PREFETCH REQUESTED:          0 ISSUED:          0 USEFUL:          0 USELESS:          0
cpu0_DTLB AVERAGE MISS LATENCY: 10.12 cycles
cpu0_ITLB TOTAL        ACCESS:    8983139 HIT:    8798644 MISS:     184495
cpu0_ITLB LOAD         ACCESS:    8983139 HIT:    8798644 MISS:     184495
cpu0_ITLB RFO          ACCESS:          0 HIT:          0 MISS:          0
cpu0_ITLB PREFETCH     ACCESS:          0 HIT:          0 MISS:          0
cpu0_ITLB WRITE        ACCESS:          0 HIT:          0 MISS:          0
cpu0_ITLB TRANSLATION  ACCESS:          0 HIT:          0 MISS:          0
cpu0_ITLB PREFETCH REQUESTED:          0 ISSUED:          0 USEFUL:          0 USELESS:          0
cpu0_ITLB AVERAGE MISS LATENCY: 2.976 cycles
cpu0_L1D TOTAL        ACCESS:  193330413 HIT:  189703959 MISS:    3626454
cpu0_L1D LOAD         ACCESS:  107484243 HIT:  104493390 MISS:    2990853
cpu0_L1D RFO          ACCESS:          0 HIT:          0 MISS:          0
cpu0_L1D PREFETCH     ACCESS:          0 HIT:          0 MISS:          0
cpu0_L1D WRITE        ACCESS:   85817647 HIT:   85209141 MISS:     608506
cpu0_L1D TRANSLATION  ACCESS:      28523 HIT:       1428 MISS:      27095
cpu0_L1D PREFETCH REQUESTED:          0 ISSUED:          0 USEFUL:          0 USELESS:          0
cpu0_L1D AVERAGE MISS LATENCY: 20.7 cycles
cpu0_L1I TOTAL        ACCESS:   10418136 HIT:    8656566 MISS:    1761570
cpu0_L1I LOAD         ACCESS:   10418136 HIT:    8656566 MISS:    1761570
cpu0_L1I RFO          ACCESS:          0 HIT:          0 MISS:          0
cpu0_L1I PREFETCH     ACCESS:          0 HIT:          0 MISS:          0
cpu0_L1I WRITE        ACCESS:          0 HIT:          0 MISS:          0
cpu0_L1I TRANSLATION  ACCESS:          0 HIT:          0 MISS:          0
cpu0_L1I PREFETCH REQUESTED:          0 ISSUED:          0 USEFUL:          0 USELESS:          0
cpu0_L1I AVERAGE MISS LATENCY: 9.131 cycles
cpu0_L2C TOTAL        ACCESS:    3834948 HIT:    3183682 MISS:     651266
cpu0_L2C LOAD         ACCESS:    3105051 HIT:    2526456 MISS:     578595
cpu0_L2C RFO          ACCESS:     191513 HIT:     144042 MISS:      47471
cpu0_L2C PREFETCH     ACCESS:          0 HIT:          0 MISS:          0
cpu0_L2C WRITE        ACCESS:     511352 HIT:     508266 MISS:       3086
cpu0_L2C TRANSLATION  ACCESS:      27032 HIT:       4918 MISS:      22114
cpu0_L2C PREFETCH REQUESTED:          0 ISSUED:          0 USEFUL:          0 USELESS:          0
cpu0_L2C AVERAGE MISS LATENCY: 97.34 cycles
cpu0_STLB TOTAL        ACCESS:    1008180 HIT:     981486 MISS:      26694
cpu0_STLB LOAD         ACCESS:    1008180 HIT:     981486 MISS:      26694
cpu0_STLB RFO          ACCESS:          0 HIT:          0 MISS:          0
cpu0_STLB PREFETCH     ACCESS:          0 HIT:          0 MISS:          0
cpu0_STLB WRITE        ACCESS:          0 HIT:          0 MISS:          0
cpu0_STLB TRANSLATION  ACCESS:          0 HIT:          0 MISS:          0
cpu0_STLB PREFETCH REQUESTED:          0 ISSUED:          0 USEFUL:          0 USELESS:          0
cpu0_STLB AVERAGE MISS LATENCY: 268.3 cycles

DRAM Statistics

Channel 0 RQ ROW_BUFFER_HIT:      46756
  ROW_BUFFER_MISS:     120784
 AVG DBUS CONGESTED CYCLE: 3.816
WQ ROW_BUFFER_HIT: Channel 0 
  ROW_BUFFER_MISS:       1848
  FULL:       2785
