WARNING: physical memory size is smaller than virtual memory size.

*** ChampSim Multicore Out-of-Order Simulator ***
Warmup Instructions: 50000000
Simulation Instructions: 600000000
Number of CPUs: 1
Page size: 4096

CPU 0 Tage branch predictor
Off-chip DRAM Size: 4 GiB Channels: 1 Width: 64-bit Data Race: 3200 MT/s
Heartbeat CPU 0 instructions: 10000001 cycles: 2500318 heartbeat IPC: 3.999 cumulative IPC: 3.999 (Simulation time: 00 hr 00 min 49 sec)
Heartbeat CPU 0 instructions: 20000002 cycles: 5037108 heartbeat IPC: 3.942 cumulative IPC: 3.971 (Simulation time: 00 hr 01 min 58 sec)
Heartbeat CPU 0 instructions: 30000002 cycles: 7537108 heartbeat IPC: 4 cumulative IPC: 3.98 (Simulation time: 00 hr 03 min 08 sec)
Heartbeat CPU 0 instructions: 40000002 cycles: 10037108 heartbeat IPC: 4 cumulative IPC: 3.985 (Simulation time: 00 hr 04 min 28 sec)
Heartbeat CPU 0 instructions: 50000002 cycles: 12537108 heartbeat IPC: 4 cumulative IPC: 3.988 (Simulation time: 00 hr 05 min 57 sec)
Warmup finished CPU 0 instructions: 50000002 cycles: 12537109 cumulative IPC: 3.988 (Simulation time: 00 hr 05 min 57 sec)
Warmup complete CPU 0 instructions: 50000002 cycles: 12537109 cumulative IPC: 3.988 (Simulation time: 00 hr 05 min 57 sec)
Heartbeat CPU 0 instructions: 60000001 cycles: 15499494 heartbeat IPC: 3.376 cumulative IPC: 3.376 (Simulation time: 00 hr 07 min 35 sec)
Heartbeat CPU 0 instructions: 70000004 cycles: 18556956 heartbeat IPC: 3.271 cumulative IPC: 3.322 (Simulation time: 00 hr 09 min 11 sec)
Heartbeat CPU 0 instructions: 80000001 cycles: 21591359 heartbeat IPC: 3.296 cumulative IPC: 3.313 (Simulation time: 00 hr 10 min 47 sec)
Heartbeat CPU 0 instructions: 90000001 cycles: 24526776 heartbeat IPC: 3.407 cumulative IPC: 3.336 (Simulation time: 00 hr 12 min 29 sec)
Heartbeat CPU 0 instructions: 100000000 cycles: 27429006 heartbeat IPC: 3.446 cumulative IPC: 3.358 (Simulation time: 00 hr 14 min 08 sec)
Heartbeat CPU 0 instructions: 110000000 cycles: 30364679 heartbeat IPC: 3.406 cumulative IPC: 3.366 (Simulation time: 00 hr 15 min 56 sec)
Heartbeat CPU 0 instructions: 120000001 cycles: 33325434 heartbeat IPC: 3.378 cumulative IPC: 3.367 (Simulation time: 00 hr 17 min 39 sec)
Heartbeat CPU 0 instructions: 130000001 cycles: 36167010 heartbeat IPC: 3.519 cumulative IPC: 3.386 (Simulation time: 00 hr 19 min 22 sec)
Heartbeat CPU 0 instructions: 140000001 cycles: 39189513 heartbeat IPC: 3.309 cumulative IPC: 3.377 (Simulation time: 00 hr 21 min 07 sec)
Heartbeat CPU 0 instructions: 150000001 cycles: 42182178 heartbeat IPC: 3.342 cumulative IPC: 3.373 (Simulation time: 00 hr 22 min 49 sec)
Heartbeat CPU 0 instructions: 160000004 cycles: 45169366 heartbeat IPC: 3.348 cumulative IPC: 3.371 (Simulation time: 00 hr 24 min 35 sec)
Heartbeat CPU 0 instructions: 170000000 cycles: 50585482 heartbeat IPC: 1.846 cumulative IPC: 3.154 (Simulation time: 00 hr 26 min 58 sec)
Heartbeat CPU 0 instructions: 180000004 cycles: 55172606 heartbeat IPC: 2.18 cumulative IPC: 3.049 (Simulation time: 00 hr 29 min 07 sec)
Heartbeat CPU 0 instructions: 190000001 cycles: 59347523 heartbeat IPC: 2.395 cumulative IPC: 2.991 (Simulation time: 00 hr 30 min 03 sec)
Heartbeat CPU 0 instructions: 200000004 cycles: 62092296 heartbeat IPC: 3.643 cumulative IPC: 3.027 (Simulation time: 00 hr 30 min 48 sec)
Heartbeat CPU 0 instructions: 210000001 cycles: 64878483 heartbeat IPC: 3.589 cumulative IPC: 3.057 (Simulation time: 00 hr 31 min 35 sec)
Heartbeat CPU 0 instructions: 220000000 cycles: 67667360 heartbeat IPC: 3.586 cumulative IPC: 3.084 (Simulation time: 00 hr 32 min 22 sec)
Heartbeat CPU 0 instructions: 230000002 cycles: 70351579 heartbeat IPC: 3.725 cumulative IPC: 3.113 (Simulation time: 00 hr 33 min 08 sec)
Heartbeat CPU 0 instructions: 240000003 cycles: 73169436 heartbeat IPC: 3.549 cumulative IPC: 3.134 (Simulation time: 00 hr 33 min 55 sec)
Heartbeat CPU 0 instructions: 250000000 cycles: 75939798 heartbeat IPC: 3.61 cumulative IPC: 3.154 (Simulation time: 00 hr 34 min 41 sec)
Heartbeat CPU 0 instructions: 260000002 cycles: 78653606 heartbeat IPC: 3.685 cumulative IPC: 3.176 (Simulation time: 00 hr 35 min 27 sec)
Heartbeat CPU 0 instructions: 270000002 cycles: 81390341 heartbeat IPC: 3.654 cumulative IPC: 3.195 (Simulation time: 00 hr 36 min 13 sec)
Heartbeat CPU 0 instructions: 280000002 cycles: 84078770 heartbeat IPC: 3.72 cumulative IPC: 3.215 (Simulation time: 00 hr 37 min 01 sec)
Heartbeat CPU 0 instructions: 290000002 cycles: 86882974 heartbeat IPC: 3.566 cumulative IPC: 3.228 (Simulation time: 00 hr 37 min 49 sec)
Heartbeat CPU 0 instructions: 300000003 cycles: 89538174 heartbeat IPC: 3.766 cumulative IPC: 3.247 (Simulation time: 00 hr 38 min 35 sec)
Heartbeat CPU 0 instructions: 310000001 cycles: 92306764 heartbeat IPC: 3.612 cumulative IPC: 3.259 (Simulation time: 00 hr 39 min 22 sec)
Heartbeat CPU 0 instructions: 320000003 cycles: 95110690 heartbeat IPC: 3.566 cumulative IPC: 3.27 (Simulation time: 00 hr 40 min 07 sec)
Heartbeat CPU 0 instructions: 330000003 cycles: 97813222 heartbeat IPC: 3.7 cumulative IPC: 3.283 (Simulation time: 00 hr 40 min 51 sec)
Heartbeat CPU 0 instructions: 340000000 cycles: 102183067 heartbeat IPC: 2.288 cumulative IPC: 3.235 (Simulation time: 00 hr 41 min 50 sec)
Heartbeat CPU 0 instructions: 350000000 cycles: 106851602 heartbeat IPC: 2.142 cumulative IPC: 3.181 (Simulation time: 00 hr 42 min 51 sec)
Heartbeat CPU 0 instructions: 360000004 cycles: 111252285 heartbeat IPC: 2.272 cumulative IPC: 3.14 (Simulation time: 00 hr 43 min 48 sec)
Heartbeat CPU 0 instructions: 370000000 cycles: 114051345 heartbeat IPC: 3.573 cumulative IPC: 3.152 (Simulation time: 00 hr 44 min 33 sec)
Heartbeat CPU 0 instructions: 380000003 cycles: 116805885 heartbeat IPC: 3.63 cumulative IPC: 3.165 (Simulation time: 00 hr 45 min 19 sec)
Heartbeat CPU 0 instructions: 390000002 cycles: 119666640 heartbeat IPC: 3.496 cumulative IPC: 3.174 (Simulation time: 00 hr 46 min 05 sec)
Heartbeat CPU 0 instructions: 400000004 cycles: 122491232 heartbeat IPC: 3.54 cumulative IPC: 3.183 (Simulation time: 00 hr 46 min 51 sec)
Heartbeat CPU 0 instructions: 410000002 cycles: 125247221 heartbeat IPC: 3.628 cumulative IPC: 3.194 (Simulation time: 00 hr 47 min 36 sec)
Heartbeat CPU 0 instructions: 420000003 cycles: 128076286 heartbeat IPC: 3.535 cumulative IPC: 3.202 (Simulation time: 00 hr 48 min 24 sec)
Heartbeat CPU 0 instructions: 430000001 cycles: 130938653 heartbeat IPC: 3.494 cumulative IPC: 3.209 (Simulation time: 00 hr 49 min 13 sec)
Heartbeat CPU 0 instructions: 440000004 cycles: 133851081 heartbeat IPC: 3.434 cumulative IPC: 3.215 (Simulation time: 00 hr 50 min 02 sec)
Heartbeat CPU 0 instructions: 450000002 cycles: 136578571 heartbeat IPC: 3.666 cumulative IPC: 3.225 (Simulation time: 00 hr 50 min 51 sec)
Heartbeat CPU 0 instructions: 460000000 cycles: 139341292 heartbeat IPC: 3.62 cumulative IPC: 3.233 (Simulation time: 00 hr 51 min 39 sec)
Heartbeat CPU 0 instructions: 470000001 cycles: 142047140 heartbeat IPC: 3.696 cumulative IPC: 3.243 (Simulation time: 00 hr 52 min 28 sec)
Heartbeat CPU 0 instructions: 480000003 cycles: 144916207 heartbeat IPC: 3.485 cumulative IPC: 3.248 (Simulation time: 00 hr 53 min 16 sec)
Heartbeat CPU 0 instructions: 490000004 cycles: 147624046 heartbeat IPC: 3.693 cumulative IPC: 3.257 (Simulation time: 00 hr 54 min 04 sec)
Heartbeat CPU 0 instructions: 500000004 cycles: 150495204 heartbeat IPC: 3.483 cumulative IPC: 3.262 (Simulation time: 00 hr 54 min 52 sec)
Heartbeat CPU 0 instructions: 510000003 cycles: 153326676 heartbeat IPC: 3.532 cumulative IPC: 3.267 (Simulation time: 00 hr 55 min 40 sec)
Heartbeat CPU 0 instructions: 520000001 cycles: 156009377 heartbeat IPC: 3.728 cumulative IPC: 3.276 (Simulation time: 00 hr 56 min 29 sec)
Heartbeat CPU 0 instructions: 530000001 cycles: 158851029 heartbeat IPC: 3.519 cumulative IPC: 3.281 (Simulation time: 00 hr 57 min 18 sec)
Heartbeat CPU 0 instructions: 540000000 cycles: 161644780 heartbeat IPC: 3.579 cumulative IPC: 3.286 (Simulation time: 00 hr 58 min 06 sec)
Heartbeat CPU 0 instructions: 550000001 cycles: 164490883 heartbeat IPC: 3.514 cumulative IPC: 3.29 (Simulation time: 00 hr 58 min 53 sec)
Heartbeat CPU 0 instructions: 560000000 cycles: 167331879 heartbeat IPC: 3.52 cumulative IPC: 3.295 (Simulation time: 00 hr 59 min 41 sec)
Heartbeat CPU 0 instructions: 570000004 cycles: 170933486 heartbeat IPC: 2.777 cumulative IPC: 3.283 (Simulation time: 01 hr 00 min 34 sec)
Heartbeat CPU 0 instructions: 580000003 cycles: 175501774 heartbeat IPC: 2.189 cumulative IPC: 3.252 (Simulation time: 01 hr 01 min 34 sec)
Heartbeat CPU 0 instructions: 590000002 cycles: 180314801 heartbeat IPC: 2.078 cumulative IPC: 3.219 (Simulation time: 01 hr 02 min 37 sec)
Heartbeat CPU 0 instructions: 600000004 cycles: 183175352 heartbeat IPC: 3.496 cumulative IPC: 3.223 (Simulation time: 01 hr 03 min 23 sec)
Heartbeat CPU 0 instructions: 610000002 cycles: 185992509 heartbeat IPC: 3.55 cumulative IPC: 3.228 (Simulation time: 01 hr 04 min 11 sec)
Heartbeat CPU 0 instructions: 620000001 cycles: 188684197 heartbeat IPC: 3.715 cumulative IPC: 3.236 (Simulation time: 01 hr 04 min 56 sec)
Heartbeat CPU 0 instructions: 630000002 cycles: 191522294 heartbeat IPC: 3.523 cumulative IPC: 3.24 (Simulation time: 01 hr 05 min 42 sec)
Heartbeat CPU 0 instructions: 640000004 cycles: 194414497 heartbeat IPC: 3.458 cumulative IPC: 3.244 (Simulation time: 01 hr 06 min 28 sec)
Heartbeat CPU 0 instructions: 650000000 cycles: 197111912 heartbeat IPC: 3.707 cumulative IPC: 3.251 (Simulation time: 01 hr 07 min 16 sec)
Simulation finished CPU 0 instructions: 600000001 cycles: 184574805 cumulative IPC: 3.251 (Simulation time: 01 hr 07 min 16 sec)
Simulation complete CPU 0 instructions: 600000001 cycles: 184574805 cumulative IPC: 3.251 (Simulation time: 01 hr 07 min 16 sec)

ChampSim completed all CPUs

=== Simulation ===
CPU 0 runs traces/400.perlbench-41B.champsimtrace.xz
Region of Interest Statistics

CPU 0 cumulative IPC: 3.251 instructions: 600000001 cycles: 184574805
CPU 0 Branch Prediction Accuracy: 99.19% MPKI: 1.684 Average ROB Occupancy at Mispredict: 100.3
Branch type MPKI
BRANCH_DIRECT_JUMP: 0.0123
BRANCH_INDIRECT: 0.323
BRANCH_CONDITIONAL: 1.14
BRANCH_DIRECT_CALL: 0.0043
BRANCH_INDIRECT_CALL: 0.2
BRANCH_RETURN: 0.00828

LLC TOTAL        ACCESS:     594366 HIT:     547552 MISS:      46814
LLC LOAD         ACCESS:     403758 HIT:     372443 MISS:      31315
LLC RFO          ACCESS:      32559 HIT:      28202 MISS:       4357
LLC PREFETCH     ACCESS:      53264 HIT:      48884 MISS:       4380
LLC WRITE        ACCESS:      85626 HIT:      85463 MISS:        163
LLC TRANSLATION  ACCESS:      19159 HIT:      12560 MISS:       6599
LLC PREFETCH REQUESTED:      53264 ISSUED:      53264 USEFUL:       2635 USELESS:        108
LLC AVERAGE MISS LATENCY: 574 cycles
cpu0_DTLB TOTAL        ACCESS:  129753313 HIT:  129052439 MISS:     700874
cpu0_DTLB LOAD         ACCESS:  129753313 HIT:  129052439 MISS:     700874
cpu0_DTLB RFO          ACCESS:          0 HIT:          0 MISS:          0
cpu0_DTLB PREFETCH     ACCESS:          0 HIT:          0 MISS:          0
cpu0_DTLB WRITE        ACCESS:          0 HIT:          0 MISS:          0
cpu0_DTLB TRANSLATION  ACCESS:          0 HIT:          0 MISS:          0
cpu0_DTLB PREFETCH REQUESTED:          0 ISSUED:          0 USEFUL:          0 USELESS:          0
cpu0_DTLB AVERAGE MISS LATENCY: 10.12 cycles
cpu0_ITLB TOTAL        ACCESS:    4859770 HIT:    4797667 MISS:      62103
cpu0_ITLB LOAD         ACCESS:    4859770 HIT:    4797667 MISS:      62103
cpu0_ITLB RFO          ACCESS:          0 HIT:          0 MISS:          0
cpu0_ITLB PREFETCH     ACCESS:          0 HIT:          0 MISS:          0
cpu0_ITLB WRITE        ACCESS:          0 HIT:          0 MISS:          0
cpu0_ITLB TRANSLATION  ACCESS:          0 HIT:          0 MISS:          0
cpu0_ITLB PREFETCH REQUESTED:          0 ISSUED:          0 USEFUL:          0 USELESS:          0
cpu0_ITLB AVERAGE MISS LATENCY: 3.845 cycles
cpu0_L1D TOTAL        ACCESS:  174384685 HIT:  172657901 MISS:    1726784
cpu0_L1D LOAD         ACCESS:   91361512 HIT:   90015861 MISS:    1345651
cpu0_L1D RFO          ACCESS:          0 HIT:          0 MISS:          0
cpu0_L1D PREFETCH     ACCESS:          0 HIT:          0 MISS:          0
cpu0_L1D WRITE        ACCESS:   82998708 HIT:   82640977 MISS:     357731
cpu0_L1D TRANSLATION  ACCESS:      24465 HIT:       1063 MISS:      23402
cpu0_L1D PREFETCH REQUESTED:          0 ISSUED:          0 USEFUL:          0 USELESS:          0
cpu0_L1D AVERAGE MISS LATENCY: 21.36 cycles
cpu0_L1I TOTAL        ACCESS:    5639866 HIT:    4835818 MISS:     804048
cpu0_L1I LOAD         ACCESS:    5639866 HIT:    4835818 MISS:     804048
cpu0_L1I RFO          ACCESS:          0 HIT:          0 MISS:          0
cpu0_L1I PREFETCH     ACCESS:          0 HIT:          0 MISS:          0
cpu0_L1I WRITE        ACCESS:          0 HIT:          0 MISS:          0
cpu0_L1I TRANSLATION  ACCESS:          0 HIT:          0 MISS:          0
cpu0_L1I PREFETCH REQUESTED:          0 ISSUED:          0 USEFUL:          0 USELESS:          0
cpu0_L1I AVERAGE MISS LATENCY: 8.051 cycles
cpu0_L2C TOTAL        ACCESS:    1668465 HIT:    1211163 MISS:     457302
cpu0_L2C LOAD         ACCESS:    1315360 HIT:     911602 MISS:     403758
cpu0_L2C RFO          ACCESS:      89524 HIT:      56964 MISS:      32560
cpu0_L2C PREFETCH     ACCESS:          0 HIT:          0 MISS:          0
cpu0_L2C WRITE        ACCESS:     240259 HIT:     238434 MISS:       1825
cpu0_L2C TRANSLATION  ACCESS:      23322 HIT:       4163 MISS:      19159
cpu0_L2C PREFETCH REQUESTED:          0 ISSUED:          0 USEFUL:          0 USELESS:          0
cpu0_L2C AVERAGE MISS LATENCY: 72.45 cycles
cpu0_STLB TOTAL        ACCESS:     507776 HIT:     484988 MISS:      22788
cpu0_STLB LOAD         ACCESS:     507776 HIT:     484988 MISS:      22788
cpu0_STLB RFO          ACCESS:          0 HIT:          0 MISS:          0
cpu0_STLB PREFETCH     ACCESS:          0 HIT:          0 MISS:          0
cpu0_STLB WRITE        ACCESS:          0 HIT:          0 MISS:          0
cpu0_STLB TRANSLATION  ACCESS:          0 HIT:          0 MISS:          0
cpu0_STLB PREFETCH REQUESTED:          0 ISSUED:          0 USEFUL:          0 USELESS:          0
cpu0_STLB AVERAGE MISS LATENCY: 184.7 cycles

DRAM Statistics

Channel 0 RQ ROW_BUFFER_HIT:      12866
  ROW_BUFFER_MISS:      33102
 AVG DBUS CONGESTED CYCLE: 3.79
WQ ROW_BUFFER_HIT: Channel 0 
  ROW_BUFFER_MISS:        599
  FULL:       1454
