WARNING: physical memory size is smaller than virtual memory size.

*** ChampSim Multicore Out-of-Order Simulator ***
Warmup Instructions: 50000000
Simulation Instructions: 600000000
Number of CPUs: 1
Page size: 4096

CPU 0 Tage branch predictor
Off-chip DRAM Size: 4 GiB Channels: 1 Width: 64-bit Data Race: 3200 MT/s
Heartbeat CPU 0 instructions: 10000001 cycles: 2500318 heartbeat IPC: 3.999 cumulative IPC: 3.999 (Simulation time: 00 hr 01 min 20 sec)
Heartbeat CPU 0 instructions: 20000002 cycles: 5037121 heartbeat IPC: 3.942 cumulative IPC: 3.971 (Simulation time: 00 hr 03 min 15 sec)
Heartbeat CPU 0 instructions: 30000002 cycles: 7537121 heartbeat IPC: 4 cumulative IPC: 3.98 (Simulation time: 00 hr 05 min 36 sec)
Heartbeat CPU 0 instructions: 40000002 cycles: 10037121 heartbeat IPC: 4 cumulative IPC: 3.985 (Simulation time: 00 hr 08 min 20 sec)
Heartbeat CPU 0 instructions: 50000002 cycles: 12537121 heartbeat IPC: 4 cumulative IPC: 3.988 (Simulation time: 00 hr 11 min 07 sec)
Warmup finished CPU 0 instructions: 50000002 cycles: 12537122 cumulative IPC: 3.988 (Simulation time: 00 hr 11 min 07 sec)
Warmup complete CPU 0 instructions: 50000002 cycles: 12537122 cumulative IPC: 3.988 (Simulation time: 00 hr 11 min 07 sec)
Heartbeat CPU 0 instructions: 60000001 cycles: 15534881 heartbeat IPC: 3.336 cumulative IPC: 3.336 (Simulation time: 00 hr 14 min 25 sec)
Heartbeat CPU 0 instructions: 70000004 cycles: 18610980 heartbeat IPC: 3.251 cumulative IPC: 3.293 (Simulation time: 00 hr 17 min 56 sec)
Heartbeat CPU 0 instructions: 80000001 cycles: 21661714 heartbeat IPC: 3.278 cumulative IPC: 3.288 (Simulation time: 00 hr 21 min 15 sec)
Heartbeat CPU 0 instructions: 90000001 cycles: 24607403 heartbeat IPC: 3.395 cumulative IPC: 3.314 (Simulation time: 00 hr 24 min 37 sec)
Heartbeat CPU 0 instructions: 100000000 cycles: 27518650 heartbeat IPC: 3.435 cumulative IPC: 3.337 (Simulation time: 00 hr 27 min 48 sec)
Heartbeat CPU 0 instructions: 110000000 cycles: 30459013 heartbeat IPC: 3.401 cumulative IPC: 3.348 (Simulation time: 00 hr 31 min 04 sec)
Heartbeat CPU 0 instructions: 120000001 cycles: 33433676 heartbeat IPC: 3.362 cumulative IPC: 3.35 (Simulation time: 00 hr 34 min 25 sec)
Heartbeat CPU 0 instructions: 130000001 cycles: 36291949 heartbeat IPC: 3.499 cumulative IPC: 3.368 (Simulation time: 00 hr 37 min 44 sec)
Heartbeat CPU 0 instructions: 140000001 cycles: 39349878 heartbeat IPC: 3.27 cumulative IPC: 3.357 (Simulation time: 00 hr 41 min 10 sec)
Heartbeat CPU 0 instructions: 150000001 cycles: 42359942 heartbeat IPC: 3.322 cumulative IPC: 3.353 (Simulation time: 00 hr 44 min 28 sec)
Heartbeat CPU 0 instructions: 160000004 cycles: 45377543 heartbeat IPC: 3.314 cumulative IPC: 3.35 (Simulation time: 00 hr 47 min 44 sec)
Heartbeat CPU 0 instructions: 170000000 cycles: 50569300 heartbeat IPC: 1.926 cumulative IPC: 3.155 (Simulation time: 00 hr 52 min 07 sec)
Heartbeat CPU 0 instructions: 180000004 cycles: 55254110 heartbeat IPC: 2.135 cumulative IPC: 3.043 (Simulation time: 00 hr 56 min 19 sec)
Heartbeat CPU 0 instructions: 190000001 cycles: 59727147 heartbeat IPC: 2.236 cumulative IPC: 2.967 (Simulation time: 01 hr 00 min 33 sec)
Heartbeat CPU 0 instructions: 200000004 cycles: 62490581 heartbeat IPC: 3.619 cumulative IPC: 3.003 (Simulation time: 01 hr 03 min 51 sec)
Heartbeat CPU 0 instructions: 210000001 cycles: 65299678 heartbeat IPC: 3.56 cumulative IPC: 3.032 (Simulation time: 01 hr 07 min 09 sec)
Heartbeat CPU 0 instructions: 220000000 cycles: 68097444 heartbeat IPC: 3.574 cumulative IPC: 3.06 (Simulation time: 01 hr 10 min 20 sec)
Heartbeat CPU 0 instructions: 230000002 cycles: 70819375 heartbeat IPC: 3.674 cumulative IPC: 3.088 (Simulation time: 01 hr 13 min 28 sec)
Heartbeat CPU 0 instructions: 240000003 cycles: 73659180 heartbeat IPC: 3.521 cumulative IPC: 3.109 (Simulation time: 01 hr 16 min 52 sec)
Heartbeat CPU 0 instructions: 250000000 cycles: 76453657 heartbeat IPC: 3.578 cumulative IPC: 3.129 (Simulation time: 01 hr 20 min 05 sec)
Heartbeat CPU 0 instructions: 260000002 cycles: 79189668 heartbeat IPC: 3.655 cumulative IPC: 3.151 (Simulation time: 01 hr 23 min 14 sec)
Heartbeat CPU 0 instructions: 270000002 cycles: 81944877 heartbeat IPC: 3.629 cumulative IPC: 3.17 (Simulation time: 01 hr 26 min 35 sec)
Heartbeat CPU 0 instructions: 280000002 cycles: 84659314 heartbeat IPC: 3.684 cumulative IPC: 3.189 (Simulation time: 01 hr 29 min 47 sec)
Heartbeat CPU 0 instructions: 290000002 cycles: 87479924 heartbeat IPC: 3.545 cumulative IPC: 3.202 (Simulation time: 01 hr 32 min 58 sec)
Heartbeat CPU 0 instructions: 300000003 cycles: 90163898 heartbeat IPC: 3.726 cumulative IPC: 3.221 (Simulation time: 01 hr 36 min 15 sec)
Heartbeat CPU 0 instructions: 310000001 cycles: 92951307 heartbeat IPC: 3.588 cumulative IPC: 3.233 (Simulation time: 01 hr 39 min 30 sec)
Heartbeat CPU 0 instructions: 320000003 cycles: 95773630 heartbeat IPC: 3.543 cumulative IPC: 3.244 (Simulation time: 01 hr 42 min 40 sec)
Heartbeat CPU 0 instructions: 330000003 cycles: 98502085 heartbeat IPC: 3.665 cumulative IPC: 3.257 (Simulation time: 01 hr 45 min 50 sec)
Heartbeat CPU 0 instructions: 340000000 cycles: 102987368 heartbeat IPC: 2.23 cumulative IPC: 3.206 (Simulation time: 01 hr 49 min 57 sec)
Heartbeat CPU 0 instructions: 350000000 cycles: 107877124 heartbeat IPC: 2.045 cumulative IPC: 3.147 (Simulation time: 01 hr 54 min 18 sec)
Heartbeat CPU 0 instructions: 360000004 cycles: 112462454 heartbeat IPC: 2.181 cumulative IPC: 3.102 (Simulation time: 01 hr 58 min 28 sec)
Heartbeat CPU 0 instructions: 370000000 cycles: 115276181 heartbeat IPC: 3.554 cumulative IPC: 3.115 (Simulation time: 02 hr 01 min 21 sec)
Heartbeat CPU 0 instructions: 380000003 cycles: 118047351 heartbeat IPC: 3.609 cumulative IPC: 3.128 (Simulation time: 02 hr 04 min 04 sec)
Heartbeat CPU 0 instructions: 390000002 cycles: 120923277 heartbeat IPC: 3.477 cumulative IPC: 3.137 (Simulation time: 02 hr 06 min 49 sec)
Heartbeat CPU 0 instructions: 400000004 cycles: 123760068 heartbeat IPC: 3.525 cumulative IPC: 3.147 (Simulation time: 02 hr 09 min 33 sec)
Heartbeat CPU 0 instructions: 410000002 cycles: 126530342 heartbeat IPC: 3.61 cumulative IPC: 3.158 (Simulation time: 02 hr 12 min 17 sec)
Heartbeat CPU 0 instructions: 420000003 cycles: 129377699 heartbeat IPC: 3.512 cumulative IPC: 3.167 (Simulation time: 02 hr 15 min 03 sec)
Heartbeat CPU 0 instructions: 430000001 cycles: 132252550 heartbeat IPC: 3.478 cumulative IPC: 3.174 (Simulation time: 02 hr 17 min 49 sec)
Heartbeat CPU 0 instructions: 440000004 cycles: 135188569 heartbeat IPC: 3.406 cumulative IPC: 3.18 (Simulation time: 02 hr 20 min 33 sec)
Heartbeat CPU 0 instructions: 450000002 cycles: 137932134 heartbeat IPC: 3.645 cumulative IPC: 3.19 (Simulation time: 02 hr 23 min 14 sec)
Heartbeat CPU 0 instructions: 460000000 cycles: 140706121 heartbeat IPC: 3.605 cumulative IPC: 3.199 (Simulation time: 02 hr 25 min 59 sec)
Heartbeat CPU 0 instructions: 470000001 cycles: 143429851 heartbeat IPC: 3.671 cumulative IPC: 3.209 (Simulation time: 02 hr 28 min 39 sec)
Heartbeat CPU 0 instructions: 480000003 cycles: 146313271 heartbeat IPC: 3.468 cumulative IPC: 3.214 (Simulation time: 02 hr 31 min 25 sec)
Heartbeat CPU 0 instructions: 490000004 cycles: 149037440 heartbeat IPC: 3.671 cumulative IPC: 3.223 (Simulation time: 02 hr 34 min 05 sec)
Heartbeat CPU 0 instructions: 500000004 cycles: 151919366 heartbeat IPC: 3.47 cumulative IPC: 3.229 (Simulation time: 02 hr 36 min 51 sec)
Heartbeat CPU 0 instructions: 510000003 cycles: 154774181 heartbeat IPC: 3.503 cumulative IPC: 3.234 (Simulation time: 02 hr 39 min 37 sec)
Heartbeat CPU 0 instructions: 520000001 cycles: 157481107 heartbeat IPC: 3.694 cumulative IPC: 3.243 (Simulation time: 02 hr 42 min 21 sec)
Heartbeat CPU 0 instructions: 530000001 cycles: 160329628 heartbeat IPC: 3.511 cumulative IPC: 3.248 (Simulation time: 02 hr 45 min 06 sec)
Heartbeat CPU 0 instructions: 540000000 cycles: 163138944 heartbeat IPC: 3.56 cumulative IPC: 3.254 (Simulation time: 02 hr 47 min 52 sec)
Heartbeat CPU 0 instructions: 550000001 cycles: 165997263 heartbeat IPC: 3.499 cumulative IPC: 3.258 (Simulation time: 02 hr 50 min 37 sec)
Heartbeat CPU 0 instructions: 560000000 cycles: 168864186 heartbeat IPC: 3.488 cumulative IPC: 3.262 (Simulation time: 02 hr 53 min 23 sec)
Heartbeat CPU 0 instructions: 570000004 cycles: 172512997 heartbeat IPC: 2.741 cumulative IPC: 3.25 (Simulation time: 02 hr 56 min 30 sec)
Heartbeat CPU 0 instructions: 580000003 cycles: 177419104 heartbeat IPC: 2.038 cumulative IPC: 3.214 (Simulation time: 03 hr 00 min 13 sec)
Heartbeat CPU 0 instructions: 590000002 cycles: 182756567 heartbeat IPC: 1.874 cumulative IPC: 3.172 (Simulation time: 03 hr 04 min 04 sec)
Heartbeat CPU 0 instructions: 600000004 cycles: 185637897 heartbeat IPC: 3.471 cumulative IPC: 3.177 (Simulation time: 03 hr 06 min 47 sec)
Heartbeat CPU 0 instructions: 610000002 cycles: 188474107 heartbeat IPC: 3.526 cumulative IPC: 3.183 (Simulation time: 03 hr 09 min 20 sec)
Heartbeat CPU 0 instructions: 620000001 cycles: 191175555 heartbeat IPC: 3.702 cumulative IPC: 3.191 (Simulation time: 03 hr 11 min 52 sec)
Heartbeat CPU 0 instructions: 630000002 cycles: 194033644 heartbeat IPC: 3.499 cumulative IPC: 3.196 (Simulation time: 03 hr 14 min 15 sec)
Heartbeat CPU 0 instructions: 640000004 cycles: 196937222 heartbeat IPC: 3.444 cumulative IPC: 3.2 (Simulation time: 03 hr 16 min 26 sec)
Heartbeat CPU 0 instructions: 650000000 cycles: 199642576 heartbeat IPC: 3.696 cumulative IPC: 3.207 (Simulation time: 03 hr 18 min 36 sec)
Simulation finished CPU 0 instructions: 600000001 cycles: 187105456 cumulative IPC: 3.207 (Simulation time: 03 hr 18 min 36 sec)
Simulation complete CPU 0 instructions: 600000001 cycles: 187105456 cumulative IPC: 3.207 (Simulation time: 03 hr 18 min 36 sec)

ChampSim completed all CPUs

=== Simulation ===
CPU 0 runs traces/400.perlbench-41B.champsimtrace.xz
Region of Interest Statistics

CPU 0 cumulative IPC: 3.207 instructions: 600000001 cycles: 187105456
CPU 0 Branch Prediction Accuracy: 99.19% MPKI: 1.684 Average ROB Occupancy at Mispredict: 100.3
Branch type MPKI
BRANCH_DIRECT_JUMP: 0.0123
BRANCH_INDIRECT: 0.323
BRANCH_CONDITIONAL: 1.14
BRANCH_DIRECT_CALL: 0.0043
BRANCH_INDIRECT_CALL: 0.2
BRANCH_RETURN: 0.00828

LLC TOTAL        ACCESS:     939769 HIT:     849902 MISS:      89867
LLC LOAD         ACCESS:     401471 HIT:     366424 MISS:      35047
LLC RFO          ACCESS:      32518 HIT:      28254 MISS:       4264
LLC PREFETCH     ACCESS:     401471 HIT:     357836 MISS:      43635
LLC WRITE        ACCESS:      85235 HIT:      85153 MISS:         82
LLC TRANSLATION  ACCESS:      19074 HIT:      12235 MISS:       6839
LLC PREFETCH REQUESTED:     401471 ISSUED:     401471 USEFUL:      12177 USELESS:      16055
LLC AVERAGE MISS LATENCY: 546.6 cycles
cpu0_DTLB TOTAL        ACCESS:  129753063 HIT:  129052076 MISS:     700987
cpu0_DTLB LOAD         ACCESS:  129753063 HIT:  129052076 MISS:     700987
cpu0_DTLB RFO          ACCESS:          0 HIT:          0 MISS:          0
cpu0_DTLB PREFETCH     ACCESS:          0 HIT:          0 MISS:          0
cpu0_DTLB WRITE        ACCESS:          0 HIT:          0 MISS:          0
cpu0_DTLB TRANSLATION  ACCESS:          0 HIT:          0 MISS:          0
cpu0_DTLB PREFETCH REQUESTED:          0 ISSUED:          0 USEFUL:          0 USELESS:          0
cpu0_DTLB AVERAGE MISS LATENCY: 10.73 cycles
cpu0_ITLB TOTAL        ACCESS:    4859228 HIT:    4797044 MISS:      62184
cpu0_ITLB LOAD         ACCESS:    4859228 HIT:    4797044 MISS:      62184
cpu0_ITLB RFO          ACCESS:          0 HIT:          0 MISS:          0
cpu0_ITLB PREFETCH     ACCESS:          0 HIT:          0 MISS:          0
cpu0_ITLB WRITE        ACCESS:          0 HIT:          0 MISS:          0
cpu0_ITLB TRANSLATION  ACCESS:          0 HIT:          0 MISS:          0
cpu0_ITLB PREFETCH REQUESTED:          0 ISSUED:          0 USEFUL:          0 USELESS:          0
cpu0_ITLB AVERAGE MISS LATENCY: 4.149 cycles
cpu0_L1D TOTAL        ACCESS:  174385089 HIT:  172656795 MISS:    1728294
cpu0_L1D LOAD         ACCESS:   91361793 HIT:   90014622 MISS:    1347171
cpu0_L1D RFO          ACCESS:          0 HIT:          0 MISS:          0
cpu0_L1D PREFETCH     ACCESS:          0 HIT:          0 MISS:          0
cpu0_L1D WRITE        ACCESS:   82998828 HIT:   82641105 MISS:     357723
cpu0_L1D TRANSLATION  ACCESS:      24468 HIT:       1068 MISS:      23400
cpu0_L1D PREFETCH REQUESTED:          0 ISSUED:          0 USEFUL:          0 USELESS:          0
cpu0_L1D AVERAGE MISS LATENCY: 24 cycles
cpu0_L1I TOTAL        ACCESS:    5639291 HIT:    4835518 MISS:     803773
cpu0_L1I LOAD         ACCESS:    5639291 HIT:    4835518 MISS:     803773
cpu0_L1I RFO          ACCESS:          0 HIT:          0 MISS:          0
cpu0_L1I PREFETCH     ACCESS:          0 HIT:          0 MISS:          0
cpu0_L1I WRITE        ACCESS:          0 HIT:          0 MISS:          0
cpu0_L1I TRANSLATION  ACCESS:          0 HIT:          0 MISS:          0
cpu0_L1I PREFETCH REQUESTED:          0 ISSUED:          0 USEFUL:          0 USELESS:          0
cpu0_L1I AVERAGE MISS LATENCY: 8.123 cycles
cpu0_L2C TOTAL        ACCESS:    1668456 HIT:    1213581 MISS:     454875
cpu0_L2C LOAD         ACCESS:    1315356 HIT:     913885 MISS:     401471
cpu0_L2C RFO          ACCESS:      89519 HIT:      57001 MISS:      32518
cpu0_L2C PREFETCH     ACCESS:          0 HIT:          0 MISS:          0
cpu0_L2C WRITE        ACCESS:     240261 HIT:     238449 MISS:       1812
cpu0_L2C TRANSLATION  ACCESS:      23320 HIT:       4246 MISS:      19074
cpu0_L2C PREFETCH REQUESTED:          0 ISSUED:          0 USEFUL:          0 USELESS:          0
cpu0_L2C AVERAGE MISS LATENCY: 83.56 cycles
cpu0_STLB TOTAL        ACCESS:     507854 HIT:     485066 MISS:      22788
cpu0_STLB LOAD         ACCESS:     507854 HIT:     485066 MISS:      22788
cpu0_STLB RFO          ACCESS:          0 HIT:          0 MISS:          0
cpu0_STLB PREFETCH     ACCESS:          0 HIT:          0 MISS:          0
cpu0_STLB WRITE        ACCESS:          0 HIT:          0 MISS:          0
cpu0_STLB TRANSLATION  ACCESS:          0 HIT:          0 MISS:          0
cpu0_STLB PREFETCH REQUESTED:          0 ISSUED:          0 USEFUL:          0 USELESS:          0
cpu0_STLB AVERAGE MISS LATENCY: 206 cycles

DRAM Statistics

Channel 0 RQ ROW_BUFFER_HIT:      17683
  ROW_BUFFER_MISS:      56758
 AVG DBUS CONGESTED CYCLE: 3.847
WQ ROW_BUFFER_HIT: Channel 0 
  ROW_BUFFER_MISS:       1099
  FULL:       1680
