WARNING: physical memory size is smaller than virtual memory size.

*** ChampSim Multicore Out-of-Order Simulator ***
Warmup Instructions: 50000000
Simulation Instructions: 600000000
Number of CPUs: 1
Page size: 4096

Initialize SIGNATURE TABLE
ST_SET: 1
ST_WAY: 256
ST_TAG_BIT: 16
ST_TAG_MASK: ffff

Initialize PATTERN TABLE
PT_SET: 512
PT_WAY: 4
SIG_DELTA_BIT: 7
C_SIG_BIT: 4
C_DELTA_BIT: 4

Initialize PREFETCH FILTER
FILTER_SET: 1024
Off-chip DRAM Size: 4 GiB Channels: 1 Width: 64-bit Data Race: 3200 MT/s
Heartbeat CPU 0 instructions: 10000000 cycles: 2500061 heartbeat IPC: 4 cumulative IPC: 4 (Simulation time: 00 hr 02 min 46 sec)
Heartbeat CPU 0 instructions: 20000000 cycles: 5000061 heartbeat IPC: 4 cumulative IPC: 4 (Simulation time: 00 hr 06 min 02 sec)
Heartbeat CPU 0 instructions: 30000000 cycles: 7500061 heartbeat IPC: 4 cumulative IPC: 4 (Simulation time: 00 hr 09 min 17 sec)
Heartbeat CPU 0 instructions: 40000000 cycles: 10000061 heartbeat IPC: 4 cumulative IPC: 4 (Simulation time: 00 hr 12 min 32 sec)
Heartbeat CPU 0 instructions: 50000000 cycles: 12500061 heartbeat IPC: 4 cumulative IPC: 4 (Simulation time: 00 hr 15 min 48 sec)
Warmup finished CPU 0 instructions: 50000000 cycles: 12500062 cumulative IPC: 4 (Simulation time: 00 hr 15 min 48 sec)
Warmup complete CPU 0 instructions: 50000000 cycles: 12500062 cumulative IPC: 4 (Simulation time: 00 hr 15 min 48 sec)
Heartbeat CPU 0 instructions: 60000002 cycles: 16452158 heartbeat IPC: 2.53 cumulative IPC: 2.53 (Simulation time: 00 hr 20 min 21 sec)
Heartbeat CPU 0 instructions: 70000003 cycles: 20779588 heartbeat IPC: 2.311 cumulative IPC: 2.416 (Simulation time: 00 hr 25 min 01 sec)
Heartbeat CPU 0 instructions: 80000003 cycles: 25261504 heartbeat IPC: 2.231 cumulative IPC: 2.351 (Simulation time: 00 hr 29 min 48 sec)
Heartbeat CPU 0 instructions: 90000000 cycles: 28958279 heartbeat IPC: 2.705 cumulative IPC: 2.43 (Simulation time: 00 hr 34 min 09 sec)
Heartbeat CPU 0 instructions: 100000003 cycles: 32870349 heartbeat IPC: 2.556 cumulative IPC: 2.455 (Simulation time: 00 hr 38 min 40 sec)
Heartbeat CPU 0 instructions: 110000002 cycles: 36978085 heartbeat IPC: 2.434 cumulative IPC: 2.451 (Simulation time: 00 hr 43 min 12 sec)
Heartbeat CPU 0 instructions: 120000001 cycles: 40704754 heartbeat IPC: 2.683 cumulative IPC: 2.482 (Simulation time: 00 hr 47 min 35 sec)
Heartbeat CPU 0 instructions: 130000003 cycles: 44487646 heartbeat IPC: 2.643 cumulative IPC: 2.501 (Simulation time: 00 hr 51 min 58 sec)
Heartbeat CPU 0 instructions: 140000002 cycles: 48626295 heartbeat IPC: 2.416 cumulative IPC: 2.491 (Simulation time: 00 hr 56 min 36 sec)
Heartbeat CPU 0 instructions: 150000001 cycles: 52685749 heartbeat IPC: 2.463 cumulative IPC: 2.488 (Simulation time: 01 hr 01 min 08 sec)
Heartbeat CPU 0 instructions: 160000000 cycles: 56347143 heartbeat IPC: 2.731 cumulative IPC: 2.509 (Simulation time: 01 hr 05 min 27 sec)
Heartbeat CPU 0 instructions: 170000001 cycles: 60530088 heartbeat IPC: 2.391 cumulative IPC: 2.498 (Simulation time: 01 hr 10 min 08 sec)
Heartbeat CPU 0 instructions: 180000001 cycles: 63999721 heartbeat IPC: 2.882 cumulative IPC: 2.524 (Simulation time: 01 hr 14 min 24 sec)
Heartbeat CPU 0 instructions: 190000002 cycles: 67593511 heartbeat IPC: 2.783 cumulative IPC: 2.541 (Simulation time: 01 hr 18 min 48 sec)
Heartbeat CPU 0 instructions: 200000002 cycles: 71386608 heartbeat IPC: 2.636 cumulative IPC: 2.547 (Simulation time: 01 hr 23 min 15 sec)
Heartbeat CPU 0 instructions: 210000000 cycles: 75036109 heartbeat IPC: 2.74 cumulative IPC: 2.559 (Simulation time: 01 hr 27 min 37 sec)
Heartbeat CPU 0 instructions: 220000001 cycles: 78914558 heartbeat IPC: 2.578 cumulative IPC: 2.56 (Simulation time: 01 hr 32 min 05 sec)
Heartbeat CPU 0 instructions: 230000002 cycles: 82766417 heartbeat IPC: 2.596 cumulative IPC: 2.562 (Simulation time: 01 hr 36 min 32 sec)
Heartbeat CPU 0 instructions: 240000001 cycles: 86986498 heartbeat IPC: 2.37 cumulative IPC: 2.551 (Simulation time: 01 hr 41 min 10 sec)
Heartbeat CPU 0 instructions: 250000003 cycles: 91573887 heartbeat IPC: 2.18 cumulative IPC: 2.529 (Simulation time: 01 hr 45 min 56 sec)
Heartbeat CPU 0 instructions: 260000000 cycles: 95373753 heartbeat IPC: 2.632 cumulative IPC: 2.534 (Simulation time: 01 hr 50 min 22 sec)
Heartbeat CPU 0 instructions: 270000003 cycles: 102522620 heartbeat IPC: 1.399 cumulative IPC: 2.444 (Simulation time: 01 hr 56 min 55 sec)
Heartbeat CPU 0 instructions: 280000000 cycles: 113305271 heartbeat IPC: 0.9274 cumulative IPC: 2.282 (Simulation time: 02 hr 05 min 52 sec)
Heartbeat CPU 0 instructions: 290000000 cycles: 122668888 heartbeat IPC: 1.068 cumulative IPC: 2.178 (Simulation time: 02 hr 14 min 01 sec)
Heartbeat CPU 0 instructions: 300000003 cycles: 129918594 heartbeat IPC: 1.379 cumulative IPC: 2.129 (Simulation time: 02 hr 21 min 02 sec)
Heartbeat CPU 0 instructions: 310000004 cycles: 140166645 heartbeat IPC: 0.9758 cumulative IPC: 2.037 (Simulation time: 02 hr 29 min 56 sec)
Heartbeat CPU 0 instructions: 320000004 cycles: 145109402 heartbeat IPC: 2.023 cumulative IPC: 2.036 (Simulation time: 02 hr 35 min 19 sec)
Heartbeat CPU 0 instructions: 330000000 cycles: 149121985 heartbeat IPC: 2.492 cumulative IPC: 2.049 (Simulation time: 02 hr 39 min 57 sec)
Heartbeat CPU 0 instructions: 340000001 cycles: 152976314 heartbeat IPC: 2.594 cumulative IPC: 2.064 (Simulation time: 02 hr 44 min 30 sec)
Heartbeat CPU 0 instructions: 350000004 cycles: 156951131 heartbeat IPC: 2.516 cumulative IPC: 2.077 (Simulation time: 02 hr 49 min 09 sec)
Heartbeat CPU 0 instructions: 360000003 cycles: 160654189 heartbeat IPC: 2.7 cumulative IPC: 2.092 (Simulation time: 02 hr 53 min 35 sec)
Heartbeat CPU 0 instructions: 370000001 cycles: 164353713 heartbeat IPC: 2.703 cumulative IPC: 2.107 (Simulation time: 02 hr 58 min 04 sec)
Heartbeat CPU 0 instructions: 380000004 cycles: 167913842 heartbeat IPC: 2.809 cumulative IPC: 2.123 (Simulation time: 03 hr 02 min 28 sec)
Heartbeat CPU 0 instructions: 390000002 cycles: 171530948 heartbeat IPC: 2.765 cumulative IPC: 2.138 (Simulation time: 03 hr 06 min 51 sec)
Heartbeat CPU 0 instructions: 400000000 cycles: 175424892 heartbeat IPC: 2.568 cumulative IPC: 2.148 (Simulation time: 03 hr 11 min 28 sec)
Heartbeat CPU 0 instructions: 410000000 cycles: 181040797 heartbeat IPC: 1.781 cumulative IPC: 2.136 (Simulation time: 03 hr 17 min 09 sec)
Heartbeat CPU 0 instructions: 420000003 cycles: 188288046 heartbeat IPC: 1.38 cumulative IPC: 2.105 (Simulation time: 03 hr 23 min 55 sec)
Heartbeat CPU 0 instructions: 430000000 cycles: 194817834 heartbeat IPC: 1.531 cumulative IPC: 2.084 (Simulation time: 03 hr 30 min 28 sec)
Heartbeat CPU 0 instructions: 440000004 cycles: 200877149 heartbeat IPC: 1.65 cumulative IPC: 2.07 (Simulation time: 03 hr 36 min 38 sec)
Heartbeat CPU 0 instructions: 450000001 cycles: 207172302 heartbeat IPC: 1.589 cumulative IPC: 2.055 (Simulation time: 03 hr 42 min 59 sec)
Heartbeat CPU 0 instructions: 460000002 cycles: 214827322 heartbeat IPC: 1.306 cumulative IPC: 2.026 (Simulation time: 03 hr 50 min 11 sec)
Heartbeat CPU 0 instructions: 470000003 cycles: 220986672 heartbeat IPC: 1.624 cumulative IPC: 2.015 (Simulation time: 03 hr 56 min 29 sec)
Heartbeat CPU 0 instructions: 480000003 cycles: 224762648 heartbeat IPC: 2.648 cumulative IPC: 2.026 (Simulation time: 04 hr 00 min 59 sec)
Heartbeat CPU 0 instructions: 490000001 cycles: 228767507 heartbeat IPC: 2.497 cumulative IPC: 2.035 (Simulation time: 04 hr 05 min 39 sec)
Heartbeat CPU 0 instructions: 500000002 cycles: 232616037 heartbeat IPC: 2.598 cumulative IPC: 2.044 (Simulation time: 04 hr 10 min 11 sec)
Heartbeat CPU 0 instructions: 510000000 cycles: 236302490 heartbeat IPC: 2.713 cumulative IPC: 2.055 (Simulation time: 04 hr 14 min 39 sec)
Heartbeat CPU 0 instructions: 520000000 cycles: 240125519 heartbeat IPC: 2.616 cumulative IPC: 2.065 (Simulation time: 04 hr 19 min 10 sec)
Heartbeat CPU 0 instructions: 530000001 cycles: 247487788 heartbeat IPC: 1.358 cumulative IPC: 2.043 (Simulation time: 04 hr 26 min 04 sec)
Heartbeat CPU 0 instructions: 540000000 cycles: 254716775 heartbeat IPC: 1.383 cumulative IPC: 2.023 (Simulation time: 04 hr 32 min 57 sec)
Heartbeat CPU 0 instructions: 550000004 cycles: 262103816 heartbeat IPC: 1.354 cumulative IPC: 2.003 (Simulation time: 04 hr 39 min 52 sec)
Heartbeat CPU 0 instructions: 560000004 cycles: 265899735 heartbeat IPC: 2.634 cumulative IPC: 2.013 (Simulation time: 04 hr 44 min 22 sec)
Heartbeat CPU 0 instructions: 570000001 cycles: 268974376 heartbeat IPC: 3.252 cumulative IPC: 2.027 (Simulation time: 04 hr 48 min 39 sec)
Heartbeat CPU 0 instructions: 580000003 cycles: 272424615 heartbeat IPC: 2.898 cumulative IPC: 2.039 (Simulation time: 04 hr 52 min 53 sec)
Heartbeat CPU 0 instructions: 590000002 cycles: 275951143 heartbeat IPC: 2.836 cumulative IPC: 2.05 (Simulation time: 04 hr 57 min 27 sec)
Heartbeat CPU 0 instructions: 600000003 cycles: 278970567 heartbeat IPC: 3.312 cumulative IPC: 2.064 (Simulation time: 05 hr 01 min 36 sec)
Heartbeat CPU 0 instructions: 610000001 cycles: 282414094 heartbeat IPC: 2.904 cumulative IPC: 2.075 (Simulation time: 05 hr 06 min 00 sec)
Heartbeat CPU 0 instructions: 620000000 cycles: 286374314 heartbeat IPC: 2.525 cumulative IPC: 2.081 (Simulation time: 05 hr 10 min 35 sec)
Heartbeat CPU 0 instructions: 630000002 cycles: 289701540 heartbeat IPC: 3.006 cumulative IPC: 2.092 (Simulation time: 05 hr 15 min 02 sec)
Heartbeat CPU 0 instructions: 640000004 cycles: 293663438 heartbeat IPC: 2.524 cumulative IPC: 2.098 (Simulation time: 05 hr 19 min 36 sec)
Heartbeat CPU 0 instructions: 650000001 cycles: 297467482 heartbeat IPC: 2.629 cumulative IPC: 2.106 (Simulation time: 05 hr 24 min 05 sec)
Simulation finished CPU 0 instructions: 600000001 cycles: 284967421 cumulative IPC: 2.106 (Simulation time: 05 hr 24 min 05 sec)
Simulation complete CPU 0 instructions: 600000001 cycles: 284967421 cumulative IPC: 2.106 (Simulation time: 05 hr 24 min 05 sec)

ChampSim completed all CPUs

=== Simulation ===
CPU 0 runs traces/400.perlbench-50B.champsimtrace.xz
Region of Interest Statistics

CPU 0 cumulative IPC: 2.106 instructions: 600000001 cycles: 284967421
CPU 0 Branch Prediction Accuracy: 96.2% MPKI: 7.839 Average ROB Occupancy at Mispredict: 43.17
Branch type MPKI
BRANCH_DIRECT_JUMP: 0.0176
BRANCH_INDIRECT: 0.38
BRANCH_CONDITIONAL: 6.99
BRANCH_DIRECT_CALL: 0.0067
BRANCH_INDIRECT_CALL: 0.431
BRANCH_RETURN: 0.0161

LLC TOTAL        ACCESS:    1319590 HIT:    1032893 MISS:     286697
LLC LOAD         ACCESS:     587751 HIT:     482360 MISS:     105391
LLC RFO          ACCESS:      47581 HIT:      37717 MISS:       9864
LLC PREFETCH     ACCESS:     533797 HIT:     371542 MISS:     162255
LLC WRITE        ACCESS:     128550 HIT:     128536 MISS:         14
LLC TRANSLATION  ACCESS:      21911 HIT:      12738 MISS:       9173
LLC PREFETCH REQUESTED:     533797 ISSUED:     533797 USEFUL:       1300 USELESS:         24
LLC AVERAGE MISS LATENCY: 220.1 cycles
cpu0_DTLB TOTAL        ACCESS:  146515783 HIT:  145210900 MISS:    1304883
cpu0_DTLB LOAD         ACCESS:  146515783 HIT:  145210900 MISS:    1304883
cpu0_DTLB RFO          ACCESS:          0 HIT:          0 MISS:          0
cpu0_DTLB PREFETCH     ACCESS:          0 HIT:          0 MISS:          0
cpu0_DTLB WRITE        ACCESS:          0 HIT:          0 MISS:          0
cpu0_DTLB TRANSLATION  ACCESS:          0 HIT:          0 MISS:          0
cpu0_DTLB PREFETCH REQUESTED:          0 ISSUED:          0 USEFUL:          0 USELESS:          0
cpu0_DTLB AVERAGE MISS LATENCY: 10.39 cycles
cpu0_ITLB TOTAL        ACCESS:    8985281 HIT:    8800697 MISS:     184584
cpu0_ITLB LOAD         ACCESS:    8985281 HIT:    8800697 MISS:     184584
cpu0_ITLB RFO          ACCESS:          0 HIT:          0 MISS:          0
cpu0_ITLB PREFETCH     ACCESS:          0 HIT:          0 MISS:          0
cpu0_ITLB WRITE        ACCESS:          0 HIT:          0 MISS:          0
cpu0_ITLB TRANSLATION  ACCESS:          0 HIT:          0 MISS:          0
cpu0_ITLB PREFETCH REQUESTED:          0 ISSUED:          0 USEFUL:          0 USELESS:          0
cpu0_ITLB AVERAGE MISS LATENCY: 3.104 cycles
cpu0_L1D TOTAL        ACCESS:  193308279 HIT:  189677068 MISS:    3631211
cpu0_L1D LOAD         ACCESS:  107463245 HIT:  104467938 MISS:    2995307
cpu0_L1D RFO          ACCESS:          0 HIT:          0 MISS:          0
cpu0_L1D PREFETCH     ACCESS:          0 HIT:          0 MISS:          0
cpu0_L1D WRITE        ACCESS:   85816511 HIT:   85207704 MISS:     608807
cpu0_L1D TRANSLATION  ACCESS:      28523 HIT:       1426 MISS:      27097
cpu0_L1D PREFETCH REQUESTED:          0 ISSUED:          0 USEFUL:          0 USELESS:          0
cpu0_L1D AVERAGE MISS LATENCY: 23.79 cycles
cpu0_L1I TOTAL        ACCESS:   10419731 HIT:    8657849 MISS:    1761882
cpu0_L1I LOAD         ACCESS:   10419731 HIT:    8657849 MISS:    1761882
cpu0_L1I RFO          ACCESS:          0 HIT:          0 MISS:          0
cpu0_L1I PREFETCH     ACCESS:          0 HIT:          0 MISS:          0
cpu0_L1I WRITE        ACCESS:          0 HIT:          0 MISS:          0
cpu0_L1I TRANSLATION  ACCESS:          0 HIT:          0 MISS:          0
cpu0_L1I PREFETCH REQUESTED:          0 ISSUED:          0 USEFUL:          0 USELESS:          0
cpu0_L1I AVERAGE MISS LATENCY: 9.391 cycles
cpu0_L2C TOTAL        ACCESS:    3834800 HIT:    3174319 MISS:     660481
cpu0_L2C LOAD         ACCESS:    3105006 HIT:    2517255 MISS:     587751
cpu0_L2C RFO          ACCESS:     191522 HIT:     143941 MISS:      47581
cpu0_L2C PREFETCH     ACCESS:          0 HIT:          0 MISS:          0
cpu0_L2C WRITE        ACCESS:     511242 HIT:     508004 MISS:       3238
cpu0_L2C TRANSLATION  ACCESS:      27030 HIT:       5119 MISS:      21911
cpu0_L2C PREFETCH REQUESTED:          0 ISSUED:          0 USEFUL:          0 USELESS:          0
cpu0_L2C AVERAGE MISS LATENCY: 114.3 cycles
cpu0_STLB TOTAL        ACCESS:    1008488 HIT:     981794 MISS:      26694
cpu0_STLB LOAD         ACCESS:    1008488 HIT:     981794 MISS:      26694
cpu0_STLB RFO          ACCESS:          0 HIT:          0 MISS:          0
cpu0_STLB PREFETCH     ACCESS:          0 HIT:          0 MISS:          0
cpu0_STLB WRITE        ACCESS:          0 HIT:          0 MISS:          0
cpu0_STLB TRANSLATION  ACCESS:          0 HIT:          0 MISS:          0
cpu0_STLB PREFETCH REQUESTED:          0 ISSUED:          0 USEFUL:          0 USELESS:          0
cpu0_STLB AVERAGE MISS LATENCY: 283 cycles

DRAM Statistics

Channel 0 RQ ROW_BUFFER_HIT:      58475
  ROW_BUFFER_MISS:     165665
 AVG DBUS CONGESTED CYCLE: 3.818
WQ ROW_BUFFER_HIT: Channel 0 
  ROW_BUFFER_MISS:       1448
  FULL:       1651
