WARNING: physical memory size is smaller than virtual memory size.

*** ChampSim Multicore Out-of-Order Simulator ***
Warmup Instructions: 50000000
Simulation Instructions: 600000000
Number of CPUs: 1
Page size: 4096

CPU 0 Tage branch predictor
Off-chip DRAM Size: 4 GiB Channels: 1 Width: 64-bit Data Race: 3200 MT/s
Heartbeat CPU 0 instructions: 10000001 cycles: 2500318 heartbeat IPC: 3.999 cumulative IPC: 3.999 (Simulation time: 00 hr 04 min 29 sec)
Heartbeat CPU 0 instructions: 20000002 cycles: 5037121 heartbeat IPC: 3.942 cumulative IPC: 3.971 (Simulation time: 00 hr 08 min 54 sec)
Heartbeat CPU 0 instructions: 30000002 cycles: 7537121 heartbeat IPC: 4 cumulative IPC: 3.98 (Simulation time: 00 hr 13 min 11 sec)
Heartbeat CPU 0 instructions: 40000002 cycles: 10037121 heartbeat IPC: 4 cumulative IPC: 3.985 (Simulation time: 00 hr 17 min 24 sec)
Heartbeat CPU 0 instructions: 50000002 cycles: 12537121 heartbeat IPC: 4 cumulative IPC: 3.988 (Simulation time: 00 hr 21 min 32 sec)
Warmup finished CPU 0 instructions: 50000002 cycles: 12537122 cumulative IPC: 3.988 (Simulation time: 00 hr 21 min 32 sec)
Warmup complete CPU 0 instructions: 50000002 cycles: 12537122 cumulative IPC: 3.988 (Simulation time: 00 hr 21 min 32 sec)
Heartbeat CPU 0 instructions: 60000001 cycles: 15535491 heartbeat IPC: 3.335 cumulative IPC: 3.335 (Simulation time: 00 hr 26 min 25 sec)
Heartbeat CPU 0 instructions: 70000004 cycles: 18613410 heartbeat IPC: 3.249 cumulative IPC: 3.291 (Simulation time: 00 hr 31 min 30 sec)
Heartbeat CPU 0 instructions: 80000001 cycles: 21665389 heartbeat IPC: 3.277 cumulative IPC: 3.286 (Simulation time: 00 hr 36 min 28 sec)
Heartbeat CPU 0 instructions: 90000001 cycles: 24613163 heartbeat IPC: 3.392 cumulative IPC: 3.312 (Simulation time: 00 hr 41 min 18 sec)
Heartbeat CPU 0 instructions: 100000000 cycles: 27527470 heartbeat IPC: 3.431 cumulative IPC: 3.335 (Simulation time: 00 hr 46 min 06 sec)
Heartbeat CPU 0 instructions: 110000000 cycles: 30470448 heartbeat IPC: 3.398 cumulative IPC: 3.346 (Simulation time: 00 hr 50 min 57 sec)
Heartbeat CPU 0 instructions: 120000001 cycles: 33447918 heartbeat IPC: 3.359 cumulative IPC: 3.348 (Simulation time: 00 hr 55 min 45 sec)
Heartbeat CPU 0 instructions: 130000001 cycles: 36309779 heartbeat IPC: 3.494 cumulative IPC: 3.365 (Simulation time: 01 hr 00 min 37 sec)
Heartbeat CPU 0 instructions: 140000001 cycles: 39372305 heartbeat IPC: 3.265 cumulative IPC: 3.354 (Simulation time: 01 hr 05 min 28 sec)
Heartbeat CPU 0 instructions: 150000001 cycles: 42390293 heartbeat IPC: 3.313 cumulative IPC: 3.35 (Simulation time: 01 hr 10 min 19 sec)
Heartbeat CPU 0 instructions: 160000004 cycles: 45414728 heartbeat IPC: 3.306 cumulative IPC: 3.346 (Simulation time: 01 hr 15 min 12 sec)
Heartbeat CPU 0 instructions: 170000000 cycles: 51161675 heartbeat IPC: 1.74 cumulative IPC: 3.107 (Simulation time: 01 hr 22 min 01 sec)
Heartbeat CPU 0 instructions: 180000004 cycles: 56541552 heartbeat IPC: 1.859 cumulative IPC: 2.954 (Simulation time: 01 hr 28 min 41 sec)
Heartbeat CPU 0 instructions: 190000001 cycles: 61688304 heartbeat IPC: 1.943 cumulative IPC: 2.848 (Simulation time: 01 hr 35 min 11 sec)
Heartbeat CPU 0 instructions: 200000004 cycles: 64493321 heartbeat IPC: 3.565 cumulative IPC: 2.887 (Simulation time: 01 hr 39 min 55 sec)
Heartbeat CPU 0 instructions: 210000001 cycles: 67329148 heartbeat IPC: 3.526 cumulative IPC: 2.92 (Simulation time: 01 hr 44 min 41 sec)
Heartbeat CPU 0 instructions: 220000000 cycles: 70150407 heartbeat IPC: 3.545 cumulative IPC: 2.951 (Simulation time: 01 hr 49 min 24 sec)
Heartbeat CPU 0 instructions: 230000002 cycles: 72927130 heartbeat IPC: 3.601 cumulative IPC: 2.981 (Simulation time: 01 hr 54 min 08 sec)
Heartbeat CPU 0 instructions: 240000003 cycles: 75809522 heartbeat IPC: 3.469 cumulative IPC: 3.003 (Simulation time: 01 hr 58 min 56 sec)
Heartbeat CPU 0 instructions: 250000000 cycles: 78655660 heartbeat IPC: 3.514 cumulative IPC: 3.025 (Simulation time: 02 hr 03 min 41 sec)
Heartbeat CPU 0 instructions: 260000002 cycles: 81431330 heartbeat IPC: 3.603 cumulative IPC: 3.048 (Simulation time: 02 hr 08 min 24 sec)
Heartbeat CPU 0 instructions: 270000002 cycles: 84212125 heartbeat IPC: 3.596 cumulative IPC: 3.069 (Simulation time: 02 hr 13 min 07 sec)
Heartbeat CPU 0 instructions: 280000002 cycles: 86964351 heartbeat IPC: 3.633 cumulative IPC: 3.09 (Simulation time: 02 hr 17 min 47 sec)
Heartbeat CPU 0 instructions: 290000002 cycles: 89807533 heartbeat IPC: 3.517 cumulative IPC: 3.106 (Simulation time: 02 hr 22 min 30 sec)
Heartbeat CPU 0 instructions: 300000003 cycles: 92532933 heartbeat IPC: 3.669 cumulative IPC: 3.125 (Simulation time: 02 hr 27 min 14 sec)
Heartbeat CPU 0 instructions: 310000001 cycles: 95359626 heartbeat IPC: 3.538 cumulative IPC: 3.139 (Simulation time: 02 hr 31 min 58 sec)
Heartbeat CPU 0 instructions: 320000003 cycles: 98218035 heartbeat IPC: 3.498 cumulative IPC: 3.151 (Simulation time: 02 hr 36 min 46 sec)
Heartbeat CPU 0 instructions: 330000003 cycles: 100993038 heartbeat IPC: 3.604 cumulative IPC: 3.165 (Simulation time: 02 hr 41 min 35 sec)
Heartbeat CPU 0 instructions: 340000000 cycles: 106053860 heartbeat IPC: 1.976 cumulative IPC: 3.101 (Simulation time: 02 hr 47 min 57 sec)
Heartbeat CPU 0 instructions: 350000000 cycles: 111534414 heartbeat IPC: 1.825 cumulative IPC: 3.03 (Simulation time: 02 hr 54 min 46 sec)
Heartbeat CPU 0 instructions: 360000004 cycles: 116842479 heartbeat IPC: 1.884 cumulative IPC: 2.972 (Simulation time: 03 hr 01 min 20 sec)
Heartbeat CPU 0 instructions: 370000000 cycles: 119691620 heartbeat IPC: 3.51 cumulative IPC: 2.986 (Simulation time: 03 hr 06 min 03 sec)
Heartbeat CPU 0 instructions: 380000003 cycles: 122494165 heartbeat IPC: 3.568 cumulative IPC: 3.001 (Simulation time: 03 hr 10 min 47 sec)
Heartbeat CPU 0 instructions: 390000002 cycles: 125392832 heartbeat IPC: 3.45 cumulative IPC: 3.013 (Simulation time: 03 hr 15 min 35 sec)
Heartbeat CPU 0 instructions: 400000004 cycles: 128251238 heartbeat IPC: 3.498 cumulative IPC: 3.025 (Simulation time: 03 hr 20 min 23 sec)
Heartbeat CPU 0 instructions: 410000002 cycles: 131055919 heartbeat IPC: 3.565 cumulative IPC: 3.037 (Simulation time: 03 hr 25 min 07 sec)
Heartbeat CPU 0 instructions: 420000003 cycles: 133957209 heartbeat IPC: 3.447 cumulative IPC: 3.047 (Simulation time: 03 hr 29 min 56 sec)
Heartbeat CPU 0 instructions: 430000001 cycles: 136870294 heartbeat IPC: 3.433 cumulative IPC: 3.056 (Simulation time: 03 hr 34 min 45 sec)
Heartbeat CPU 0 instructions: 440000004 cycles: 139853772 heartbeat IPC: 3.352 cumulative IPC: 3.063 (Simulation time: 03 hr 39 min 36 sec)
Heartbeat CPU 0 instructions: 450000002 cycles: 142636571 heartbeat IPC: 3.594 cumulative IPC: 3.075 (Simulation time: 03 hr 44 min 21 sec)
Heartbeat CPU 0 instructions: 460000000 cycles: 145440947 heartbeat IPC: 3.566 cumulative IPC: 3.085 (Simulation time: 03 hr 49 min 08 sec)
Heartbeat CPU 0 instructions: 470000001 cycles: 148193335 heartbeat IPC: 3.633 cumulative IPC: 3.096 (Simulation time: 03 hr 53 min 50 sec)
Heartbeat CPU 0 instructions: 480000003 cycles: 151117413 heartbeat IPC: 3.42 cumulative IPC: 3.103 (Simulation time: 03 hr 58 min 36 sec)
Heartbeat CPU 0 instructions: 490000004 cycles: 153867715 heartbeat IPC: 3.636 cumulative IPC: 3.113 (Simulation time: 04 hr 03 min 16 sec)
Heartbeat CPU 0 instructions: 500000004 cycles: 156768844 heartbeat IPC: 3.447 cumulative IPC: 3.12 (Simulation time: 04 hr 08 min 03 sec)
Heartbeat CPU 0 instructions: 510000003 cycles: 159651298 heartbeat IPC: 3.469 cumulative IPC: 3.127 (Simulation time: 04 hr 12 min 56 sec)
Heartbeat CPU 0 instructions: 520000001 cycles: 162396088 heartbeat IPC: 3.643 cumulative IPC: 3.136 (Simulation time: 04 hr 17 min 45 sec)
Heartbeat CPU 0 instructions: 530000001 cycles: 165275973 heartbeat IPC: 3.472 cumulative IPC: 3.143 (Simulation time: 04 hr 22 min 30 sec)
Heartbeat CPU 0 instructions: 540000000 cycles: 168114530 heartbeat IPC: 3.523 cumulative IPC: 3.15 (Simulation time: 04 hr 27 min 16 sec)
Heartbeat CPU 0 instructions: 550000001 cycles: 171003235 heartbeat IPC: 3.462 cumulative IPC: 3.155 (Simulation time: 04 hr 32 min 04 sec)
Heartbeat CPU 0 instructions: 560000000 cycles: 173898361 heartbeat IPC: 3.454 cumulative IPC: 3.161 (Simulation time: 04 hr 36 min 53 sec)
Heartbeat CPU 0 instructions: 570000004 cycles: 177797153 heartbeat IPC: 2.565 cumulative IPC: 3.147 (Simulation time: 04 hr 42 min 25 sec)
Heartbeat CPU 0 instructions: 580000003 cycles: 183525230 heartbeat IPC: 1.746 cumulative IPC: 3.1 (Simulation time: 04 hr 49 min 28 sec)
Heartbeat CPU 0 instructions: 590000002 cycles: 189876128 heartbeat IPC: 1.575 cumulative IPC: 3.045 (Simulation time: 04 hr 56 min 46 sec)
Heartbeat CPU 0 instructions: 600000004 cycles: 192793278 heartbeat IPC: 3.428 cumulative IPC: 3.051 (Simulation time: 05 hr 01 min 32 sec)
Heartbeat CPU 0 instructions: 610000002 cycles: 195655977 heartbeat IPC: 3.493 cumulative IPC: 3.058 (Simulation time: 05 hr 06 min 12 sec)
Heartbeat CPU 0 instructions: 620000001 cycles: 198374299 heartbeat IPC: 3.679 cumulative IPC: 3.067 (Simulation time: 05 hr 11 min 05 sec)
Heartbeat CPU 0 instructions: 630000002 cycles: 201255711 heartbeat IPC: 3.471 cumulative IPC: 3.073 (Simulation time: 05 hr 15 min 51 sec)
Heartbeat CPU 0 instructions: 640000004 cycles: 204170643 heartbeat IPC: 3.431 cumulative IPC: 3.079 (Simulation time: 05 hr 20 min 39 sec)
Heartbeat CPU 0 instructions: 650000000 cycles: 206885361 heartbeat IPC: 3.684 cumulative IPC: 3.087 (Simulation time: 05 hr 25 min 30 sec)
Simulation finished CPU 0 instructions: 600000001 cycles: 194348241 cumulative IPC: 3.087 (Simulation time: 05 hr 25 min 30 sec)
Simulation complete CPU 0 instructions: 600000001 cycles: 194348241 cumulative IPC: 3.087 (Simulation time: 05 hr 25 min 30 sec)

ChampSim completed all CPUs

=== Simulation ===
CPU 0 runs traces/400.perlbench-41B.champsimtrace.xz
Region of Interest Statistics

CPU 0 cumulative IPC: 3.087 instructions: 600000001 cycles: 194348241
CPU 0 Branch Prediction Accuracy: 99.19% MPKI: 1.684 Average ROB Occupancy at Mispredict: 100.8
Branch type MPKI
BRANCH_DIRECT_JUMP: 0.0123
BRANCH_INDIRECT: 0.323
BRANCH_CONDITIONAL: 1.14
BRANCH_DIRECT_CALL: 0.0043
BRANCH_INDIRECT_CALL: 0.2
BRANCH_RETURN: 0.00828

LLC TOTAL        ACCESS:     939607 HIT:     798460 MISS:     141147
LLC LOAD         ACCESS:     401466 HIT:     338338 MISS:      63128
LLC RFO          ACCESS:      32513 HIT:      26352 MISS:       6161
LLC PREFETCH     ACCESS:     401466 HIT:     337054 MISS:      64412
LLC WRITE        ACCESS:      85094 HIT:      85011 MISS:         83
LLC TRANSLATION  ACCESS:      19068 HIT:      11705 MISS:       7363
LLC PREFETCH REQUESTED:     401466 ISSUED:     401466 USEFUL:      23243 USELESS:      16638
LLC AVERAGE MISS LATENCY: 507.3 cycles
cpu0_DTLB TOTAL        ACCESS:  129753902 HIT:  129052139 MISS:     701763
cpu0_DTLB LOAD         ACCESS:  129753902 HIT:  129052139 MISS:     701763
cpu0_DTLB RFO          ACCESS:          0 HIT:          0 MISS:          0
cpu0_DTLB PREFETCH     ACCESS:          0 HIT:          0 MISS:          0
cpu0_DTLB WRITE        ACCESS:          0 HIT:          0 MISS:          0
cpu0_DTLB TRANSLATION  ACCESS:          0 HIT:          0 MISS:          0
cpu0_DTLB PREFETCH REQUESTED:          0 ISSUED:          0 USEFUL:          0 USELESS:          0
cpu0_DTLB AVERAGE MISS LATENCY: 11.45 cycles
cpu0_ITLB TOTAL        ACCESS:    4861714 HIT:    4799534 MISS:      62180
cpu0_ITLB LOAD         ACCESS:    4861714 HIT:    4799534 MISS:      62180
cpu0_ITLB RFO          ACCESS:          0 HIT:          0 MISS:          0
cpu0_ITLB PREFETCH     ACCESS:          0 HIT:          0 MISS:          0
cpu0_ITLB WRITE        ACCESS:          0 HIT:          0 MISS:          0
cpu0_ITLB TRANSLATION  ACCESS:          0 HIT:          0 MISS:          0
cpu0_ITLB PREFETCH REQUESTED:          0 ISSUED:          0 USEFUL:          0 USELESS:          0
cpu0_ITLB AVERAGE MISS LATENCY: 4.746 cycles
cpu0_L1D TOTAL        ACCESS:  174377837 HIT:  172633956 MISS:    1743881
cpu0_L1D LOAD         ACCESS:   91354010 HIT:   89996153 MISS:    1357857
cpu0_L1D RFO          ACCESS:          0 HIT:          0 MISS:          0
cpu0_L1D PREFETCH     ACCESS:          0 HIT:          0 MISS:          0
cpu0_L1D WRITE        ACCESS:   82999362 HIT:   82636731 MISS:     362631
cpu0_L1D TRANSLATION  ACCESS:      24465 HIT:       1072 MISS:      23393
cpu0_L1D PREFETCH REQUESTED:          0 ISSUED:          0 USEFUL:          0 USELESS:          0
cpu0_L1D AVERAGE MISS LATENCY: 32.26 cycles
cpu0_L1I TOTAL        ACCESS:    5641706 HIT:    4837883 MISS:     803823
cpu0_L1I LOAD         ACCESS:    5641706 HIT:    4837883 MISS:     803823
cpu0_L1I RFO          ACCESS:          0 HIT:          0 MISS:          0
cpu0_L1I PREFETCH     ACCESS:          0 HIT:          0 MISS:          0
cpu0_L1I WRITE        ACCESS:          0 HIT:          0 MISS:          0
cpu0_L1I TRANSLATION  ACCESS:          0 HIT:          0 MISS:          0
cpu0_L1I PREFETCH REQUESTED:          0 ISSUED:          0 USEFUL:          0 USELESS:          0
cpu0_L1I AVERAGE MISS LATENCY: 8.7 cycles
cpu0_L2C TOTAL        ACCESS:    1668312 HIT:    1213451 MISS:     454861
cpu0_L2C LOAD         ACCESS:    1315347 HIT:     913881 MISS:     401466
cpu0_L2C RFO          ACCESS:      89545 HIT:      57032 MISS:      32513
cpu0_L2C PREFETCH     ACCESS:          0 HIT:          0 MISS:          0
cpu0_L2C WRITE        ACCESS:     240103 HIT:     238289 MISS:       1814
cpu0_L2C TRANSLATION  ACCESS:      23317 HIT:       4249 MISS:      19068
cpu0_L2C PREFETCH REQUESTED:          0 ISSUED:          0 USEFUL:          0 USELESS:          0
cpu0_L2C AVERAGE MISS LATENCY: 119 cycles
cpu0_STLB TOTAL        ACCESS:     508149 HIT:     485362 MISS:      22787
cpu0_STLB LOAD         ACCESS:     508149 HIT:     485362 MISS:      22787
cpu0_STLB RFO          ACCESS:          0 HIT:          0 MISS:          0
cpu0_STLB PREFETCH     ACCESS:          0 HIT:          0 MISS:          0
cpu0_STLB WRITE        ACCESS:          0 HIT:          0 MISS:          0
cpu0_STLB TRANSLATION  ACCESS:          0 HIT:          0 MISS:          0
cpu0_STLB PREFETCH REQUESTED:          0 ISSUED:          0 USEFUL:          0 USELESS:          0
cpu0_STLB AVERAGE MISS LATENCY: 231.7 cycles

DRAM Statistics

Channel 0 RQ ROW_BUFFER_HIT:      25181
  ROW_BUFFER_MISS:      89850
 AVG DBUS CONGESTED CYCLE: 3.837
WQ ROW_BUFFER_HIT: Channel 0 
  ROW_BUFFER_MISS:       3170
  FULL:       5946
