WARNING: physical memory size is smaller than virtual memory size.

*** ChampSim Multicore Out-of-Order Simulator ***
Warmup Instructions: 50000000
Simulation Instructions: 600000000
Number of CPUs: 1
Page size: 4096

CPU 0 Tage branch predictor
Off-chip DRAM Size: 4 GiB Channels: 1 Width: 64-bit Data Race: 3200 MT/s
Heartbeat CPU 0 instructions: 10000000 cycles: 2500061 heartbeat IPC: 4 cumulative IPC: 4 (Simulation time: 00 hr 00 min 41 sec)
Heartbeat CPU 0 instructions: 20000000 cycles: 5000061 heartbeat IPC: 4 cumulative IPC: 4 (Simulation time: 00 hr 01 min 23 sec)
Heartbeat CPU 0 instructions: 30000000 cycles: 7500061 heartbeat IPC: 4 cumulative IPC: 4 (Simulation time: 00 hr 02 min 01 sec)
Heartbeat CPU 0 instructions: 40000000 cycles: 10000061 heartbeat IPC: 4 cumulative IPC: 4 (Simulation time: 00 hr 02 min 39 sec)
Heartbeat CPU 0 instructions: 50000000 cycles: 12500061 heartbeat IPC: 4 cumulative IPC: 4 (Simulation time: 00 hr 03 min 17 sec)
Warmup finished CPU 0 instructions: 50000000 cycles: 12500062 cumulative IPC: 4 (Simulation time: 00 hr 03 min 17 sec)
Warmup complete CPU 0 instructions: 50000000 cycles: 12500062 cumulative IPC: 4 (Simulation time: 00 hr 03 min 17 sec)
Heartbeat CPU 0 instructions: 60000004 cycles: 15504574 heartbeat IPC: 3.328 cumulative IPC: 3.328 (Simulation time: 00 hr 04 min 01 sec)
Heartbeat CPU 0 instructions: 70000003 cycles: 18375027 heartbeat IPC: 3.484 cumulative IPC: 3.404 (Simulation time: 00 hr 04 min 43 sec)
Heartbeat CPU 0 instructions: 80000002 cycles: 21385455 heartbeat IPC: 3.322 cumulative IPC: 3.376 (Simulation time: 00 hr 05 min 26 sec)
Heartbeat CPU 0 instructions: 90000000 cycles: 24106445 heartbeat IPC: 3.675 cumulative IPC: 3.446 (Simulation time: 00 hr 06 min 06 sec)
Heartbeat CPU 0 instructions: 100000003 cycles: 26861573 heartbeat IPC: 3.63 cumulative IPC: 3.482 (Simulation time: 00 hr 06 min 48 sec)
Heartbeat CPU 0 instructions: 110000001 cycles: 29760716 heartbeat IPC: 3.449 cumulative IPC: 3.476 (Simulation time: 00 hr 07 min 29 sec)
Heartbeat CPU 0 instructions: 120000001 cycles: 32476957 heartbeat IPC: 3.682 cumulative IPC: 3.504 (Simulation time: 00 hr 08 min 09 sec)
Heartbeat CPU 0 instructions: 130000003 cycles: 35373828 heartbeat IPC: 3.452 cumulative IPC: 3.497 (Simulation time: 00 hr 08 min 50 sec)
Heartbeat CPU 0 instructions: 140000002 cycles: 38209923 heartbeat IPC: 3.526 cumulative IPC: 3.501 (Simulation time: 00 hr 09 min 31 sec)
Heartbeat CPU 0 instructions: 150000001 cycles: 40979169 heartbeat IPC: 3.611 cumulative IPC: 3.511 (Simulation time: 00 hr 10 min 11 sec)
Heartbeat CPU 0 instructions: 160000000 cycles: 43896422 heartbeat IPC: 3.428 cumulative IPC: 3.504 (Simulation time: 00 hr 10 min 52 sec)
Heartbeat CPU 0 instructions: 170000001 cycles: 46819705 heartbeat IPC: 3.421 cumulative IPC: 3.497 (Simulation time: 00 hr 11 min 34 sec)
Heartbeat CPU 0 instructions: 180000000 cycles: 49612091 heartbeat IPC: 3.581 cumulative IPC: 3.503 (Simulation time: 00 hr 12 min 15 sec)
Heartbeat CPU 0 instructions: 190000002 cycles: 52318430 heartbeat IPC: 3.695 cumulative IPC: 3.516 (Simulation time: 00 hr 12 min 56 sec)
Heartbeat CPU 0 instructions: 200000002 cycles: 55141199 heartbeat IPC: 3.543 cumulative IPC: 3.518 (Simulation time: 00 hr 13 min 37 sec)
Heartbeat CPU 0 instructions: 210000000 cycles: 58032005 heartbeat IPC: 3.459 cumulative IPC: 3.514 (Simulation time: 00 hr 14 min 18 sec)
Heartbeat CPU 0 instructions: 220000001 cycles: 60781438 heartbeat IPC: 3.637 cumulative IPC: 3.521 (Simulation time: 00 hr 15 min 00 sec)
Heartbeat CPU 0 instructions: 230000002 cycles: 63668564 heartbeat IPC: 3.464 cumulative IPC: 3.518 (Simulation time: 00 hr 15 min 41 sec)
Heartbeat CPU 0 instructions: 240000004 cycles: 66619176 heartbeat IPC: 3.389 cumulative IPC: 3.511 (Simulation time: 00 hr 16 min 23 sec)
Heartbeat CPU 0 instructions: 250000003 cycles: 69509596 heartbeat IPC: 3.46 cumulative IPC: 3.508 (Simulation time: 00 hr 17 min 05 sec)
Heartbeat CPU 0 instructions: 260000001 cycles: 72292418 heartbeat IPC: 3.593 cumulative IPC: 3.512 (Simulation time: 00 hr 17 min 47 sec)
Heartbeat CPU 0 instructions: 270000002 cycles: 78010768 heartbeat IPC: 1.749 cumulative IPC: 3.358 (Simulation time: 00 hr 18 min 43 sec)
Heartbeat CPU 0 instructions: 280000000 cycles: 86354408 heartbeat IPC: 1.199 cumulative IPC: 3.114 (Simulation time: 00 hr 19 min 55 sec)
Heartbeat CPU 0 instructions: 290000000 cycles: 93155013 heartbeat IPC: 1.47 cumulative IPC: 2.976 (Simulation time: 00 hr 20 min 59 sec)
Heartbeat CPU 0 instructions: 300000003 cycles: 98140239 heartbeat IPC: 2.006 cumulative IPC: 2.919 (Simulation time: 00 hr 21 min 55 sec)
Heartbeat CPU 0 instructions: 310000001 cycles: 105395533 heartbeat IPC: 1.378 cumulative IPC: 2.799 (Simulation time: 00 hr 23 min 04 sec)
Heartbeat CPU 0 instructions: 320000004 cycles: 109030352 heartbeat IPC: 2.751 cumulative IPC: 2.797 (Simulation time: 00 hr 23 min 52 sec)
Heartbeat CPU 0 instructions: 330000000 cycles: 112122157 heartbeat IPC: 3.234 cumulative IPC: 2.811 (Simulation time: 00 hr 24 min 35 sec)
Heartbeat CPU 0 instructions: 340000001 cycles: 114893100 heartbeat IPC: 3.609 cumulative IPC: 2.832 (Simulation time: 00 hr 25 min 17 sec)
Heartbeat CPU 0 instructions: 350000000 cycles: 117814970 heartbeat IPC: 3.422 cumulative IPC: 2.849 (Simulation time: 00 hr 25 min 59 sec)
Heartbeat CPU 0 instructions: 360000004 cycles: 120569428 heartbeat IPC: 3.63 cumulative IPC: 2.869 (Simulation time: 00 hr 26 min 40 sec)
Heartbeat CPU 0 instructions: 370000001 cycles: 123332388 heartbeat IPC: 3.619 cumulative IPC: 2.887 (Simulation time: 00 hr 27 min 21 sec)
Heartbeat CPU 0 instructions: 380000004 cycles: 126136253 heartbeat IPC: 3.567 cumulative IPC: 2.904 (Simulation time: 00 hr 28 min 03 sec)
Heartbeat CPU 0 instructions: 390000002 cycles: 128963311 heartbeat IPC: 3.537 cumulative IPC: 2.919 (Simulation time: 00 hr 28 min 44 sec)
Heartbeat CPU 0 instructions: 400000000 cycles: 131853959 heartbeat IPC: 3.459 cumulative IPC: 2.932 (Simulation time: 00 hr 29 min 27 sec)
Heartbeat CPU 0 instructions: 410000000 cycles: 136034748 heartbeat IPC: 2.392 cumulative IPC: 2.914 (Simulation time: 00 hr 30 min 17 sec)
Heartbeat CPU 0 instructions: 420000003 cycles: 141119384 heartbeat IPC: 1.967 cumulative IPC: 2.877 (Simulation time: 00 hr 31 min 13 sec)
Heartbeat CPU 0 instructions: 430000000 cycles: 145502946 heartbeat IPC: 2.281 cumulative IPC: 2.857 (Simulation time: 00 hr 32 min 07 sec)
Heartbeat CPU 0 instructions: 440000004 cycles: 149725335 heartbeat IPC: 2.368 cumulative IPC: 2.842 (Simulation time: 00 hr 32 min 58 sec)
Heartbeat CPU 0 instructions: 450000001 cycles: 153969376 heartbeat IPC: 2.356 cumulative IPC: 2.827 (Simulation time: 00 hr 33 min 50 sec)
Heartbeat CPU 0 instructions: 460000002 cycles: 159273428 heartbeat IPC: 1.885 cumulative IPC: 2.793 (Simulation time: 00 hr 34 min 47 sec)
Heartbeat CPU 0 instructions: 470000003 cycles: 163639346 heartbeat IPC: 2.29 cumulative IPC: 2.779 (Simulation time: 00 hr 35 min 39 sec)
Heartbeat CPU 0 instructions: 480000000 cycles: 166596313 heartbeat IPC: 3.382 cumulative IPC: 2.79 (Simulation time: 00 hr 36 min 21 sec)
Heartbeat CPU 0 instructions: 490000001 cycles: 169549816 heartbeat IPC: 3.386 cumulative IPC: 2.802 (Simulation time: 00 hr 37 min 04 sec)
Heartbeat CPU 0 instructions: 500000002 cycles: 172432208 heartbeat IPC: 3.469 cumulative IPC: 2.814 (Simulation time: 00 hr 37 min 46 sec)
Heartbeat CPU 0 instructions: 510000000 cycles: 175314914 heartbeat IPC: 3.469 cumulative IPC: 2.825 (Simulation time: 00 hr 38 min 28 sec)
Heartbeat CPU 0 instructions: 520000000 cycles: 178224616 heartbeat IPC: 3.437 cumulative IPC: 2.836 (Simulation time: 00 hr 39 min 09 sec)
Heartbeat CPU 0 instructions: 530000001 cycles: 183128160 heartbeat IPC: 2.039 cumulative IPC: 2.813 (Simulation time: 00 hr 40 min 02 sec)
Heartbeat CPU 0 instructions: 540000000 cycles: 187868426 heartbeat IPC: 2.11 cumulative IPC: 2.794 (Simulation time: 00 hr 40 min 56 sec)
Heartbeat CPU 0 instructions: 550000004 cycles: 192861545 heartbeat IPC: 2.003 cumulative IPC: 2.772 (Simulation time: 00 hr 41 min 48 sec)
Heartbeat CPU 0 instructions: 560000004 cycles: 195992051 heartbeat IPC: 3.194 cumulative IPC: 2.779 (Simulation time: 00 hr 42 min 26 sec)
Heartbeat CPU 0 instructions: 570000002 cycles: 198763935 heartbeat IPC: 3.608 cumulative IPC: 2.792 (Simulation time: 00 hr 43 min 03 sec)
Heartbeat CPU 0 instructions: 580000000 cycles: 201597227 heartbeat IPC: 3.529 cumulative IPC: 2.803 (Simulation time: 00 hr 43 min 38 sec)
Heartbeat CPU 0 instructions: 590000001 cycles: 204439339 heartbeat IPC: 3.519 cumulative IPC: 2.813 (Simulation time: 00 hr 44 min 14 sec)
Heartbeat CPU 0 instructions: 600000003 cycles: 207085122 heartbeat IPC: 3.78 cumulative IPC: 2.827 (Simulation time: 00 hr 44 min 48 sec)
Heartbeat CPU 0 instructions: 610000001 cycles: 209893976 heartbeat IPC: 3.56 cumulative IPC: 2.837 (Simulation time: 00 hr 45 min 15 sec)
Heartbeat CPU 0 instructions: 620000004 cycles: 212801155 heartbeat IPC: 3.44 cumulative IPC: 2.846 (Simulation time: 00 hr 45 min 41 sec)
Heartbeat CPU 0 instructions: 630000002 cycles: 215577541 heartbeat IPC: 3.602 cumulative IPC: 2.856 (Simulation time: 00 hr 46 min 04 sec)
Heartbeat CPU 0 instructions: 640000004 cycles: 218585132 heartbeat IPC: 3.325 cumulative IPC: 2.863 (Simulation time: 00 hr 46 min 26 sec)
Heartbeat CPU 0 instructions: 650000001 cycles: 221277958 heartbeat IPC: 3.714 cumulative IPC: 2.874 (Simulation time: 00 hr 46 min 45 sec)
Simulation finished CPU 0 instructions: 600000001 cycles: 208777897 cumulative IPC: 2.874 (Simulation time: 00 hr 46 min 45 sec)
Simulation complete CPU 0 instructions: 600000001 cycles: 208777897 cumulative IPC: 2.874 (Simulation time: 00 hr 46 min 45 sec)

ChampSim completed all CPUs

=== Simulation ===
CPU 0 runs traces/400.perlbench-50B.champsimtrace.xz
Region of Interest Statistics

CPU 0 cumulative IPC: 2.874 instructions: 600000001 cycles: 208777897
CPU 0 Branch Prediction Accuracy: 99.01% MPKI: 2.04 Average ROB Occupancy at Mispredict: 93.28
Branch type MPKI
BRANCH_DIRECT_JUMP: 0.0176
BRANCH_INDIRECT: 0.38
BRANCH_CONDITIONAL: 1.19
BRANCH_DIRECT_CALL: 0.0067
BRANCH_INDIRECT_CALL: 0.431
BRANCH_RETURN: 0.0161

LLC TOTAL        ACCESS:     836121 HIT:     712209 MISS:     123912
LLC LOAD         ACCESS:     576040 HIT:     482176 MISS:      93864
LLC RFO          ACCESS:      47057 HIT:      37604 MISS:       9453
LLC PREFETCH     ACCESS:      64313 HIT:      52891 MISS:      11422
LLC WRITE        ACCESS:     126697 HIT:     126631 MISS:         66
LLC TRANSLATION  ACCESS:      22014 HIT:      12907 MISS:       9107
LLC PREFETCH REQUESTED:      64313 ISSUED:      64313 USEFUL:       7071 USELESS:        298
LLC AVERAGE MISS LATENCY: 526.8 cycles
cpu0_DTLB TOTAL        ACCESS:  133219302 HIT:  131865387 MISS:    1353915
cpu0_DTLB LOAD         ACCESS:  133219302 HIT:  131865387 MISS:    1353915
cpu0_DTLB RFO          ACCESS:          0 HIT:          0 MISS:          0
cpu0_DTLB PREFETCH     ACCESS:          0 HIT:          0 MISS:          0
cpu0_DTLB WRITE        ACCESS:          0 HIT:          0 MISS:          0
cpu0_DTLB TRANSLATION  ACCESS:          0 HIT:          0 MISS:          0
cpu0_DTLB PREFETCH REQUESTED:          0 ISSUED:          0 USEFUL:          0 USELESS:          0
cpu0_DTLB AVERAGE MISS LATENCY: 9.459 cycles
cpu0_ITLB TOTAL        ACCESS:    8984343 HIT:    8774897 MISS:     209446
cpu0_ITLB LOAD         ACCESS:    8984343 HIT:    8774897 MISS:     209446
cpu0_ITLB RFO          ACCESS:          0 HIT:          0 MISS:          0
cpu0_ITLB PREFETCH     ACCESS:          0 HIT:          0 MISS:          0
cpu0_ITLB WRITE        ACCESS:          0 HIT:          0 MISS:          0
cpu0_ITLB TRANSLATION  ACCESS:          0 HIT:          0 MISS:          0
cpu0_ITLB PREFETCH REQUESTED:          0 ISSUED:          0 USEFUL:          0 USELESS:          0
cpu0_ITLB AVERAGE MISS LATENCY: 2.386 cycles
cpu0_L1D TOTAL        ACCESS:  178286499 HIT:  174549032 MISS:    3737467
cpu0_L1D LOAD         ACCESS:   92767272 HIT:   89696696 MISS:    3070576
cpu0_L1D RFO          ACCESS:          0 HIT:          0 MISS:          0
cpu0_L1D PREFETCH     ACCESS:          0 HIT:          0 MISS:          0
cpu0_L1D WRITE        ACCESS:   85490695 HIT:   84850913 MISS:     639782
cpu0_L1D TRANSLATION  ACCESS:      28532 HIT:       1423 MISS:      27109
cpu0_L1D PREFETCH REQUESTED:          0 ISSUED:          0 USEFUL:          0 USELESS:          0
cpu0_L1D AVERAGE MISS LATENCY: 21.69 cycles
cpu0_L1I TOTAL        ACCESS:   10504767 HIT:    8606119 MISS:    1898648
cpu0_L1I LOAD         ACCESS:   10504767 HIT:    8606119 MISS:    1898648
cpu0_L1I RFO          ACCESS:          0 HIT:          0 MISS:          0
cpu0_L1I PREFETCH     ACCESS:          0 HIT:          0 MISS:          0
cpu0_L1I WRITE        ACCESS:          0 HIT:          0 MISS:          0
cpu0_L1I TRANSLATION  ACCESS:          0 HIT:          0 MISS:          0
cpu0_L1I PREFETCH REQUESTED:          0 ISSUED:          0 USEFUL:          0 USELESS:          0
cpu0_L1I AVERAGE MISS LATENCY: 8.511 cycles
cpu0_L2C TOTAL        ACCESS:    3840720 HIT:    3192461 MISS:     648259
cpu0_L2C LOAD         ACCESS:    3103946 HIT:    2527906 MISS:     576040
cpu0_L2C RFO          ACCESS:     194822 HIT:     147765 MISS:      47057
cpu0_L2C PREFETCH     ACCESS:          0 HIT:          0 MISS:          0
cpu0_L2C WRITE        ACCESS:     514918 HIT:     511770 MISS:       3148
cpu0_L2C TRANSLATION  ACCESS:      27034 HIT:       5020 MISS:      22014
cpu0_L2C PREFETCH REQUESTED:          0 ISSUED:          0 USEFUL:          0 USELESS:          0
cpu0_L2C AVERAGE MISS LATENCY: 111.3 cycles
cpu0_STLB TOTAL        ACCESS:    1009694 HIT:     983003 MISS:      26691
cpu0_STLB LOAD         ACCESS:    1009694 HIT:     983003 MISS:      26691
cpu0_STLB RFO          ACCESS:          0 HIT:          0 MISS:          0
cpu0_STLB PREFETCH     ACCESS:          0 HIT:          0 MISS:          0
cpu0_STLB WRITE        ACCESS:          0 HIT:          0 MISS:          0
cpu0_STLB TRANSLATION  ACCESS:          0 HIT:          0 MISS:          0
cpu0_STLB PREFETCH REQUESTED:          0 ISSUED:          0 USEFUL:          0 USELESS:          0
cpu0_STLB AVERAGE MISS LATENCY: 264.9 cycles

DRAM Statistics

Channel 0 RQ ROW_BUFFER_HIT:      37213
  ROW_BUFFER_MISS:      84224
 AVG DBUS CONGESTED CYCLE: 3.778
WQ ROW_BUFFER_HIT: Channel 0 
  ROW_BUFFER_MISS:        895
  FULL:       1382
