WARNING: physical memory size is smaller than virtual memory size.

*** ChampSim Multicore Out-of-Order Simulator ***
Warmup Instructions: 50000000
Simulation Instructions: 600000000
Number of CPUs: 1
Page size: 4096

Off-chip DRAM Size: 4 GiB Channels: 1 Width: 64-bit Data Race: 3200 MT/s
Heartbeat CPU 0 instructions: 10000000 cycles: 2500061 heartbeat IPC: 4 cumulative IPC: 4 (Simulation time: 00 hr 00 min 36 sec)
Heartbeat CPU 0 instructions: 20000000 cycles: 5000061 heartbeat IPC: 4 cumulative IPC: 4 (Simulation time: 00 hr 01 min 10 sec)
Heartbeat CPU 0 instructions: 30000000 cycles: 7500061 heartbeat IPC: 4 cumulative IPC: 4 (Simulation time: 00 hr 01 min 46 sec)
Heartbeat CPU 0 instructions: 40000000 cycles: 10000061 heartbeat IPC: 4 cumulative IPC: 4 (Simulation time: 00 hr 02 min 19 sec)
Heartbeat CPU 0 instructions: 50000000 cycles: 12500061 heartbeat IPC: 4 cumulative IPC: 4 (Simulation time: 00 hr 02 min 52 sec)
Warmup finished CPU 0 instructions: 50000000 cycles: 12500062 cumulative IPC: 4 (Simulation time: 00 hr 02 min 52 sec)
Warmup complete CPU 0 instructions: 50000000 cycles: 12500062 cumulative IPC: 4 (Simulation time: 00 hr 02 min 52 sec)
Heartbeat CPU 0 instructions: 60000002 cycles: 16897168 heartbeat IPC: 2.274 cumulative IPC: 2.274 (Simulation time: 00 hr 03 min 43 sec)
Heartbeat CPU 0 instructions: 70000003 cycles: 21874323 heartbeat IPC: 2.009 cumulative IPC: 2.134 (Simulation time: 00 hr 04 min 34 sec)
Heartbeat CPU 0 instructions: 80000001 cycles: 27217652 heartbeat IPC: 1.871 cumulative IPC: 2.038 (Simulation time: 00 hr 05 min 25 sec)
Heartbeat CPU 0 instructions: 90000000 cycles: 31512174 heartbeat IPC: 2.329 cumulative IPC: 2.104 (Simulation time: 00 hr 06 min 09 sec)
Heartbeat CPU 0 instructions: 100000003 cycles: 36360283 heartbeat IPC: 2.063 cumulative IPC: 2.096 (Simulation time: 00 hr 06 min 58 sec)
Heartbeat CPU 0 instructions: 110000002 cycles: 41223823 heartbeat IPC: 2.056 cumulative IPC: 2.089 (Simulation time: 00 hr 07 min 50 sec)
Heartbeat CPU 0 instructions: 120000001 cycles: 46216185 heartbeat IPC: 2.003 cumulative IPC: 2.076 (Simulation time: 00 hr 08 min 40 sec)
Heartbeat CPU 0 instructions: 130000003 cycles: 50774631 heartbeat IPC: 2.194 cumulative IPC: 2.09 (Simulation time: 00 hr 09 min 26 sec)
Heartbeat CPU 0 instructions: 140000002 cycles: 55657500 heartbeat IPC: 2.048 cumulative IPC: 2.085 (Simulation time: 00 hr 10 min 12 sec)
Heartbeat CPU 0 instructions: 150000001 cycles: 60315882 heartbeat IPC: 2.147 cumulative IPC: 2.091 (Simulation time: 00 hr 10 min 58 sec)
Heartbeat CPU 0 instructions: 160000000 cycles: 64944965 heartbeat IPC: 2.16 cumulative IPC: 2.097 (Simulation time: 00 hr 11 min 45 sec)
Heartbeat CPU 0 instructions: 170000000 cycles: 70269944 heartbeat IPC: 1.878 cumulative IPC: 2.077 (Simulation time: 00 hr 12 min 37 sec)
Heartbeat CPU 0 instructions: 180000001 cycles: 75985244 heartbeat IPC: 1.75 cumulative IPC: 2.048 (Simulation time: 00 hr 13 min 31 sec)
Heartbeat CPU 0 instructions: 190000002 cycles: 80446549 heartbeat IPC: 2.241 cumulative IPC: 2.06 (Simulation time: 00 hr 14 min 20 sec)
Heartbeat CPU 0 instructions: 200000002 cycles: 85337187 heartbeat IPC: 2.045 cumulative IPC: 2.059 (Simulation time: 00 hr 15 min 07 sec)
Heartbeat CPU 0 instructions: 210000000 cycles: 90334775 heartbeat IPC: 2.001 cumulative IPC: 2.056 (Simulation time: 00 hr 15 min 54 sec)
Heartbeat CPU 0 instructions: 220000001 cycles: 95256096 heartbeat IPC: 2.032 cumulative IPC: 2.054 (Simulation time: 00 hr 16 min 40 sec)
Heartbeat CPU 0 instructions: 230000002 cycles: 100493367 heartbeat IPC: 1.909 cumulative IPC: 2.046 (Simulation time: 00 hr 17 min 27 sec)
Heartbeat CPU 0 instructions: 240000001 cycles: 105450230 heartbeat IPC: 2.017 cumulative IPC: 2.044 (Simulation time: 00 hr 18 min 14 sec)
Heartbeat CPU 0 instructions: 250000003 cycles: 110619443 heartbeat IPC: 1.935 cumulative IPC: 2.038 (Simulation time: 00 hr 19 min 05 sec)
Heartbeat CPU 0 instructions: 260000001 cycles: 115478521 heartbeat IPC: 2.058 cumulative IPC: 2.039 (Simulation time: 00 hr 19 min 55 sec)
Heartbeat CPU 0 instructions: 270000000 cycles: 122730418 heartbeat IPC: 1.379 cumulative IPC: 1.996 (Simulation time: 00 hr 21 min 00 sec)
Heartbeat CPU 0 instructions: 280000000 cycles: 132785131 heartbeat IPC: 0.9946 cumulative IPC: 1.912 (Simulation time: 00 hr 22 min 22 sec)
Heartbeat CPU 0 instructions: 290000001 cycles: 141441622 heartbeat IPC: 1.155 cumulative IPC: 1.861 (Simulation time: 00 hr 23 min 38 sec)
Heartbeat CPU 0 instructions: 300000003 cycles: 148693412 heartbeat IPC: 1.379 cumulative IPC: 1.836 (Simulation time: 00 hr 24 min 47 sec)
Heartbeat CPU 0 instructions: 310000004 cycles: 158613162 heartbeat IPC: 1.008 cumulative IPC: 1.779 (Simulation time: 00 hr 26 min 12 sec)
Heartbeat CPU 0 instructions: 320000004 cycles: 164141527 heartbeat IPC: 1.809 cumulative IPC: 1.781 (Simulation time: 00 hr 27 min 08 sec)
Heartbeat CPU 0 instructions: 330000000 cycles: 169345520 heartbeat IPC: 1.922 cumulative IPC: 1.785 (Simulation time: 00 hr 28 min 01 sec)
Heartbeat CPU 0 instructions: 340000001 cycles: 174117572 heartbeat IPC: 2.096 cumulative IPC: 1.794 (Simulation time: 00 hr 28 min 51 sec)
Heartbeat CPU 0 instructions: 350000000 cycles: 179093452 heartbeat IPC: 2.01 cumulative IPC: 1.801 (Simulation time: 00 hr 29 min 42 sec)
Heartbeat CPU 0 instructions: 360000003 cycles: 183873233 heartbeat IPC: 2.092 cumulative IPC: 1.809 (Simulation time: 00 hr 30 min 33 sec)
Heartbeat CPU 0 instructions: 370000001 cycles: 188639281 heartbeat IPC: 2.098 cumulative IPC: 1.817 (Simulation time: 00 hr 31 min 22 sec)
Heartbeat CPU 0 instructions: 380000004 cycles: 193676346 heartbeat IPC: 1.985 cumulative IPC: 1.821 (Simulation time: 00 hr 32 min 15 sec)
Heartbeat CPU 0 instructions: 390000002 cycles: 198650885 heartbeat IPC: 2.01 cumulative IPC: 1.826 (Simulation time: 00 hr 33 min 06 sec)
Heartbeat CPU 0 instructions: 400000000 cycles: 203702668 heartbeat IPC: 1.979 cumulative IPC: 1.831 (Simulation time: 00 hr 33 min 58 sec)
Heartbeat CPU 0 instructions: 410000000 cycles: 209840322 heartbeat IPC: 1.629 cumulative IPC: 1.824 (Simulation time: 00 hr 34 min 57 sec)
Heartbeat CPU 0 instructions: 420000001 cycles: 217339840 heartbeat IPC: 1.333 cumulative IPC: 1.806 (Simulation time: 00 hr 36 min 06 sec)
Heartbeat CPU 0 instructions: 430000000 cycles: 223869017 heartbeat IPC: 1.532 cumulative IPC: 1.798 (Simulation time: 00 hr 37 min 09 sec)
Heartbeat CPU 0 instructions: 440000002 cycles: 230286570 heartbeat IPC: 1.558 cumulative IPC: 1.791 (Simulation time: 00 hr 38 min 07 sec)
Heartbeat CPU 0 instructions: 450000001 cycles: 236572235 heartbeat IPC: 1.591 cumulative IPC: 1.785 (Simulation time: 00 hr 39 min 04 sec)
Heartbeat CPU 0 instructions: 460000002 cycles: 244371341 heartbeat IPC: 1.282 cumulative IPC: 1.768 (Simulation time: 00 hr 40 min 11 sec)
Heartbeat CPU 0 instructions: 470000000 cycles: 251727112 heartbeat IPC: 1.359 cumulative IPC: 1.756 (Simulation time: 00 hr 41 min 15 sec)
Heartbeat CPU 0 instructions: 480000000 cycles: 256753062 heartbeat IPC: 1.99 cumulative IPC: 1.76 (Simulation time: 00 hr 42 min 04 sec)
Heartbeat CPU 0 instructions: 490000001 cycles: 261797525 heartbeat IPC: 1.982 cumulative IPC: 1.765 (Simulation time: 00 hr 42 min 53 sec)
Heartbeat CPU 0 instructions: 500000002 cycles: 266829347 heartbeat IPC: 1.987 cumulative IPC: 1.769 (Simulation time: 00 hr 43 min 41 sec)
Heartbeat CPU 0 instructions: 510000000 cycles: 271949037 heartbeat IPC: 1.953 cumulative IPC: 1.773 (Simulation time: 00 hr 44 min 31 sec)
Heartbeat CPU 0 instructions: 520000000 cycles: 277130751 heartbeat IPC: 1.93 cumulative IPC: 1.776 (Simulation time: 00 hr 45 min 20 sec)
Heartbeat CPU 0 instructions: 530000001 cycles: 284585210 heartbeat IPC: 1.341 cumulative IPC: 1.764 (Simulation time: 00 hr 46 min 24 sec)
Heartbeat CPU 0 instructions: 540000000 cycles: 291806991 heartbeat IPC: 1.385 cumulative IPC: 1.754 (Simulation time: 00 hr 47 min 32 sec)
Heartbeat CPU 0 instructions: 550000002 cycles: 300106031 heartbeat IPC: 1.205 cumulative IPC: 1.738 (Simulation time: 00 hr 48 min 47 sec)
Heartbeat CPU 0 instructions: 560000004 cycles: 304570062 heartbeat IPC: 2.24 cumulative IPC: 1.746 (Simulation time: 00 hr 49 min 36 sec)
Heartbeat CPU 0 instructions: 570000001 cycles: 308938984 heartbeat IPC: 2.289 cumulative IPC: 1.754 (Simulation time: 00 hr 50 min 27 sec)
Heartbeat CPU 0 instructions: 580000003 cycles: 313099471 heartbeat IPC: 2.404 cumulative IPC: 1.763 (Simulation time: 00 hr 51 min 16 sec)
Heartbeat CPU 0 instructions: 590000001 cycles: 317934597 heartbeat IPC: 2.068 cumulative IPC: 1.768 (Simulation time: 00 hr 52 min 07 sec)
Heartbeat CPU 0 instructions: 600000003 cycles: 322537080 heartbeat IPC: 2.173 cumulative IPC: 1.774 (Simulation time: 00 hr 52 min 58 sec)
Heartbeat CPU 0 instructions: 610000001 cycles: 327352427 heartbeat IPC: 2.077 cumulative IPC: 1.779 (Simulation time: 00 hr 53 min 48 sec)
Heartbeat CPU 0 instructions: 620000000 cycles: 332379838 heartbeat IPC: 1.989 cumulative IPC: 1.782 (Simulation time: 00 hr 54 min 40 sec)
Heartbeat CPU 0 instructions: 630000002 cycles: 336593768 heartbeat IPC: 2.373 cumulative IPC: 1.79 (Simulation time: 00 hr 55 min 29 sec)
Heartbeat CPU 0 instructions: 640000004 cycles: 341874671 heartbeat IPC: 1.894 cumulative IPC: 1.791 (Simulation time: 00 hr 56 min 22 sec)
Heartbeat CPU 0 instructions: 650000001 cycles: 346620569 heartbeat IPC: 2.107 cumulative IPC: 1.796 (Simulation time: 00 hr 57 min 11 sec)
Simulation finished CPU 0 instructions: 600000001 cycles: 334120508 cumulative IPC: 1.796 (Simulation time: 00 hr 57 min 11 sec)
Simulation complete CPU 0 instructions: 600000001 cycles: 334120508 cumulative IPC: 1.796 (Simulation time: 00 hr 57 min 11 sec)

ChampSim completed all CPUs

=== Simulation ===
CPU 0 runs traces/400.perlbench-50B.champsimtrace.xz
Region of Interest Statistics

CPU 0 cumulative IPC: 1.796 instructions: 600000001 cycles: 334120508
CPU 0 Branch Prediction Accuracy: 93.83% MPKI: 12.71 Average ROB Occupancy at Mispredict: 29.13
Branch type MPKI
BRANCH_DIRECT_JUMP: 0.0176
BRANCH_INDIRECT: 0.38
BRANCH_CONDITIONAL: 11.9
BRANCH_DIRECT_CALL: 0.0067
BRANCH_INDIRECT_CALL: 0.431
BRANCH_RETURN: 0.0161

LLC TOTAL        ACCESS:    1371285 HIT:    1152279 MISS:     219006
LLC LOAD         ACCESS:     586405 HIT:     489389 MISS:      97016
LLC RFO          ACCESS:      48052 HIT:      39481 MISS:       8571
LLC PREFETCH     ACCESS:     586405 HIT:     482609 MISS:     103796
LLC WRITE        ACCESS:     128321 HIT:     128313 MISS:          8
LLC TRANSLATION  ACCESS:      22102 HIT:      12487 MISS:       9615
LLC PREFETCH REQUESTED:     586405 ISSUED:     586405 USEFUL:      33413 USELESS:      21317
LLC AVERAGE MISS LATENCY: 454.4 cycles
cpu0_DTLB TOTAL        ACCESS:  156799227 HIT:  155498374 MISS:    1300853
cpu0_DTLB LOAD         ACCESS:  156799227 HIT:  155498374 MISS:    1300853
cpu0_DTLB RFO          ACCESS:          0 HIT:          0 MISS:          0
cpu0_DTLB PREFETCH     ACCESS:          0 HIT:          0 MISS:          0
cpu0_DTLB WRITE        ACCESS:          0 HIT:          0 MISS:          0
cpu0_DTLB TRANSLATION  ACCESS:          0 HIT:          0 MISS:          0
cpu0_DTLB PREFETCH REQUESTED:          0 ISSUED:          0 USEFUL:          0 USELESS:          0
cpu0_DTLB AVERAGE MISS LATENCY: 10.35 cycles
cpu0_ITLB TOTAL        ACCESS:    8932231 HIT:    8733627 MISS:     198604
cpu0_ITLB LOAD         ACCESS:    8932231 HIT:    8733627 MISS:     198604
cpu0_ITLB RFO          ACCESS:          0 HIT:          0 MISS:          0
cpu0_ITLB PREFETCH     ACCESS:          0 HIT:          0 MISS:          0
cpu0_ITLB WRITE        ACCESS:          0 HIT:          0 MISS:          0
cpu0_ITLB TRANSLATION  ACCESS:          0 HIT:          0 MISS:          0
cpu0_ITLB PREFETCH REQUESTED:          0 ISSUED:          0 USEFUL:          0 USELESS:          0
cpu0_ITLB AVERAGE MISS LATENCY: 2.694 cycles
cpu0_L1D TOTAL        ACCESS:  203663255 HIT:  200026186 MISS:    3637069
cpu0_L1D LOAD         ACCESS:  117985665 HIT:  114988846 MISS:    2996819
cpu0_L1D RFO          ACCESS:          0 HIT:          0 MISS:          0
cpu0_L1D PREFETCH     ACCESS:          0 HIT:          0 MISS:          0
cpu0_L1D WRITE        ACCESS:   85649048 HIT:   85035930 MISS:     613118
cpu0_L1D TRANSLATION  ACCESS:      28542 HIT:       1410 MISS:      27132
cpu0_L1D PREFETCH REQUESTED:          0 ISSUED:          0 USEFUL:          0 USELESS:          0
cpu0_L1D AVERAGE MISS LATENCY: 22.64 cycles
cpu0_L1I TOTAL        ACCESS:   10371049 HIT:    8573908 MISS:    1797141
cpu0_L1I LOAD         ACCESS:   10371049 HIT:    8573908 MISS:    1797141
cpu0_L1I RFO          ACCESS:          0 HIT:          0 MISS:          0
cpu0_L1I PREFETCH     ACCESS:          0 HIT:          0 MISS:          0
cpu0_L1I WRITE        ACCESS:          0 HIT:          0 MISS:          0
cpu0_L1I TRANSLATION  ACCESS:          0 HIT:          0 MISS:          0
cpu0_L1I PREFETCH REQUESTED:          0 ISSUED:          0 USEFUL:          0 USELESS:          0
cpu0_L1I AVERAGE MISS LATENCY: 8.913 cycles
cpu0_L2C TOTAL        ACCESS:    3837352 HIT:    3177410 MISS:     659942
cpu0_L2C LOAD         ACCESS:    3106483 HIT:    2520078 MISS:     586405
cpu0_L2C RFO          ACCESS:     191789 HIT:     143737 MISS:      48052
cpu0_L2C PREFETCH     ACCESS:          0 HIT:          0 MISS:          0
cpu0_L2C WRITE        ACCESS:     512026 HIT:     508643 MISS:       3383
cpu0_L2C TRANSLATION  ACCESS:      27054 HIT:       4952 MISS:      22102
cpu0_L2C PREFETCH REQUESTED:          0 ISSUED:          0 USEFUL:          0 USELESS:          0
cpu0_L2C AVERAGE MISS LATENCY: 106.9 cycles
cpu0_STLB TOTAL        ACCESS:    1009173 HIT:     982481 MISS:      26692
cpu0_STLB LOAD         ACCESS:    1009173 HIT:     982481 MISS:      26692
cpu0_STLB RFO          ACCESS:          0 HIT:          0 MISS:          0
cpu0_STLB PREFETCH     ACCESS:          0 HIT:          0 MISS:          0
cpu0_STLB WRITE        ACCESS:          0 HIT:          0 MISS:          0
cpu0_STLB TRANSLATION  ACCESS:          0 HIT:          0 MISS:          0
cpu0_STLB PREFETCH REQUESTED:          0 ISSUED:          0 USEFUL:          0 USELESS:          0
cpu0_STLB AVERAGE MISS LATENCY: 277.3 cycles

DRAM Statistics

Channel 0 RQ ROW_BUFFER_HIT:      54884
  ROW_BUFFER_MISS:     129446
 AVG DBUS CONGESTED CYCLE: 3.791
WQ ROW_BUFFER_HIT: Channel 0 
  ROW_BUFFER_MISS:       1120
  FULL:       1118
