WARNING: physical memory size is smaller than virtual memory size.

*** ChampSim Multicore Out-of-Order Simulator ***
Warmup Instructions: 50000000
Simulation Instructions: 600000000
Number of CPUs: 1
Page size: 4096

Off-chip DRAM Size: 4 GiB Channels: 1 Width: 64-bit Data Race: 3200 MT/s
Heartbeat CPU 0 instructions: 10000001 cycles: 2500318 heartbeat IPC: 3.999 cumulative IPC: 3.999 (Simulation time: 00 hr 00 min 38 sec)
Heartbeat CPU 0 instructions: 20000002 cycles: 5037114 heartbeat IPC: 3.942 cumulative IPC: 3.971 (Simulation time: 00 hr 01 min 15 sec)
Heartbeat CPU 0 instructions: 30000002 cycles: 7537114 heartbeat IPC: 4 cumulative IPC: 3.98 (Simulation time: 00 hr 01 min 48 sec)
Heartbeat CPU 0 instructions: 40000002 cycles: 10037114 heartbeat IPC: 4 cumulative IPC: 3.985 (Simulation time: 00 hr 02 min 22 sec)
Heartbeat CPU 0 instructions: 50000002 cycles: 12537114 heartbeat IPC: 4 cumulative IPC: 3.988 (Simulation time: 00 hr 02 min 56 sec)
Warmup finished CPU 0 instructions: 50000002 cycles: 12537115 cumulative IPC: 3.988 (Simulation time: 00 hr 02 min 56 sec)
Warmup complete CPU 0 instructions: 50000002 cycles: 12537115 cumulative IPC: 3.988 (Simulation time: 00 hr 02 min 56 sec)
Heartbeat CPU 0 instructions: 60000000 cycles: 17680097 heartbeat IPC: 1.944 cumulative IPC: 1.944 (Simulation time: 00 hr 03 min 45 sec)
Heartbeat CPU 0 instructions: 70000002 cycles: 22548585 heartbeat IPC: 2.054 cumulative IPC: 1.998 (Simulation time: 00 hr 04 min 33 sec)
Heartbeat CPU 0 instructions: 80000001 cycles: 27882071 heartbeat IPC: 1.875 cumulative IPC: 1.955 (Simulation time: 00 hr 05 min 22 sec)
Heartbeat CPU 0 instructions: 90000001 cycles: 32728245 heartbeat IPC: 2.063 cumulative IPC: 1.981 (Simulation time: 00 hr 06 min 09 sec)
Heartbeat CPU 0 instructions: 100000000 cycles: 37811736 heartbeat IPC: 1.967 cumulative IPC: 1.978 (Simulation time: 00 hr 06 min 56 sec)
Heartbeat CPU 0 instructions: 110000000 cycles: 42673390 heartbeat IPC: 2.057 cumulative IPC: 1.991 (Simulation time: 00 hr 07 min 42 sec)
Heartbeat CPU 0 instructions: 120000001 cycles: 47844904 heartbeat IPC: 1.934 cumulative IPC: 1.983 (Simulation time: 00 hr 08 min 30 sec)
Heartbeat CPU 0 instructions: 130000001 cycles: 52970499 heartbeat IPC: 1.951 cumulative IPC: 1.979 (Simulation time: 00 hr 09 min 18 sec)
Heartbeat CPU 0 instructions: 140000001 cycles: 58246826 heartbeat IPC: 1.895 cumulative IPC: 1.969 (Simulation time: 00 hr 10 min 07 sec)
Heartbeat CPU 0 instructions: 150000001 cycles: 63531811 heartbeat IPC: 1.892 cumulative IPC: 1.961 (Simulation time: 00 hr 10 min 55 sec)
Heartbeat CPU 0 instructions: 160000004 cycles: 68706971 heartbeat IPC: 1.932 cumulative IPC: 1.958 (Simulation time: 00 hr 11 min 45 sec)
Heartbeat CPU 0 instructions: 170000000 cycles: 76218252 heartbeat IPC: 1.331 cumulative IPC: 1.884 (Simulation time: 00 hr 12 min 52 sec)
Heartbeat CPU 0 instructions: 180000004 cycles: 82903585 heartbeat IPC: 1.496 cumulative IPC: 1.847 (Simulation time: 00 hr 13 min 56 sec)
Heartbeat CPU 0 instructions: 190000001 cycles: 89609638 heartbeat IPC: 1.491 cumulative IPC: 1.816 (Simulation time: 00 hr 15 min 00 sec)
Heartbeat CPU 0 instructions: 200000003 cycles: 94128604 heartbeat IPC: 2.213 cumulative IPC: 1.838 (Simulation time: 00 hr 15 min 48 sec)
Heartbeat CPU 0 instructions: 210000001 cycles: 98851145 heartbeat IPC: 2.118 cumulative IPC: 1.854 (Simulation time: 00 hr 16 min 37 sec)
Heartbeat CPU 0 instructions: 220000000 cycles: 103564361 heartbeat IPC: 2.122 cumulative IPC: 1.868 (Simulation time: 00 hr 17 min 27 sec)
Heartbeat CPU 0 instructions: 230000002 cycles: 108521216 heartbeat IPC: 2.017 cumulative IPC: 1.875 (Simulation time: 00 hr 18 min 17 sec)
Heartbeat CPU 0 instructions: 240000000 cycles: 113152076 heartbeat IPC: 2.159 cumulative IPC: 1.888 (Simulation time: 00 hr 19 min 04 sec)
Heartbeat CPU 0 instructions: 250000000 cycles: 118041179 heartbeat IPC: 2.045 cumulative IPC: 1.896 (Simulation time: 00 hr 19 min 52 sec)
Heartbeat CPU 0 instructions: 260000000 cycles: 122800106 heartbeat IPC: 2.101 cumulative IPC: 1.905 (Simulation time: 00 hr 20 min 38 sec)
Heartbeat CPU 0 instructions: 270000002 cycles: 127501792 heartbeat IPC: 2.127 cumulative IPC: 1.914 (Simulation time: 00 hr 21 min 25 sec)
Heartbeat CPU 0 instructions: 280000002 cycles: 132205922 heartbeat IPC: 2.126 cumulative IPC: 1.922 (Simulation time: 00 hr 22 min 11 sec)
Heartbeat CPU 0 instructions: 290000001 cycles: 137403764 heartbeat IPC: 1.924 cumulative IPC: 1.922 (Simulation time: 00 hr 22 min 59 sec)
Heartbeat CPU 0 instructions: 300000003 cycles: 142205104 heartbeat IPC: 2.083 cumulative IPC: 1.928 (Simulation time: 00 hr 23 min 46 sec)
Heartbeat CPU 0 instructions: 310000001 cycles: 147202800 heartbeat IPC: 2.001 cumulative IPC: 1.931 (Simulation time: 00 hr 24 min 33 sec)
Heartbeat CPU 0 instructions: 320000003 cycles: 152192722 heartbeat IPC: 2.004 cumulative IPC: 1.933 (Simulation time: 00 hr 25 min 20 sec)
Heartbeat CPU 0 instructions: 330000003 cycles: 157160652 heartbeat IPC: 2.013 cumulative IPC: 1.936 (Simulation time: 00 hr 26 min 09 sec)
Heartbeat CPU 0 instructions: 340000000 cycles: 163790985 heartbeat IPC: 1.508 cumulative IPC: 1.917 (Simulation time: 00 hr 27 min 11 sec)
Heartbeat CPU 0 instructions: 350000000 cycles: 170677240 heartbeat IPC: 1.452 cumulative IPC: 1.897 (Simulation time: 00 hr 28 min 16 sec)
Heartbeat CPU 0 instructions: 360000004 cycles: 177515056 heartbeat IPC: 1.462 cumulative IPC: 1.879 (Simulation time: 00 hr 29 min 20 sec)
Heartbeat CPU 0 instructions: 370000000 cycles: 181739207 heartbeat IPC: 2.367 cumulative IPC: 1.891 (Simulation time: 00 hr 30 min 07 sec)
Heartbeat CPU 0 instructions: 380000001 cycles: 186480497 heartbeat IPC: 2.109 cumulative IPC: 1.897 (Simulation time: 00 hr 30 min 57 sec)
Heartbeat CPU 0 instructions: 390000002 cycles: 191178385 heartbeat IPC: 2.129 cumulative IPC: 1.903 (Simulation time: 00 hr 31 min 47 sec)
Heartbeat CPU 0 instructions: 400000004 cycles: 196029464 heartbeat IPC: 2.061 cumulative IPC: 1.907 (Simulation time: 00 hr 32 min 37 sec)
Heartbeat CPU 0 instructions: 410000000 cycles: 200553318 heartbeat IPC: 2.211 cumulative IPC: 1.915 (Simulation time: 00 hr 33 min 26 sec)
Heartbeat CPU 0 instructions: 420000000 cycles: 205393936 heartbeat IPC: 2.066 cumulative IPC: 1.919 (Simulation time: 00 hr 34 min 16 sec)
Heartbeat CPU 0 instructions: 430000001 cycles: 209713874 heartbeat IPC: 2.315 cumulative IPC: 1.927 (Simulation time: 00 hr 35 min 03 sec)
Heartbeat CPU 0 instructions: 440000000 cycles: 214849220 heartbeat IPC: 1.947 cumulative IPC: 1.928 (Simulation time: 00 hr 35 min 54 sec)
Heartbeat CPU 0 instructions: 450000002 cycles: 219317134 heartbeat IPC: 2.238 cumulative IPC: 1.934 (Simulation time: 00 hr 36 min 43 sec)
Heartbeat CPU 0 instructions: 460000000 cycles: 223932435 heartbeat IPC: 2.167 cumulative IPC: 1.939 (Simulation time: 00 hr 37 min 33 sec)
Heartbeat CPU 0 instructions: 470000000 cycles: 228756161 heartbeat IPC: 2.073 cumulative IPC: 1.942 (Simulation time: 00 hr 38 min 23 sec)
Heartbeat CPU 0 instructions: 480000003 cycles: 233346508 heartbeat IPC: 2.178 cumulative IPC: 1.947 (Simulation time: 00 hr 39 min 12 sec)
Heartbeat CPU 0 instructions: 490000000 cycles: 237840220 heartbeat IPC: 2.225 cumulative IPC: 1.953 (Simulation time: 00 hr 40 min 01 sec)
Heartbeat CPU 0 instructions: 500000000 cycles: 242742311 heartbeat IPC: 2.04 cumulative IPC: 1.955 (Simulation time: 00 hr 40 min 50 sec)
Heartbeat CPU 0 instructions: 510000003 cycles: 248167507 heartbeat IPC: 1.843 cumulative IPC: 1.952 (Simulation time: 00 hr 41 min 39 sec)
Heartbeat CPU 0 instructions: 520000001 cycles: 252641498 heartbeat IPC: 2.235 cumulative IPC: 1.957 (Simulation time: 00 hr 42 min 25 sec)
Heartbeat CPU 0 instructions: 530000002 cycles: 257600292 heartbeat IPC: 2.017 cumulative IPC: 1.959 (Simulation time: 00 hr 43 min 13 sec)
Heartbeat CPU 0 instructions: 540000000 cycles: 262539181 heartbeat IPC: 2.025 cumulative IPC: 1.96 (Simulation time: 00 hr 44 min 03 sec)
Heartbeat CPU 0 instructions: 550000001 cycles: 267209043 heartbeat IPC: 2.141 cumulative IPC: 1.963 (Simulation time: 00 hr 44 min 53 sec)
Heartbeat CPU 0 instructions: 560000000 cycles: 272151004 heartbeat IPC: 2.023 cumulative IPC: 1.964 (Simulation time: 00 hr 45 min 45 sec)
Heartbeat CPU 0 instructions: 570000004 cycles: 277635048 heartbeat IPC: 1.823 cumulative IPC: 1.962 (Simulation time: 00 hr 46 min 38 sec)
Heartbeat CPU 0 instructions: 580000003 cycles: 284909678 heartbeat IPC: 1.375 cumulative IPC: 1.946 (Simulation time: 00 hr 47 min 40 sec)
Heartbeat CPU 0 instructions: 590000002 cycles: 292647754 heartbeat IPC: 1.292 cumulative IPC: 1.928 (Simulation time: 00 hr 48 min 55 sec)
Heartbeat CPU 0 instructions: 600000000 cycles: 297005414 heartbeat IPC: 2.295 cumulative IPC: 1.933 (Simulation time: 00 hr 49 min 41 sec)
Heartbeat CPU 0 instructions: 610000002 cycles: 301330645 heartbeat IPC: 2.312 cumulative IPC: 1.939 (Simulation time: 00 hr 50 min 29 sec)
Heartbeat CPU 0 instructions: 620000000 cycles: 306042563 heartbeat IPC: 2.122 cumulative IPC: 1.942 (Simulation time: 00 hr 51 min 22 sec)
Heartbeat CPU 0 instructions: 630000002 cycles: 310980335 heartbeat IPC: 2.025 cumulative IPC: 1.943 (Simulation time: 00 hr 52 min 10 sec)
Heartbeat CPU 0 instructions: 640000001 cycles: 315769092 heartbeat IPC: 2.088 cumulative IPC: 1.946 (Simulation time: 00 hr 53 min 04 sec)
Heartbeat CPU 0 instructions: 650000000 cycles: 320265817 heartbeat IPC: 2.224 cumulative IPC: 1.95 (Simulation time: 00 hr 53 min 55 sec)
Simulation finished CPU 0 instructions: 600000001 cycles: 307728704 cumulative IPC: 1.95 (Simulation time: 00 hr 53 min 55 sec)
Simulation complete CPU 0 instructions: 600000001 cycles: 307728704 cumulative IPC: 1.95 (Simulation time: 00 hr 53 min 55 sec)

ChampSim completed all CPUs

=== Simulation ===
CPU 0 runs traces/400.perlbench-41B.champsimtrace.xz
Region of Interest Statistics

CPU 0 cumulative IPC: 1.95 instructions: 600000001 cycles: 307728704
CPU 0 Branch Prediction Accuracy: 93.95% MPKI: 12.5 Average ROB Occupancy at Mispredict: 29.29
Branch type MPKI
BRANCH_DIRECT_JUMP: 0.0123
BRANCH_INDIRECT: 0.323
BRANCH_CONDITIONAL: 12
BRANCH_DIRECT_CALL: 0.0043
BRANCH_INDIRECT_CALL: 0.2
BRANCH_RETURN: 0.00828

LLC TOTAL        ACCESS:     939863 HIT:     839795 MISS:     100068
LLC LOAD         ACCESS:     401298 HIT:     358230 MISS:      43068
LLC RFO          ACCESS:      32797 HIT:      27229 MISS:       5568
LLC PREFETCH     ACCESS:     401298 HIT:     357042 MISS:      44256
LLC WRITE        ACCESS:      85378 HIT:      85331 MISS:         47
LLC TRANSLATION  ACCESS:      19092 HIT:      11963 MISS:       7129
LLC PREFETCH REQUESTED:     401298 ISSUED:     401298 USEFUL:      11463 USELESS:      15825
LLC AVERAGE MISS LATENCY: 482 cycles
cpu0_DTLB TOTAL        ACCESS:  153693787 HIT:  153017486 MISS:     676301
cpu0_DTLB LOAD         ACCESS:  153693787 HIT:  153017486 MISS:     676301
cpu0_DTLB RFO          ACCESS:          0 HIT:          0 MISS:          0
cpu0_DTLB PREFETCH     ACCESS:          0 HIT:          0 MISS:          0
cpu0_DTLB WRITE        ACCESS:          0 HIT:          0 MISS:          0
cpu0_DTLB TRANSLATION  ACCESS:          0 HIT:          0 MISS:          0
cpu0_DTLB PREFETCH REQUESTED:          0 ISSUED:          0 USEFUL:          0 USELESS:          0
cpu0_DTLB AVERAGE MISS LATENCY: 11.45 cycles
cpu0_ITLB TOTAL        ACCESS:    4839262 HIT:    4781351 MISS:      57911
cpu0_ITLB LOAD         ACCESS:    4839262 HIT:    4781351 MISS:      57911
cpu0_ITLB RFO          ACCESS:          0 HIT:          0 MISS:          0
cpu0_ITLB PREFETCH     ACCESS:          0 HIT:          0 MISS:          0
cpu0_ITLB WRITE        ACCESS:          0 HIT:          0 MISS:          0
cpu0_ITLB TRANSLATION  ACCESS:          0 HIT:          0 MISS:          0
cpu0_ITLB PREFETCH REQUESTED:          0 ISSUED:          0 USEFUL:          0 USELESS:          0
cpu0_ITLB AVERAGE MISS LATENCY: 5.072 cycles
cpu0_L1D TOTAL        ACCESS:  200325507 HIT:  198640271 MISS:    1685236
cpu0_L1D LOAD         ACCESS:  117082433 HIT:  115769156 MISS:    1313277
cpu0_L1D RFO          ACCESS:          0 HIT:          0 MISS:          0
cpu0_L1D PREFETCH     ACCESS:          0 HIT:          0 MISS:          0
cpu0_L1D WRITE        ACCESS:   83218612 HIT:   82870076 MISS:     348536
cpu0_L1D TRANSLATION  ACCESS:      24462 HIT:       1039 MISS:      23423
cpu0_L1D PREFETCH REQUESTED:          0 ISSUED:          0 USEFUL:          0 USELESS:          0
cpu0_L1D AVERAGE MISS LATENCY: 25.6 cycles
cpu0_L1I TOTAL        ACCESS:    5581432 HIT:    4819933 MISS:     761499
cpu0_L1I LOAD         ACCESS:    5581432 HIT:    4819933 MISS:     761499
cpu0_L1I RFO          ACCESS:          0 HIT:          0 MISS:          0
cpu0_L1I PREFETCH     ACCESS:          0 HIT:          0 MISS:          0
cpu0_L1I WRITE        ACCESS:          0 HIT:          0 MISS:          0
cpu0_L1I TRANSLATION  ACCESS:          0 HIT:          0 MISS:          0
cpu0_L1I PREFETCH REQUESTED:          0 ISSUED:          0 USEFUL:          0 USELESS:          0
cpu0_L1I AVERAGE MISS LATENCY: 8.777 cycles
cpu0_L2C TOTAL        ACCESS:    1668001 HIT:    1212974 MISS:     455027
cpu0_L2C LOAD         ACCESS:    1317197 HIT:     915899 MISS:     401298
cpu0_L2C RFO          ACCESS:      88571 HIT:      55774 MISS:      32797
cpu0_L2C PREFETCH     ACCESS:          0 HIT:          0 MISS:          0
cpu0_L2C WRITE        ACCESS:     238890 HIT:     237050 MISS:       1840
cpu0_L2C TRANSLATION  ACCESS:      23343 HIT:       4251 MISS:      19092
cpu0_L2C PREFETCH REQUESTED:          0 ISSUED:          0 USEFUL:          0 USELESS:          0
cpu0_L2C AVERAGE MISS LATENCY: 83.8 cycles
cpu0_STLB TOTAL        ACCESS:     505091 HIT:     482302 MISS:      22789
cpu0_STLB LOAD         ACCESS:     505091 HIT:     482302 MISS:      22789
cpu0_STLB RFO          ACCESS:          0 HIT:          0 MISS:          0
cpu0_STLB PREFETCH     ACCESS:          0 HIT:          0 MISS:          0
cpu0_STLB WRITE        ACCESS:          0 HIT:          0 MISS:          0
cpu0_STLB TRANSLATION  ACCESS:          0 HIT:          0 MISS:          0
cpu0_STLB PREFETCH REQUESTED:          0 ISSUED:          0 USEFUL:          0 USELESS:          0
cpu0_STLB AVERAGE MISS LATENCY: 207.7 cycles

DRAM Statistics

Channel 0 RQ ROW_BUFFER_HIT:      19630
  ROW_BUFFER_MISS:      67064
 AVG DBUS CONGESTED CYCLE: 3.794
WQ ROW_BUFFER_HIT: Channel 0 
  ROW_BUFFER_MISS:       2262
  FULL:       3155
