WARNING: physical memory size is smaller than virtual memory size.

*** ChampSim Multicore Out-of-Order Simulator ***
Warmup Instructions: 50000000
Simulation Instructions: 600000000
Number of CPUs: 1
Page size: 4096

CPU 0 Tage branch predictor
Off-chip DRAM Size: 4 GiB Channels: 1 Width: 64-bit Data Race: 3200 MT/s
Heartbeat CPU 0 instructions: 10000001 cycles: 2500319 heartbeat IPC: 3.999 cumulative IPC: 3.999 (Simulation time: 00 hr 02 min 57 sec)
Heartbeat CPU 0 instructions: 20000002 cycles: 5037107 heartbeat IPC: 3.942 cumulative IPC: 3.971 (Simulation time: 00 hr 07 min 17 sec)
Heartbeat CPU 0 instructions: 30000002 cycles: 7537107 heartbeat IPC: 4 cumulative IPC: 3.98 (Simulation time: 00 hr 11 min 20 sec)
Heartbeat CPU 0 instructions: 40000002 cycles: 10037107 heartbeat IPC: 4 cumulative IPC: 3.985 (Simulation time: 00 hr 15 min 24 sec)
Heartbeat CPU 0 instructions: 50000002 cycles: 12537107 heartbeat IPC: 4 cumulative IPC: 3.988 (Simulation time: 00 hr 19 min 28 sec)
Warmup finished CPU 0 instructions: 50000002 cycles: 12537108 cumulative IPC: 3.988 (Simulation time: 00 hr 19 min 28 sec)
Warmup complete CPU 0 instructions: 50000002 cycles: 12537108 cumulative IPC: 3.988 (Simulation time: 00 hr 19 min 28 sec)
Heartbeat CPU 0 instructions: 60000001 cycles: 15618408 heartbeat IPC: 3.245 cumulative IPC: 3.245 (Simulation time: 00 hr 24 min 22 sec)
Heartbeat CPU 0 instructions: 70000004 cycles: 18759348 heartbeat IPC: 3.184 cumulative IPC: 3.214 (Simulation time: 00 hr 29 min 18 sec)
Heartbeat CPU 0 instructions: 80000001 cycles: 21884395 heartbeat IPC: 3.2 cumulative IPC: 3.209 (Simulation time: 00 hr 34 min 16 sec)
Heartbeat CPU 0 instructions: 90000001 cycles: 24882806 heartbeat IPC: 3.335 cumulative IPC: 3.24 (Simulation time: 00 hr 39 min 08 sec)
Heartbeat CPU 0 instructions: 100000000 cycles: 27848173 heartbeat IPC: 3.372 cumulative IPC: 3.266 (Simulation time: 00 hr 43 min 57 sec)
Heartbeat CPU 0 instructions: 110000000 cycles: 30828860 heartbeat IPC: 3.355 cumulative IPC: 3.28 (Simulation time: 00 hr 48 min 47 sec)
Heartbeat CPU 0 instructions: 120000001 cycles: 33852711 heartbeat IPC: 3.307 cumulative IPC: 3.284 (Simulation time: 00 hr 53 min 40 sec)
Heartbeat CPU 0 instructions: 130000001 cycles: 36760719 heartbeat IPC: 3.439 cumulative IPC: 3.303 (Simulation time: 00 hr 58 min 32 sec)
Heartbeat CPU 0 instructions: 140000001 cycles: 39870158 heartbeat IPC: 3.216 cumulative IPC: 3.293 (Simulation time: 01 hr 03 min 28 sec)
Heartbeat CPU 0 instructions: 150000001 cycles: 42926109 heartbeat IPC: 3.272 cumulative IPC: 3.291 (Simulation time: 01 hr 08 min 21 sec)
Heartbeat CPU 0 instructions: 160000004 cycles: 45999532 heartbeat IPC: 3.254 cumulative IPC: 3.287 (Simulation time: 01 hr 13 min 17 sec)
Heartbeat CPU 0 instructions: 170000000 cycles: 52418199 heartbeat IPC: 1.558 cumulative IPC: 3.009 (Simulation time: 01 hr 20 min 34 sec)
Heartbeat CPU 0 instructions: 180000004 cycles: 58462192 heartbeat IPC: 1.655 cumulative IPC: 2.831 (Simulation time: 01 hr 27 min 46 sec)
Heartbeat CPU 0 instructions: 190000001 cycles: 64247980 heartbeat IPC: 1.728 cumulative IPC: 2.707 (Simulation time: 01 hr 34 min 44 sec)
Heartbeat CPU 0 instructions: 200000004 cycles: 67103240 heartbeat IPC: 3.502 cumulative IPC: 2.749 (Simulation time: 01 hr 39 min 29 sec)
Heartbeat CPU 0 instructions: 210000001 cycles: 69975546 heartbeat IPC: 3.482 cumulative IPC: 2.786 (Simulation time: 01 hr 44 min 16 sec)
Heartbeat CPU 0 instructions: 220000000 cycles: 72830787 heartbeat IPC: 3.502 cumulative IPC: 2.82 (Simulation time: 01 hr 49 min 01 sec)
Heartbeat CPU 0 instructions: 230000002 cycles: 75721503 heartbeat IPC: 3.459 cumulative IPC: 2.849 (Simulation time: 01 hr 53 min 48 sec)
Heartbeat CPU 0 instructions: 240000003 cycles: 78649579 heartbeat IPC: 3.415 cumulative IPC: 2.874 (Simulation time: 01 hr 58 min 36 sec)
Heartbeat CPU 0 instructions: 250000000 cycles: 81559351 heartbeat IPC: 3.437 cumulative IPC: 2.898 (Simulation time: 02 hr 03 min 24 sec)
Heartbeat CPU 0 instructions: 260000002 cycles: 84413144 heartbeat IPC: 3.504 cumulative IPC: 2.922 (Simulation time: 02 hr 08 min 10 sec)
Heartbeat CPU 0 instructions: 270000002 cycles: 87234548 heartbeat IPC: 3.544 cumulative IPC: 2.945 (Simulation time: 02 hr 12 min 56 sec)
Heartbeat CPU 0 instructions: 280000002 cycles: 90031099 heartbeat IPC: 3.576 cumulative IPC: 2.968 (Simulation time: 02 hr 17 min 41 sec)
Heartbeat CPU 0 instructions: 290000002 cycles: 92914524 heartbeat IPC: 3.468 cumulative IPC: 2.986 (Simulation time: 02 hr 22 min 27 sec)
Heartbeat CPU 0 instructions: 300000003 cycles: 95728608 heartbeat IPC: 3.554 cumulative IPC: 3.005 (Simulation time: 02 hr 27 min 16 sec)
Heartbeat CPU 0 instructions: 310000001 cycles: 98616202 heartbeat IPC: 3.463 cumulative IPC: 3.02 (Simulation time: 02 hr 32 min 03 sec)
Heartbeat CPU 0 instructions: 320000003 cycles: 101511589 heartbeat IPC: 3.454 cumulative IPC: 3.035 (Simulation time: 02 hr 36 min 52 sec)
Heartbeat CPU 0 instructions: 330000003 cycles: 104363758 heartbeat IPC: 3.506 cumulative IPC: 3.049 (Simulation time: 02 hr 41 min 39 sec)
Heartbeat CPU 0 instructions: 340000000 cycles: 110241339 heartbeat IPC: 1.701 cumulative IPC: 2.968 (Simulation time: 02 hr 48 min 35 sec)
Heartbeat CPU 0 instructions: 350000000 cycles: 116503292 heartbeat IPC: 1.597 cumulative IPC: 2.886 (Simulation time: 02 hr 55 min 58 sec)
Heartbeat CPU 0 instructions: 360000004 cycles: 122516617 heartbeat IPC: 1.663 cumulative IPC: 2.819 (Simulation time: 03 hr 03 min 04 sec)
Heartbeat CPU 0 instructions: 370000000 cycles: 125410119 heartbeat IPC: 3.456 cumulative IPC: 2.835 (Simulation time: 03 hr 07 min 48 sec)
Heartbeat CPU 0 instructions: 380000003 cycles: 128248326 heartbeat IPC: 3.523 cumulative IPC: 2.852 (Simulation time: 03 hr 12 min 35 sec)
Heartbeat CPU 0 instructions: 390000002 cycles: 131172950 heartbeat IPC: 3.419 cumulative IPC: 2.866 (Simulation time: 03 hr 17 min 23 sec)
Heartbeat CPU 0 instructions: 400000004 cycles: 134045577 heartbeat IPC: 3.481 cumulative IPC: 2.88 (Simulation time: 03 hr 22 min 08 sec)
Heartbeat CPU 0 instructions: 410000002 cycles: 136911951 heartbeat IPC: 3.489 cumulative IPC: 2.894 (Simulation time: 03 hr 26 min 53 sec)
Heartbeat CPU 0 instructions: 420000003 cycles: 139875004 heartbeat IPC: 3.375 cumulative IPC: 2.906 (Simulation time: 03 hr 31 min 43 sec)
Heartbeat CPU 0 instructions: 430000001 cycles: 142818407 heartbeat IPC: 3.397 cumulative IPC: 2.917 (Simulation time: 03 hr 36 min 32 sec)
Heartbeat CPU 0 instructions: 440000004 cycles: 145860521 heartbeat IPC: 3.287 cumulative IPC: 2.925 (Simulation time: 03 hr 41 min 25 sec)
Heartbeat CPU 0 instructions: 450000002 cycles: 148685081 heartbeat IPC: 3.54 cumulative IPC: 2.938 (Simulation time: 03 hr 46 min 12 sec)
Heartbeat CPU 0 instructions: 460000000 cycles: 151538938 heartbeat IPC: 3.504 cumulative IPC: 2.95 (Simulation time: 03 hr 50 min 56 sec)
Heartbeat CPU 0 instructions: 470000001 cycles: 154317859 heartbeat IPC: 3.599 cumulative IPC: 2.962 (Simulation time: 03 hr 55 min 37 sec)
Heartbeat CPU 0 instructions: 480000003 cycles: 157262668 heartbeat IPC: 3.396 cumulative IPC: 2.971 (Simulation time: 04 hr 00 min 30 sec)
Heartbeat CPU 0 instructions: 490000004 cycles: 160040064 heartbeat IPC: 3.6 cumulative IPC: 2.983 (Simulation time: 04 hr 05 min 12 sec)
Heartbeat CPU 0 instructions: 500000004 cycles: 162966316 heartbeat IPC: 3.417 cumulative IPC: 2.991 (Simulation time: 04 hr 10 min 00 sec)
Heartbeat CPU 0 instructions: 510000003 cycles: 165901022 heartbeat IPC: 3.407 cumulative IPC: 2.999 (Simulation time: 04 hr 14 min 55 sec)
Heartbeat CPU 0 instructions: 520000001 cycles: 168693242 heartbeat IPC: 3.581 cumulative IPC: 3.01 (Simulation time: 04 hr 19 min 41 sec)
Heartbeat CPU 0 instructions: 530000001 cycles: 171608572 heartbeat IPC: 3.43 cumulative IPC: 3.018 (Simulation time: 04 hr 24 min 26 sec)
Heartbeat CPU 0 instructions: 540000000 cycles: 174470027 heartbeat IPC: 3.495 cumulative IPC: 3.026 (Simulation time: 04 hr 29 min 11 sec)
Heartbeat CPU 0 instructions: 550000001 cycles: 177380328 heartbeat IPC: 3.436 cumulative IPC: 3.033 (Simulation time: 04 hr 33 min 59 sec)
Heartbeat CPU 0 instructions: 560000000 cycles: 180334056 heartbeat IPC: 3.386 cumulative IPC: 3.039 (Simulation time: 04 hr 38 min 45 sec)
Heartbeat CPU 0 instructions: 570000004 cycles: 184554312 heartbeat IPC: 2.37 cumulative IPC: 3.023 (Simulation time: 04 hr 44 min 32 sec)
Heartbeat CPU 0 instructions: 580000003 cycles: 191274782 heartbeat IPC: 1.488 cumulative IPC: 2.965 (Simulation time: 04 hr 52 min 20 sec)
Heartbeat CPU 0 instructions: 590000002 cycles: 198712754 heartbeat IPC: 1.344 cumulative IPC: 2.9 (Simulation time: 05 hr 00 min 43 sec)
Heartbeat CPU 0 instructions: 600000004 cycles: 201658746 heartbeat IPC: 3.394 cumulative IPC: 2.908 (Simulation time: 05 hr 05 min 29 sec)
Heartbeat CPU 0 instructions: 610000002 cycles: 204575729 heartbeat IPC: 3.428 cumulative IPC: 2.916 (Simulation time: 05 hr 10 min 20 sec)
Heartbeat CPU 0 instructions: 620000001 cycles: 207311903 heartbeat IPC: 3.655 cumulative IPC: 2.926 (Simulation time: 05 hr 15 min 16 sec)
Heartbeat CPU 0 instructions: 630000002 cycles: 210225869 heartbeat IPC: 3.432 cumulative IPC: 2.934 (Simulation time: 05 hr 20 min 03 sec)
Heartbeat CPU 0 instructions: 640000004 cycles: 213155562 heartbeat IPC: 3.413 cumulative IPC: 2.941 (Simulation time: 05 hr 24 min 51 sec)
Heartbeat CPU 0 instructions: 650000000 cycles: 215885851 heartbeat IPC: 3.663 cumulative IPC: 2.951 (Simulation time: 05 hr 29 min 40 sec)
Simulation finished CPU 0 instructions: 600000001 cycles: 203348745 cumulative IPC: 2.951 (Simulation time: 05 hr 29 min 40 sec)
Simulation complete CPU 0 instructions: 600000001 cycles: 203348745 cumulative IPC: 2.951 (Simulation time: 05 hr 29 min 40 sec)

ChampSim completed all CPUs

=== Simulation ===
CPU 0 runs traces/400.perlbench-41B.champsimtrace.xz
Region of Interest Statistics

CPU 0 cumulative IPC: 2.951 instructions: 600000001 cycles: 203348745
CPU 0 Branch Prediction Accuracy: 99.19% MPKI: 1.684 Average ROB Occupancy at Mispredict: 101.3
Branch type MPKI
BRANCH_DIRECT_JUMP: 0.0123
BRANCH_INDIRECT: 0.323
BRANCH_CONDITIONAL: 1.14
BRANCH_DIRECT_CALL: 0.0043
BRANCH_INDIRECT_CALL: 0.2
BRANCH_RETURN: 0.00828

LLC TOTAL        ACCESS:     830544 HIT:     620054 MISS:     210490
LLC LOAD         ACCESS:     398447 HIT:     315374 MISS:      83073
LLC RFO          ACCESS:      32018 HIT:      24350 MISS:       7668
LLC PREFETCH     ACCESS:     297349 HIT:     185462 MISS:     111887
LLC WRITE        ACCESS:      83741 HIT:      83603 MISS:        138
LLC TRANSLATION  ACCESS:      18989 HIT:      11265 MISS:       7724
LLC PREFETCH REQUESTED:     297373 ISSUED:     297349 USEFUL:      40527 USELESS:      50172
LLC AVERAGE MISS LATENCY: 710.9 cycles
cpu0_DTLB TOTAL        ACCESS:  129758617 HIT:  129055788 MISS:     702829
cpu0_DTLB LOAD         ACCESS:  129758617 HIT:  129055788 MISS:     702829
cpu0_DTLB RFO          ACCESS:          0 HIT:          0 MISS:          0
cpu0_DTLB PREFETCH     ACCESS:          0 HIT:          0 MISS:          0
cpu0_DTLB WRITE        ACCESS:          0 HIT:          0 MISS:          0
cpu0_DTLB TRANSLATION  ACCESS:          0 HIT:          0 MISS:          0
cpu0_DTLB PREFETCH REQUESTED:          0 ISSUED:          0 USEFUL:          0 USELESS:          0
cpu0_DTLB AVERAGE MISS LATENCY: 12.48 cycles
cpu0_ITLB TOTAL        ACCESS:    4864740 HIT:    4802578 MISS:      62162
cpu0_ITLB LOAD         ACCESS:    4864740 HIT:    4802578 MISS:      62162
cpu0_ITLB RFO          ACCESS:          0 HIT:          0 MISS:          0
cpu0_ITLB PREFETCH     ACCESS:          0 HIT:          0 MISS:          0
cpu0_ITLB WRITE        ACCESS:          0 HIT:          0 MISS:          0
cpu0_ITLB TRANSLATION  ACCESS:          0 HIT:          0 MISS:          0
cpu0_ITLB PREFETCH REQUESTED:          0 ISSUED:          0 USEFUL:          0 USELESS:          0
cpu0_ITLB AVERAGE MISS LATENCY: 5.549 cycles
cpu0_L1D TOTAL        ACCESS:  174374919 HIT:  172623152 MISS:    1751767
cpu0_L1D LOAD         ACCESS:   91349477 HIT:   89986412 MISS:    1363065
cpu0_L1D RFO          ACCESS:          0 HIT:          0 MISS:          0
cpu0_L1D PREFETCH     ACCESS:          0 HIT:          0 MISS:          0
cpu0_L1D WRITE        ACCESS:   83000982 HIT:   82635672 MISS:     365310
cpu0_L1D TRANSLATION  ACCESS:      24460 HIT:       1068 MISS:      23392
cpu0_L1D PREFETCH REQUESTED:          0 ISSUED:          0 USEFUL:          0 USELESS:          0
cpu0_L1D AVERAGE MISS LATENCY: 44.21 cycles
cpu0_L1I TOTAL        ACCESS:    5644251 HIT:    4839709 MISS:     804542
cpu0_L1I LOAD         ACCESS:    5644251 HIT:    4839709 MISS:     804542
cpu0_L1I RFO          ACCESS:          0 HIT:          0 MISS:          0
cpu0_L1I PREFETCH     ACCESS:          0 HIT:          0 MISS:          0
cpu0_L1I WRITE        ACCESS:          0 HIT:          0 MISS:          0
cpu0_L1I TRANSLATION  ACCESS:          0 HIT:          0 MISS:          0
cpu0_L1I PREFETCH REQUESTED:          0 ISSUED:          0 USEFUL:          0 USELESS:          0
cpu0_L1I AVERAGE MISS LATENCY: 9.453 cycles
cpu0_L2C TOTAL        ACCESS:    1668299 HIT:    1217240 MISS:     451059
cpu0_L2C LOAD         ACCESS:    1315404 HIT:     916957 MISS:     398447
cpu0_L2C RFO          ACCESS:      89549 HIT:      57531 MISS:      32018
cpu0_L2C PREFETCH     ACCESS:          0 HIT:          0 MISS:          0
cpu0_L2C WRITE        ACCESS:     240030 HIT:     238425 MISS:       1605
cpu0_L2C TRANSLATION  ACCESS:      23316 HIT:       4327 MISS:      18989
cpu0_L2C PREFETCH REQUESTED:          0 ISSUED:          0 USEFUL:          0 USELESS:          0
cpu0_L2C AVERAGE MISS LATENCY: 169.6 cycles
cpu0_STLB TOTAL        ACCESS:     508433 HIT:     485647 MISS:      22786
cpu0_STLB LOAD         ACCESS:     508433 HIT:     485647 MISS:      22786
cpu0_STLB RFO          ACCESS:          0 HIT:          0 MISS:          0
cpu0_STLB PREFETCH     ACCESS:          0 HIT:          0 MISS:          0
cpu0_STLB WRITE        ACCESS:          0 HIT:          0 MISS:          0
cpu0_STLB TRANSLATION  ACCESS:          0 HIT:          0 MISS:          0
cpu0_STLB PREFETCH REQUESTED:          0 ISSUED:          0 USEFUL:          0 USELESS:          0
cpu0_STLB AVERAGE MISS LATENCY: 266.5 cycles

DRAM Statistics

Channel 0 RQ ROW_BUFFER_HIT:      72786
  ROW_BUFFER_MISS:     128255
 AVG DBUS CONGESTED CYCLE: 3.893
WQ ROW_BUFFER_HIT: Channel 0 
  ROW_BUFFER_MISS:       3746
  FULL:      12840
