WARNING: physical memory size is smaller than virtual memory size.

*** ChampSim Multicore Out-of-Order Simulator ***
Warmup Instructions: 50000000
Simulation Instructions: 600000000
Number of CPUs: 1
Page size: 4096

Off-chip DRAM Size: 4 GiB Channels: 1 Width: 64-bit Data Race: 3200 MT/s
Heartbeat CPU 0 instructions: 10000000 cycles: 2500061 heartbeat IPC: 4 cumulative IPC: 4 (Simulation time: 00 hr 01 min 13 sec)
Heartbeat CPU 0 instructions: 20000000 cycles: 5000061 heartbeat IPC: 4 cumulative IPC: 4 (Simulation time: 00 hr 02 min 20 sec)
Heartbeat CPU 0 instructions: 30000000 cycles: 7500061 heartbeat IPC: 4 cumulative IPC: 4 (Simulation time: 00 hr 03 min 26 sec)
Heartbeat CPU 0 instructions: 40000000 cycles: 10000061 heartbeat IPC: 4 cumulative IPC: 4 (Simulation time: 00 hr 04 min 35 sec)
Heartbeat CPU 0 instructions: 50000000 cycles: 12500061 heartbeat IPC: 4 cumulative IPC: 4 (Simulation time: 00 hr 05 min 42 sec)
Warmup finished CPU 0 instructions: 50000000 cycles: 12500062 cumulative IPC: 4 (Simulation time: 00 hr 05 min 42 sec)
Warmup complete CPU 0 instructions: 50000000 cycles: 12500062 cumulative IPC: 4 (Simulation time: 00 hr 05 min 42 sec)
Heartbeat CPU 0 instructions: 60000002 cycles: 16911341 heartbeat IPC: 2.267 cumulative IPC: 2.267 (Simulation time: 00 hr 07 min 19 sec)
Heartbeat CPU 0 instructions: 70000003 cycles: 21897820 heartbeat IPC: 2.005 cumulative IPC: 2.128 (Simulation time: 00 hr 08 min 59 sec)
Heartbeat CPU 0 instructions: 80000001 cycles: 27247190 heartbeat IPC: 1.869 cumulative IPC: 2.034 (Simulation time: 00 hr 10 min 44 sec)
Heartbeat CPU 0 instructions: 90000000 cycles: 31546012 heartbeat IPC: 2.326 cumulative IPC: 2.1 (Simulation time: 00 hr 12 min 19 sec)
Heartbeat CPU 0 instructions: 100000003 cycles: 36406147 heartbeat IPC: 2.058 cumulative IPC: 2.092 (Simulation time: 00 hr 13 min 58 sec)
Heartbeat CPU 0 instructions: 110000002 cycles: 41284204 heartbeat IPC: 2.05 cumulative IPC: 2.084 (Simulation time: 00 hr 15 min 37 sec)
Heartbeat CPU 0 instructions: 120000001 cycles: 46280693 heartbeat IPC: 2.001 cumulative IPC: 2.072 (Simulation time: 00 hr 17 min 19 sec)
Heartbeat CPU 0 instructions: 130000003 cycles: 50851474 heartbeat IPC: 2.188 cumulative IPC: 2.086 (Simulation time: 00 hr 18 min 51 sec)
Heartbeat CPU 0 instructions: 140000002 cycles: 55744742 heartbeat IPC: 2.044 cumulative IPC: 2.081 (Simulation time: 00 hr 20 min 33 sec)
Heartbeat CPU 0 instructions: 150000001 cycles: 60416524 heartbeat IPC: 2.141 cumulative IPC: 2.087 (Simulation time: 00 hr 22 min 15 sec)
Heartbeat CPU 0 instructions: 160000000 cycles: 65057180 heartbeat IPC: 2.155 cumulative IPC: 2.093 (Simulation time: 00 hr 23 min 42 sec)
Heartbeat CPU 0 instructions: 170000000 cycles: 70394497 heartbeat IPC: 1.874 cumulative IPC: 2.073 (Simulation time: 00 hr 24 min 31 sec)
Heartbeat CPU 0 instructions: 180000001 cycles: 76116472 heartbeat IPC: 1.748 cumulative IPC: 2.043 (Simulation time: 00 hr 25 min 26 sec)
Heartbeat CPU 0 instructions: 190000002 cycles: 80593267 heartbeat IPC: 2.234 cumulative IPC: 2.056 (Simulation time: 00 hr 26 min 14 sec)
Heartbeat CPU 0 instructions: 200000002 cycles: 85503685 heartbeat IPC: 2.036 cumulative IPC: 2.055 (Simulation time: 00 hr 27 min 04 sec)
Heartbeat CPU 0 instructions: 210000000 cycles: 90509961 heartbeat IPC: 1.997 cumulative IPC: 2.051 (Simulation time: 00 hr 27 min 55 sec)
Heartbeat CPU 0 instructions: 220000001 cycles: 95435925 heartbeat IPC: 2.03 cumulative IPC: 2.05 (Simulation time: 00 hr 28 min 45 sec)
Heartbeat CPU 0 instructions: 230000002 cycles: 100684992 heartbeat IPC: 1.905 cumulative IPC: 2.041 (Simulation time: 00 hr 29 min 36 sec)
Heartbeat CPU 0 instructions: 240000001 cycles: 105652106 heartbeat IPC: 2.013 cumulative IPC: 2.04 (Simulation time: 00 hr 30 min 26 sec)
Heartbeat CPU 0 instructions: 250000003 cycles: 110840378 heartbeat IPC: 1.927 cumulative IPC: 2.034 (Simulation time: 00 hr 31 min 18 sec)
Heartbeat CPU 0 instructions: 260000001 cycles: 115702940 heartbeat IPC: 2.057 cumulative IPC: 2.035 (Simulation time: 00 hr 32 min 09 sec)
Heartbeat CPU 0 instructions: 270000000 cycles: 123412770 heartbeat IPC: 1.297 cumulative IPC: 1.984 (Simulation time: 00 hr 33 min 17 sec)
Heartbeat CPU 0 instructions: 280000000 cycles: 134300678 heartbeat IPC: 0.9185 cumulative IPC: 1.888 (Simulation time: 00 hr 34 min 44 sec)
Heartbeat CPU 0 instructions: 290000001 cycles: 143603266 heartbeat IPC: 1.075 cumulative IPC: 1.831 (Simulation time: 00 hr 36 min 04 sec)
Heartbeat CPU 0 instructions: 300000003 cycles: 150985187 heartbeat IPC: 1.355 cumulative IPC: 1.805 (Simulation time: 00 hr 37 min 14 sec)
Heartbeat CPU 0 instructions: 310000004 cycles: 161313367 heartbeat IPC: 0.9682 cumulative IPC: 1.747 (Simulation time: 00 hr 38 min 32 sec)
Heartbeat CPU 0 instructions: 320000004 cycles: 166891853 heartbeat IPC: 1.793 cumulative IPC: 1.749 (Simulation time: 00 hr 39 min 25 sec)
Heartbeat CPU 0 instructions: 330000000 cycles: 172112924 heartbeat IPC: 1.915 cumulative IPC: 1.754 (Simulation time: 00 hr 40 min 13 sec)
Heartbeat CPU 0 instructions: 340000001 cycles: 176851626 heartbeat IPC: 2.11 cumulative IPC: 1.765 (Simulation time: 00 hr 40 min 59 sec)
Heartbeat CPU 0 instructions: 350000000 cycles: 181775948 heartbeat IPC: 2.031 cumulative IPC: 1.772 (Simulation time: 00 hr 41 min 46 sec)
Heartbeat CPU 0 instructions: 360000003 cycles: 186497881 heartbeat IPC: 2.118 cumulative IPC: 1.782 (Simulation time: 00 hr 42 min 35 sec)
Heartbeat CPU 0 instructions: 370000001 cycles: 191210939 heartbeat IPC: 2.122 cumulative IPC: 1.791 (Simulation time: 00 hr 43 min 24 sec)
Heartbeat CPU 0 instructions: 380000004 cycles: 196202608 heartbeat IPC: 2.003 cumulative IPC: 1.796 (Simulation time: 00 hr 44 min 14 sec)
Heartbeat CPU 0 instructions: 390000002 cycles: 201115520 heartbeat IPC: 2.035 cumulative IPC: 1.803 (Simulation time: 00 hr 45 min 02 sec)
Heartbeat CPU 0 instructions: 400000000 cycles: 206114913 heartbeat IPC: 2 cumulative IPC: 1.808 (Simulation time: 00 hr 45 min 52 sec)
Heartbeat CPU 0 instructions: 410000000 cycles: 212233739 heartbeat IPC: 1.634 cumulative IPC: 1.802 (Simulation time: 00 hr 46 min 50 sec)
Heartbeat CPU 0 instructions: 420000001 cycles: 219644066 heartbeat IPC: 1.349 cumulative IPC: 1.786 (Simulation time: 00 hr 47 min 55 sec)
Heartbeat CPU 0 instructions: 430000000 cycles: 226217801 heartbeat IPC: 1.521 cumulative IPC: 1.778 (Simulation time: 00 hr 48 min 56 sec)
Heartbeat CPU 0 instructions: 440000002 cycles: 232707467 heartbeat IPC: 1.541 cumulative IPC: 1.771 (Simulation time: 00 hr 49 min 55 sec)
Heartbeat CPU 0 instructions: 450000000 cycles: 239070206 heartbeat IPC: 1.572 cumulative IPC: 1.765 (Simulation time: 00 hr 50 min 57 sec)
Heartbeat CPU 0 instructions: 460000002 cycles: 246806169 heartbeat IPC: 1.293 cumulative IPC: 1.75 (Simulation time: 00 hr 52 min 04 sec)
Heartbeat CPU 0 instructions: 470000000 cycles: 253606682 heartbeat IPC: 1.47 cumulative IPC: 1.742 (Simulation time: 00 hr 53 min 04 sec)
Heartbeat CPU 0 instructions: 480000000 cycles: 258561913 heartbeat IPC: 2.018 cumulative IPC: 1.748 (Simulation time: 00 hr 53 min 52 sec)
Heartbeat CPU 0 instructions: 490000001 cycles: 263531323 heartbeat IPC: 2.012 cumulative IPC: 1.753 (Simulation time: 00 hr 54 min 39 sec)
Heartbeat CPU 0 instructions: 500000002 cycles: 268473464 heartbeat IPC: 2.023 cumulative IPC: 1.758 (Simulation time: 00 hr 55 min 26 sec)
Heartbeat CPU 0 instructions: 510000000 cycles: 273505693 heartbeat IPC: 1.987 cumulative IPC: 1.762 (Simulation time: 00 hr 56 min 14 sec)
Heartbeat CPU 0 instructions: 520000000 cycles: 278593076 heartbeat IPC: 1.966 cumulative IPC: 1.766 (Simulation time: 00 hr 57 min 02 sec)
Heartbeat CPU 0 instructions: 530000001 cycles: 285890057 heartbeat IPC: 1.37 cumulative IPC: 1.756 (Simulation time: 00 hr 58 min 04 sec)
Heartbeat CPU 0 instructions: 540000000 cycles: 292937758 heartbeat IPC: 1.419 cumulative IPC: 1.747 (Simulation time: 00 hr 59 min 09 sec)
Heartbeat CPU 0 instructions: 550000002 cycles: 300540276 heartbeat IPC: 1.315 cumulative IPC: 1.736 (Simulation time: 01 hr 00 min 18 sec)
Heartbeat CPU 0 instructions: 560000004 cycles: 304946863 heartbeat IPC: 2.269 cumulative IPC: 1.744 (Simulation time: 01 hr 01 min 07 sec)
Heartbeat CPU 0 instructions: 570000001 cycles: 309302118 heartbeat IPC: 2.296 cumulative IPC: 1.752 (Simulation time: 01 hr 01 min 57 sec)
Heartbeat CPU 0 instructions: 580000003 cycles: 313435654 heartbeat IPC: 2.419 cumulative IPC: 1.761 (Simulation time: 01 hr 02 min 48 sec)
Heartbeat CPU 0 instructions: 590000001 cycles: 318244959 heartbeat IPC: 2.079 cumulative IPC: 1.766 (Simulation time: 01 hr 03 min 40 sec)
Heartbeat CPU 0 instructions: 600000003 cycles: 322835764 heartbeat IPC: 2.178 cumulative IPC: 1.772 (Simulation time: 01 hr 04 min 31 sec)
Heartbeat CPU 0 instructions: 610000001 cycles: 327628906 heartbeat IPC: 2.086 cumulative IPC: 1.777 (Simulation time: 01 hr 05 min 21 sec)
Heartbeat CPU 0 instructions: 620000000 cycles: 332643397 heartbeat IPC: 1.994 cumulative IPC: 1.78 (Simulation time: 01 hr 06 min 15 sec)
Heartbeat CPU 0 instructions: 630000002 cycles: 336850320 heartbeat IPC: 2.377 cumulative IPC: 1.788 (Simulation time: 01 hr 06 min 59 sec)
Heartbeat CPU 0 instructions: 640000004 cycles: 342121357 heartbeat IPC: 1.897 cumulative IPC: 1.79 (Simulation time: 01 hr 07 min 52 sec)
Heartbeat CPU 0 instructions: 650000001 cycles: 346864083 heartbeat IPC: 2.108 cumulative IPC: 1.794 (Simulation time: 01 hr 08 min 42 sec)
Simulation finished CPU 0 instructions: 600000001 cycles: 334364022 cumulative IPC: 1.794 (Simulation time: 01 hr 08 min 42 sec)
Simulation complete CPU 0 instructions: 600000001 cycles: 334364022 cumulative IPC: 1.794 (Simulation time: 01 hr 08 min 42 sec)

ChampSim completed all CPUs

=== Simulation ===
CPU 0 runs traces/400.perlbench-50B.champsimtrace.xz
Region of Interest Statistics

CPU 0 cumulative IPC: 1.794 instructions: 600000001 cycles: 334364022
CPU 0 Branch Prediction Accuracy: 93.83% MPKI: 12.71 Average ROB Occupancy at Mispredict: 29.22
Branch type MPKI
BRANCH_DIRECT_JUMP: 0.0176
BRANCH_INDIRECT: 0.38
BRANCH_CONDITIONAL: 11.9
BRANCH_DIRECT_CALL: 0.0067
BRANCH_INDIRECT_CALL: 0.431
BRANCH_RETURN: 0.0161

LLC TOTAL        ACCESS:     784867 HIT:     658513 MISS:     126354
LLC LOAD         ACCESS:     587186 HIT:     479853 MISS:     107333
LLC RFO          ACCESS:      47459 HIT:      37642 MISS:       9817
LLC PREFETCH     ACCESS:          0 HIT:          0 MISS:          0
LLC WRITE        ACCESS:     128137 HIT:     128135 MISS:          2
LLC TRANSLATION  ACCESS:      22085 HIT:      12883 MISS:       9202
LLC PREFETCH REQUESTED:          0 ISSUED:          0 USEFUL:          0 USELESS:          0
LLC AVERAGE MISS LATENCY: 468.8 cycles
cpu0_DTLB TOTAL        ACCESS:  156787222 HIT:  155486847 MISS:    1300375
cpu0_DTLB LOAD         ACCESS:  156787222 HIT:  155486847 MISS:    1300375
cpu0_DTLB RFO          ACCESS:          0 HIT:          0 MISS:          0
cpu0_DTLB PREFETCH     ACCESS:          0 HIT:          0 MISS:          0
cpu0_DTLB WRITE        ACCESS:          0 HIT:          0 MISS:          0
cpu0_DTLB TRANSLATION  ACCESS:          0 HIT:          0 MISS:          0
cpu0_DTLB PREFETCH REQUESTED:          0 ISSUED:          0 USEFUL:          0 USELESS:          0
cpu0_DTLB AVERAGE MISS LATENCY: 10.01 cycles
cpu0_ITLB TOTAL        ACCESS:    8932241 HIT:    8733656 MISS:     198585
cpu0_ITLB LOAD         ACCESS:    8932241 HIT:    8733656 MISS:     198585
cpu0_ITLB RFO          ACCESS:          0 HIT:          0 MISS:          0
cpu0_ITLB PREFETCH     ACCESS:          0 HIT:          0 MISS:          0
cpu0_ITLB WRITE        ACCESS:          0 HIT:          0 MISS:          0
cpu0_ITLB TRANSLATION  ACCESS:          0 HIT:          0 MISS:          0
cpu0_ITLB PREFETCH REQUESTED:          0 ISSUED:          0 USEFUL:          0 USELESS:          0
cpu0_ITLB AVERAGE MISS LATENCY: 2.603 cycles
cpu0_L1D TOTAL        ACCESS:  203646671 HIT:  200004007 MISS:    3642664
cpu0_L1D LOAD         ACCESS:  117969853 HIT:  114969387 MISS:    3000466
cpu0_L1D RFO          ACCESS:          0 HIT:          0 MISS:          0
cpu0_L1D PREFETCH     ACCESS:          0 HIT:          0 MISS:          0
cpu0_L1D WRITE        ACCESS:   85648272 HIT:   85033211 MISS:     615061
cpu0_L1D TRANSLATION  ACCESS:      28546 HIT:       1409 MISS:      27137
cpu0_L1D PREFETCH REQUESTED:          0 ISSUED:          0 USEFUL:          0 USELESS:          0
cpu0_L1D AVERAGE MISS LATENCY: 22.92 cycles
cpu0_L1I TOTAL        ACCESS:   10370922 HIT:    8573443 MISS:    1797479
cpu0_L1I LOAD         ACCESS:   10370922 HIT:    8573443 MISS:    1797479
cpu0_L1I RFO          ACCESS:          0 HIT:          0 MISS:          0
cpu0_L1I PREFETCH     ACCESS:          0 HIT:          0 MISS:          0
cpu0_L1I WRITE        ACCESS:          0 HIT:          0 MISS:          0
cpu0_L1I TRANSLATION  ACCESS:          0 HIT:          0 MISS:          0
cpu0_L1I PREFETCH REQUESTED:          0 ISSUED:          0 USEFUL:          0 USELESS:          0
cpu0_L1I AVERAGE MISS LATENCY: 9.22 cycles
cpu0_L2C TOTAL        ACCESS:    3837210 HIT:    3177235 MISS:     659975
cpu0_L2C LOAD         ACCESS:    3106468 HIT:    2519282 MISS:     587186
cpu0_L2C RFO          ACCESS:     191759 HIT:     144300 MISS:      47459
cpu0_L2C PREFETCH     ACCESS:          0 HIT:          0 MISS:          0
cpu0_L2C WRITE        ACCESS:     511922 HIT:     508677 MISS:       3245
cpu0_L2C TRANSLATION  ACCESS:      27061 HIT:       4976 MISS:      22085
cpu0_L2C PREFETCH REQUESTED:          0 ISSUED:          0 USEFUL:          0 USELESS:          0
cpu0_L2C AVERAGE MISS LATENCY: 109.8 cycles
cpu0_STLB TOTAL        ACCESS:    1009202 HIT:     982508 MISS:      26694
cpu0_STLB LOAD         ACCESS:    1009202 HIT:     982508 MISS:      26694
cpu0_STLB RFO          ACCESS:          0 HIT:          0 MISS:          0
cpu0_STLB PREFETCH     ACCESS:          0 HIT:          0 MISS:          0
cpu0_STLB WRITE        ACCESS:          0 HIT:          0 MISS:          0
cpu0_STLB TRANSLATION  ACCESS:          0 HIT:          0 MISS:          0
cpu0_STLB PREFETCH REQUESTED:          0 ISSUED:          0 USEFUL:          0 USELESS:          0
cpu0_STLB AVERAGE MISS LATENCY: 259.3 cycles

DRAM Statistics

Channel 0 RQ ROW_BUFFER_HIT:      37380
  ROW_BUFFER_MISS:      88972
 AVG DBUS CONGESTED CYCLE: 3.702
WQ ROW_BUFFER_HIT: Channel 0 
  ROW_BUFFER_MISS:       1490
  FULL:       1728
