WARNING: physical memory size is smaller than virtual memory size.

*** ChampSim Multicore Out-of-Order Simulator ***
Warmup Instructions: 50000000
Simulation Instructions: 600000000
Number of CPUs: 1
Page size: 4096

Off-chip DRAM Size: 4 GiB Channels: 1 Width: 64-bit Data Race: 3200 MT/s
Heartbeat CPU 0 instructions: 10000001 cycles: 2500318 heartbeat IPC: 3.999 cumulative IPC: 3.999 (Simulation time: 00 hr 00 min 38 sec)
Heartbeat CPU 0 instructions: 20000002 cycles: 5037122 heartbeat IPC: 3.942 cumulative IPC: 3.971 (Simulation time: 00 hr 01 min 16 sec)
Heartbeat CPU 0 instructions: 30000002 cycles: 7537122 heartbeat IPC: 4 cumulative IPC: 3.98 (Simulation time: 00 hr 01 min 51 sec)
Heartbeat CPU 0 instructions: 40000002 cycles: 10037122 heartbeat IPC: 4 cumulative IPC: 3.985 (Simulation time: 00 hr 02 min 26 sec)
Heartbeat CPU 0 instructions: 50000002 cycles: 12537122 heartbeat IPC: 4 cumulative IPC: 3.988 (Simulation time: 00 hr 03 min 00 sec)
Warmup finished CPU 0 instructions: 50000002 cycles: 12537123 cumulative IPC: 3.988 (Simulation time: 00 hr 03 min 00 sec)
Warmup complete CPU 0 instructions: 50000002 cycles: 12537123 cumulative IPC: 3.988 (Simulation time: 00 hr 03 min 00 sec)
Heartbeat CPU 0 instructions: 60000000 cycles: 17119892 heartbeat IPC: 2.182 cumulative IPC: 2.182 (Simulation time: 00 hr 03 min 52 sec)
Heartbeat CPU 0 instructions: 70000004 cycles: 21367531 heartbeat IPC: 2.354 cumulative IPC: 2.265 (Simulation time: 00 hr 04 min 40 sec)
Heartbeat CPU 0 instructions: 80000001 cycles: 25933260 heartbeat IPC: 2.19 cumulative IPC: 2.239 (Simulation time: 00 hr 05 min 30 sec)
Heartbeat CPU 0 instructions: 90000001 cycles: 30037562 heartbeat IPC: 2.436 cumulative IPC: 2.286 (Simulation time: 00 hr 06 min 18 sec)
Heartbeat CPU 0 instructions: 100000000 cycles: 34066855 heartbeat IPC: 2.482 cumulative IPC: 2.322 (Simulation time: 00 hr 07 min 06 sec)
Heartbeat CPU 0 instructions: 110000000 cycles: 38285055 heartbeat IPC: 2.371 cumulative IPC: 2.33 (Simulation time: 00 hr 07 min 53 sec)
Heartbeat CPU 0 instructions: 120000001 cycles: 42274754 heartbeat IPC: 2.506 cumulative IPC: 2.354 (Simulation time: 00 hr 08 min 39 sec)
Heartbeat CPU 0 instructions: 130000001 cycles: 45982421 heartbeat IPC: 2.697 cumulative IPC: 2.392 (Simulation time: 00 hr 09 min 24 sec)
Heartbeat CPU 0 instructions: 140000001 cycles: 50110486 heartbeat IPC: 2.422 cumulative IPC: 2.395 (Simulation time: 00 hr 10 min 11 sec)
Heartbeat CPU 0 instructions: 150000001 cycles: 54275953 heartbeat IPC: 2.401 cumulative IPC: 2.396 (Simulation time: 00 hr 10 min 58 sec)
Heartbeat CPU 0 instructions: 160000004 cycles: 58648166 heartbeat IPC: 2.287 cumulative IPC: 2.386 (Simulation time: 00 hr 11 min 46 sec)
Heartbeat CPU 0 instructions: 170000000 cycles: 65903047 heartbeat IPC: 1.378 cumulative IPC: 2.249 (Simulation time: 00 hr 12 min 51 sec)
Heartbeat CPU 0 instructions: 180000004 cycles: 72494417 heartbeat IPC: 1.517 cumulative IPC: 2.168 (Simulation time: 00 hr 13 min 55 sec)
Heartbeat CPU 0 instructions: 190000001 cycles: 78444606 heartbeat IPC: 1.681 cumulative IPC: 2.124 (Simulation time: 00 hr 14 min 55 sec)
Heartbeat CPU 0 instructions: 200000004 cycles: 81955261 heartbeat IPC: 2.848 cumulative IPC: 2.161 (Simulation time: 00 hr 15 min 38 sec)
Heartbeat CPU 0 instructions: 210000001 cycles: 85671734 heartbeat IPC: 2.691 cumulative IPC: 2.188 (Simulation time: 00 hr 16 min 23 sec)
Heartbeat CPU 0 instructions: 220000000 cycles: 89502841 heartbeat IPC: 2.61 cumulative IPC: 2.209 (Simulation time: 00 hr 17 min 09 sec)
Heartbeat CPU 0 instructions: 230000002 cycles: 93755139 heartbeat IPC: 2.352 cumulative IPC: 2.216 (Simulation time: 00 hr 17 min 55 sec)
Heartbeat CPU 0 instructions: 240000000 cycles: 97695492 heartbeat IPC: 2.538 cumulative IPC: 2.231 (Simulation time: 00 hr 18 min 41 sec)
Heartbeat CPU 0 instructions: 250000000 cycles: 101696952 heartbeat IPC: 2.499 cumulative IPC: 2.243 (Simulation time: 00 hr 19 min 27 sec)
Heartbeat CPU 0 instructions: 260000000 cycles: 105563729 heartbeat IPC: 2.586 cumulative IPC: 2.257 (Simulation time: 00 hr 20 min 12 sec)
Heartbeat CPU 0 instructions: 270000002 cycles: 109200482 heartbeat IPC: 2.75 cumulative IPC: 2.276 (Simulation time: 00 hr 20 min 56 sec)
Heartbeat CPU 0 instructions: 280000002 cycles: 113131782 heartbeat IPC: 2.544 cumulative IPC: 2.286 (Simulation time: 00 hr 21 min 42 sec)
Heartbeat CPU 0 instructions: 290000001 cycles: 116832943 heartbeat IPC: 2.702 cumulative IPC: 2.301 (Simulation time: 00 hr 22 min 26 sec)
Heartbeat CPU 0 instructions: 300000003 cycles: 120364531 heartbeat IPC: 2.832 cumulative IPC: 2.319 (Simulation time: 00 hr 23 min 11 sec)
Heartbeat CPU 0 instructions: 310000001 cycles: 124156196 heartbeat IPC: 2.637 cumulative IPC: 2.329 (Simulation time: 00 hr 23 min 55 sec)
Heartbeat CPU 0 instructions: 320000003 cycles: 127977817 heartbeat IPC: 2.617 cumulative IPC: 2.339 (Simulation time: 00 hr 24 min 41 sec)
Heartbeat CPU 0 instructions: 330000003 cycles: 132009667 heartbeat IPC: 2.48 cumulative IPC: 2.344 (Simulation time: 00 hr 25 min 27 sec)
Heartbeat CPU 0 instructions: 340000000 cycles: 137953504 heartbeat IPC: 1.682 cumulative IPC: 2.312 (Simulation time: 00 hr 26 min 27 sec)
Heartbeat CPU 0 instructions: 350000000 cycles: 144617527 heartbeat IPC: 1.501 cumulative IPC: 2.271 (Simulation time: 00 hr 27 min 32 sec)
Heartbeat CPU 0 instructions: 360000004 cycles: 150685484 heartbeat IPC: 1.648 cumulative IPC: 2.244 (Simulation time: 00 hr 28 min 31 sec)
Heartbeat CPU 0 instructions: 370000000 cycles: 153929303 heartbeat IPC: 3.083 cumulative IPC: 2.263 (Simulation time: 00 hr 29 min 13 sec)
Heartbeat CPU 0 instructions: 380000001 cycles: 157153873 heartbeat IPC: 3.101 cumulative IPC: 2.282 (Simulation time: 00 hr 29 min 55 sec)
Heartbeat CPU 0 instructions: 390000004 cycles: 160760610 heartbeat IPC: 2.773 cumulative IPC: 2.294 (Simulation time: 00 hr 30 min 39 sec)
Heartbeat CPU 0 instructions: 400000004 cycles: 164485260 heartbeat IPC: 2.685 cumulative IPC: 2.303 (Simulation time: 00 hr 31 min 23 sec)
Heartbeat CPU 0 instructions: 410000001 cycles: 167914959 heartbeat IPC: 2.916 cumulative IPC: 2.317 (Simulation time: 00 hr 32 min 03 sec)
Heartbeat CPU 0 instructions: 420000003 cycles: 171627439 heartbeat IPC: 2.694 cumulative IPC: 2.326 (Simulation time: 00 hr 32 min 46 sec)
Heartbeat CPU 0 instructions: 430000001 cycles: 175119346 heartbeat IPC: 2.864 cumulative IPC: 2.337 (Simulation time: 00 hr 33 min 27 sec)
Heartbeat CPU 0 instructions: 440000004 cycles: 178933907 heartbeat IPC: 2.622 cumulative IPC: 2.344 (Simulation time: 00 hr 34 min 09 sec)
Heartbeat CPU 0 instructions: 450000002 cycles: 182427065 heartbeat IPC: 2.863 cumulative IPC: 2.354 (Simulation time: 00 hr 34 min 50 sec)
Heartbeat CPU 0 instructions: 460000000 cycles: 185894350 heartbeat IPC: 2.884 cumulative IPC: 2.365 (Simulation time: 00 hr 35 min 31 sec)
Heartbeat CPU 0 instructions: 470000000 cycles: 189182880 heartbeat IPC: 3.041 cumulative IPC: 2.378 (Simulation time: 00 hr 36 min 11 sec)
Heartbeat CPU 0 instructions: 480000003 cycles: 192793893 heartbeat IPC: 2.769 cumulative IPC: 2.385 (Simulation time: 00 hr 36 min 51 sec)
Heartbeat CPU 0 instructions: 490000000 cycles: 196284509 heartbeat IPC: 2.865 cumulative IPC: 2.395 (Simulation time: 00 hr 37 min 32 sec)
Heartbeat CPU 0 instructions: 500000000 cycles: 199845582 heartbeat IPC: 2.808 cumulative IPC: 2.402 (Simulation time: 00 hr 38 min 13 sec)
Heartbeat CPU 0 instructions: 510000003 cycles: 203273750 heartbeat IPC: 2.917 cumulative IPC: 2.412 (Simulation time: 00 hr 38 min 54 sec)
Heartbeat CPU 0 instructions: 520000001 cycles: 206445637 heartbeat IPC: 3.153 cumulative IPC: 2.424 (Simulation time: 00 hr 39 min 34 sec)
Heartbeat CPU 0 instructions: 530000002 cycles: 209922088 heartbeat IPC: 2.876 cumulative IPC: 2.432 (Simulation time: 00 hr 40 min 14 sec)
Heartbeat CPU 0 instructions: 540000000 cycles: 213248463 heartbeat IPC: 3.006 cumulative IPC: 2.441 (Simulation time: 00 hr 40 min 54 sec)
Heartbeat CPU 0 instructions: 550000001 cycles: 216780292 heartbeat IPC: 2.831 cumulative IPC: 2.448 (Simulation time: 00 hr 41 min 36 sec)
Heartbeat CPU 0 instructions: 560000000 cycles: 220445674 heartbeat IPC: 2.728 cumulative IPC: 2.453 (Simulation time: 00 hr 42 min 17 sec)
Heartbeat CPU 0 instructions: 570000004 cycles: 224973765 heartbeat IPC: 2.208 cumulative IPC: 2.448 (Simulation time: 00 hr 43 min 04 sec)
Heartbeat CPU 0 instructions: 580000003 cycles: 231524869 heartbeat IPC: 1.526 cumulative IPC: 2.42 (Simulation time: 00 hr 44 min 02 sec)
Heartbeat CPU 0 instructions: 590000002 cycles: 238617790 heartbeat IPC: 1.41 cumulative IPC: 2.389 (Simulation time: 00 hr 45 min 03 sec)
Heartbeat CPU 0 instructions: 600000000 cycles: 242119019 heartbeat IPC: 2.856 cumulative IPC: 2.396 (Simulation time: 00 hr 45 min 44 sec)
Heartbeat CPU 0 instructions: 610000000 cycles: 245797669 heartbeat IPC: 2.718 cumulative IPC: 2.401 (Simulation time: 00 hr 46 min 25 sec)
Heartbeat CPU 0 instructions: 620000001 cycles: 249130944 heartbeat IPC: 3 cumulative IPC: 2.409 (Simulation time: 00 hr 47 min 06 sec)
Heartbeat CPU 0 instructions: 630000002 cycles: 253248275 heartbeat IPC: 2.429 cumulative IPC: 2.41 (Simulation time: 00 hr 47 min 50 sec)
Heartbeat CPU 0 instructions: 640000001 cycles: 257077970 heartbeat IPC: 2.611 cumulative IPC: 2.413 (Simulation time: 00 hr 48 min 35 sec)
Heartbeat CPU 0 instructions: 650000000 cycles: 260771274 heartbeat IPC: 2.708 cumulative IPC: 2.417 (Simulation time: 00 hr 49 min 18 sec)
Simulation finished CPU 0 instructions: 600000001 cycles: 248234153 cumulative IPC: 2.417 (Simulation time: 00 hr 49 min 18 sec)
Simulation complete CPU 0 instructions: 600000001 cycles: 248234153 cumulative IPC: 2.417 (Simulation time: 00 hr 49 min 18 sec)

ChampSim completed all CPUs

=== Simulation ===
CPU 0 runs traces/400.perlbench-41B.champsimtrace.xz
Region of Interest Statistics

CPU 0 cumulative IPC: 2.417 instructions: 600000001 cycles: 248234153
CPU 0 Branch Prediction Accuracy: 96.56% MPKI: 7.112 Average ROB Occupancy at Mispredict: 46.66
Branch type MPKI
BRANCH_DIRECT_JUMP: 0.0123
BRANCH_INDIRECT: 0.323
BRANCH_CONDITIONAL: 6.56
BRANCH_DIRECT_CALL: 0.0043
BRANCH_INDIRECT_CALL: 0.2
BRANCH_RETURN: 0.00828

LLC TOTAL        ACCESS:     593832 HIT:     542053 MISS:      51779
LLC LOAD         ACCESS:     403225 HIT:     366469 MISS:      36756
LLC RFO          ACCESS:      32497 HIT:      28559 MISS:       3938
LLC PREFETCH     ACCESS:      53355 HIT:      48886 MISS:       4469
LLC WRITE        ACCESS:      85544 HIT:      85529 MISS:         15
LLC TRANSLATION  ACCESS:      19211 HIT:      12610 MISS:       6601
LLC PREFETCH REQUESTED:      53355 ISSUED:      53355 USEFUL:       2689 USELESS:        315
LLC AVERAGE MISS LATENCY: 501.3 cycles
cpu0_DTLB TOTAL        ACCESS:  141910069 HIT:  141225179 MISS:     684890
cpu0_DTLB LOAD         ACCESS:  141910069 HIT:  141225179 MISS:     684890
cpu0_DTLB RFO          ACCESS:          0 HIT:          0 MISS:          0
cpu0_DTLB PREFETCH     ACCESS:          0 HIT:          0 MISS:          0
cpu0_DTLB WRITE        ACCESS:          0 HIT:          0 MISS:          0
cpu0_DTLB TRANSLATION  ACCESS:          0 HIT:          0 MISS:          0
cpu0_DTLB PREFETCH REQUESTED:          0 ISSUED:          0 USEFUL:          0 USELESS:          0
cpu0_DTLB AVERAGE MISS LATENCY: 10.44 cycles
cpu0_ITLB TOTAL        ACCESS:    4857657 HIT:    4804550 MISS:      53107
cpu0_ITLB LOAD         ACCESS:    4857657 HIT:    4804550 MISS:      53107
cpu0_ITLB RFO          ACCESS:          0 HIT:          0 MISS:          0
cpu0_ITLB PREFETCH     ACCESS:          0 HIT:          0 MISS:          0
cpu0_ITLB WRITE        ACCESS:          0 HIT:          0 MISS:          0
cpu0_ITLB TRANSLATION  ACCESS:          0 HIT:          0 MISS:          0
cpu0_ITLB PREFETCH REQUESTED:          0 ISSUED:          0 USEFUL:          0 USELESS:          0
cpu0_ITLB AVERAGE MISS LATENCY: 5.041 cycles
cpu0_L1D TOTAL        ACCESS:  188596339 HIT:  186918810 MISS:    1677529
cpu0_L1D LOAD         ACCESS:  105229598 HIT:  103915605 MISS:    1313993
cpu0_L1D RFO          ACCESS:          0 HIT:          0 MISS:          0
cpu0_L1D PREFETCH     ACCESS:          0 HIT:          0 MISS:          0
cpu0_L1D WRITE        ACCESS:   83342275 HIT:   83002139 MISS:     340136
cpu0_L1D TRANSLATION  ACCESS:      24466 HIT:       1066 MISS:      23400
cpu0_L1D PREFETCH REQUESTED:          0 ISSUED:          0 USEFUL:          0 USELESS:          0
cpu0_L1D AVERAGE MISS LATENCY: 22.26 cycles
cpu0_L1I TOTAL        ACCESS:    5595683 HIT:    4852418 MISS:     743265
cpu0_L1I LOAD         ACCESS:    5595683 HIT:    4852418 MISS:     743265
cpu0_L1I RFO          ACCESS:          0 HIT:          0 MISS:          0
cpu0_L1I PREFETCH     ACCESS:          0 HIT:          0 MISS:          0
cpu0_L1I WRITE        ACCESS:          0 HIT:          0 MISS:          0
cpu0_L1I TRANSLATION  ACCESS:          0 HIT:          0 MISS:          0
cpu0_L1I PREFETCH REQUESTED:          0 ISSUED:          0 USEFUL:          0 USELESS:          0
cpu0_L1I AVERAGE MISS LATENCY: 9.012 cycles
cpu0_L2C TOTAL        ACCESS:    1666270 HIT:    1209527 MISS:     456743
cpu0_L2C LOAD         ACCESS:    1316060 HIT:     912835 MISS:     403225
cpu0_L2C RFO          ACCESS:      88292 HIT:      55795 MISS:      32497
cpu0_L2C PREFETCH     ACCESS:          0 HIT:          0 MISS:          0
cpu0_L2C WRITE        ACCESS:     238588 HIT:     236778 MISS:       1810
cpu0_L2C TRANSLATION  ACCESS:      23330 HIT:       4119 MISS:      19211
cpu0_L2C PREFETCH REQUESTED:          0 ISSUED:          0 USEFUL:          0 USELESS:          0
cpu0_L2C AVERAGE MISS LATENCY: 70.94 cycles
cpu0_STLB TOTAL        ACCESS:     506625 HIT:     483831 MISS:      22794
cpu0_STLB LOAD         ACCESS:     506625 HIT:     483831 MISS:      22794
cpu0_STLB RFO          ACCESS:          0 HIT:          0 MISS:          0
cpu0_STLB PREFETCH     ACCESS:          0 HIT:          0 MISS:          0
cpu0_STLB WRITE        ACCESS:          0 HIT:          0 MISS:          0
cpu0_STLB TRANSLATION  ACCESS:          0 HIT:          0 MISS:          0
cpu0_STLB PREFETCH REQUESTED:          0 ISSUED:          0 USEFUL:          0 USELESS:          0
cpu0_STLB AVERAGE MISS LATENCY: 181.9 cycles

DRAM Statistics

Channel 0 RQ ROW_BUFFER_HIT:      14539
  ROW_BUFFER_MISS:      36753
 AVG DBUS CONGESTED CYCLE: 3.726
WQ ROW_BUFFER_HIT: Channel 0 
  ROW_BUFFER_MISS:        125
  FULL:        306
