WARNING: physical memory size is smaller than virtual memory size.

*** ChampSim Multicore Out-of-Order Simulator ***
Warmup Instructions: 50000000
Simulation Instructions: 600000000
Number of CPUs: 1
Page size: 4096

CPU 0 Tage branch predictor
Off-chip DRAM Size: 4 GiB Channels: 1 Width: 64-bit Data Race: 3200 MT/s
Heartbeat CPU 0 instructions: 10000001 cycles: 2500318 heartbeat IPC: 3.999 cumulative IPC: 3.999 (Simulation time: 00 hr 00 min 41 sec)
Heartbeat CPU 0 instructions: 20000002 cycles: 5037108 heartbeat IPC: 3.942 cumulative IPC: 3.971 (Simulation time: 00 hr 01 min 23 sec)
Heartbeat CPU 0 instructions: 30000002 cycles: 7537108 heartbeat IPC: 4 cumulative IPC: 3.98 (Simulation time: 00 hr 02 min 02 sec)
Heartbeat CPU 0 instructions: 40000002 cycles: 10037108 heartbeat IPC: 4 cumulative IPC: 3.985 (Simulation time: 00 hr 02 min 42 sec)
Heartbeat CPU 0 instructions: 50000002 cycles: 12537108 heartbeat IPC: 4 cumulative IPC: 3.988 (Simulation time: 00 hr 03 min 25 sec)
Warmup finished CPU 0 instructions: 50000002 cycles: 12537109 cumulative IPC: 3.988 (Simulation time: 00 hr 03 min 25 sec)
Warmup complete CPU 0 instructions: 50000002 cycles: 12537109 cumulative IPC: 3.988 (Simulation time: 00 hr 03 min 25 sec)
Heartbeat CPU 0 instructions: 60000001 cycles: 15499494 heartbeat IPC: 3.376 cumulative IPC: 3.376 (Simulation time: 00 hr 04 min 12 sec)
Heartbeat CPU 0 instructions: 70000004 cycles: 18556956 heartbeat IPC: 3.271 cumulative IPC: 3.322 (Simulation time: 00 hr 05 min 01 sec)
Heartbeat CPU 0 instructions: 80000001 cycles: 21591679 heartbeat IPC: 3.295 cumulative IPC: 3.313 (Simulation time: 00 hr 05 min 50 sec)
Heartbeat CPU 0 instructions: 90000001 cycles: 24527431 heartbeat IPC: 3.406 cumulative IPC: 3.336 (Simulation time: 00 hr 06 min 43 sec)
Heartbeat CPU 0 instructions: 100000000 cycles: 27429331 heartbeat IPC: 3.446 cumulative IPC: 3.357 (Simulation time: 00 hr 07 min 29 sec)
Heartbeat CPU 0 instructions: 110000000 cycles: 30365004 heartbeat IPC: 3.406 cumulative IPC: 3.366 (Simulation time: 00 hr 08 min 19 sec)
Heartbeat CPU 0 instructions: 120000001 cycles: 33325759 heartbeat IPC: 3.378 cumulative IPC: 3.367 (Simulation time: 00 hr 09 min 09 sec)
Heartbeat CPU 0 instructions: 130000001 cycles: 36167335 heartbeat IPC: 3.519 cumulative IPC: 3.385 (Simulation time: 00 hr 09 min 59 sec)
Heartbeat CPU 0 instructions: 140000001 cycles: 39189293 heartbeat IPC: 3.309 cumulative IPC: 3.377 (Simulation time: 00 hr 10 min 50 sec)
Heartbeat CPU 0 instructions: 150000001 cycles: 42180968 heartbeat IPC: 3.343 cumulative IPC: 3.373 (Simulation time: 00 hr 11 min 41 sec)
Heartbeat CPU 0 instructions: 160000004 cycles: 45166856 heartbeat IPC: 3.349 cumulative IPC: 3.371 (Simulation time: 00 hr 12 min 28 sec)
Heartbeat CPU 0 instructions: 170000000 cycles: 50599883 heartbeat IPC: 1.841 cumulative IPC: 3.153 (Simulation time: 00 hr 13 min 29 sec)
Heartbeat CPU 0 instructions: 180000004 cycles: 55309529 heartbeat IPC: 2.123 cumulative IPC: 3.039 (Simulation time: 00 hr 14 min 27 sec)
Heartbeat CPU 0 instructions: 190000001 cycles: 59744539 heartbeat IPC: 2.255 cumulative IPC: 2.966 (Simulation time: 00 hr 15 min 20 sec)
Heartbeat CPU 0 instructions: 200000004 cycles: 62507326 heartbeat IPC: 3.62 cumulative IPC: 3.002 (Simulation time: 00 hr 16 min 01 sec)
Heartbeat CPU 0 instructions: 210000001 cycles: 65313262 heartbeat IPC: 3.564 cumulative IPC: 3.032 (Simulation time: 00 hr 16 min 43 sec)
Heartbeat CPU 0 instructions: 220000000 cycles: 68113669 heartbeat IPC: 3.571 cumulative IPC: 3.059 (Simulation time: 00 hr 17 min 25 sec)
Heartbeat CPU 0 instructions: 230000002 cycles: 70820263 heartbeat IPC: 3.695 cumulative IPC: 3.088 (Simulation time: 00 hr 18 min 06 sec)
Heartbeat CPU 0 instructions: 240000003 cycles: 73658115 heartbeat IPC: 3.524 cumulative IPC: 3.109 (Simulation time: 00 hr 18 min 47 sec)
Heartbeat CPU 0 instructions: 250000000 cycles: 76449217 heartbeat IPC: 3.583 cumulative IPC: 3.129 (Simulation time: 00 hr 19 min 28 sec)
Heartbeat CPU 0 instructions: 260000002 cycles: 79178277 heartbeat IPC: 3.664 cumulative IPC: 3.151 (Simulation time: 00 hr 20 min 09 sec)
Heartbeat CPU 0 instructions: 270000002 cycles: 81924483 heartbeat IPC: 3.641 cumulative IPC: 3.171 (Simulation time: 00 hr 20 min 49 sec)
Heartbeat CPU 0 instructions: 280000002 cycles: 84630158 heartbeat IPC: 3.696 cumulative IPC: 3.19 (Simulation time: 00 hr 21 min 30 sec)
Heartbeat CPU 0 instructions: 290000002 cycles: 87444541 heartbeat IPC: 3.553 cumulative IPC: 3.204 (Simulation time: 00 hr 22 min 11 sec)
Heartbeat CPU 0 instructions: 300000003 cycles: 90120860 heartbeat IPC: 3.736 cumulative IPC: 3.222 (Simulation time: 00 hr 22 min 52 sec)
Heartbeat CPU 0 instructions: 310000001 cycles: 92898235 heartbeat IPC: 3.601 cumulative IPC: 3.235 (Simulation time: 00 hr 23 min 33 sec)
Heartbeat CPU 0 instructions: 320000003 cycles: 95708903 heartbeat IPC: 3.558 cumulative IPC: 3.246 (Simulation time: 00 hr 24 min 14 sec)
Heartbeat CPU 0 instructions: 330000003 cycles: 98419995 heartbeat IPC: 3.689 cumulative IPC: 3.26 (Simulation time: 00 hr 24 min 55 sec)
Heartbeat CPU 0 instructions: 340000000 cycles: 102771094 heartbeat IPC: 2.298 cumulative IPC: 3.214 (Simulation time: 00 hr 25 min 46 sec)
Heartbeat CPU 0 instructions: 350000000 cycles: 107520338 heartbeat IPC: 2.106 cumulative IPC: 3.158 (Simulation time: 00 hr 26 min 41 sec)
Heartbeat CPU 0 instructions: 360000004 cycles: 112108803 heartbeat IPC: 2.179 cumulative IPC: 3.113 (Simulation time: 00 hr 27 min 34 sec)
Heartbeat CPU 0 instructions: 370000000 cycles: 114920323 heartbeat IPC: 3.557 cumulative IPC: 3.126 (Simulation time: 00 hr 28 min 16 sec)
Heartbeat CPU 0 instructions: 380000003 cycles: 117685177 heartbeat IPC: 3.617 cumulative IPC: 3.138 (Simulation time: 00 hr 28 min 58 sec)
Heartbeat CPU 0 instructions: 390000002 cycles: 120555442 heartbeat IPC: 3.484 cumulative IPC: 3.148 (Simulation time: 00 hr 29 min 39 sec)
Heartbeat CPU 0 instructions: 400000004 cycles: 123393179 heartbeat IPC: 3.524 cumulative IPC: 3.157 (Simulation time: 00 hr 30 min 21 sec)
Heartbeat CPU 0 instructions: 410000002 cycles: 126160435 heartbeat IPC: 3.614 cumulative IPC: 3.168 (Simulation time: 00 hr 31 min 01 sec)
Heartbeat CPU 0 instructions: 420000003 cycles: 129006615 heartbeat IPC: 3.513 cumulative IPC: 3.177 (Simulation time: 00 hr 31 min 42 sec)
Heartbeat CPU 0 instructions: 430000001 cycles: 131880531 heartbeat IPC: 3.48 cumulative IPC: 3.184 (Simulation time: 00 hr 32 min 24 sec)
Heartbeat CPU 0 instructions: 440000004 cycles: 134812664 heartbeat IPC: 3.41 cumulative IPC: 3.19 (Simulation time: 00 hr 33 min 06 sec)
Heartbeat CPU 0 instructions: 450000002 cycles: 137553116 heartbeat IPC: 3.649 cumulative IPC: 3.2 (Simulation time: 00 hr 33 min 47 sec)
Heartbeat CPU 0 instructions: 460000000 cycles: 140325165 heartbeat IPC: 3.607 cumulative IPC: 3.208 (Simulation time: 00 hr 34 min 29 sec)
Heartbeat CPU 0 instructions: 470000001 cycles: 143037216 heartbeat IPC: 3.687 cumulative IPC: 3.218 (Simulation time: 00 hr 35 min 10 sec)
Heartbeat CPU 0 instructions: 480000003 cycles: 145919060 heartbeat IPC: 3.47 cumulative IPC: 3.224 (Simulation time: 00 hr 35 min 52 sec)
Heartbeat CPU 0 instructions: 490000004 cycles: 148634986 heartbeat IPC: 3.682 cumulative IPC: 3.233 (Simulation time: 00 hr 36 min 32 sec)
Heartbeat CPU 0 instructions: 500000004 cycles: 151511126 heartbeat IPC: 3.477 cumulative IPC: 3.238 (Simulation time: 00 hr 37 min 14 sec)
Heartbeat CPU 0 instructions: 510000003 cycles: 154353612 heartbeat IPC: 3.518 cumulative IPC: 3.244 (Simulation time: 00 hr 37 min 56 sec)
Heartbeat CPU 0 instructions: 520000001 cycles: 157049611 heartbeat IPC: 3.709 cumulative IPC: 3.252 (Simulation time: 00 hr 38 min 37 sec)
Heartbeat CPU 0 instructions: 530000001 cycles: 159896844 heartbeat IPC: 3.512 cumulative IPC: 3.257 (Simulation time: 00 hr 39 min 18 sec)
Heartbeat CPU 0 instructions: 540000000 cycles: 162694979 heartbeat IPC: 3.574 cumulative IPC: 3.263 (Simulation time: 00 hr 40 min 00 sec)
Heartbeat CPU 0 instructions: 550000001 cycles: 165545337 heartbeat IPC: 3.508 cumulative IPC: 3.268 (Simulation time: 00 hr 40 min 42 sec)
Heartbeat CPU 0 instructions: 560000000 cycles: 168390985 heartbeat IPC: 3.514 cumulative IPC: 3.272 (Simulation time: 00 hr 41 min 24 sec)
Heartbeat CPU 0 instructions: 570000004 cycles: 171974571 heartbeat IPC: 2.791 cumulative IPC: 3.261 (Simulation time: 00 hr 42 min 11 sec)
Heartbeat CPU 0 instructions: 580000003 cycles: 176671130 heartbeat IPC: 2.129 cumulative IPC: 3.229 (Simulation time: 00 hr 43 min 05 sec)
Heartbeat CPU 0 instructions: 590000002 cycles: 181776323 heartbeat IPC: 1.959 cumulative IPC: 3.191 (Simulation time: 00 hr 44 min 00 sec)
Heartbeat CPU 0 instructions: 600000004 cycles: 184646201 heartbeat IPC: 3.484 cumulative IPC: 3.196 (Simulation time: 00 hr 44 min 41 sec)
Heartbeat CPU 0 instructions: 610000002 cycles: 187474854 heartbeat IPC: 3.535 cumulative IPC: 3.201 (Simulation time: 00 hr 45 min 22 sec)
Heartbeat CPU 0 instructions: 620000001 cycles: 190172357 heartbeat IPC: 3.707 cumulative IPC: 3.209 (Simulation time: 00 hr 46 min 02 sec)
Heartbeat CPU 0 instructions: 630000002 cycles: 193022675 heartbeat IPC: 3.508 cumulative IPC: 3.214 (Simulation time: 00 hr 46 min 44 sec)
Heartbeat CPU 0 instructions: 640000004 cycles: 195922550 heartbeat IPC: 3.448 cumulative IPC: 3.217 (Simulation time: 00 hr 47 min 27 sec)
Heartbeat CPU 0 instructions: 650000000 cycles: 198626056 heartbeat IPC: 3.699 cumulative IPC: 3.224 (Simulation time: 00 hr 48 min 07 sec)
Simulation finished CPU 0 instructions: 600000001 cycles: 186088949 cumulative IPC: 3.224 (Simulation time: 00 hr 48 min 07 sec)
Simulation complete CPU 0 instructions: 600000001 cycles: 186088949 cumulative IPC: 3.224 (Simulation time: 00 hr 48 min 07 sec)

ChampSim completed all CPUs

=== Simulation ===
CPU 0 runs traces/400.perlbench-41B.champsimtrace.xz
Region of Interest Statistics

CPU 0 cumulative IPC: 3.224 instructions: 600000001 cycles: 186088949
CPU 0 Branch Prediction Accuracy: 99.19% MPKI: 1.684 Average ROB Occupancy at Mispredict: 100.4
Branch type MPKI
BRANCH_DIRECT_JUMP: 0.0123
BRANCH_INDIRECT: 0.323
BRANCH_CONDITIONAL: 1.14
BRANCH_DIRECT_CALL: 0.0043
BRANCH_INDIRECT_CALL: 0.2
BRANCH_RETURN: 0.00828

LLC TOTAL        ACCESS:     594234 HIT:     542943 MISS:      51291
LLC LOAD         ACCESS:     403766 HIT:     367775 MISS:      35991
LLC RFO          ACCESS:      32552 HIT:      28373 MISS:       4179
LLC PREFETCH     ACCESS:      53124 HIT:      48615 MISS:       4509
LLC WRITE        ACCESS:      85631 HIT:      85613 MISS:         18
LLC TRANSLATION  ACCESS:      19161 HIT:      12567 MISS:       6594
LLC PREFETCH REQUESTED:      53124 ISSUED:      53124 USEFUL:       2628 USELESS:        273
LLC AVERAGE MISS LATENCY: 563 cycles
cpu0_DTLB TOTAL        ACCESS:  129753874 HIT:  129052663 MISS:     701211
cpu0_DTLB LOAD         ACCESS:  129753874 HIT:  129052663 MISS:     701211
cpu0_DTLB RFO          ACCESS:          0 HIT:          0 MISS:          0
cpu0_DTLB PREFETCH     ACCESS:          0 HIT:          0 MISS:          0
cpu0_DTLB WRITE        ACCESS:          0 HIT:          0 MISS:          0
cpu0_DTLB TRANSLATION  ACCESS:          0 HIT:          0 MISS:          0
cpu0_DTLB PREFETCH REQUESTED:          0 ISSUED:          0 USEFUL:          0 USELESS:          0
cpu0_DTLB AVERAGE MISS LATENCY: 10.19 cycles
cpu0_ITLB TOTAL        ACCESS:    4861030 HIT:    4798924 MISS:      62106
cpu0_ITLB LOAD         ACCESS:    4861030 HIT:    4798924 MISS:      62106
cpu0_ITLB RFO          ACCESS:          0 HIT:          0 MISS:          0
cpu0_ITLB PREFETCH     ACCESS:          0 HIT:          0 MISS:          0
cpu0_ITLB WRITE        ACCESS:          0 HIT:          0 MISS:          0
cpu0_ITLB TRANSLATION  ACCESS:          0 HIT:          0 MISS:          0
cpu0_ITLB PREFETCH REQUESTED:          0 ISSUED:          0 USEFUL:          0 USELESS:          0
cpu0_ITLB AVERAGE MISS LATENCY: 3.898 cycles
cpu0_L1D TOTAL        ACCESS:  174383371 HIT:  172656372 MISS:    1726999
cpu0_L1D LOAD         ACCESS:   91360095 HIT:   90013885 MISS:    1346210
cpu0_L1D RFO          ACCESS:          0 HIT:          0 MISS:          0
cpu0_L1D PREFETCH     ACCESS:          0 HIT:          0 MISS:          0
cpu0_L1D WRITE        ACCESS:   82998811 HIT:   82641424 MISS:     357387
cpu0_L1D TRANSLATION  ACCESS:      24465 HIT:       1063 MISS:      23402
cpu0_L1D PREFETCH REQUESTED:          0 ISSUED:          0 USEFUL:          0 USELESS:          0
cpu0_L1D AVERAGE MISS LATENCY: 22.46 cycles
cpu0_L1I TOTAL        ACCESS:    5641052 HIT:    4837036 MISS:     804016
cpu0_L1I LOAD         ACCESS:    5641052 HIT:    4837036 MISS:     804016
cpu0_L1I RFO          ACCESS:          0 HIT:          0 MISS:          0
cpu0_L1I PREFETCH     ACCESS:          0 HIT:          0 MISS:          0
cpu0_L1I WRITE        ACCESS:          0 HIT:          0 MISS:          0
cpu0_L1I TRANSLATION  ACCESS:          0 HIT:          0 MISS:          0
cpu0_L1I PREFETCH REQUESTED:          0 ISSUED:          0 USEFUL:          0 USELESS:          0
cpu0_L1I AVERAGE MISS LATENCY: 8.086 cycles
cpu0_L2C TOTAL        ACCESS:    1668483 HIT:    1211177 MISS:     457306
cpu0_L2C LOAD         ACCESS:    1315376 HIT:     911610 MISS:     403766
cpu0_L2C RFO          ACCESS:      89516 HIT:      56963 MISS:      32553
cpu0_L2C PREFETCH     ACCESS:          0 HIT:          0 MISS:          0
cpu0_L2C WRITE        ACCESS:     240269 HIT:     238443 MISS:       1826
cpu0_L2C TRANSLATION  ACCESS:      23322 HIT:       4161 MISS:      19161
cpu0_L2C PREFETCH REQUESTED:          0 ISSUED:          0 USEFUL:          0 USELESS:          0
cpu0_L2C AVERAGE MISS LATENCY: 76.79 cycles
cpu0_STLB TOTAL        ACCESS:     507951 HIT:     485163 MISS:      22788
cpu0_STLB LOAD         ACCESS:     507951 HIT:     485163 MISS:      22788
cpu0_STLB RFO          ACCESS:          0 HIT:          0 MISS:          0
cpu0_STLB PREFETCH     ACCESS:          0 HIT:          0 MISS:          0
cpu0_STLB WRITE        ACCESS:          0 HIT:          0 MISS:          0
cpu0_STLB TRANSLATION  ACCESS:          0 HIT:          0 MISS:          0
cpu0_STLB PREFETCH REQUESTED:          0 ISSUED:          0 USEFUL:          0 USELESS:          0
cpu0_STLB AVERAGE MISS LATENCY: 187.2 cycles

DRAM Statistics

Channel 0 RQ ROW_BUFFER_HIT:      13746
  ROW_BUFFER_MISS:      36819
 AVG DBUS CONGESTED CYCLE: 3.781
WQ ROW_BUFFER_HIT: Channel 0 
  ROW_BUFFER_MISS:        486
  FULL:        849
