WARNING: physical memory size is smaller than virtual memory size.

*** ChampSim Multicore Out-of-Order Simulator ***
Warmup Instructions: 50000000
Simulation Instructions: 600000000
Number of CPUs: 1
Page size: 4096

Off-chip DRAM Size: 4 GiB Channels: 1 Width: 64-bit Data Race: 3200 MT/s
Heartbeat CPU 0 instructions: 10000000 cycles: 2500061 heartbeat IPC: 4 cumulative IPC: 4 (Simulation time: 00 hr 03 min 22 sec)
Heartbeat CPU 0 instructions: 20000000 cycles: 5000061 heartbeat IPC: 4 cumulative IPC: 4 (Simulation time: 00 hr 06 min 43 sec)
Heartbeat CPU 0 instructions: 30000000 cycles: 7500061 heartbeat IPC: 4 cumulative IPC: 4 (Simulation time: 00 hr 10 min 16 sec)
Heartbeat CPU 0 instructions: 40000000 cycles: 10000061 heartbeat IPC: 4 cumulative IPC: 4 (Simulation time: 00 hr 13 min 47 sec)
Heartbeat CPU 0 instructions: 50000000 cycles: 12500061 heartbeat IPC: 4 cumulative IPC: 4 (Simulation time: 00 hr 17 min 11 sec)
Warmup finished CPU 0 instructions: 50000000 cycles: 12500062 cumulative IPC: 4 (Simulation time: 00 hr 17 min 11 sec)
Warmup complete CPU 0 instructions: 50000000 cycles: 12500062 cumulative IPC: 4 (Simulation time: 00 hr 17 min 11 sec)
Heartbeat CPU 0 instructions: 60000002 cycles: 16234877 heartbeat IPC: 2.678 cumulative IPC: 2.678 (Simulation time: 00 hr 21 min 40 sec)
Heartbeat CPU 0 instructions: 70000003 cycles: 20384493 heartbeat IPC: 2.41 cumulative IPC: 2.537 (Simulation time: 00 hr 26 min 32 sec)
Heartbeat CPU 0 instructions: 80000003 cycles: 24573354 heartbeat IPC: 2.387 cumulative IPC: 2.485 (Simulation time: 00 hr 31 min 26 sec)
Heartbeat CPU 0 instructions: 90000000 cycles: 27800220 heartbeat IPC: 3.099 cumulative IPC: 2.614 (Simulation time: 00 hr 35 min 38 sec)
Heartbeat CPU 0 instructions: 100000003 cycles: 31798706 heartbeat IPC: 2.501 cumulative IPC: 2.591 (Simulation time: 00 hr 40 min 14 sec)
Heartbeat CPU 0 instructions: 110000002 cycles: 35755549 heartbeat IPC: 2.527 cumulative IPC: 2.58 (Simulation time: 00 hr 45 min 01 sec)
Heartbeat CPU 0 instructions: 120000001 cycles: 39306886 heartbeat IPC: 2.816 cumulative IPC: 2.611 (Simulation time: 00 hr 49 min 25 sec)
Heartbeat CPU 0 instructions: 130000003 cycles: 42948233 heartbeat IPC: 2.746 cumulative IPC: 2.627 (Simulation time: 00 hr 53 min 52 sec)
Heartbeat CPU 0 instructions: 140000002 cycles: 46892221 heartbeat IPC: 2.536 cumulative IPC: 2.617 (Simulation time: 00 hr 58 min 27 sec)
Heartbeat CPU 0 instructions: 150000001 cycles: 50773305 heartbeat IPC: 2.577 cumulative IPC: 2.613 (Simulation time: 01 hr 02 min 58 sec)
Heartbeat CPU 0 instructions: 160000000 cycles: 54405209 heartbeat IPC: 2.753 cumulative IPC: 2.625 (Simulation time: 01 hr 07 min 22 sec)
Heartbeat CPU 0 instructions: 170000001 cycles: 58351423 heartbeat IPC: 2.534 cumulative IPC: 2.617 (Simulation time: 01 hr 12 min 00 sec)
Heartbeat CPU 0 instructions: 180000001 cycles: 61764090 heartbeat IPC: 2.93 cumulative IPC: 2.639 (Simulation time: 01 hr 16 min 21 sec)
Heartbeat CPU 0 instructions: 190000002 cycles: 65224477 heartbeat IPC: 2.89 cumulative IPC: 2.655 (Simulation time: 01 hr 20 min 45 sec)
Heartbeat CPU 0 instructions: 200000002 cycles: 68940576 heartbeat IPC: 2.691 cumulative IPC: 2.658 (Simulation time: 01 hr 25 min 13 sec)
Heartbeat CPU 0 instructions: 210000000 cycles: 72475080 heartbeat IPC: 2.829 cumulative IPC: 2.668 (Simulation time: 01 hr 29 min 36 sec)
Heartbeat CPU 0 instructions: 220000001 cycles: 76167941 heartbeat IPC: 2.708 cumulative IPC: 2.67 (Simulation time: 01 hr 34 min 01 sec)
Heartbeat CPU 0 instructions: 230000002 cycles: 79852925 heartbeat IPC: 2.714 cumulative IPC: 2.672 (Simulation time: 01 hr 38 min 29 sec)
Heartbeat CPU 0 instructions: 240000004 cycles: 83832061 heartbeat IPC: 2.513 cumulative IPC: 2.664 (Simulation time: 01 hr 43 min 07 sec)
Heartbeat CPU 0 instructions: 250000003 cycles: 88129989 heartbeat IPC: 2.327 cumulative IPC: 2.644 (Simulation time: 01 hr 47 min 52 sec)
Heartbeat CPU 0 instructions: 260000001 cycles: 91769124 heartbeat IPC: 2.748 cumulative IPC: 2.649 (Simulation time: 01 hr 52 min 17 sec)
Heartbeat CPU 0 instructions: 270000003 cycles: 98676936 heartbeat IPC: 1.448 cumulative IPC: 2.553 (Simulation time: 01 hr 58 min 45 sec)
Heartbeat CPU 0 instructions: 280000000 cycles: 108777508 heartbeat IPC: 0.99 cumulative IPC: 2.389 (Simulation time: 02 hr 07 min 17 sec)
Heartbeat CPU 0 instructions: 290000000 cycles: 118252778 heartbeat IPC: 1.055 cumulative IPC: 2.269 (Simulation time: 02 hr 15 min 32 sec)
Heartbeat CPU 0 instructions: 300000000 cycles: 126110885 heartbeat IPC: 1.273 cumulative IPC: 2.2 (Simulation time: 02 hr 22 min 54 sec)
Heartbeat CPU 0 instructions: 310000004 cycles: 136734757 heartbeat IPC: 0.9413 cumulative IPC: 2.093 (Simulation time: 02 hr 32 min 01 sec)
Heartbeat CPU 0 instructions: 320000004 cycles: 141983418 heartbeat IPC: 1.905 cumulative IPC: 2.085 (Simulation time: 02 hr 37 min 38 sec)
Heartbeat CPU 0 instructions: 330000000 cycles: 145925641 heartbeat IPC: 2.537 cumulative IPC: 2.099 (Simulation time: 02 hr 42 min 20 sec)
Heartbeat CPU 0 instructions: 340000001 cycles: 149833848 heartbeat IPC: 2.559 cumulative IPC: 2.112 (Simulation time: 02 hr 47 min 00 sec)
Heartbeat CPU 0 instructions: 350000004 cycles: 153873778 heartbeat IPC: 2.475 cumulative IPC: 2.122 (Simulation time: 02 hr 51 min 44 sec)
Heartbeat CPU 0 instructions: 360000003 cycles: 157682759 heartbeat IPC: 2.625 cumulative IPC: 2.135 (Simulation time: 02 hr 56 min 23 sec)
Heartbeat CPU 0 instructions: 370000001 cycles: 161443909 heartbeat IPC: 2.659 cumulative IPC: 2.148 (Simulation time: 03 hr 00 min 56 sec)
Heartbeat CPU 0 instructions: 380000004 cycles: 165079989 heartbeat IPC: 2.75 cumulative IPC: 2.163 (Simulation time: 03 hr 05 min 29 sec)
Heartbeat CPU 0 instructions: 390000002 cycles: 168817206 heartbeat IPC: 2.676 cumulative IPC: 2.175 (Simulation time: 03 hr 10 min 05 sec)
Heartbeat CPU 0 instructions: 400000000 cycles: 172869390 heartbeat IPC: 2.468 cumulative IPC: 2.182 (Simulation time: 03 hr 14 min 50 sec)
Heartbeat CPU 0 instructions: 410000000 cycles: 179180483 heartbeat IPC: 1.585 cumulative IPC: 2.16 (Simulation time: 03 hr 21 min 00 sec)
Heartbeat CPU 0 instructions: 420000001 cycles: 187754662 heartbeat IPC: 1.166 cumulative IPC: 2.111 (Simulation time: 03 hr 28 min 40 sec)
Heartbeat CPU 0 instructions: 430000002 cycles: 195025113 heartbeat IPC: 1.375 cumulative IPC: 2.082 (Simulation time: 03 hr 35 min 45 sec)
Heartbeat CPU 0 instructions: 440000002 cycles: 201772611 heartbeat IPC: 1.482 cumulative IPC: 2.061 (Simulation time: 03 hr 42 min 27 sec)
Heartbeat CPU 0 instructions: 450000001 cycles: 208911414 heartbeat IPC: 1.401 cumulative IPC: 2.037 (Simulation time: 03 hr 49 min 22 sec)
Heartbeat CPU 0 instructions: 460000002 cycles: 217776375 heartbeat IPC: 1.128 cumulative IPC: 1.997 (Simulation time: 03 hr 57 min 20 sec)
Heartbeat CPU 0 instructions: 470000003 cycles: 225341814 heartbeat IPC: 1.322 cumulative IPC: 1.973 (Simulation time: 04 hr 04 min 26 sec)
Heartbeat CPU 0 instructions: 480000003 cycles: 229300538 heartbeat IPC: 2.526 cumulative IPC: 1.983 (Simulation time: 04 hr 09 min 08 sec)
Heartbeat CPU 0 instructions: 490000001 cycles: 233522645 heartbeat IPC: 2.368 cumulative IPC: 1.991 (Simulation time: 04 hr 14 min 00 sec)
Heartbeat CPU 0 instructions: 500000002 cycles: 237552390 heartbeat IPC: 2.482 cumulative IPC: 2 (Simulation time: 04 hr 18 min 46 sec)
Heartbeat CPU 0 instructions: 510000000 cycles: 241615783 heartbeat IPC: 2.461 cumulative IPC: 2.008 (Simulation time: 04 hr 23 min 34 sec)
Heartbeat CPU 0 instructions: 520000000 cycles: 245770556 heartbeat IPC: 2.407 cumulative IPC: 2.015 (Simulation time: 04 hr 28 min 26 sec)
Heartbeat CPU 0 instructions: 530000001 cycles: 254868443 heartbeat IPC: 1.099 cumulative IPC: 1.98 (Simulation time: 04 hr 36 min 22 sec)
Heartbeat CPU 0 instructions: 540000000 cycles: 263649666 heartbeat IPC: 1.139 cumulative IPC: 1.951 (Simulation time: 04 hr 44 min 15 sec)
Heartbeat CPU 0 instructions: 550000002 cycles: 272684289 heartbeat IPC: 1.107 cumulative IPC: 1.922 (Simulation time: 04 hr 52 min 18 sec)
Heartbeat CPU 0 instructions: 560000004 cycles: 276620219 heartbeat IPC: 2.541 cumulative IPC: 1.931 (Simulation time: 04 hr 56 min 58 sec)
Heartbeat CPU 0 instructions: 570000001 cycles: 279714634 heartbeat IPC: 3.232 cumulative IPC: 1.946 (Simulation time: 05 hr 01 min 22 sec)
Heartbeat CPU 0 instructions: 580000003 cycles: 283111984 heartbeat IPC: 2.943 cumulative IPC: 1.959 (Simulation time: 05 hr 05 min 41 sec)
Heartbeat CPU 0 instructions: 590000001 cycles: 286609006 heartbeat IPC: 2.86 cumulative IPC: 1.97 (Simulation time: 05 hr 10 min 02 sec)
Heartbeat CPU 0 instructions: 600000003 cycles: 289548299 heartbeat IPC: 3.402 cumulative IPC: 1.985 (Simulation time: 05 hr 14 min 13 sec)
Heartbeat CPU 0 instructions: 610000001 cycles: 292996496 heartbeat IPC: 2.9 cumulative IPC: 1.996 (Simulation time: 05 hr 18 min 39 sec)
Heartbeat CPU 0 instructions: 620000000 cycles: 296492156 heartbeat IPC: 2.861 cumulative IPC: 2.007 (Simulation time: 05 hr 23 min 12 sec)
Heartbeat CPU 0 instructions: 630000002 cycles: 299655664 heartbeat IPC: 3.161 cumulative IPC: 2.02 (Simulation time: 05 hr 27 min 30 sec)
Heartbeat CPU 0 instructions: 640000004 cycles: 303373222 heartbeat IPC: 2.69 cumulative IPC: 2.028 (Simulation time: 05 hr 32 min 03 sec)
Heartbeat CPU 0 instructions: 650000001 cycles: 306761017 heartbeat IPC: 2.952 cumulative IPC: 2.039 (Simulation time: 05 hr 36 min 24 sec)
Simulation finished CPU 0 instructions: 600000001 cycles: 294260956 cumulative IPC: 2.039 (Simulation time: 05 hr 36 min 24 sec)
Simulation complete CPU 0 instructions: 600000001 cycles: 294260956 cumulative IPC: 2.039 (Simulation time: 05 hr 36 min 24 sec)

ChampSim completed all CPUs

=== Simulation ===
CPU 0 runs traces/400.perlbench-50B.champsimtrace.xz
Region of Interest Statistics

CPU 0 cumulative IPC: 2.039 instructions: 600000001 cycles: 294260956
CPU 0 Branch Prediction Accuracy: 96.09% MPKI: 8.064 Average ROB Occupancy at Mispredict: 39.96
Branch type MPKI
BRANCH_DIRECT_JUMP: 0.0176
BRANCH_INDIRECT: 0.38
BRANCH_CONDITIONAL: 7.21
BRANCH_DIRECT_CALL: 0.0067
BRANCH_INDIRECT_CALL: 0.431
BRANCH_RETURN: 0.0161

LLC TOTAL        ACCESS:    1388605 HIT:    1138001 MISS:     250604
LLC LOAD         ACCESS:     595157 HIT:     483836 MISS:     111321
LLC RFO          ACCESS:      47401 HIT:      36109 MISS:      11292
LLC PREFETCH     ACCESS:     595157 HIT:     476811 MISS:     118346
LLC WRITE        ACCESS:     128802 HIT:     128740 MISS:         62
LLC TRANSLATION  ACCESS:      22088 HIT:      12505 MISS:       9583
LLC PREFETCH REQUESTED:     595157 ISSUED:     595157 USEFUL:      48213 USELESS:      20584
LLC AVERAGE MISS LATENCY: 444.5 cycles
cpu0_DTLB TOTAL        ACCESS:  146301361 HIT:  145007857 MISS:    1293504
cpu0_DTLB LOAD         ACCESS:  146301361 HIT:  145007857 MISS:    1293504
cpu0_DTLB RFO          ACCESS:          0 HIT:          0 MISS:          0
cpu0_DTLB PREFETCH     ACCESS:          0 HIT:          0 MISS:          0
cpu0_DTLB WRITE        ACCESS:          0 HIT:          0 MISS:          0
cpu0_DTLB TRANSLATION  ACCESS:          0 HIT:          0 MISS:          0
cpu0_DTLB PREFETCH REQUESTED:          0 ISSUED:          0 USEFUL:          0 USELESS:          0
cpu0_DTLB AVERAGE MISS LATENCY: 10.29 cycles
cpu0_ITLB TOTAL        ACCESS:    8992340 HIT:    8819969 MISS:     172371
cpu0_ITLB LOAD         ACCESS:    8992340 HIT:    8819969 MISS:     172371
cpu0_ITLB RFO          ACCESS:          0 HIT:          0 MISS:          0
cpu0_ITLB PREFETCH     ACCESS:          0 HIT:          0 MISS:          0
cpu0_ITLB WRITE        ACCESS:          0 HIT:          0 MISS:          0
cpu0_ITLB TRANSLATION  ACCESS:          0 HIT:          0 MISS:          0
cpu0_ITLB PREFETCH REQUESTED:          0 ISSUED:          0 USEFUL:          0 USELESS:          0
cpu0_ITLB AVERAGE MISS LATENCY: 3.427 cycles
cpu0_L1D TOTAL        ACCESS:  193040171 HIT:  189454152 MISS:    3586019
cpu0_L1D LOAD         ACCESS:  107223702 HIT:  104268671 MISS:    2955031
cpu0_L1D RFO          ACCESS:          0 HIT:          0 MISS:          0
cpu0_L1D PREFETCH     ACCESS:          0 HIT:          0 MISS:          0
cpu0_L1D WRITE        ACCESS:   85787942 HIT:   85184051 MISS:     603891
cpu0_L1D TRANSLATION  ACCESS:      28527 HIT:       1430 MISS:      27097
cpu0_L1D PREFETCH REQUESTED:          0 ISSUED:          0 USEFUL:          0 USELESS:          0
cpu0_L1D AVERAGE MISS LATENCY: 24.81 cycles
cpu0_L1I TOTAL        ACCESS:   10426953 HIT:    8712314 MISS:    1714639
cpu0_L1I LOAD         ACCESS:   10426953 HIT:    8712314 MISS:    1714639
cpu0_L1I RFO          ACCESS:          0 HIT:          0 MISS:          0
cpu0_L1I PREFETCH     ACCESS:          0 HIT:          0 MISS:          0
cpu0_L1I WRITE        ACCESS:          0 HIT:          0 MISS:          0
cpu0_L1I TRANSLATION  ACCESS:          0 HIT:          0 MISS:          0
cpu0_L1I PREFETCH REQUESTED:          0 ISSUED:          0 USEFUL:          0 USELESS:          0
cpu0_L1I AVERAGE MISS LATENCY: 9.61 cycles
cpu0_L2C TOTAL        ACCESS:    3833735 HIT:    3165776 MISS:     667959
cpu0_L2C LOAD         ACCESS:    3105499 HIT:    2510342 MISS:     595157
cpu0_L2C RFO          ACCESS:     190690 HIT:     143289 MISS:      47401
cpu0_L2C PREFETCH     ACCESS:          0 HIT:          0 MISS:          0
cpu0_L2C WRITE        ACCESS:     510503 HIT:     507190 MISS:       3313
cpu0_L2C TRANSLATION  ACCESS:      27043 HIT:       4955 MISS:      22088
cpu0_L2C PREFETCH REQUESTED:          0 ISSUED:          0 USEFUL:          0 USELESS:          0
cpu0_L2C AVERAGE MISS LATENCY: 116.3 cycles
cpu0_STLB TOTAL        ACCESS:    1009143 HIT:     982449 MISS:      26694
cpu0_STLB LOAD         ACCESS:    1009143 HIT:     982449 MISS:      26694
cpu0_STLB RFO          ACCESS:          0 HIT:          0 MISS:          0
cpu0_STLB PREFETCH     ACCESS:          0 HIT:          0 MISS:          0
cpu0_STLB WRITE        ACCESS:          0 HIT:          0 MISS:          0
cpu0_STLB TRANSLATION  ACCESS:          0 HIT:          0 MISS:          0
cpu0_STLB PREFETCH REQUESTED:          0 ISSUED:          0 USEFUL:          0 USELESS:          0
cpu0_STLB AVERAGE MISS LATENCY: 269.2 cycles

DRAM Statistics

Channel 0 RQ ROW_BUFFER_HIT:      58518
  ROW_BUFFER_MISS:     155186
 AVG DBUS CONGESTED CYCLE: 3.8
WQ ROW_BUFFER_HIT: Channel 0 
  ROW_BUFFER_MISS:       4201
  FULL:       7589
