WARNING: physical memory size is smaller than virtual memory size.

*** ChampSim Multicore Out-of-Order Simulator ***
Warmup Instructions: 50000000
Simulation Instructions: 600000000
Number of CPUs: 1
Page size: 4096

Off-chip DRAM Size: 4 GiB Channels: 1 Width: 64-bit Data Race: 3200 MT/s
Heartbeat CPU 0 instructions: 10000000 cycles: 2500061 heartbeat IPC: 4 cumulative IPC: 4 (Simulation time: 00 hr 03 min 23 sec)
Heartbeat CPU 0 instructions: 20000000 cycles: 5000061 heartbeat IPC: 4 cumulative IPC: 4 (Simulation time: 00 hr 06 min 48 sec)
Heartbeat CPU 0 instructions: 30000000 cycles: 7500061 heartbeat IPC: 4 cumulative IPC: 4 (Simulation time: 00 hr 10 min 08 sec)
Heartbeat CPU 0 instructions: 40000000 cycles: 10000061 heartbeat IPC: 4 cumulative IPC: 4 (Simulation time: 00 hr 13 min 30 sec)
Heartbeat CPU 0 instructions: 50000000 cycles: 12500061 heartbeat IPC: 4 cumulative IPC: 4 (Simulation time: 00 hr 16 min 55 sec)
Warmup finished CPU 0 instructions: 50000000 cycles: 12500062 cumulative IPC: 4 (Simulation time: 00 hr 16 min 55 sec)
Warmup complete CPU 0 instructions: 50000000 cycles: 12500062 cumulative IPC: 4 (Simulation time: 00 hr 16 min 55 sec)
Heartbeat CPU 0 instructions: 60000002 cycles: 16254581 heartbeat IPC: 2.663 cumulative IPC: 2.663 (Simulation time: 00 hr 21 min 37 sec)
Heartbeat CPU 0 instructions: 70000003 cycles: 20413864 heartbeat IPC: 2.404 cumulative IPC: 2.527 (Simulation time: 00 hr 26 min 18 sec)
Heartbeat CPU 0 instructions: 80000003 cycles: 24604755 heartbeat IPC: 2.386 cumulative IPC: 2.478 (Simulation time: 00 hr 31 min 03 sec)
Heartbeat CPU 0 instructions: 90000000 cycles: 27836569 heartbeat IPC: 3.094 cumulative IPC: 2.608 (Simulation time: 00 hr 35 min 16 sec)
Heartbeat CPU 0 instructions: 100000003 cycles: 31840458 heartbeat IPC: 2.498 cumulative IPC: 2.585 (Simulation time: 00 hr 39 min 55 sec)
Heartbeat CPU 0 instructions: 110000002 cycles: 35811602 heartbeat IPC: 2.518 cumulative IPC: 2.574 (Simulation time: 00 hr 44 min 40 sec)
Heartbeat CPU 0 instructions: 120000001 cycles: 39366100 heartbeat IPC: 2.813 cumulative IPC: 2.606 (Simulation time: 00 hr 49 min 06 sec)
Heartbeat CPU 0 instructions: 130000003 cycles: 43017656 heartbeat IPC: 2.739 cumulative IPC: 2.621 (Simulation time: 00 hr 53 min 34 sec)
Heartbeat CPU 0 instructions: 140000002 cycles: 46968692 heartbeat IPC: 2.531 cumulative IPC: 2.611 (Simulation time: 00 hr 58 min 24 sec)
Heartbeat CPU 0 instructions: 150000001 cycles: 50862376 heartbeat IPC: 2.568 cumulative IPC: 2.607 (Simulation time: 01 hr 02 min 58 sec)
Heartbeat CPU 0 instructions: 160000000 cycles: 54506580 heartbeat IPC: 2.744 cumulative IPC: 2.619 (Simulation time: 01 hr 07 min 25 sec)
Heartbeat CPU 0 instructions: 170000001 cycles: 58468148 heartbeat IPC: 2.524 cumulative IPC: 2.611 (Simulation time: 01 hr 12 min 09 sec)
Heartbeat CPU 0 instructions: 180000001 cycles: 61891720 heartbeat IPC: 2.921 cumulative IPC: 2.632 (Simulation time: 01 hr 16 min 33 sec)
Heartbeat CPU 0 instructions: 190000002 cycles: 65367222 heartbeat IPC: 2.877 cumulative IPC: 2.648 (Simulation time: 01 hr 20 min 59 sec)
Heartbeat CPU 0 instructions: 200000002 cycles: 69096989 heartbeat IPC: 2.681 cumulative IPC: 2.65 (Simulation time: 01 hr 25 min 32 sec)
Heartbeat CPU 0 instructions: 210000000 cycles: 72640395 heartbeat IPC: 2.822 cumulative IPC: 2.66 (Simulation time: 01 hr 29 min 55 sec)
Heartbeat CPU 0 instructions: 220000001 cycles: 76338402 heartbeat IPC: 2.704 cumulative IPC: 2.663 (Simulation time: 01 hr 34 min 24 sec)
Heartbeat CPU 0 instructions: 230000002 cycles: 80034935 heartbeat IPC: 2.705 cumulative IPC: 2.665 (Simulation time: 01 hr 38 min 53 sec)
Heartbeat CPU 0 instructions: 240000004 cycles: 84026280 heartbeat IPC: 2.505 cumulative IPC: 2.656 (Simulation time: 01 hr 43 min 33 sec)
Heartbeat CPU 0 instructions: 250000003 cycles: 88334414 heartbeat IPC: 2.321 cumulative IPC: 2.637 (Simulation time: 01 hr 48 min 18 sec)
Heartbeat CPU 0 instructions: 260000001 cycles: 91980830 heartbeat IPC: 2.742 cumulative IPC: 2.642 (Simulation time: 01 hr 52 min 46 sec)
Heartbeat CPU 0 instructions: 270000003 cycles: 99380908 heartbeat IPC: 1.351 cumulative IPC: 2.532 (Simulation time: 01 hr 59 min 35 sec)
Heartbeat CPU 0 instructions: 280000000 cycles: 110307723 heartbeat IPC: 0.9152 cumulative IPC: 2.352 (Simulation time: 02 hr 08 min 44 sec)
Heartbeat CPU 0 instructions: 290000000 cycles: 120402514 heartbeat IPC: 0.9906 cumulative IPC: 2.224 (Simulation time: 02 hr 17 min 26 sec)
Heartbeat CPU 0 instructions: 300000000 cycles: 128383462 heartbeat IPC: 1.253 cumulative IPC: 2.157 (Simulation time: 02 hr 24 min 57 sec)
Heartbeat CPU 0 instructions: 310000004 cycles: 139279026 heartbeat IPC: 0.9178 cumulative IPC: 2.051 (Simulation time: 02 hr 34 min 13 sec)
Heartbeat CPU 0 instructions: 320000004 cycles: 144575144 heartbeat IPC: 1.888 cumulative IPC: 2.044 (Simulation time: 02 hr 39 min 55 sec)
Heartbeat CPU 0 instructions: 330000000 cycles: 148535770 heartbeat IPC: 2.525 cumulative IPC: 2.058 (Simulation time: 02 hr 44 min 40 sec)
Heartbeat CPU 0 instructions: 340000001 cycles: 152342124 heartbeat IPC: 2.627 cumulative IPC: 2.074 (Simulation time: 02 hr 49 min 18 sec)
Heartbeat CPU 0 instructions: 350000004 cycles: 156265887 heartbeat IPC: 2.549 cumulative IPC: 2.087 (Simulation time: 02 hr 54 min 00 sec)
Heartbeat CPU 0 instructions: 360000003 cycles: 159955981 heartbeat IPC: 2.71 cumulative IPC: 2.102 (Simulation time: 02 hr 58 min 33 sec)
Heartbeat CPU 0 instructions: 370000001 cycles: 163605114 heartbeat IPC: 2.74 cumulative IPC: 2.118 (Simulation time: 03 hr 03 min 06 sec)
Heartbeat CPU 0 instructions: 380000004 cycles: 167138600 heartbeat IPC: 2.83 cumulative IPC: 2.134 (Simulation time: 03 hr 07 min 37 sec)
Heartbeat CPU 0 instructions: 390000002 cycles: 170721356 heartbeat IPC: 2.791 cumulative IPC: 2.149 (Simulation time: 03 hr 12 min 10 sec)
Heartbeat CPU 0 instructions: 400000000 cycles: 174648347 heartbeat IPC: 2.546 cumulative IPC: 2.159 (Simulation time: 03 hr 16 min 29 sec)
Heartbeat CPU 0 instructions: 410000000 cycles: 180675850 heartbeat IPC: 1.659 cumulative IPC: 2.141 (Simulation time: 03 hr 22 min 20 sec)
Heartbeat CPU 0 instructions: 420000001 cycles: 188545428 heartbeat IPC: 1.271 cumulative IPC: 2.102 (Simulation time: 03 hr 29 min 24 sec)
Heartbeat CPU 0 instructions: 430000002 cycles: 195725685 heartbeat IPC: 1.393 cumulative IPC: 2.074 (Simulation time: 03 hr 36 min 27 sec)
Heartbeat CPU 0 instructions: 440000002 cycles: 202418214 heartbeat IPC: 1.494 cumulative IPC: 2.054 (Simulation time: 03 hr 43 min 08 sec)
Heartbeat CPU 0 instructions: 450000001 cycles: 209499726 heartbeat IPC: 1.412 cumulative IPC: 2.03 (Simulation time: 03 hr 50 min 01 sec)
Heartbeat CPU 0 instructions: 460000002 cycles: 217869620 heartbeat IPC: 1.195 cumulative IPC: 1.996 (Simulation time: 03 hr 57 min 45 sec)
Heartbeat CPU 0 instructions: 470000003 cycles: 224603168 heartbeat IPC: 1.485 cumulative IPC: 1.98 (Simulation time: 04 hr 04 min 28 sec)
Heartbeat CPU 0 instructions: 480000003 cycles: 228399485 heartbeat IPC: 2.634 cumulative IPC: 1.992 (Simulation time: 04 hr 09 min 08 sec)
Heartbeat CPU 0 instructions: 490000001 cycles: 232370783 heartbeat IPC: 2.518 cumulative IPC: 2.001 (Simulation time: 04 hr 13 min 54 sec)
Heartbeat CPU 0 instructions: 500000002 cycles: 236171819 heartbeat IPC: 2.631 cumulative IPC: 2.012 (Simulation time: 04 hr 18 min 34 sec)
Heartbeat CPU 0 instructions: 510000000 cycles: 239987852 heartbeat IPC: 2.621 cumulative IPC: 2.022 (Simulation time: 04 hr 23 min 15 sec)
Heartbeat CPU 0 instructions: 520000000 cycles: 243888524 heartbeat IPC: 2.564 cumulative IPC: 2.031 (Simulation time: 04 hr 27 min 56 sec)
Heartbeat CPU 0 instructions: 530000001 cycles: 252205682 heartbeat IPC: 1.202 cumulative IPC: 2.002 (Simulation time: 04 hr 35 min 32 sec)
Heartbeat CPU 0 instructions: 540000000 cycles: 260185634 heartbeat IPC: 1.253 cumulative IPC: 1.978 (Simulation time: 04 hr 43 min 01 sec)
Heartbeat CPU 0 instructions: 550000002 cycles: 268055200 heartbeat IPC: 1.271 cumulative IPC: 1.957 (Simulation time: 04 hr 50 min 25 sec)
Heartbeat CPU 0 instructions: 560000004 cycles: 271904082 heartbeat IPC: 2.598 cumulative IPC: 1.966 (Simulation time: 04 hr 55 min 03 sec)
Heartbeat CPU 0 instructions: 570000001 cycles: 274986867 heartbeat IPC: 3.244 cumulative IPC: 1.981 (Simulation time: 04 hr 59 min 17 sec)
Heartbeat CPU 0 instructions: 580000003 cycles: 278348971 heartbeat IPC: 2.974 cumulative IPC: 1.994 (Simulation time: 05 hr 03 min 42 sec)
Heartbeat CPU 0 instructions: 590000001 cycles: 281806999 heartbeat IPC: 2.892 cumulative IPC: 2.005 (Simulation time: 05 hr 08 min 08 sec)
Heartbeat CPU 0 instructions: 600000003 cycles: 284720277 heartbeat IPC: 3.433 cumulative IPC: 2.02 (Simulation time: 05 hr 12 min 20 sec)
Heartbeat CPU 0 instructions: 610000001 cycles: 288148496 heartbeat IPC: 2.917 cumulative IPC: 2.032 (Simulation time: 05 hr 16 min 47 sec)
Heartbeat CPU 0 instructions: 620000000 cycles: 291628367 heartbeat IPC: 2.874 cumulative IPC: 2.042 (Simulation time: 05 hr 21 min 15 sec)
Heartbeat CPU 0 instructions: 630000002 cycles: 294779550 heartbeat IPC: 3.173 cumulative IPC: 2.055 (Simulation time: 05 hr 25 min 45 sec)
Heartbeat CPU 0 instructions: 640000004 cycles: 298483191 heartbeat IPC: 2.7 cumulative IPC: 2.063 (Simulation time: 05 hr 30 min 21 sec)
Heartbeat CPU 0 instructions: 650000001 cycles: 301865514 heartbeat IPC: 2.957 cumulative IPC: 2.074 (Simulation time: 05 hr 34 min 47 sec)
Simulation finished CPU 0 instructions: 600000001 cycles: 289365453 cumulative IPC: 2.074 (Simulation time: 05 hr 34 min 47 sec)
Simulation complete CPU 0 instructions: 600000001 cycles: 289365453 cumulative IPC: 2.074 (Simulation time: 05 hr 34 min 47 sec)

ChampSim completed all CPUs

=== Simulation ===
CPU 0 runs traces/400.perlbench-50B.champsimtrace.xz
Region of Interest Statistics

CPU 0 cumulative IPC: 2.074 instructions: 600000001 cycles: 289365453
CPU 0 Branch Prediction Accuracy: 96.09% MPKI: 8.064 Average ROB Occupancy at Mispredict: 39.98
Branch type MPKI
BRANCH_DIRECT_JUMP: 0.0176
BRANCH_INDIRECT: 0.38
BRANCH_CONDITIONAL: 7.21
BRANCH_DIRECT_CALL: 0.0067
BRANCH_INDIRECT_CALL: 0.431
BRANCH_RETURN: 0.0161

LLC TOTAL        ACCESS:     844913 HIT:     712829 MISS:     132084
LLC LOAD         ACCESS:     581004 HIT:     480049 MISS:     100955
LLC RFO          ACCESS:      47726 HIT:      37897 MISS:       9829
LLC PREFETCH     ACCESS:      66086 HIT:      53995 MISS:      12091
LLC WRITE        ACCESS:     128017 HIT:     127974 MISS:         43
LLC TRANSLATION  ACCESS:      22080 HIT:      12914 MISS:       9166
LLC PREFETCH REQUESTED:      66086 ISSUED:      66086 USEFUL:       7673 USELESS:        580
LLC AVERAGE MISS LATENCY: 457 cycles
cpu0_DTLB TOTAL        ACCESS:  146298330 HIT:  145004809 MISS:    1293521
cpu0_DTLB LOAD         ACCESS:  146298330 HIT:  145004809 MISS:    1293521
cpu0_DTLB RFO          ACCESS:          0 HIT:          0 MISS:          0
cpu0_DTLB PREFETCH     ACCESS:          0 HIT:          0 MISS:          0
cpu0_DTLB WRITE        ACCESS:          0 HIT:          0 MISS:          0
cpu0_DTLB TRANSLATION  ACCESS:          0 HIT:          0 MISS:          0
cpu0_DTLB PREFETCH REQUESTED:          0 ISSUED:          0 USEFUL:          0 USELESS:          0
cpu0_DTLB AVERAGE MISS LATENCY: 9.871 cycles
cpu0_ITLB TOTAL        ACCESS:    8992687 HIT:    8820265 MISS:     172422
cpu0_ITLB LOAD         ACCESS:    8992687 HIT:    8820265 MISS:     172422
cpu0_ITLB RFO          ACCESS:          0 HIT:          0 MISS:          0
cpu0_ITLB PREFETCH     ACCESS:          0 HIT:          0 MISS:          0
cpu0_ITLB WRITE        ACCESS:          0 HIT:          0 MISS:          0
cpu0_ITLB TRANSLATION  ACCESS:          0 HIT:          0 MISS:          0
cpu0_ITLB PREFETCH REQUESTED:          0 ISSUED:          0 USEFUL:          0 USELESS:          0
cpu0_ITLB AVERAGE MISS LATENCY: 3.321 cycles
cpu0_L1D TOTAL        ACCESS:  193038769 HIT:  189463336 MISS:    3575433
cpu0_L1D LOAD         ACCESS:  107221986 HIT:  104273710 MISS:    2948276
cpu0_L1D RFO          ACCESS:          0 HIT:          0 MISS:          0
cpu0_L1D PREFETCH     ACCESS:          0 HIT:          0 MISS:          0
cpu0_L1D WRITE        ACCESS:   85788251 HIT:   85188195 MISS:     600056
cpu0_L1D TRANSLATION  ACCESS:      28532 HIT:       1431 MISS:      27101
cpu0_L1D PREFETCH REQUESTED:          0 ISSUED:          0 USEFUL:          0 USELESS:          0
cpu0_L1D AVERAGE MISS LATENCY: 22.14 cycles
cpu0_L1I TOTAL        ACCESS:   10427132 HIT:    8712161 MISS:    1714971
cpu0_L1I LOAD         ACCESS:   10427132 HIT:    8712161 MISS:    1714971
cpu0_L1I RFO          ACCESS:          0 HIT:          0 MISS:          0
cpu0_L1I PREFETCH     ACCESS:          0 HIT:          0 MISS:          0
cpu0_L1I WRITE        ACCESS:          0 HIT:          0 MISS:          0
cpu0_L1I TRANSLATION  ACCESS:          0 HIT:          0 MISS:          0
cpu0_L1I PREFETCH REQUESTED:          0 ISSUED:          0 USEFUL:          0 USELESS:          0
cpu0_L1I AVERAGE MISS LATENCY: 9.794 cycles
cpu0_L2C TOTAL        ACCESS:    3833843 HIT:    3179698 MISS:     654145
cpu0_L2C LOAD         ACCESS:    3105519 HIT:    2524515 MISS:     581004
cpu0_L2C RFO          ACCESS:     190697 HIT:     142971 MISS:      47726
cpu0_L2C PREFETCH     ACCESS:          0 HIT:          0 MISS:          0
cpu0_L2C WRITE        ACCESS:     510580 HIT:     507245 MISS:       3335
cpu0_L2C TRANSLATION  ACCESS:      27047 HIT:       4967 MISS:      22080
cpu0_L2C PREFETCH REQUESTED:          0 ISSUED:          0 USEFUL:          0 USELESS:          0
cpu0_L2C AVERAGE MISS LATENCY: 103.8 cycles
cpu0_STLB TOTAL        ACCESS:    1009124 HIT:     982428 MISS:      26696
cpu0_STLB LOAD         ACCESS:    1009124 HIT:     982428 MISS:      26696
cpu0_STLB RFO          ACCESS:          0 HIT:          0 MISS:          0
cpu0_STLB PREFETCH     ACCESS:          0 HIT:          0 MISS:          0
cpu0_STLB WRITE        ACCESS:          0 HIT:          0 MISS:          0
cpu0_STLB TRANSLATION  ACCESS:          0 HIT:          0 MISS:          0
cpu0_STLB PREFETCH REQUESTED:          0 ISSUED:          0 USEFUL:          0 USELESS:          0
cpu0_STLB AVERAGE MISS LATENCY: 248.2 cycles

DRAM Statistics

Channel 0 RQ ROW_BUFFER_HIT:      39633
  ROW_BUFFER_MISS:      90376
 AVG DBUS CONGESTED CYCLE: 3.721
WQ ROW_BUFFER_HIT: Channel 0 
  ROW_BUFFER_MISS:       1544
  FULL:       1988
