WARNING: physical memory size is smaller than virtual memory size.

*** ChampSim Multicore Out-of-Order Simulator ***
Warmup Instructions: 50000000
Simulation Instructions: 600000000
Number of CPUs: 1
Page size: 4096

Initialize SIGNATURE TABLE
ST_SET: 1
ST_WAY: 256
ST_TAG_BIT: 16
ST_TAG_MASK: ffff

Initialize PATTERN TABLE
PT_SET: 512
PT_WAY: 4
SIG_DELTA_BIT: 7
C_SIG_BIT: 4
C_DELTA_BIT: 4

Initialize PREFETCH FILTER
FILTER_SET: 1024
Off-chip DRAM Size: 4 GiB Channels: 1 Width: 64-bit Data Race: 3200 MT/s
Heartbeat CPU 0 instructions: 10000001 cycles: 2500318 heartbeat IPC: 3.999 cumulative IPC: 3.999 (Simulation time: 00 hr 04 min 02 sec)
Heartbeat CPU 0 instructions: 20000002 cycles: 5037128 heartbeat IPC: 3.942 cumulative IPC: 3.971 (Simulation time: 00 hr 08 min 09 sec)
Heartbeat CPU 0 instructions: 30000002 cycles: 7537128 heartbeat IPC: 4 cumulative IPC: 3.98 (Simulation time: 00 hr 11 min 43 sec)
Heartbeat CPU 0 instructions: 40000002 cycles: 10037128 heartbeat IPC: 4 cumulative IPC: 3.985 (Simulation time: 00 hr 15 min 19 sec)
Heartbeat CPU 0 instructions: 50000002 cycles: 12537128 heartbeat IPC: 4 cumulative IPC: 3.988 (Simulation time: 00 hr 18 min 54 sec)
Warmup finished CPU 0 instructions: 50000002 cycles: 12537129 cumulative IPC: 3.988 (Simulation time: 00 hr 18 min 54 sec)
Warmup complete CPU 0 instructions: 50000002 cycles: 12537129 cumulative IPC: 3.988 (Simulation time: 00 hr 18 min 54 sec)
Heartbeat CPU 0 instructions: 60000001 cycles: 15729170 heartbeat IPC: 3.133 cumulative IPC: 3.133 (Simulation time: 00 hr 23 min 18 sec)
Heartbeat CPU 0 instructions: 70000004 cycles: 18934124 heartbeat IPC: 3.12 cumulative IPC: 3.126 (Simulation time: 00 hr 27 min 45 sec)
Heartbeat CPU 0 instructions: 80000001 cycles: 22130955 heartbeat IPC: 3.128 cumulative IPC: 3.127 (Simulation time: 00 hr 32 min 12 sec)
Heartbeat CPU 0 instructions: 90000001 cycles: 25194219 heartbeat IPC: 3.264 cumulative IPC: 3.16 (Simulation time: 00 hr 36 min 37 sec)
Heartbeat CPU 0 instructions: 100000000 cycles: 28242173 heartbeat IPC: 3.281 cumulative IPC: 3.184 (Simulation time: 00 hr 40 min 59 sec)
Heartbeat CPU 0 instructions: 110000000 cycles: 31303002 heartbeat IPC: 3.267 cumulative IPC: 3.197 (Simulation time: 00 hr 45 min 20 sec)
Heartbeat CPU 0 instructions: 120000001 cycles: 34393792 heartbeat IPC: 3.235 cumulative IPC: 3.203 (Simulation time: 00 hr 49 min 44 sec)
Heartbeat CPU 0 instructions: 130000001 cycles: 37339947 heartbeat IPC: 3.394 cumulative IPC: 3.225 (Simulation time: 00 hr 54 min 11 sec)
Heartbeat CPU 0 instructions: 140000001 cycles: 40494800 heartbeat IPC: 3.17 cumulative IPC: 3.219 (Simulation time: 00 hr 58 min 36 sec)
Heartbeat CPU 0 instructions: 150000001 cycles: 43652505 heartbeat IPC: 3.167 cumulative IPC: 3.214 (Simulation time: 01 hr 03 min 03 sec)
Heartbeat CPU 0 instructions: 160000004 cycles: 46836670 heartbeat IPC: 3.141 cumulative IPC: 3.207 (Simulation time: 01 hr 07 min 30 sec)
Heartbeat CPU 0 instructions: 170000000 cycles: 52662832 heartbeat IPC: 1.716 cumulative IPC: 2.991 (Simulation time: 01 hr 13 min 53 sec)
Heartbeat CPU 0 instructions: 180000004 cycles: 57631589 heartbeat IPC: 2.013 cumulative IPC: 2.883 (Simulation time: 01 hr 19 min 51 sec)
Heartbeat CPU 0 instructions: 190000001 cycles: 62018814 heartbeat IPC: 2.279 cumulative IPC: 2.829 (Simulation time: 01 hr 25 min 22 sec)
Heartbeat CPU 0 instructions: 200000004 cycles: 64861839 heartbeat IPC: 3.517 cumulative IPC: 2.867 (Simulation time: 01 hr 29 min 32 sec)
Heartbeat CPU 0 instructions: 210000001 cycles: 67755804 heartbeat IPC: 3.455 cumulative IPC: 2.898 (Simulation time: 01 hr 33 min 50 sec)
Heartbeat CPU 0 instructions: 220000000 cycles: 70637856 heartbeat IPC: 3.47 cumulative IPC: 2.926 (Simulation time: 01 hr 38 min 03 sec)
Heartbeat CPU 0 instructions: 230000004 cycles: 73505033 heartbeat IPC: 3.488 cumulative IPC: 2.952 (Simulation time: 01 hr 42 min 25 sec)
Heartbeat CPU 0 instructions: 240000002 cycles: 76432454 heartbeat IPC: 3.416 cumulative IPC: 2.974 (Simulation time: 01 hr 46 min 44 sec)
Heartbeat CPU 0 instructions: 250000000 cycles: 79314548 heartbeat IPC: 3.47 cumulative IPC: 2.995 (Simulation time: 01 hr 50 min 58 sec)
Heartbeat CPU 0 instructions: 260000002 cycles: 82148404 heartbeat IPC: 3.529 cumulative IPC: 3.017 (Simulation time: 01 hr 55 min 12 sec)
Heartbeat CPU 0 instructions: 270000002 cycles: 84983517 heartbeat IPC: 3.527 cumulative IPC: 3.037 (Simulation time: 01 hr 59 min 23 sec)
Heartbeat CPU 0 instructions: 280000002 cycles: 87785130 heartbeat IPC: 3.569 cumulative IPC: 3.057 (Simulation time: 02 hr 03 min 34 sec)
Heartbeat CPU 0 instructions: 290000002 cycles: 90685183 heartbeat IPC: 3.448 cumulative IPC: 3.071 (Simulation time: 02 hr 07 min 50 sec)
Heartbeat CPU 0 instructions: 300000003 cycles: 93422370 heartbeat IPC: 3.653 cumulative IPC: 3.091 (Simulation time: 02 hr 12 min 05 sec)
Heartbeat CPU 0 instructions: 310000001 cycles: 96284354 heartbeat IPC: 3.494 cumulative IPC: 3.105 (Simulation time: 02 hr 16 min 23 sec)
Heartbeat CPU 0 instructions: 320000003 cycles: 99217248 heartbeat IPC: 3.41 cumulative IPC: 3.115 (Simulation time: 02 hr 20 min 47 sec)
Heartbeat CPU 0 instructions: 330000003 cycles: 102072436 heartbeat IPC: 3.502 cumulative IPC: 3.127 (Simulation time: 02 hr 24 min 58 sec)
Heartbeat CPU 0 instructions: 340000000 cycles: 106654345 heartbeat IPC: 2.182 cumulative IPC: 3.081 (Simulation time: 02 hr 30 min 35 sec)
Heartbeat CPU 0 instructions: 350000000 cycles: 111652396 heartbeat IPC: 2.001 cumulative IPC: 3.027 (Simulation time: 02 hr 36 min 31 sec)
Heartbeat CPU 0 instructions: 360000004 cycles: 116289771 heartbeat IPC: 2.156 cumulative IPC: 2.988 (Simulation time: 02 hr 42 min 11 sec)
Heartbeat CPU 0 instructions: 370000000 cycles: 119136052 heartbeat IPC: 3.513 cumulative IPC: 3.002 (Simulation time: 02 hr 46 min 24 sec)
Heartbeat CPU 0 instructions: 380000001 cycles: 121965027 heartbeat IPC: 3.535 cumulative IPC: 3.016 (Simulation time: 02 hr 50 min 38 sec)
Heartbeat CPU 0 instructions: 390000002 cycles: 124905518 heartbeat IPC: 3.401 cumulative IPC: 3.026 (Simulation time: 02 hr 54 min 57 sec)
Heartbeat CPU 0 instructions: 400000004 cycles: 127796602 heartbeat IPC: 3.459 cumulative IPC: 3.037 (Simulation time: 02 hr 59 min 14 sec)
Heartbeat CPU 0 instructions: 410000001 cycles: 130681044 heartbeat IPC: 3.467 cumulative IPC: 3.047 (Simulation time: 03 hr 03 min 29 sec)
Heartbeat CPU 0 instructions: 420000002 cycles: 133681833 heartbeat IPC: 3.332 cumulative IPC: 3.054 (Simulation time: 03 hr 07 min 48 sec)
Heartbeat CPU 0 instructions: 430000001 cycles: 136592619 heartbeat IPC: 3.435 cumulative IPC: 3.063 (Simulation time: 03 hr 12 min 07 sec)
Heartbeat CPU 0 instructions: 440000004 cycles: 139636733 heartbeat IPC: 3.285 cumulative IPC: 3.068 (Simulation time: 03 hr 16 min 41 sec)
Heartbeat CPU 0 instructions: 450000002 cycles: 142449841 heartbeat IPC: 3.555 cumulative IPC: 3.079 (Simulation time: 03 hr 20 min 54 sec)
Heartbeat CPU 0 instructions: 460000000 cycles: 145320776 heartbeat IPC: 3.483 cumulative IPC: 3.088 (Simulation time: 03 hr 25 min 08 sec)
Heartbeat CPU 0 instructions: 470000001 cycles: 148101710 heartbeat IPC: 3.596 cumulative IPC: 3.098 (Simulation time: 03 hr 29 min 22 sec)
Heartbeat CPU 0 instructions: 480000003 cycles: 151077976 heartbeat IPC: 3.36 cumulative IPC: 3.104 (Simulation time: 03 hr 33 min 38 sec)
Heartbeat CPU 0 instructions: 490000004 cycles: 153865215 heartbeat IPC: 3.588 cumulative IPC: 3.113 (Simulation time: 03 hr 37 min 56 sec)
Heartbeat CPU 0 instructions: 500000004 cycles: 156814867 heartbeat IPC: 3.39 cumulative IPC: 3.119 (Simulation time: 03 hr 42 min 19 sec)
Heartbeat CPU 0 instructions: 510000003 cycles: 159725981 heartbeat IPC: 3.435 cumulative IPC: 3.125 (Simulation time: 03 hr 46 min 38 sec)
Heartbeat CPU 0 instructions: 520000001 cycles: 162514127 heartbeat IPC: 3.587 cumulative IPC: 3.134 (Simulation time: 03 hr 50 min 54 sec)
Heartbeat CPU 0 instructions: 530000001 cycles: 165427437 heartbeat IPC: 3.433 cumulative IPC: 3.14 (Simulation time: 03 hr 55 min 11 sec)
Heartbeat CPU 0 instructions: 540000001 cycles: 168321877 heartbeat IPC: 3.455 cumulative IPC: 3.145 (Simulation time: 03 hr 59 min 30 sec)
Heartbeat CPU 0 instructions: 550000001 cycles: 171288651 heartbeat IPC: 3.371 cumulative IPC: 3.15 (Simulation time: 04 hr 03 min 47 sec)
Heartbeat CPU 0 instructions: 560000004 cycles: 174280676 heartbeat IPC: 3.342 cumulative IPC: 3.153 (Simulation time: 04 hr 08 min 06 sec)
Heartbeat CPU 0 instructions: 570000004 cycles: 178039663 heartbeat IPC: 2.66 cumulative IPC: 3.142 (Simulation time: 04 hr 13 min 01 sec)
Heartbeat CPU 0 instructions: 580000003 cycles: 182738765 heartbeat IPC: 2.128 cumulative IPC: 3.114 (Simulation time: 04 hr 18 min 46 sec)
Heartbeat CPU 0 instructions: 590000002 cycles: 187855901 heartbeat IPC: 1.954 cumulative IPC: 3.08 (Simulation time: 04 hr 24 min 49 sec)
Heartbeat CPU 0 instructions: 600000000 cycles: 190765924 heartbeat IPC: 3.436 cumulative IPC: 3.086 (Simulation time: 04 hr 29 min 04 sec)
Heartbeat CPU 0 instructions: 610000002 cycles: 193656574 heartbeat IPC: 3.459 cumulative IPC: 3.092 (Simulation time: 04 hr 33 min 16 sec)
Heartbeat CPU 0 instructions: 620000001 cycles: 196427733 heartbeat IPC: 3.609 cumulative IPC: 3.1 (Simulation time: 04 hr 37 min 29 sec)
Heartbeat CPU 0 instructions: 630000002 cycles: 199408784 heartbeat IPC: 3.355 cumulative IPC: 3.104 (Simulation time: 04 hr 41 min 47 sec)
Heartbeat CPU 0 instructions: 640000004 cycles: 202363772 heartbeat IPC: 3.384 cumulative IPC: 3.108 (Simulation time: 04 hr 46 min 07 sec)
Heartbeat CPU 0 instructions: 650000000 cycles: 205142373 heartbeat IPC: 3.599 cumulative IPC: 3.115 (Simulation time: 04 hr 50 min 18 sec)
Simulation finished CPU 0 instructions: 600000001 cycles: 192605246 cumulative IPC: 3.115 (Simulation time: 04 hr 50 min 18 sec)
Simulation complete CPU 0 instructions: 600000001 cycles: 192605246 cumulative IPC: 3.115 (Simulation time: 04 hr 50 min 18 sec)

ChampSim completed all CPUs

=== Simulation ===
CPU 0 runs traces/400.perlbench-41B.champsimtrace.xz
Region of Interest Statistics

CPU 0 cumulative IPC: 3.115 instructions: 600000001 cycles: 192605246
CPU 0 Branch Prediction Accuracy: 98.9% MPKI: 2.275 Average ROB Occupancy at Mispredict: 90.06
Branch type MPKI
BRANCH_DIRECT_JUMP: 0.0123
BRANCH_INDIRECT: 0.323
BRANCH_CONDITIONAL: 1.73
BRANCH_DIRECT_CALL: 0.0043
BRANCH_INDIRECT_CALL: 0.2
BRANCH_RETURN: 0.00828

LLC TOTAL        ACCESS:     925668 HIT:     790547 MISS:     135121
LLC LOAD         ACCESS:     403654 HIT:     371065 MISS:      32589
LLC RFO          ACCESS:      32574 HIT:      28551 MISS:       4023
LLC PREFETCH     ACCESS:     384652 HIT:     292801 MISS:      91851
LLC WRITE        ACCESS:      85681 HIT:      85608 MISS:         73
LLC TRANSLATION  ACCESS:      19107 HIT:      12522 MISS:       6585
LLC PREFETCH REQUESTED:     384652 ISSUED:     384652 USEFUL:        552 USELESS:         11
LLC AVERAGE MISS LATENCY: 218.6 cycles
cpu0_DTLB TOTAL        ACCESS:  131065222 HIT:  130366074 MISS:     699148
cpu0_DTLB LOAD         ACCESS:  131065222 HIT:  130366074 MISS:     699148
cpu0_DTLB RFO          ACCESS:          0 HIT:          0 MISS:          0
cpu0_DTLB PREFETCH     ACCESS:          0 HIT:          0 MISS:          0
cpu0_DTLB WRITE        ACCESS:          0 HIT:          0 MISS:          0
cpu0_DTLB TRANSLATION  ACCESS:          0 HIT:          0 MISS:          0
cpu0_DTLB PREFETCH REQUESTED:          0 ISSUED:          0 USEFUL:          0 USELESS:          0
cpu0_DTLB AVERAGE MISS LATENCY: 11.86 cycles
cpu0_ITLB TOTAL        ACCESS:    4849292 HIT:    4788460 MISS:      60832
cpu0_ITLB LOAD         ACCESS:    4849292 HIT:    4788460 MISS:      60832
cpu0_ITLB RFO          ACCESS:          0 HIT:          0 MISS:          0
cpu0_ITLB PREFETCH     ACCESS:          0 HIT:          0 MISS:          0
cpu0_ITLB WRITE        ACCESS:          0 HIT:          0 MISS:          0
cpu0_ITLB TRANSLATION  ACCESS:          0 HIT:          0 MISS:          0
cpu0_ITLB PREFETCH REQUESTED:          0 ISSUED:          0 USEFUL:          0 USELESS:          0
cpu0_ITLB AVERAGE MISS LATENCY: 4.587 cycles
cpu0_L1D TOTAL        ACCESS:  176746583 HIT:  175026684 MISS:    1719899
cpu0_L1D LOAD         ACCESS:   93669958 HIT:   92327691 MISS:    1342267
cpu0_L1D RFO          ACCESS:          0 HIT:          0 MISS:          0
cpu0_L1D PREFETCH     ACCESS:          0 HIT:          0 MISS:          0
cpu0_L1D WRITE        ACCESS:   83052157 HIT:   82697925 MISS:     354232
cpu0_L1D TRANSLATION  ACCESS:      24468 HIT:       1068 MISS:      23400
cpu0_L1D PREFETCH REQUESTED:          0 ISSUED:          0 USEFUL:          0 USELESS:          0
cpu0_L1D AVERAGE MISS LATENCY: 24.23 cycles
cpu0_L1I TOTAL        ACCESS:    5627169 HIT:    4828394 MISS:     798775
cpu0_L1I LOAD         ACCESS:    5627169 HIT:    4828394 MISS:     798775
cpu0_L1I RFO          ACCESS:          0 HIT:          0 MISS:          0
cpu0_L1I PREFETCH     ACCESS:          0 HIT:          0 MISS:          0
cpu0_L1I WRITE        ACCESS:          0 HIT:          0 MISS:          0
cpu0_L1I TRANSLATION  ACCESS:          0 HIT:          0 MISS:          0
cpu0_L1I PREFETCH REQUESTED:          0 ISSUED:          0 USEFUL:          0 USELESS:          0
cpu0_L1I AVERAGE MISS LATENCY: 8.092 cycles
cpu0_L2C TOTAL        ACCESS:    1668400 HIT:    1211272 MISS:     457128
cpu0_L2C LOAD         ACCESS:    1315437 HIT:     911783 MISS:     403654
cpu0_L2C RFO          ACCESS:      89454 HIT:      56880 MISS:      32574
cpu0_L2C PREFETCH     ACCESS:          0 HIT:          0 MISS:          0
cpu0_L2C WRITE        ACCESS:     240191 HIT:     238398 MISS:       1793
cpu0_L2C TRANSLATION  ACCESS:      23318 HIT:       4211 MISS:      19107
cpu0_L2C PREFETCH REQUESTED:          0 ISSUED:          0 USEFUL:          0 USELESS:          0
cpu0_L2C AVERAGE MISS LATENCY: 83.71 cycles
cpu0_STLB TOTAL        ACCESS:     507455 HIT:     484669 MISS:      22786
cpu0_STLB LOAD         ACCESS:     507455 HIT:     484669 MISS:      22786
cpu0_STLB RFO          ACCESS:          0 HIT:          0 MISS:          0
cpu0_STLB PREFETCH     ACCESS:          0 HIT:          0 MISS:          0
cpu0_STLB WRITE        ACCESS:          0 HIT:          0 MISS:          0
cpu0_STLB TRANSLATION  ACCESS:          0 HIT:          0 MISS:          0
cpu0_STLB PREFETCH REQUESTED:          0 ISSUED:          0 USEFUL:          0 USELESS:          0
cpu0_STLB AVERAGE MISS LATENCY: 240.5 cycles

DRAM Statistics

Channel 0 RQ ROW_BUFFER_HIT:      20808
  ROW_BUFFER_MISS:      92324
 AVG DBUS CONGESTED CYCLE: 3.898
WQ ROW_BUFFER_HIT: Channel 0 
  ROW_BUFFER_MISS:        296
  FULL:        353
